MODEL 1
REMARK minimizedAffinity -2.11408114
REMARK minimizedRMSD -1
REMARK  0 active torsions:
REMARK  status: ('A' for Active; 'I' for Inactive)
ROOT
ATOM      1  C   UNL d   1       1.305  -1.245  -0.677  0.00  0.00     0.124 A 
ATOM      2  C1  UNL d   1       1.926  -0.993   0.538  0.00  0.00     0.062 A 
ATOM      3  C2  UNL d   1       1.351  -0.112   1.450  0.00  0.00     0.162 A 
ATOM      4  C3  UNL d   1       0.147   0.524   1.150  0.00  0.00    -0.034 A 
ATOM      5  C4  UNL d   1      -0.472   0.267  -0.075  0.00  0.00     0.162 A 
ATOM      6  C5  UNL d   1       0.106  -0.615  -0.982  0.00  0.00     0.062 A 
ATOM      7  F   UNL d   1      -0.496  -0.856  -2.156  0.00  0.00    -0.097 F 
ATOM      8  F1  UNL d   1      -1.631   0.861  -0.396  0.00  0.00    -0.096 F 
ATOM      9  I   UNL d   1      -0.716   1.842   2.509  0.00  0.00    -0.060 I 
ATOM     10  F2  UNL d   1       1.974   0.112   2.616  0.00  0.00    -0.096 F 
ATOM     11  F3  UNL d   1       3.085  -1.600   0.835  0.00  0.00    -0.097 F 
ATOM     12  F4  UNL d   1       1.861  -2.092  -1.552  0.00  0.00    -0.092 F 
ENDROOT
TORSDOF 0
ENDMDL
