MODEL 1
REMARK minimizedAffinity -0.712692678
REMARK minimizedRMSD -1
REMARK  0 active torsions:
REMARK  status: ('A' for Active; 'I' for Inactive)
ROOT
ATOM      1  C   UNL d   1       0.372   1.184   1.169  0.00  0.00     0.124 A 
ATOM      2  C1  UNL d   1      -0.781   1.082   1.935  0.00  0.00     0.062 A 
ATOM      3  C2  UNL d   1      -1.859   0.327   1.482  0.00  0.00     0.162 A 
ATOM      4  C3  UNL d   1      -1.789  -0.334   0.256  0.00  0.00    -0.034 A 
ATOM      5  C4  UNL d   1      -0.626  -0.227  -0.510  0.00  0.00     0.162 A 
ATOM      6  C5  UNL d   1       0.448   0.529  -0.053  0.00  0.00     0.062 A 
ATOM      7  F   UNL d   1       1.561   0.626  -0.794  0.00  0.00    -0.097 F 
ATOM      8  F1  UNL d   1      -0.525  -0.850  -1.693  0.00  0.00    -0.096 F 
ATOM      9  I   UNL d   1      -3.398  -1.465  -0.425  0.00  0.00    -0.060 I 
ATOM     10  F2  UNL d   1      -2.960   0.246   2.244  0.00  0.00    -0.096 F 
ATOM     11  F3  UNL d   1      -0.857   1.714   3.115  0.00  0.00    -0.097 F 
ATOM     12  F4  UNL d   1       1.407   1.912   1.607  0.00  0.00    -0.092 F 
ENDROOT
TORSDOF 0
ENDMDL
