MODEL 1
REMARK minimizedAffinity 2.25617313
REMARK minimizedRMSD -1
REMARK  0 active torsions:
REMARK  status: ('A' for Active; 'I' for Inactive)
ROOT
ATOM      1  C   UNL d   1      -0.685   0.437   3.019  0.00  0.00     0.124 A 
ATOM      2  C1  UNL d   1       0.573   0.766   2.534  0.00  0.00     0.062 A 
ATOM      3  C2  UNL d   1       0.756   1.021   1.178  0.00  0.00     0.162 A 
ATOM      4  C3  UNL d   1      -0.323   0.949   0.297  0.00  0.00    -0.034 A 
ATOM      5  C4  UNL d   1      -1.585   0.616   0.792  0.00  0.00     0.162 A 
ATOM      6  C5  UNL d   1      -1.762   0.362   2.148  0.00  0.00     0.062 A 
ATOM      7  F   UNL d   1      -2.979   0.044   2.615  0.00  0.00    -0.097 F 
ATOM      8  F1  UNL d   1      -2.644   0.538  -0.027  0.00  0.00    -0.096 F 
ATOM      9  I   UNL d   1      -0.054   1.329  -1.732  0.00  0.00    -0.060 I 
ATOM     10  F2  UNL d   1       1.983   1.336   0.737  0.00  0.00    -0.096 F 
ATOM     11  F3  UNL d   1       1.616   0.838   3.374  0.00  0.00    -0.097 F 
ATOM     12  F4  UNL d   1      -0.857   0.191   4.324  0.00  0.00    -0.092 F 
ENDROOT
TORSDOF 0
ENDMDL
