MODEL 1
REMARK minimizedAffinity 0.616986573
REMARK minimizedRMSD -1
REMARK  0 active torsions:
REMARK  status: ('A' for Active; 'I' for Inactive)
ROOT
ATOM      1  C   UNL d   1      -1.242   0.001   1.609  0.00  0.00     0.124 A 
ATOM      2  C1  UNL d   1      -0.227   0.947   1.571  0.00  0.00     0.062 A 
ATOM      3  C2  UNL d   1       0.472   1.177   0.389  0.00  0.00     0.162 A 
ATOM      4  C3  UNL d   1       0.158   0.459  -0.765  0.00  0.00    -0.034 A 
ATOM      5  C4  UNL d   1      -0.863  -0.492  -0.719  0.00  0.00     0.162 A 
ATOM      6  C5  UNL d   1      -1.559  -0.717   0.465  0.00  0.00     0.062 A 
ATOM      7  F   UNL d   1      -2.539  -1.632   0.499  0.00  0.00    -0.097 F 
ATOM      8  F1  UNL d   1      -1.191  -1.199  -1.810  0.00  0.00    -0.096 F 
ATOM      9  I   UNL d   1       1.201   0.799  -2.534  0.00  0.00    -0.060 I 
ATOM     10  F2  UNL d   1       1.448   2.097   0.382  0.00  0.00    -0.096 F 
ATOM     11  F3  UNL d   1       0.082   1.642   2.675  0.00  0.00    -0.097 F 
ATOM     12  F4  UNL d   1      -1.912  -0.219   2.747  0.00  0.00    -0.092 F 
ENDROOT
TORSDOF 0
ENDMDL
