MODEL 1
REMARK minimizedAffinity 16.0072365
REMARK minimizedRMSD -1
REMARK  0 active torsions:
REMARK  status: ('A' for Active; 'I' for Inactive)
ROOT
ATOM      1  C   UNL d   1       0.525  -0.397  -4.245  0.00  0.00     0.124 A 
ATOM      2  C1  UNL d   1       0.042  -1.395  -3.409  0.00  0.00     0.062 A 
ATOM      3  C2  UNL d   1       0.651  -1.635  -2.181  0.00  0.00     0.162 A 
ATOM      4  C3  UNL d   1       1.750  -0.875  -1.781  0.00  0.00    -0.034 A 
ATOM      5  C4  UNL d   1       2.231   0.126  -2.627  0.00  0.00     0.162 A 
ATOM      6  C5  UNL d   1       1.618   0.362  -3.853  0.00  0.00     0.062 A 
ATOM      7  F   UNL d   1       2.086   1.326  -4.659  0.00  0.00    -0.097 F 
ATOM      8  F1  UNL d   1       3.286   0.875  -2.273  0.00  0.00    -0.096 F 
ATOM      9  I   UNL d   1       2.665  -1.232   0.055  0.00  0.00    -0.060 I 
ATOM     10  F2  UNL d   1       0.164  -2.606  -1.394  0.00  0.00    -0.096 F 
ATOM     11  F3  UNL d   1      -1.014  -2.130  -3.786  0.00  0.00    -0.097 F 
ATOM     12  F4  UNL d   1      -0.063  -0.169  -5.427  0.00  0.00    -0.092 F 
ENDROOT
TORSDOF 0
ENDMDL
