MODEL 1
REMARK minimizedAffinity 13.9042597
REMARK minimizedRMSD -1
REMARK  0 active torsions:
REMARK  status: ('A' for Active; 'I' for Inactive)
ROOT
ATOM      1  C   UNL d   1      -1.351   0.389   3.979  0.00  0.00     0.124 A 
ATOM      2  C1  UNL d   1      -1.139   1.263   2.921  0.00  0.00     0.062 A 
ATOM      3  C2  UNL d   1      -1.710   1.008   1.677  0.00  0.00     0.162 A 
ATOM      4  C3  UNL d   1      -2.501  -0.125   1.485  0.00  0.00    -0.034 A 
ATOM      5  C4  UNL d   1      -2.709  -0.999   2.553  0.00  0.00     0.162 A 
ATOM      6  C5  UNL d   1      -2.136  -0.740   3.794  0.00  0.00     0.062 A 
ATOM      7  F   UNL d   1      -2.343  -1.585   4.815  0.00  0.00    -0.097 F 
ATOM      8  F1  UNL d   1      -3.464  -2.097   2.403  0.00  0.00    -0.096 F 
ATOM      9  I   UNL d   1      -3.357  -0.509  -0.373  0.00  0.00    -0.060 I 
ATOM     10  F2  UNL d   1      -1.487   1.869   0.673  0.00  0.00    -0.096 F 
ATOM     11  F3  UNL d   1      -0.380   2.354   3.097  0.00  0.00    -0.097 F 
ATOM     12  F4  UNL d   1      -0.799   0.636   5.174  0.00  0.00    -0.092 F 
ENDROOT
TORSDOF 0
ENDMDL
