MODEL 1
REMARK minimizedAffinity 12.0522919
REMARK minimizedRMSD -1
REMARK  0 active torsions:
REMARK  status: ('A' for Active; 'I' for Inactive)
ROOT
ATOM      1  C   UNL d   1       4.428   0.264  -3.445  0.00  0.00     0.124 A 
ATOM      2  C1  UNL d   1       4.045  -0.948  -4.002  0.00  0.00     0.062 A 
ATOM      3  C2  UNL d   1       2.726  -1.153  -4.394  0.00  0.00     0.162 A 
ATOM      4  C3  UNL d   1       1.779  -0.141  -4.232  0.00  0.00    -0.034 A 
ATOM      5  C4  UNL d   1       2.171   1.075  -3.671  0.00  0.00     0.162 A 
ATOM      6  C5  UNL d   1       3.491   1.274  -3.281  0.00  0.00     0.062 A 
ATOM      7  F   UNL d   1       3.860   2.447  -2.743  0.00  0.00    -0.097 F 
ATOM      8  F1  UNL d   1       1.287   2.069  -3.501  0.00  0.00    -0.096 F 
ATOM      9  I   UNL d   1      -0.196  -0.443  -4.818  0.00  0.00    -0.060 I 
ATOM     10  F2  UNL d   1       2.384  -2.334  -4.929  0.00  0.00    -0.096 F 
ATOM     11  F3  UNL d   1       4.948  -1.926  -4.161  0.00  0.00    -0.097 F 
ATOM     12  F4  UNL d   1       5.699   0.458  -3.068  0.00  0.00    -0.092 F 
ENDROOT
TORSDOF 0
ENDMDL
