MODEL 1
REMARK minimizedAffinity -3.82331514
REMARK minimizedRMSD -1
REMARK  1 active torsions:
REMARK  status: ('A' for Active; 'I' for Inactive)
REMARK    1  A    between atoms: C1_2  and  C2_3 
ROOT
ATOM      1  C2  UNL d   1       4.068   0.995  -4.274  0.00  0.00    -0.081 A 
ATOM      2  C3  UNL d   1       4.218  -0.393  -4.389  0.00  0.00     0.006 A 
ATOM      3  C4  UNL d   1       3.177  -1.250  -4.022  0.00  0.00     0.002 A 
ATOM      4  C5  UNL d   1       1.969  -0.734  -3.542  0.00  0.00    -0.080 A 
ATOM      5  C6  UNL d   1       0.833  -1.642  -3.173  0.00  0.00     0.076 C 
ATOM      6  C7  UNL d   1       1.826   0.651  -3.410  0.00  0.00     0.002 A 
ATOM      7  C8  UNL d   1       2.866   1.509  -3.776  0.00  0.00     0.006 A 
ENDROOT
BRANCH   1   8
ATOM      8  C1  UNL d   1       5.164   1.924  -4.729  0.00  0.00     0.054 C 
ATOM      9  C   UNL d   1       4.749   2.704  -5.969  0.00  0.00     0.018 C 
ENDBRANCH   1   8
TORSDOF 1
ENDMDL
