MODEL 1
REMARK minimizedAffinity -3.09480929
REMARK minimizedRMSD -1
REMARK  1 active torsions:
REMARK  status: ('A' for Active; 'I' for Inactive)
REMARK    1  A    between atoms: C1_2  and  C2_3 
ROOT
ATOM      1  C2  UNL d   1       0.751   0.277  -1.244  0.00  0.00    -0.081 A 
ATOM      2  C3  UNL d   1       1.920  -0.024  -0.534  0.00  0.00     0.006 A 
ATOM      3  C4  UNL d   1       1.882  -0.203   0.850  0.00  0.00     0.002 A 
ATOM      4  C5  UNL d   1       0.674  -0.093   1.547  0.00  0.00    -0.080 A 
ATOM      5  C6  UNL d   1       0.614  -0.313   3.030  0.00  0.00     0.076 C 
ATOM      6  C7  UNL d   1      -0.491   0.225   0.841  0.00  0.00     0.002 A 
ATOM      7  C8  UNL d   1      -0.453   0.405  -0.544  0.00  0.00     0.006 A 
ENDROOT
BRANCH   1   8
ATOM      8  C1  UNL d   1       0.778   0.407  -2.745  0.00  0.00     0.054 C 
ATOM      9  C   UNL d   1       1.019  -0.940  -3.413  0.00  0.00     0.018 C 
ENDBRANCH   1   8
TORSDOF 1
ENDMDL
