MODEL 1
REMARK minimizedAffinity -4.49735641
REMARK minimizedRMSD -1
REMARK  1 active torsions:
REMARK  status: ('A' for Active; 'I' for Inactive)
REMARK    1  A    between atoms: C1_2  and  C2_3 
ROOT
ATOM      1  C2  UNL d   1      -0.455   0.295  -0.069  0.00  0.00    -0.081 A 
ATOM      2  C3  UNL d   1      -1.825   0.201   0.208  0.00  0.00     0.006 A 
ATOM      3  C4  UNL d   1      -2.269  -0.032   1.511  0.00  0.00     0.002 A 
ATOM      4  C5  UNL d   1      -1.353  -0.166   2.560  0.00  0.00    -0.080 A 
ATOM      5  C6  UNL d   1      -1.818  -0.386   3.969  0.00  0.00     0.076 C 
ATOM      6  C7  UNL d   1       0.016  -0.090   2.281  0.00  0.00     0.002 A 
ATOM      7  C8  UNL d   1       0.461   0.142   0.977  0.00  0.00     0.006 A 
ENDROOT
BRANCH   1   8
ATOM      8  C1  UNL d   1       0.025   0.610  -1.463  0.00  0.00     0.054 C 
ATOM      9  C   UNL d   1       0.388  -0.657  -2.223  0.00  0.00     0.018 C 
ENDBRANCH   1   8
TORSDOF 1
ENDMDL
