MODEL 1
REMARK minimizedAffinity -4.25011969
REMARK minimizedRMSD -1
REMARK  1 active torsions:
REMARK  status: ('A' for Active; 'I' for Inactive)
REMARK    1  A    between atoms: C1_2  and  C2_3 
ROOT
ATOM      1  C2  UNL d   1       4.147   1.868  -4.930  0.00  0.00    -0.081 A 
ATOM      2  C3  UNL d   1       3.247   1.970  -3.862  0.00  0.00     0.006 A 
ATOM      3  C4  UNL d   1       2.603   0.833  -3.367  0.00  0.00     0.002 A 
ATOM      4  C5  UNL d   1       2.855  -0.425  -3.926  0.00  0.00    -0.080 A 
ATOM      5  C6  UNL d   1       2.194  -1.657  -3.384  0.00  0.00     0.076 C 
ATOM      6  C7  UNL d   1       3.741  -0.524  -5.004  0.00  0.00     0.002 A 
ATOM      7  C8  UNL d   1       4.384   0.612  -5.500  0.00  0.00     0.006 A 
ENDROOT
BRANCH   1   8
ATOM      8  C1  UNL d   1       4.892   3.082  -5.423  0.00  0.00     0.054 C 
ATOM      9  C   UNL d   1       3.938   4.119  -5.999  0.00  0.00     0.018 C 
ENDBRANCH   1   8
TORSDOF 1
ENDMDL
