MODEL 1
REMARK minimizedAffinity -2.92336535
REMARK minimizedRMSD -1
REMARK  1 active torsions:
REMARK  status: ('A' for Active; 'I' for Inactive)
REMARK    1  A    between atoms: C1_2  and  C2_3 
ROOT
ATOM      1  C2  UNL d   1       0.285   0.004  -1.253  0.00  0.00    -0.081 A 
ATOM      2  C3  UNL d   1       1.225   0.389  -0.290  0.00  0.00     0.006 A 
ATOM      3  C4  UNL d   1       0.881   0.419   1.064  0.00  0.00     0.002 A 
ATOM      4  C5  UNL d   1      -0.406   0.057   1.477  0.00  0.00    -0.080 A 
ATOM      5  C6  UNL d   1      -0.780   0.055   2.929  0.00  0.00     0.076 C 
ATOM      6  C7  UNL d   1      -1.350  -0.312   0.513  0.00  0.00     0.002 A 
ATOM      7  C8  UNL d   1      -1.007  -0.341  -0.841  0.00  0.00     0.006 A 
ENDROOT
BRANCH   1   8
ATOM      8  C1  UNL d   1       0.673  -0.091  -2.707  0.00  0.00     0.054 C 
ATOM      9  C   UNL d   1       0.450  -1.496  -3.248  0.00  0.00     0.018 C 
ENDBRANCH   1   8
TORSDOF 1
ENDMDL
