MODEL 1
REMARK minimizedAffinity -2.79391336
REMARK minimizedRMSD -1
REMARK  1 active torsions:
REMARK  status: ('A' for Active; 'I' for Inactive)
REMARK    1  A    between atoms: C1_2  and  C2_3 
ROOT
ATOM      1  C2  UNL d   1       0.217   0.474  -1.119  0.00  0.00    -0.081 A 
ATOM      2  C3  UNL d   1       1.306   0.667  -0.261  0.00  0.00     0.006 A 
ATOM      3  C4  UNL d   1       1.187   0.400   1.105  0.00  0.00     0.002 A 
ATOM      4  C5  UNL d   1      -0.019  -0.073   1.634  0.00  0.00    -0.080 A 
ATOM      5  C6  UNL d   1      -0.151  -0.393   3.093  0.00  0.00     0.076 C 
ATOM      6  C7  UNL d   1      -1.112  -0.250   0.779  0.00  0.00     0.002 A 
ATOM      7  C8  UNL d   1      -0.994   0.018  -0.587  0.00  0.00     0.006 A 
ENDROOT
BRANCH   1   8
ATOM      8  C1  UNL d   1       0.362   0.700  -2.603  0.00  0.00     0.054 C 
ATOM      9  C   UNL d   1       0.734  -0.588  -3.325  0.00  0.00     0.018 C 
ENDBRANCH   1   8
TORSDOF 1
ENDMDL
