MODEL 1
REMARK minimizedAffinity -4.23536634
REMARK minimizedRMSD -1
REMARK  1 active torsions:
REMARK  status: ('A' for Active; 'I' for Inactive)
REMARK    1  A    between atoms: C1_2  and  C2_3 
ROOT
ATOM      1  C2  UNL d   1       0.620   0.487  -1.124  0.00  0.00    -0.081 A 
ATOM      2  C3  UNL d   1       1.322   0.524   0.087  0.00  0.00     0.006 A 
ATOM      3  C4  UNL d   1       0.638   0.459   1.304  0.00  0.00     0.002 A 
ATOM      4  C5  UNL d   1      -0.756   0.346   1.330  0.00  0.00    -0.080 A 
ATOM      5  C6  UNL d   1      -1.499   0.244   2.628  0.00  0.00     0.076 C 
ATOM      6  C7  UNL d   1      -1.458   0.327   0.120  0.00  0.00     0.002 A 
ATOM      7  C8  UNL d   1      -0.776   0.393  -1.097  0.00  0.00     0.006 A 
ENDROOT
BRANCH   1   8
ATOM      8  C1  UNL d   1       1.359   0.493  -2.438  0.00  0.00     0.054 C 
ATOM      9  C   UNL d   1       1.111  -0.791  -3.217  0.00  0.00     0.018 C 
ENDBRANCH   1   8
TORSDOF 1
ENDMDL
