MODEL 1
REMARK minimizedAffinity -4.9878149
REMARK minimizedRMSD -1
REMARK  1 active torsions:
REMARK  status: ('A' for Active; 'I' for Inactive)
REMARK    1  A    between atoms: C1_2  and  C2_3 
ROOT
ATOM      1  C2  UNL d   1      -1.458   0.130   2.326  0.00  0.00    -0.081 A 
ATOM      2  C3  UNL d   1      -0.913   0.274   1.044  0.00  0.00     0.006 A 
ATOM      3  C4  UNL d   1       0.389  -0.157   0.776  0.00  0.00     0.002 A 
ATOM      4  C5  UNL d   1       1.163  -0.745   1.782  0.00  0.00    -0.080 A 
ATOM      5  C6  UNL d   1       2.551  -1.239   1.500  0.00  0.00     0.076 C 
ATOM      6  C7  UNL d   1       0.624  -0.873   3.067  0.00  0.00     0.002 A 
ATOM      7  C8  UNL d   1      -0.677  -0.442   3.336  0.00  0.00     0.006 A 
ENDROOT
BRANCH   1   8
ATOM      8  C1  UNL d   1      -2.884   0.534   2.602  0.00  0.00     0.054 C 
ATOM      9  C   UNL d   1      -3.690   0.632   1.314  0.00  0.00     0.018 C 
ENDBRANCH   1   8
TORSDOF 1
ENDMDL
