MODEL 1
REMARK minimizedAffinity -4.32867002
REMARK minimizedRMSD -1
REMARK  1 active torsions:
REMARK  status: ('A' for Active; 'I' for Inactive)
REMARK    1  A    between atoms: C1_2  and  C2_3 
ROOT
ATOM      1  C2  UNL d   1       0.484  -0.276  -1.243  0.00  0.00    -0.081 A 
ATOM      2  C3  UNL d   1       1.487   0.097  -0.340  0.00  0.00     0.006 A 
ATOM      3  C4  UNL d   1       1.208   0.202   1.025  0.00  0.00     0.002 A 
ATOM      4  C5  UNL d   1      -0.076  -0.071   1.509  0.00  0.00    -0.080 A 
ATOM      5  C6  UNL d   1      -0.381   0.008   2.976  0.00  0.00     0.076 C 
ATOM      6  C7  UNL d   1      -1.082  -0.427   0.605  0.00  0.00     0.002 A 
ATOM      7  C8  UNL d   1      -0.804  -0.531  -0.760  0.00  0.00     0.006 A 
ENDROOT
BRANCH   1   8
ATOM      8  C1  UNL d   1       0.798  -0.453  -2.707  0.00  0.00     0.054 C 
ATOM      9  C   UNL d   1       1.942  -1.436  -2.913  0.00  0.00     0.018 C 
ENDBRANCH   1   8
TORSDOF 1
ENDMDL
