MODEL 1
REMARK minimizedAffinity -3.86640286
REMARK minimizedRMSD -1
REMARK  1 active torsions:
REMARK  status: ('A' for Active; 'I' for Inactive)
REMARK    1  A    between atoms: C1_2  and  C2_3 
ROOT
ATOM      1  C2  UNL d   1       0.307   0.328  -0.966  0.00  0.00    -0.081 A 
ATOM      2  C3  UNL d   1       1.314   0.283   0.006  0.00  0.00     0.006 A 
ATOM      3  C4  UNL d   1       0.998   0.029   1.343  0.00  0.00     0.002 A 
ATOM      4  C5  UNL d   1      -0.329  -0.191   1.728  0.00  0.00    -0.080 A 
ATOM      5  C6  UNL d   1      -0.678  -0.494   3.155  0.00  0.00     0.076 C 
ATOM      6  C7  UNL d   1      -1.337  -0.128   0.761  0.00  0.00     0.002 A 
ATOM      7  C8  UNL d   1      -1.021   0.126  -0.576  0.00  0.00     0.006 A 
ENDROOT
BRANCH   1   8
ATOM      8  C1  UNL d   1       0.652   0.537  -2.418  0.00  0.00     0.054 C 
ATOM      9  C   UNL d   1       1.019  -0.776  -3.094  0.00  0.00     0.018 C 
ENDBRANCH   1   8
TORSDOF 1
ENDMDL
