MODEL 1
REMARK minimizedAffinity -3.49188972
REMARK minimizedRMSD -1
REMARK  1 active torsions:
REMARK  status: ('A' for Active; 'I' for Inactive)
REMARK    1  A    between atoms: C1_2  and  C2_3 
ROOT
ATOM      1  C2  UNL d   1       0.276  -0.101  -0.774  0.00  0.00    -0.081 A 
ATOM      2  C3  UNL d   1      -0.974  -0.669  -0.499  0.00  0.00     0.006 A 
ATOM      3  C4  UNL d   1      -1.452  -0.727   0.813  0.00  0.00     0.002 A 
ATOM      4  C5  UNL d   1      -0.692  -0.212   1.869  0.00  0.00    -0.080 A 
ATOM      5  C6  UNL d   1      -1.207  -0.240   3.277  0.00  0.00     0.076 C 
ATOM      6  C7  UNL d   1       0.564   0.340   1.596  0.00  0.00     0.002 A 
ATOM      7  C8  UNL d   1       1.043   0.398   0.285  0.00  0.00     0.006 A 
ENDROOT
BRANCH   1   8
ATOM      8  C1  UNL d   1       0.766   0.022  -2.194  0.00  0.00     0.054 C 
ATOM      9  C   UNL d   1       0.374  -1.194  -3.022  0.00  0.00     0.018 C 
ENDBRANCH   1   8
TORSDOF 1
ENDMDL
