MODEL 1
REMARK minimizedAffinity -3.78140903
REMARK minimizedRMSD -1
REMARK  1 active torsions:
REMARK  status: ('A' for Active; 'I' for Inactive)
REMARK    1  A    between atoms: C1_2  and  C2_3 
ROOT
ATOM      1  C2  UNL d   1       0.345   0.055  -0.777  0.00  0.00    -0.081 A 
ATOM      2  C3  UNL d   1       1.243   0.208   0.286  0.00  0.00     0.006 A 
ATOM      3  C4  UNL d   1       0.802   0.102   1.607  0.00  0.00     0.002 A 
ATOM      4  C5  UNL d   1      -0.543  -0.166   1.887  0.00  0.00    -0.080 A 
ATOM      5  C6  UNL d   1      -1.024  -0.312   3.300  0.00  0.00     0.076 C 
ATOM      6  C7  UNL d   1      -1.444  -0.301   0.825  0.00  0.00     0.002 A 
ATOM      7  C8  UNL d   1      -1.003  -0.194  -0.496  0.00  0.00     0.006 A 
ENDROOT
BRANCH   1   8
ATOM      8  C1  UNL d   1       0.830   0.104  -2.203  0.00  0.00     0.054 C 
ATOM      9  C   UNL d   1       0.869  -1.285  -2.823  0.00  0.00     0.018 C 
ENDBRANCH   1   8
TORSDOF 1
ENDMDL
