MODEL 1
REMARK minimizedAffinity 2.67901897
REMARK minimizedRMSD -1
REMARK  0 active torsions:
REMARK  status: ('A' for Active; 'I' for Inactive)
ROOT
ATOM      1  C1  BNZ d   1       3.260  -5.995   1.200  0.00  0.00     0.000 A 
ATOM      2  C2  BNZ d   1       3.613  -5.999  -0.123  0.00  0.00     0.000 A 
ATOM      3  C3  BNZ d   1       2.659  -5.978  -1.102  0.00  0.00     0.000 A 
ATOM      4  C4  BNZ d   1       1.355  -5.994  -0.758  0.00  0.00     0.000 A 
ATOM      5  C5  BNZ d   1       0.983  -6.000   0.572  0.00  0.00     0.000 A 
ATOM      6  C6  BNZ d   1       1.946  -5.982   1.555  0.00  0.00     0.000 A 
ENDROOT
TORSDOF 0
ENDMDL
