MODEL 1
REMARK minimizedAffinity 1.57801461
REMARK minimizedRMSD -1
REMARK  0 active torsions:
REMARK  status: ('A' for Active; 'I' for Inactive)
ROOT
ATOM      1  C1  BNZ d   1       1.869   1.346   2.597  0.00  0.00     0.000 A 
ATOM      2  C2  BNZ d   1       1.502   0.141   3.135  0.00  0.00     0.000 A 
ATOM      3  C3  BNZ d   1       2.130  -1.013   2.758  0.00  0.00     0.000 A 
ATOM      4  C4  BNZ d   1       3.094  -0.967   1.817  0.00  0.00     0.000 A 
ATOM      5  C5  BNZ d   1       3.468   0.239   1.258  0.00  0.00     0.000 A 
ATOM      6  C6  BNZ d   1       2.861   1.404   1.668  0.00  0.00     0.000 A 
ENDROOT
TORSDOF 0
ENDMDL
