MODEL 1
REMARK minimizedAffinity -2.54735994
REMARK minimizedRMSD -1
REMARK  0 active torsions:
REMARK  status: ('A' for Active; 'I' for Inactive)
ROOT
ATOM      1  C1  BNZ d   1       5.292  -0.029  -5.770  0.00  0.00     0.000 A 
ATOM      2  C2  BNZ d   1       5.661  -1.328  -5.999  0.00  0.00     0.000 A 
ATOM      3  C3  BNZ d   1       5.588  -2.262  -5.003  0.00  0.00     0.000 A 
ATOM      4  C4  BNZ d   1       5.185  -1.888  -3.772  0.00  0.00     0.000 A 
ATOM      5  C5  BNZ d   1       4.819  -0.580  -3.523  0.00  0.00     0.000 A 
ATOM      6  C6  BNZ d   1       4.856   0.348  -4.538  0.00  0.00     0.000 A 
ENDROOT
TORSDOF 0
ENDMDL
