MODEL 1
REMARK minimizedAffinity -5.41385078
REMARK minimizedRMSD -1
REMARK  0 active torsions:
REMARK  status: ('A' for Active; 'I' for Inactive)
ROOT
ATOM      1  C   UNL d   1       0.298  -0.970  -0.892  0.00  0.00     0.077 C 
ATOM      2  C1  UNL d   1      -0.286   0.100  -0.018  0.00  0.00    -0.074 A 
ATOM      3  C2  UNL d   1      -0.758  -0.197   1.264  0.00  0.00    -0.005 A 
ATOM      4  C3  UNL d   1      -1.290   0.811   2.069  0.00  0.00     0.006 A 
ATOM      5  C4  UNL d   1      -1.355   2.124   1.600  0.00  0.00    -0.005 A 
ATOM      6  C5  UNL d   1      -0.886   2.440   0.321  0.00  0.00    -0.074 A 
ATOM      7  C6  UNL d   1      -0.939   3.847  -0.194  0.00  0.00     0.077 C 
ATOM      8  C7  UNL d   1      -0.347   1.423  -0.479  0.00  0.00    -0.001 A 
ENDROOT
TORSDOF 0
ENDMDL
