MODEL 1
REMARK minimizedAffinity -3.78469992
REMARK minimizedRMSD -1
REMARK  0 active torsions:
REMARK  status: ('A' for Active; 'I' for Inactive)
ROOT
ATOM      1  C   UNL d   1      -1.817   1.871   1.100  0.00  0.00     0.077 C 
ATOM      2  C1  UNL d   1      -0.781   1.399   0.124  0.00  0.00    -0.074 A 
ATOM      3  C2  UNL d   1      -0.200   2.283  -0.791  0.00  0.00    -0.005 A 
ATOM      4  C3  UNL d   1       0.770   1.831  -1.686  0.00  0.00     0.006 A 
ATOM      5  C4  UNL d   1       1.168   0.494  -1.675  0.00  0.00    -0.005 A 
ATOM      6  C5  UNL d   1       0.599  -0.404  -0.766  0.00  0.00    -0.074 A 
ATOM      7  C6  UNL d   1       1.023  -1.842  -0.735  0.00  0.00     0.077 C 
ATOM      8  C7  UNL d   1      -0.369   0.059   0.135  0.00  0.00    -0.001 A 
ENDROOT
TORSDOF 0
ENDMDL
