MODEL 1
REMARK minimizedAffinity -5.35570574
REMARK minimizedRMSD -1
REMARK  0 active torsions:
REMARK  status: ('A' for Active; 'I' for Inactive)
ROOT
ATOM      1  C   UNL d   1      -2.377   2.022   0.982  0.00  0.00     0.077 C 
ATOM      2  C1  UNL d   1      -1.325   0.962   0.846  0.00  0.00    -0.074 A 
ATOM      3  C2  UNL d   1      -0.631   0.490   1.965  0.00  0.00    -0.005 A 
ATOM      4  C3  UNL d   1       0.338  -0.503   1.823  0.00  0.00     0.006 A 
ATOM      5  C4  UNL d   1       0.622  -1.034   0.565  0.00  0.00    -0.005 A 
ATOM      6  C5  UNL d   1      -0.063  -0.576  -0.565  0.00  0.00    -0.074 A 
ATOM      7  C6  UNL d   1       0.223  -1.142  -1.924  0.00  0.00     0.077 C 
ATOM      8  C7  UNL d   1      -1.040   0.418  -0.414  0.00  0.00    -0.001 A 
ENDROOT
TORSDOF 0
ENDMDL
