MODEL 1
REMARK minimizedAffinity -3.81397319
REMARK minimizedRMSD -1
REMARK  0 active torsions:
REMARK  status: ('A' for Active; 'I' for Inactive)
ROOT
ATOM      1  C   UNL d   1      -1.465   1.878   2.454  0.00  0.00     0.077 C 
ATOM      2  C1  UNL d   1      -0.690   1.172   1.382  0.00  0.00    -0.074 A 
ATOM      3  C2  UNL d   1      -0.442  -0.202   1.461  0.00  0.00    -0.005 A 
ATOM      4  C3  UNL d   1       0.271  -0.848   0.452  0.00  0.00     0.006 A 
ATOM      5  C4  UNL d   1       0.744  -0.127  -0.646  0.00  0.00    -0.005 A 
ATOM      6  C5  UNL d   1       0.505   1.248  -0.743  0.00  0.00    -0.074 A 
ATOM      7  C6  UNL d   1       0.997   2.036  -1.920  0.00  0.00     0.077 C 
ATOM      8  C7  UNL d   1      -0.219   1.888   0.273  0.00  0.00    -0.001 A 
ENDROOT
TORSDOF 0
ENDMDL
