MODEL 1
REMARK minimizedAffinity -4.20549965
REMARK minimizedRMSD -1
REMARK  0 active torsions:
REMARK  status: ('A' for Active; 'I' for Inactive)
ROOT
ATOM      1  C   UNL d   1       1.481  -1.969  -5.509  0.00  0.00     0.077 C 
ATOM      2  C1  UNL d   1       1.053  -2.355  -4.125  0.00  0.00    -0.074 A 
ATOM      3  C2  UNL d   1      -0.002  -3.250  -3.922  0.00  0.00    -0.005 A 
ATOM      4  C3  UNL d   1      -0.383  -3.606  -2.628  0.00  0.00     0.006 A 
ATOM      5  C4  UNL d   1       0.287  -3.072  -1.526  0.00  0.00    -0.005 A 
ATOM      6  C5  UNL d   1       1.345  -2.177  -1.710  0.00  0.00    -0.074 A 
ATOM      7  C6  UNL d   1       2.081  -1.601  -0.537  0.00  0.00     0.077 C 
ATOM      8  C7  UNL d   1       1.726  -1.829  -3.013  0.00  0.00    -0.001 A 
ENDROOT
TORSDOF 0
ENDMDL
