MODEL 1
REMARK minimizedAffinity -4.96447182
REMARK minimizedRMSD -1
REMARK  0 active torsions:
REMARK  status: ('A' for Active; 'I' for Inactive)
ROOT
ATOM      1  C   UNL d   1      -2.314   2.870   1.031  0.00  0.00     0.077 C 
ATOM      2  C1  UNL d   1      -1.444   1.661   1.207  0.00  0.00    -0.074 A 
ATOM      3  C2  UNL d   1      -1.090   1.210   2.483  0.00  0.00    -0.005 A 
ATOM      4  C3  UNL d   1      -0.289   0.079   2.632  0.00  0.00     0.006 A 
ATOM      5  C4  UNL d   1       0.166  -0.613   1.508  0.00  0.00    -0.005 A 
ATOM      6  C5  UNL d   1      -0.178  -0.177   0.225  0.00  0.00    -0.074 A 
ATOM      7  C6  UNL d   1       0.295  -0.914  -0.993  0.00  0.00     0.077 C 
ATOM      8  C7  UNL d   1      -0.990   0.957   0.083  0.00  0.00    -0.001 A 
ENDROOT
TORSDOF 0
ENDMDL
