MODEL 1
REMARK minimizedAffinity -3.67088318
REMARK minimizedRMSD -1
REMARK  0 active torsions:
REMARK  status: ('A' for Active; 'I' for Inactive)
ROOT
ATOM      1  C   UNL d   1       0.092   2.820  -1.681  0.00  0.00     0.077 C 
ATOM      2  C1  UNL d   1       0.054   1.576  -0.845  0.00  0.00    -0.074 A 
ATOM      3  C2  UNL d   1      -0.718   1.514   0.319  0.00  0.00    -0.005 A 
ATOM      4  C3  UNL d   1      -0.751   0.346   1.081  0.00  0.00     0.006 A 
ATOM      5  C4  UNL d   1      -0.013  -0.770   0.687  0.00  0.00    -0.005 A 
ATOM      6  C5  UNL d   1       0.765  -0.728  -0.475  0.00  0.00    -0.074 A 
ATOM      7  C6  UNL d   1       1.556  -1.923  -0.918  0.00  0.00     0.077 C 
ATOM      8  C7  UNL d   1       0.787   0.447  -1.239  0.00  0.00    -0.001 A 
ENDROOT
TORSDOF 0
ENDMDL
