MODEL 1
REMARK minimizedAffinity -5.29190826
REMARK minimizedRMSD -1
REMARK  0 active torsions:
REMARK  status: ('A' for Active; 'I' for Inactive)
ROOT
ATOM      1  C   UNL d   1      -2.036   2.133   1.472  0.00  0.00     0.077 C 
ATOM      2  C1  UNL d   1      -1.138   0.959   1.217  0.00  0.00    -0.074 A 
ATOM      3  C2  UNL d   1      -1.215  -0.191   2.010  0.00  0.00    -0.005 A 
ATOM      4  C3  UNL d   1      -0.380  -1.278   1.755  0.00  0.00     0.006 A 
ATOM      5  C4  UNL d   1       0.539  -1.228   0.706  0.00  0.00    -0.005 A 
ATOM      6  C5  UNL d   1       0.630  -0.087  -0.098  0.00  0.00    -0.074 A 
ATOM      7  C6  UNL d   1       1.606  -0.020  -1.235  0.00  0.00     0.077 C 
ATOM      8  C7  UNL d   1      -0.217   0.999   0.160  0.00  0.00    -0.001 A 
ENDROOT
TORSDOF 0
ENDMDL
