MODEL 1
REMARK minimizedAffinity -2.8505795
REMARK minimizedRMSD -1
REMARK  0 active torsions:
REMARK  status: ('A' for Active; 'I' for Inactive)
ROOT
ATOM      1  C   UNL d   1      -2.522   1.955   1.169  0.00  0.00     0.077 C 
ATOM      2  C1  UNL d   1      -1.363   1.109   0.734  0.00  0.00    -0.074 A 
ATOM      3  C2  UNL d   1      -0.835   1.222  -0.556  0.00  0.00    -0.005 A 
ATOM      4  C3  UNL d   1       0.250   0.435  -0.944  0.00  0.00     0.006 A 
ATOM      5  C4  UNL d   1       0.816  -0.472  -0.047  0.00  0.00    -0.005 A 
ATOM      6  C5  UNL d   1       0.301  -0.598   1.248  0.00  0.00    -0.074 A 
ATOM      7  C6  UNL d   1       0.904  -1.561   2.227  0.00  0.00     0.077 C 
ATOM      8  C7  UNL d   1      -0.784   0.201   1.632  0.00  0.00    -0.001 A 
ENDROOT
TORSDOF 0
ENDMDL
