MODEL 1
REMARK minimizedAffinity -5.24985933
REMARK minimizedRMSD -1
REMARK  0 active torsions:
REMARK  status: ('A' for Active; 'I' for Inactive)
ROOT
ATOM      1  C   UNL d   1      -2.229   1.846   1.184  0.00  0.00     0.077 C 
ATOM      2  C1  UNL d   1      -0.999   1.149   0.684  0.00  0.00    -0.074 A 
ATOM      3  C2  UNL d   1      -0.553  -0.036   1.278  0.00  0.00    -0.005 A 
ATOM      4  C3  UNL d   1       0.587  -0.679   0.796  0.00  0.00     0.006 A 
ATOM      5  C4  UNL d   1       1.292  -0.144  -0.283  0.00  0.00    -0.005 A 
ATOM      6  C5  UNL d   1       0.860   1.040  -0.890  0.00  0.00    -0.074 A 
ATOM      7  C6  UNL d   1       1.600   1.623  -2.057  0.00  0.00     0.077 C 
ATOM      8  C7  UNL d   1      -0.290   1.676  -0.405  0.00  0.00    -0.001 A 
ENDROOT
TORSDOF 0
ENDMDL
