MODEL 1
REMARK minimizedAffinity -5.18650484
REMARK minimizedRMSD -1
REMARK  0 active torsions:
REMARK  status: ('A' for Active; 'I' for Inactive)
ROOT
ATOM      1  C   UNL d   1      -2.334   2.760   0.986  0.00  0.00     0.077 C 
ATOM      2  C1  UNL d   1      -1.343   1.635   0.954  0.00  0.00    -0.074 A 
ATOM      3  C2  UNL d   1      -1.381   0.617   1.912  0.00  0.00    -0.005 A 
ATOM      4  C3  UNL d   1      -0.459  -0.429   1.864  0.00  0.00     0.006 A 
ATOM      5  C4  UNL d   1       0.509  -0.466   0.859  0.00  0.00    -0.005 A 
ATOM      6  C5  UNL d   1       0.562   0.543  -0.108  0.00  0.00    -0.074 A 
ATOM      7  C6  UNL d   1       1.589   0.513  -1.200  0.00  0.00     0.077 C 
ATOM      8  C7  UNL d   1      -0.373   1.586  -0.057  0.00  0.00    -0.001 A 
ENDROOT
TORSDOF 0
ENDMDL
