MODEL 1
REMARK minimizedAffinity -4.00736618
REMARK minimizedRMSD -1
REMARK  0 active torsions:
REMARK  status: ('A' for Active; 'I' for Inactive)
ROOT
ATOM      1  C   UNL d   1      -2.334   2.550   1.119  0.00  0.00     0.077 C 
ATOM      2  C1  UNL d   1      -1.337   1.591   0.538  0.00  0.00    -0.074 A 
ATOM      3  C2  UNL d   1      -0.726   1.848  -0.693  0.00  0.00    -0.005 A 
ATOM      4  C3  UNL d   1       0.207   0.952  -1.216  0.00  0.00     0.006 A 
ATOM      5  C4  UNL d   1       0.536  -0.208  -0.514  0.00  0.00    -0.005 A 
ATOM      6  C5  UNL d   1      -0.065  -0.482   0.718  0.00  0.00    -0.074 A 
ATOM      7  C6  UNL d   1       0.285  -1.719   1.490  0.00  0.00     0.077 C 
ATOM      8  C7  UNL d   1      -0.996   0.427   1.241  0.00  0.00    -0.001 A 
ENDROOT
TORSDOF 0
ENDMDL
