MODEL 1
REMARK minimizedAffinity 0.41365993
REMARK minimizedRMSD -1
REMARK  0 active torsions:
REMARK  status: ('A' for Active; 'I' for Inactive)
ROOT
ATOM      1  C   UNL d   1       1.849  -1.425   2.399  0.00  0.00    -0.002 A 
ATOM      2  C1  UNL d   1       0.824  -2.313   2.106  0.00  0.00     0.010 A 
ATOM      3  C2  UNL d   1      -0.164  -1.976   1.178  0.00  0.00     0.041 A 
ATOM      4  C3  UNL d   1      -0.102  -0.720   0.543  0.00  0.00    -0.075 A 
ATOM      5  S   UNL d   1      -1.201  -0.092  -0.628  0.00  0.00     0.015 SA
ATOM      6  C4  UNL d   1      -0.334   1.370  -0.766  0.00  0.00     0.022 A 
ATOM      7  C5  UNL d   1       0.769   1.395   0.053  0.00  0.00     0.026 A 
ATOM      8  C6  UNL d   1       0.921   0.191   0.821  0.00  0.00    -0.082 A 
ATOM      9  C7  UNL d   1       1.907  -0.180   1.767  0.00  0.00     0.045 A 
ENDROOT
TORSDOF 0
ENDMDL
