MODEL 1
REMARK minimizedAffinity -3.46628881
REMARK minimizedRMSD -1
REMARK  0 active torsions:
REMARK  status: ('A' for Active; 'I' for Inactive)
ROOT
ATOM      1  C   UNL d   1       2.854   0.258   1.059  0.00  0.00    -0.002 A 
ATOM      2  C1  UNL d   1       2.544  -1.087   0.912  0.00  0.00     0.010 A 
ATOM      3  C2  UNL d   1       1.290  -1.480   0.442  0.00  0.00     0.041 A 
ATOM      4  C3  UNL d   1       0.343  -0.489   0.118  0.00  0.00    -0.075 A 
ATOM      5  S   UNL d   1      -1.257  -0.735  -0.476  0.00  0.00     0.015 SA
ATOM      6  C4  UNL d   1      -1.567   0.939  -0.551  0.00  0.00     0.022 A 
ATOM      7  C5  UNL d   1      -0.488   1.682  -0.136  0.00  0.00     0.026 A 
ATOM      8  C6  UNL d   1       0.631   0.872   0.256  0.00  0.00    -0.082 A 
ATOM      9  C7  UNL d   1       1.912   1.238   0.735  0.00  0.00     0.045 A 
ENDROOT
TORSDOF 0
ENDMDL
