MODEL 1
REMARK minimizedAffinity -3.088624
REMARK minimizedRMSD -1
REMARK  0 active torsions:
REMARK  status: ('A' for Active; 'I' for Inactive)
ROOT
ATOM      1  C   UNL d   1       3.185   0.504   1.159  0.00  0.00    -0.002 A 
ATOM      2  C1  UNL d   1       2.278   1.541   1.322  0.00  0.00     0.010 A 
ATOM      3  C2  UNL d   1       0.915   1.335   1.097  0.00  0.00     0.041 A 
ATOM      4  C3  UNL d   1       0.475   0.056   0.704  0.00  0.00    -0.075 A 
ATOM      5  S   UNL d   1      -1.146  -0.430   0.374  0.00  0.00     0.015 SA
ATOM      6  C4  UNL d   1      -0.673  -2.026   0.010  0.00  0.00     0.022 A 
ATOM      7  C5  UNL d   1       0.685  -2.202   0.132  0.00  0.00     0.026 A 
ATOM      8  C6  UNL d   1       1.369  -1.005   0.535  0.00  0.00    -0.082 A 
ATOM      9  C7  UNL d   1       2.744  -0.764   0.769  0.00  0.00     0.045 A 
ENDROOT
TORSDOF 0
ENDMDL
