MODEL 1
REMARK minimizedAffinity -5.0902791
REMARK minimizedRMSD -1
REMARK  0 active torsions:
REMARK  status: ('A' for Active; 'I' for Inactive)
ROOT
ATOM      1  C   UNL d   1       3.620  -0.502   1.274  0.00  0.00    -0.002 A 
ATOM      2  C1  UNL d   1       3.182  -1.608   1.989  0.00  0.00     0.010 A 
ATOM      3  C2  UNL d   1       1.827  -1.944   2.018  0.00  0.00     0.041 A 
ATOM      4  C3  UNL d   1       0.911  -1.143   1.308  0.00  0.00    -0.075 A 
ATOM      5  S   UNL d   1      -0.796  -1.363   1.199  0.00  0.00     0.015 SA
ATOM      6  C4  UNL d   1      -0.983   0.006   0.201  0.00  0.00     0.022 A 
ATOM      7  C5  UNL d   1       0.216   0.627  -0.053  0.00  0.00     0.026 A 
ATOM      8  C6  UNL d   1       1.328  -0.025   0.580  0.00  0.00    -0.082 A 
ATOM      9  C7  UNL d   1       2.708   0.290   0.571  0.00  0.00     0.045 A 
ENDROOT
TORSDOF 0
ENDMDL
