MODEL 1
REMARK minimizedAffinity -0.553629041
REMARK minimizedRMSD -1
REMARK  0 active torsions:
REMARK  status: ('A' for Active; 'I' for Inactive)
ROOT
ATOM      1  C   UNL d   1       2.459   1.433   0.413  0.00  0.00    -0.002 A 
ATOM      2  C1  UNL d   1       2.397   0.545   1.477  0.00  0.00     0.010 A 
ATOM      3  C2  UNL d   1       1.237  -0.193   1.720  0.00  0.00     0.041 A 
ATOM      4  C3  UNL d   1       0.130  -0.023   0.865  0.00  0.00    -0.075 A 
ATOM      5  S   UNL d   1      -1.395  -0.821   0.968  0.00  0.00     0.015 SA
ATOM      6  C4  UNL d   1      -1.999  -0.003  -0.400  0.00  0.00     0.022 A 
ATOM      7  C5  UNL d   1      -1.074   0.862  -0.934  0.00  0.00     0.026 A 
ATOM      8  C6  UNL d   1       0.169   0.864  -0.214  0.00  0.00    -0.082 A 
ATOM      9  C7  UNL d   1       1.359   1.599  -0.433  0.00  0.00     0.045 A 
ENDROOT
TORSDOF 0
ENDMDL
