MODEL 1
REMARK minimizedAffinity -4.92119122
REMARK minimizedRMSD -1
REMARK  1 active torsions:
REMARK  status: ('A' for Active; 'I' for Inactive)
REMARK    1  A    between atoms: C1_2  and  C2_3 
ROOT
ATOM      1  C2  UNL d   1      -0.458  -1.490  -0.640  0.00  0.00    -0.076 A 
ATOM      2  C3  UNL d   1      -1.377  -0.584  -1.198  0.00  0.00     0.004 A 
ATOM      3  C4  UNL d   1      -1.444   0.735  -0.751  0.00  0.00    -0.003 A 
ATOM      4  C5  UNL d   1      -0.594   1.169   0.260  0.00  0.00     0.000 A 
ATOM      5  C6  UNL d   1       0.336   0.288   0.812  0.00  0.00     0.000 A 
ATOM      6  C7  UNL d   1       0.428  -1.040   0.362  0.00  0.00    -0.073 A 
ATOM      7  C8  UNL d   1       1.445  -1.948   0.997  0.00  0.00     0.078 C 
ENDROOT
BRANCH   1   8
ATOM      8  C1  UNL d   1      -0.449  -2.915  -1.146  0.00  0.00     0.053 C 
ATOM      9  C   UNL d   1      -0.726  -3.005  -2.639  0.00  0.00     0.018 C 
ENDBRANCH   1   8
TORSDOF 1
ENDMDL
