MODEL 1
REMARK minimizedAffinity -3.96289086
REMARK minimizedRMSD -1
REMARK  1 active torsions:
REMARK  status: ('A' for Active; 'I' for Inactive)
REMARK    1  A    between atoms: C1_2  and  C2_3 
ROOT
ATOM      1  C2  UNL d   1       0.168   0.192   0.151  0.00  0.00    -0.076 A 
ATOM      2  C3  UNL d   1      -1.186   0.566   0.097  0.00  0.00     0.004 A 
ATOM      3  C4  UNL d   1      -1.557   1.908   0.029  0.00  0.00    -0.003 A 
ATOM      4  C5  UNL d   1      -0.580   2.897   0.012  0.00  0.00     0.000 A 
ATOM      5  C6  UNL d   1       0.768   2.543   0.047  0.00  0.00     0.000 A 
ATOM      6  C7  UNL d   1       1.160   1.194   0.100  0.00  0.00    -0.073 A 
ATOM      7  C8  UNL d   1       2.628   0.870   0.142  0.00  0.00     0.078 C 
ENDROOT
BRANCH   1   8
ATOM      8  C1  UNL d   1       0.509  -1.278   0.253  0.00  0.00     0.053 C 
ATOM      9  C   UNL d   1      -0.326  -2.136  -0.685  0.00  0.00     0.018 C 
ENDBRANCH   1   8
TORSDOF 1
ENDMDL
