MODEL 1
REMARK minimizedAffinity 4.79062033
REMARK minimizedRMSD -1
REMARK  1 active torsions:
REMARK  status: ('A' for Active; 'I' for Inactive)
REMARK    1  A    between atoms: C1_2  and  C2_3 
ROOT
ATOM      1  C2  UNL d   1      -1.222  -0.340   0.371  0.00  0.00    -0.076 A 
ATOM      2  C3  UNL d   1      -0.031  -0.173   1.100  0.00  0.00     0.004 A 
ATOM      3  C4  UNL d   1       0.424   1.097   1.449  0.00  0.00    -0.003 A 
ATOM      4  C5  UNL d   1      -0.304   2.221   1.075  0.00  0.00     0.000 A 
ATOM      5  C6  UNL d   1      -1.496   2.073   0.367  0.00  0.00     0.000 A 
ATOM      6  C7  UNL d   1      -1.978   0.799   0.022  0.00  0.00    -0.073 A 
ATOM      7  C8  UNL d   1      -3.267   0.698  -0.747  0.00  0.00     0.078 C 
ENDROOT
BRANCH   1   8
ATOM      8  C1  UNL d   1      -1.652  -1.741  -0.002  0.00  0.00     0.053 C 
ATOM      9  C   UNL d   1      -1.087  -2.186  -1.342  0.00  0.00     0.018 C 
ENDBRANCH   1   8
TORSDOF 1
ENDMDL
