MODEL 1
REMARK minimizedAffinity -3.26348877
REMARK minimizedRMSD -1
REMARK  1 active torsions:
REMARK  status: ('A' for Active; 'I' for Inactive)
REMARK    1  A    between atoms: C1_2  and  C2_3 
ROOT
ATOM      1  C2  UNL d   1       0.308   1.893   0.252  0.00  0.00    -0.076 A 
ATOM      2  C3  UNL d   1      -0.759   2.441   0.984  0.00  0.00     0.004 A 
ATOM      3  C4  UNL d   1      -0.541   3.442   1.930  0.00  0.00    -0.003 A 
ATOM      4  C5  UNL d   1       0.748   3.912   2.157  0.00  0.00     0.000 A 
ATOM      5  C6  UNL d   1       1.816   3.392   1.427  0.00  0.00     0.000 A 
ATOM      6  C7  UNL d   1       1.612   2.394   0.459  0.00  0.00    -0.073 A 
ATOM      7  C8  UNL d   1       2.801   1.865  -0.295  0.00  0.00     0.078 C 
ENDROOT
BRANCH   1   8
ATOM      8  C1  UNL d   1       0.015   0.791  -0.741  0.00  0.00     0.053 C 
ATOM      9  C   UNL d   1      -0.749  -0.367  -0.117  0.00  0.00     0.018 C 
ENDBRANCH   1   8
TORSDOF 1
ENDMDL
