MODEL 1
REMARK minimizedAffinity -1.97247696
REMARK minimizedRMSD -1
REMARK  1 active torsions:
REMARK  status: ('A' for Active; 'I' for Inactive)
REMARK    1  A    between atoms: C1_2  and  C2_3 
ROOT
ATOM      1  C2  UNL d   1      -0.518  -1.332  -0.080  0.00  0.00    -0.076 A 
ATOM      2  C3  UNL d   1      -1.868  -0.955   0.026  0.00  0.00     0.004 A 
ATOM      3  C4  UNL d   1      -2.227   0.294   0.531  0.00  0.00    -0.003 A 
ATOM      4  C5  UNL d   1      -1.241   1.186   0.937  0.00  0.00     0.000 A 
ATOM      5  C6  UNL d   1       0.104   0.835   0.822  0.00  0.00     0.000 A 
ATOM      6  C7  UNL d   1       0.483  -0.413   0.300  0.00  0.00    -0.073 A 
ATOM      7  C8  UNL d   1       1.948  -0.742   0.204  0.00  0.00     0.078 C 
ENDROOT
BRANCH   1   8
ATOM      8  C1  UNL d   1      -0.191  -2.710  -0.610  0.00  0.00     0.053 C 
ATOM      9  C   UNL d   1      -0.775  -2.957  -1.992  0.00  0.00     0.018 C 
ENDBRANCH   1   8
TORSDOF 1
ENDMDL
