MODEL 1
REMARK minimizedAffinity -2.76500225
REMARK minimizedRMSD -1
REMARK  1 active torsions:
REMARK  status: ('A' for Active; 'I' for Inactive)
REMARK    1  A    between atoms: C1_2  and  C2_3 
ROOT
ATOM      1  C2  UNL d   1      -0.266   1.480   0.784  0.00  0.00    -0.076 A 
ATOM      2  C3  UNL d   1      -1.488   0.951   0.333  0.00  0.00     0.004 A 
ATOM      3  C4  UNL d   1      -1.542  -0.288  -0.304  0.00  0.00    -0.003 A 
ATOM      4  C5  UNL d   1      -0.375  -1.018  -0.499  0.00  0.00     0.000 A 
ATOM      5  C6  UNL d   1       0.843  -0.517  -0.042  0.00  0.00     0.000 A 
ATOM      6  C7  UNL d   1       0.913   0.723   0.617  0.00  0.00    -0.073 A 
ATOM      7  C8  UNL d   1       2.254   1.218   1.084  0.00  0.00     0.078 C 
ENDROOT
BRANCH   1   8
ATOM      8  C1  UNL d   1      -0.266   2.840   1.444  0.00  0.00     0.053 C 
ATOM      9  C   UNL d   1      -0.555   2.765   2.935  0.00  0.00     0.018 C 
ENDBRANCH   1   8
TORSDOF 1
ENDMDL
