MODEL 1
REMARK minimizedAffinity -5.79948378
REMARK minimizedRMSD -1
REMARK  1 active torsions:
REMARK  status: ('A' for Active; 'I' for Inactive)
REMARK    1  A    between atoms: C1_2  and  C2_3 
ROOT
ATOM      1  C2  UNL d   1      -0.557   1.619   0.242  0.00  0.00    -0.076 A 
ATOM      2  C3  UNL d   1      -0.258   2.989   0.336  0.00  0.00     0.004 A 
ATOM      3  C4  UNL d   1       1.047   3.451   0.172  0.00  0.00    -0.003 A 
ATOM      4  C5  UNL d   1       2.073   2.551  -0.090  0.00  0.00     0.000 A 
ATOM      5  C6  UNL d   1       1.791   1.190  -0.204  0.00  0.00     0.000 A 
ATOM      6  C7  UNL d   1       0.479   0.709  -0.058  0.00  0.00    -0.073 A 
ATOM      7  C8  UNL d   1       0.233  -0.769  -0.185  0.00  0.00     0.078 C 
ENDROOT
BRANCH   1   8
ATOM      8  C1  UNL d   1      -1.986   1.173   0.457  0.00  0.00     0.053 C 
ATOM      9  C   UNL d   1      -2.670   0.766  -0.839  0.00  0.00     0.018 C 
ENDBRANCH   1   8
TORSDOF 1
ENDMDL
