MODEL 1
REMARK minimizedAffinity -5.95440054
REMARK minimizedRMSD -1
REMARK  1 active torsions:
REMARK  status: ('A' for Active; 'I' for Inactive)
REMARK    1  A    between atoms: C1_2  and  C2_3 
ROOT
ATOM      1  C2  UNL d   1       0.698   0.563   0.597  0.00  0.00    -0.076 A 
ATOM      2  C3  UNL d   1       1.965   1.161   0.477  0.00  0.00     0.004 A 
ATOM      3  C4  UNL d   1       2.094   2.536   0.290  0.00  0.00    -0.003 A 
ATOM      4  C5  UNL d   1       0.959   3.335   0.220  0.00  0.00     0.000 A 
ATOM      5  C6  UNL d   1      -0.305   2.761   0.354  0.00  0.00     0.000 A 
ATOM      6  C7  UNL d   1      -0.452   1.379   0.559  0.00  0.00    -0.073 A 
ATOM      7  C8  UNL d   1      -1.839   0.812   0.691  0.00  0.00     0.078 C 
ENDROOT
BRANCH   1   8
ATOM      8  C1  UNL d   1       0.619  -0.937   0.771  0.00  0.00     0.053 C 
ATOM      9  C   UNL d   1      -0.095  -1.621  -0.384  0.00  0.00     0.018 C 
ENDBRANCH   1   8
TORSDOF 1
ENDMDL
