MODEL 1
REMARK minimizedAffinity 2.61456847
REMARK minimizedRMSD -1
REMARK  0 active torsions:
REMARK  status: ('A' for Active; 'I' for Inactive)
ROOT
ATOM      1  C1  DEN d   1      -2.302   4.188  -5.656  0.00  0.00     0.130 A 
ATOM      2  C2  DEN d   1      -1.405   3.350  -4.866  0.00  0.00    -0.031 A 
ATOM      3  C3  DEN d   1      -2.216   2.306  -4.209  0.00  0.00     0.027 A 
ATOM      4  C4  DEN d   1      -4.761   1.906  -4.340  0.00  0.00     0.027 A 
ATOM      5  C5  DEN d   1      -5.943   2.366  -4.876  0.00  0.00    -0.003 A 
ATOM      6  C6  DEN d   1      -5.999   3.477  -5.676  0.00  0.00     0.001 A 
ATOM      7  C7  DEN d   1      -4.845   4.139  -5.999  0.00  0.00     0.017 A 
ATOM      8  C8  DEN d   1      -3.649   3.686  -5.457  0.00  0.00    -0.094 A 
ATOM      9  C9  DEN d   1      -3.612   2.554  -4.660  0.00  0.00    -0.072 A 
ENDROOT
TORSDOF 0
ENDMDL
