MODEL 1
REMARK minimizedAffinity 12.6625481
REMARK minimizedRMSD -1
REMARK  0 active torsions:
REMARK  status: ('A' for Active; 'I' for Inactive)
ROOT
ATOM      1  C1  DEN d   1       3.428  -1.074   0.082  0.00  0.00     0.130 A 
ATOM      2  C2  DEN d   1       4.398  -1.537  -0.906  0.00  0.00    -0.031 A 
ATOM      3  C3  DEN d   1       4.810  -0.376  -1.720  0.00  0.00     0.027 A 
ATOM      4  C4  DEN d   1       4.048   2.081  -1.544  0.00  0.00     0.027 A 
ATOM      5  C5  DEN d   1       3.229   2.957  -0.867  0.00  0.00    -0.003 A 
ATOM      6  C6  DEN d   1       2.399   2.547   0.143  0.00  0.00     0.001 A 
ATOM      7  C7  DEN d   1       2.405   1.235   0.536  0.00  0.00     0.017 A 
ATOM      8  C8  DEN d   1       3.223   0.345  -0.147  0.00  0.00    -0.094 A 
ATOM      9  C9  DEN d   1       4.063   0.781  -1.158  0.00  0.00    -0.072 A 
ENDROOT
TORSDOF 0
ENDMDL
