MODEL 1
REMARK minimizedAffinity 9.34648609
REMARK minimizedRMSD -1
REMARK  0 active torsions:
REMARK  status: ('A' for Active; 'I' for Inactive)
ROOT
ATOM      1  C1  DEN d   1       4.847   5.012  -5.997  0.00  0.00     0.130 A 
ATOM      2  C2  DEN d   1       5.998   5.188  -5.116  0.00  0.00    -0.031 A 
ATOM      3  C3  DEN d   1       5.956   4.124  -4.092  0.00  0.00     0.027 A 
ATOM      4  C4  DEN d   1       4.232   2.229  -3.791  0.00  0.00     0.027 A 
ATOM      5  C5  DEN d   1       3.072   1.678  -4.288  0.00  0.00    -0.003 A 
ATOM      6  C6  DEN d   1       2.409   2.214  -5.360  0.00  0.00     0.001 A 
ATOM      7  C7  DEN d   1       2.926   3.310  -5.998  0.00  0.00     0.017 A 
ATOM      8  C8  DEN d   1       4.092   3.877  -5.499  0.00  0.00    -0.094 A 
ATOM      9  C9  DEN d   1       4.754   3.312  -4.422  0.00  0.00    -0.072 A 
ENDROOT
TORSDOF 0
ENDMDL
