MODEL 1
REMARK minimizedAffinity 15.275713
REMARK minimizedRMSD -1
REMARK  0 active torsions:
REMARK  status: ('A' for Active; 'I' for Inactive)
ROOT
ATOM      1  C1  DEN d   1       2.086   1.554   2.347  0.00  0.00     0.130 A 
ATOM      2  C2  DEN d   1       3.154   1.822   1.388  0.00  0.00    -0.031 A 
ATOM      3  C3  DEN d   1       2.553   2.463   0.201  0.00  0.00     0.027 A 
ATOM      4  C4  DEN d   1       0.084   3.066  -0.241  0.00  0.00     0.027 A 
ATOM      5  C5  DEN d   1      -1.192   3.022   0.276  0.00  0.00    -0.003 A 
ATOM      6  C6  DEN d   1      -1.468   2.459   1.493  0.00  0.00     0.001 A 
ATOM      7  C7  DEN d   1      -0.446   1.958   2.257  0.00  0.00     0.017 A 
ATOM      8  C8  DEN d   1       0.842   1.993   1.740  0.00  0.00    -0.094 A 
ATOM      9  C9  DEN d   1       1.102   2.577   0.512  0.00  0.00    -0.072 A 
ENDROOT
TORSDOF 0
ENDMDL
