MODEL 1
REMARK minimizedAffinity 5.45982122
REMARK minimizedRMSD -1
REMARK  0 active torsions:
REMARK  status: ('A' for Active; 'I' for Inactive)
ROOT
ATOM      1  C1  DEN d   1      -0.184   2.495   4.042  0.00  0.00     0.130 A 
ATOM      2  C2  DEN d   1      -1.341   2.799   3.204  0.00  0.00    -0.031 A 
ATOM      3  C3  DEN d   1      -0.915   2.717   1.792  0.00  0.00     0.027 A 
ATOM      4  C4  DEN d   1       1.408   2.147   0.828  0.00  0.00     0.027 A 
ATOM      5  C5  DEN d   1       2.709   1.827   1.149  0.00  0.00    -0.003 A 
ATOM      6  C6  DEN d   1       3.141   1.742   2.446  0.00  0.00     0.001 A 
ATOM      7  C7  DEN d   1       2.253   1.935   3.472  0.00  0.00     0.017 A 
ATOM      8  C8  DEN d   1       0.942   2.265   3.156  0.00  0.00    -0.094 A 
ATOM      9  C9  DEN d   1       0.522   2.334   1.838  0.00  0.00    -0.072 A 
ENDROOT
TORSDOF 0
ENDMDL
