MODEL 1
REMARK minimizedAffinity 18.1076813
REMARK minimizedRMSD -1
REMARK  0 active torsions:
REMARK  status: ('A' for Active; 'I' for Inactive)
ROOT
ATOM      1  C1  DEN d   1       2.305  -5.997  -5.836  0.00  0.00     0.130 A 
ATOM      2  C2  DEN d   1       1.350  -5.164  -5.109  0.00  0.00    -0.031 A 
ATOM      3  C3  DEN d   1       2.111  -4.139  -4.367  0.00  0.00     0.027 A 
ATOM      4  C4  DEN d   1       4.660  -3.757  -4.279  0.00  0.00     0.027 A 
ATOM      5  C5  DEN d   1       5.880  -4.218  -4.723  0.00  0.00    -0.003 A 
ATOM      6  C6  DEN d   1       5.995  -5.315  -5.535  0.00  0.00     0.001 A 
ATOM      7  C7  DEN d   1       4.867  -5.962  -5.966  0.00  0.00     0.017 A 
ATOM      8  C8  DEN d   1       3.634  -5.508  -5.516  0.00  0.00    -0.094 A 
ATOM      9  C9  DEN d   1       3.538  -4.390  -4.706  0.00  0.00    -0.072 A 
ENDROOT
TORSDOF 0
ENDMDL
