MODEL 1
REMARK minimizedAffinity 0.503834367
REMARK minimizedRMSD -1
REMARK  0 active torsions:
REMARK  status: ('A' for Active; 'I' for Inactive)
ROOT
ATOM      1  C1  DEN d   1       5.102  -4.446  -3.800  0.00  0.00     0.130 A 
ATOM      2  C2  DEN d   1       6.000  -4.765  -4.906  0.00  0.00    -0.031 A 
ATOM      3  C3  DEN d   1       5.205  -5.419  -5.965  0.00  0.00     0.027 A 
ATOM      4  C4  DEN d   1       2.683  -5.961  -6.000  0.00  0.00     0.027 A 
ATOM      5  C5  DEN d   1       1.510  -5.890  -5.282  0.00  0.00    -0.003 A 
ATOM      6  C6  DEN d   1       1.458  -5.369  -4.016  0.00  0.00     0.001 A 
ATOM      7  C7  DEN d   1       2.594  -4.855  -3.447  0.00  0.00     0.017 A 
ATOM      8  C8  DEN d   1       3.782  -4.930  -4.162  0.00  0.00    -0.094 A 
ATOM      9  C9  DEN d   1       3.811  -5.450  -5.445  0.00  0.00    -0.072 A 
ENDROOT
TORSDOF 0
ENDMDL
