MODEL 1
REMARK minimizedAffinity 20.1579914
REMARK minimizedRMSD -1
REMARK  0 active torsions:
REMARK  status: ('A' for Active; 'I' for Inactive)
ROOT
ATOM      1  C1  DEN d   1      -1.291  -2.534   2.602  0.00  0.00     0.130 A 
ATOM      2  C2  DEN d   1      -1.495  -2.632   1.160  0.00  0.00    -0.031 A 
ATOM      3  C3  DEN d   1      -2.247  -3.873   0.888  0.00  0.00     0.027 A 
ATOM      4  C4  DEN d   1      -3.114  -5.642   2.553  0.00  0.00     0.027 A 
ATOM      5  C5  DEN d   1      -3.174  -5.999   3.882  0.00  0.00    -0.003 A 
ATOM      6  C6  DEN d   1      -2.585  -5.250   4.866  0.00  0.00     0.001 A 
ATOM      7  C7  DEN d   1      -1.950  -4.081   4.541  0.00  0.00     0.017 A 
ATOM      8  C8  DEN d   1      -1.879  -3.718   3.202  0.00  0.00    -0.094 A 
ATOM      9  C9  DEN d   1      -2.491  -4.483   2.223  0.00  0.00    -0.072 A 
ENDROOT
TORSDOF 0
ENDMDL
