MODEL 1
REMARK minimizedAffinity 17.5230141
REMARK minimizedRMSD -1
REMARK  0 active torsions:
REMARK  status: ('A' for Active; 'I' for Inactive)
ROOT
ATOM      1  C1  DEN d   1      -0.216   2.699   0.056  0.00  0.00     0.130 A 
ATOM      2  C2  DEN d   1      -1.131   2.538   1.182  0.00  0.00    -0.031 A 
ATOM      3  C3  DEN d   1      -0.335   2.161   2.367  0.00  0.00     0.027 A 
ATOM      4  C4  DEN d   1       2.214   1.818   2.567  0.00  0.00     0.027 A 
ATOM      5  C5  DEN d   1       3.406   1.831   1.877  0.00  0.00    -0.003 A 
ATOM      6  C6  DEN d   1       3.470   2.099   0.536  0.00  0.00     0.001 A 
ATOM      7  C7  DEN d   1       2.325   2.409  -0.150  0.00  0.00     0.017 A 
ATOM      8  C8  DEN d   1       1.119   2.391   0.537  0.00  0.00    -0.094 A 
ATOM      9  C9  DEN d   1       1.076   2.130   1.896  0.00  0.00    -0.072 A 
ENDROOT
TORSDOF 0
ENDMDL
