MODEL 1
REMARK minimizedAffinity 10.6651964
REMARK minimizedRMSD -1
REMARK  0 active torsions:
REMARK  status: ('A' for Active; 'I' for Inactive)
ROOT
ATOM      1  C1  DEN d   1      -1.639  -3.980  -1.533  0.00  0.00     0.130 A 
ATOM      2  C2  DEN d   1      -1.846  -5.409  -1.751  0.00  0.00    -0.031 A 
ATOM      3  C3  DEN d   1      -2.325  -5.999  -0.485  0.00  0.00     0.027 A 
ATOM      4  C4  DEN d   1      -2.769  -4.844   1.778  0.00  0.00     0.027 A 
ATOM      5  C5  DEN d   1      -2.727  -3.644   2.454  0.00  0.00    -0.003 A 
ATOM      6  C6  DEN d   1      -2.291  -2.488   1.862  0.00  0.00     0.001 A 
ATOM      7  C7  DEN d   1      -1.922  -2.498   0.543  0.00  0.00     0.017 A 
ATOM      8  C8  DEN d   1      -1.954  -3.706  -0.142  0.00  0.00    -0.094 A 
ATOM      9  C9  DEN d   1      -2.410  -4.861   0.470  0.00  0.00    -0.072 A 
ENDROOT
TORSDOF 0
ENDMDL
