MODEL 1
REMARK minimizedAffinity 22.1701965
REMARK minimizedRMSD -1
REMARK  0 active torsions:
REMARK  status: ('A' for Active; 'I' for Inactive)
ROOT
ATOM      1  C1  DEN d   1       2.952   5.213   0.580  0.00  0.00     0.130 A 
ATOM      2  C2  DEN d   1       2.155   5.999  -0.358  0.00  0.00    -0.031 A 
ATOM      3  C3  DEN d   1       0.964   5.206  -0.721  0.00  0.00     0.027 A 
ATOM      4  C4  DEN d   1       0.277   2.852   0.078  0.00  0.00     0.027 A 
ATOM      5  C5  DEN d   1       0.641   1.783   0.867  0.00  0.00    -0.003 A 
ATOM      6  C6  DEN d   1       1.809   1.770   1.584  0.00  0.00     0.001 A 
ATOM      7  C7  DEN d   1       2.632   2.864   1.561  0.00  0.00     0.017 A 
ATOM      8  C8  DEN d   1       2.275   3.942   0.761  0.00  0.00    -0.094 A 
ATOM      9  C9  DEN d   1       1.085   3.942   0.054  0.00  0.00    -0.072 A 
ENDROOT
TORSDOF 0
ENDMDL
