MODEL 1
REMARK minimizedAffinity 14.0031939
REMARK minimizedRMSD -1
REMARK  0 active torsions:
REMARK  status: ('A' for Active; 'I' for Inactive)
ROOT
ATOM      1  C1  DEN d   1       4.756   2.528  -1.129  0.00  0.00     0.130 A 
ATOM      2  C2  DEN d   1       6.000   2.998  -0.525  0.00  0.00    -0.031 A 
ATOM      3  C3  DEN d   1       5.817   3.017   0.940  0.00  0.00     0.027 A 
ATOM      4  C4  DEN d   1       3.742   2.362   2.325  0.00  0.00     0.027 A 
ATOM      5  C5  DEN d   1       2.442   1.913   2.255  0.00  0.00    -0.003 A 
ATOM      6  C6  DEN d   1       1.816   1.673   1.061  0.00  0.00     0.001 A 
ATOM      7  C7  DEN d   1       2.505   1.836  -0.112  0.00  0.00     0.017 A 
ATOM      8  C8  DEN d   1       3.814   2.295  -0.050  0.00  0.00    -0.094 A 
ATOM      9  C9  DEN d   1       4.433   2.521   1.168  0.00  0.00    -0.072 A 
ENDROOT
TORSDOF 0
ENDMDL
