MODEL 1
REMARK minimizedAffinity 15.1720543
REMARK minimizedRMSD -1
REMARK  0 active torsions:
REMARK  status: ('A' for Active; 'I' for Inactive)
ROOT
ATOM      1  C1  DEN d   1       4.182   1.147   2.256  0.00  0.00     0.130 A 
ATOM      2  C2  DEN d   1       3.616   1.480   3.560  0.00  0.00    -0.031 A 
ATOM      3  C3  DEN d   1       2.242   1.978   3.348  0.00  0.00     0.027 A 
ATOM      4  C4  DEN d   1       0.941   2.259   1.138  0.00  0.00     0.027 A 
ATOM      5  C5  DEN d   1       1.010   2.118  -0.230  0.00  0.00    -0.003 A 
ATOM      6  C6  DEN d   1       2.143   1.681  -0.864  0.00  0.00     0.001 A 
ATOM      7  C7  DEN d   1       3.239   1.324  -0.124  0.00  0.00     0.017 A 
ATOM      8  C8  DEN d   1       3.180   1.470   1.256  0.00  0.00    -0.094 A 
ATOM      9  C9  DEN d   1       2.021   1.902   1.878  0.00  0.00    -0.072 A 
ENDROOT
TORSDOF 0
ENDMDL
