MODEL 1
REMARK minimizedAffinity 1.64768326
REMARK minimizedRMSD -1
REMARK  0 active torsions:
REMARK  status: ('A' for Active; 'I' for Inactive)
ROOT
ATOM      1  C1  DEN d   1      -0.162  -0.841   0.428  0.00  0.00     0.130 A 
ATOM      2  C2  DEN d   1      -1.557  -0.708   0.841  0.00  0.00    -0.031 A 
ATOM      3  C3  DEN d   1      -1.698   0.569   1.570  0.00  0.00     0.027 A 
ATOM      4  C4  DEN d   1       0.097   2.345   2.093  0.00  0.00     0.027 A 
ATOM      5  C5  DEN d   1       1.429   2.669   1.957  0.00  0.00    -0.003 A 
ATOM      6  C6  DEN d   1       2.323   1.837   1.337  0.00  0.00     0.001 A 
ATOM      7  C7  DEN d   1       1.888   0.659   0.789  0.00  0.00     0.017 A 
ATOM      8  C8  DEN d   1       0.548   0.323   0.929  0.00  0.00    -0.094 A 
ATOM      9  C9  DEN d   1      -0.343   1.183   1.548  0.00  0.00    -0.072 A 
ENDROOT
TORSDOF 0
ENDMDL
