MODEL 1
REMARK minimizedAffinity -4.1263752
REMARK minimizedRMSD -1
REMARK  1 active torsions:
REMARK  status: ('A' for Active; 'I' for Inactive)
REMARK    1  A    between atoms: C1_2  and  C2_3 
ROOT
ATOM      1  C2  UNL d   1      -0.541  -0.581   0.911  0.00  0.00    -0.077 A 
ATOM      2  C3  UNL d   1      -1.170   0.313   0.033  0.00  0.00     0.002 A 
ATOM      3  C4  UNL d   1      -0.473   1.410  -0.477  0.00  0.00     0.002 A 
ATOM      4  C5  UNL d   1       0.856   1.621  -0.118  0.00  0.00    -0.004 A 
ATOM      5  C6  UNL d   1       1.490   0.739   0.756  0.00  0.00     0.002 A 
ATOM      6  C7  UNL d   1       0.795  -0.358   1.268  0.00  0.00     0.002 A 
ENDROOT
BRANCH   1   7
ATOM      7  C1  UNL d   1      -1.276  -1.792   1.423  0.00  0.00     0.055 C 
ATOM      8  C   UNL d   1      -1.120  -2.975   0.478  0.00  0.00     0.019 C 
ENDBRANCH   1   7
TORSDOF 1
ENDMDL
