MODEL 1
REMARK minimizedAffinity -5.19295406
REMARK minimizedRMSD -1
REMARK  1 active torsions:
REMARK  status: ('A' for Active; 'I' for Inactive)
REMARK    1  A    between atoms: C1_2  and  C2_3 
ROOT
ATOM      1  C2  UNL d   1       0.524  -0.595   0.100  0.00  0.00    -0.077 A 
ATOM      2  C3  UNL d   1       0.330  -1.253  -1.123  0.00  0.00     0.002 A 
ATOM      3  C4  UNL d   1       0.065  -2.623  -1.154  0.00  0.00     0.002 A 
ATOM      4  C5  UNL d   1      -0.013  -3.347   0.035  0.00  0.00    -0.004 A 
ATOM      5  C6  UNL d   1       0.180  -2.702   1.256  0.00  0.00     0.002 A 
ATOM      6  C7  UNL d   1       0.446  -1.333   1.289  0.00  0.00     0.002 A 
ENDROOT
BRANCH   1   7
ATOM      7  C1  UNL d   1       0.761   0.892   0.138  0.00  0.00     0.055 C 
ATOM      8  C   UNL d   1      -0.194   1.628  -0.790  0.00  0.00     0.019 C 
ENDBRANCH   1   7
TORSDOF 1
ENDMDL
