MODEL 1
REMARK minimizedAffinity -2.45948911
REMARK minimizedRMSD -1
REMARK  1 active torsions:
REMARK  status: ('A' for Active; 'I' for Inactive)
REMARK    1  A    between atoms: C1_2  and  C2_3 
ROOT
ATOM      1  C2  UNL d   1      -0.384  -0.376  -0.214  0.00  0.00    -0.077 A 
ATOM      2  C3  UNL d   1      -0.788  -1.618  -0.724  0.00  0.00     0.002 A 
ATOM      3  C4  UNL d   1      -1.195  -2.637   0.140  0.00  0.00     0.002 A 
ATOM      4  C5  UNL d   1      -1.206  -2.423   1.516  0.00  0.00    -0.004 A 
ATOM      5  C6  UNL d   1      -0.805  -1.192   2.033  0.00  0.00     0.002 A 
ATOM      6  C7  UNL d   1      -0.396  -0.173   1.172  0.00  0.00     0.002 A 
ENDROOT
BRANCH   1   7
ATOM      7  C1  UNL d   1       0.009   0.740  -1.146  0.00  0.00     0.055 C 
ATOM      8  C   UNL d   1       0.390   0.207  -2.519  0.00  0.00     0.019 C 
ENDBRANCH   1   7
TORSDOF 1
ENDMDL
