MODEL 1
REMARK minimizedAffinity -2.59927678
REMARK minimizedRMSD -1
REMARK  1 active torsions:
REMARK  status: ('A' for Active; 'I' for Inactive)
REMARK    1  A    between atoms: C1_2  and  C2_3 
ROOT
ATOM      1  C2  UNL d   1       0.689   1.443   0.281  0.00  0.00    -0.077 A 
ATOM      2  C3  UNL d   1      -0.224   1.015  -0.694  0.00  0.00     0.002 A 
ATOM      3  C4  UNL d   1      -0.922  -0.183  -0.529  0.00  0.00     0.002 A 
ATOM      4  C5  UNL d   1      -0.717  -0.960   0.609  0.00  0.00    -0.004 A 
ATOM      5  C6  UNL d   1       0.190  -0.544   1.583  0.00  0.00     0.002 A 
ATOM      6  C7  UNL d   1       0.889   0.653   1.420  0.00  0.00     0.002 A 
ENDROOT
BRANCH   1   7
ATOM      7  C1  UNL d   1       1.406   2.759   0.129  0.00  0.00     0.055 C 
ATOM      8  C   UNL d   1       1.339   3.577   1.411  0.00  0.00     0.019 C 
ENDBRANCH   1   7
TORSDOF 1
ENDMDL
