MODEL 1
REMARK minimizedAffinity -2.52465057
REMARK minimizedRMSD -1
REMARK  1 active torsions:
REMARK  status: ('A' for Active; 'I' for Inactive)
REMARK    1  A    between atoms: C1_2  and  C2_3 
ROOT
ATOM      1  C2  UNL d   1      -0.497  -0.474  -0.271  0.00  0.00    -0.077 A 
ATOM      2  C3  UNL d   1      -0.800  -0.554   1.096  0.00  0.00     0.002 A 
ATOM      3  C4  UNL d   1      -1.167  -1.773   1.668  0.00  0.00     0.002 A 
ATOM      4  C5  UNL d   1      -1.228  -2.923   0.883  0.00  0.00    -0.004 A 
ATOM      5  C6  UNL d   1      -0.930  -2.853  -0.478  0.00  0.00     0.002 A 
ATOM      6  C7  UNL d   1      -0.565  -1.635  -1.051  0.00  0.00     0.002 A 
ENDROOT
BRANCH   1   7
ATOM      7  C1  UNL d   1      -0.054   0.831  -0.880  0.00  0.00     0.055 C 
ATOM      8  C   UNL d   1       0.403   1.813   0.189  0.00  0.00     0.019 C 
ENDBRANCH   1   7
TORSDOF 1
ENDMDL
