MODEL 1
REMARK minimizedAffinity -3.57367778
REMARK minimizedRMSD -1
REMARK  1 active torsions:
REMARK  status: ('A' for Active; 'I' for Inactive)
REMARK    1  A    between atoms: C1_2  and  C2_3 
ROOT
ATOM      1  C2  UNL d   1      -0.156  -1.270  -0.826  0.00  0.00    -0.077 A 
ATOM      2  C3  UNL d   1      -1.059  -2.201  -0.294  0.00  0.00     0.002 A 
ATOM      3  C4  UNL d   1      -1.421  -2.143   1.053  0.00  0.00     0.002 A 
ATOM      4  C5  UNL d   1      -0.890  -1.154   1.877  0.00  0.00    -0.004 A 
ATOM      5  C6  UNL d   1       0.011  -0.224   1.358  0.00  0.00     0.002 A 
ATOM      6  C7  UNL d   1       0.376  -0.282   0.012  0.00  0.00     0.002 A 
ENDROOT
BRANCH   1   7
ATOM      7  C1  UNL d   1       0.199  -1.302  -2.290  0.00  0.00     0.055 C 
ATOM      8  C   UNL d   1       0.164   0.093  -2.898  0.00  0.00     0.019 C 
ENDBRANCH   1   7
TORSDOF 1
ENDMDL
