MODEL 1
REMARK minimizedAffinity -4.4219718
REMARK minimizedRMSD -1
REMARK  1 active torsions:
REMARK  status: ('A' for Active; 'I' for Inactive)
REMARK    1  A    between atoms: C1_2  and  C2_3 
ROOT
ATOM      1  C2  UNL d   1      -0.394  -0.343  -0.655  0.00  0.00    -0.077 A 
ATOM      2  C3  UNL d   1      -0.009  -1.426  -1.458  0.00  0.00     0.002 A 
ATOM      3  C4  UNL d   1      -0.066  -2.730  -0.960  0.00  0.00     0.002 A 
ATOM      4  C5  UNL d   1      -0.510  -2.962   0.340  0.00  0.00    -0.004 A 
ATOM      5  C6  UNL d   1      -0.892  -1.892   1.147  0.00  0.00     0.002 A 
ATOM      6  C7  UNL d   1      -0.836  -0.588   0.652  0.00  0.00     0.002 A 
ENDROOT
BRANCH   1   7
ATOM      7  C1  UNL d   1      -0.380   1.058  -1.206  0.00  0.00     0.055 C 
ATOM      8  C   UNL d   1      -0.011   2.072  -0.133  0.00  0.00     0.019 C 
ENDBRANCH   1   7
TORSDOF 1
ENDMDL
