MODEL 1
REMARK minimizedAffinity -4.22625732
REMARK minimizedRMSD -1
REMARK  1 active torsions:
REMARK  status: ('A' for Active; 'I' for Inactive)
REMARK    1  A    between atoms: C1_2  and  C2_3 
ROOT
ATOM      1  C2  UNL d   1      -0.333  -1.009   0.353  0.00  0.00    -0.077 A 
ATOM      2  C3  UNL d   1       0.045  -0.066   1.319  0.00  0.00     0.002 A 
ATOM      3  C4  UNL d   1       0.497   1.198   0.933  0.00  0.00     0.002 A 
ATOM      4  C5  UNL d   1       0.571   1.531  -0.417  0.00  0.00    -0.004 A 
ATOM      5  C6  UNL d   1       0.199   0.599  -1.386  0.00  0.00     0.002 A 
ATOM      6  C7  UNL d   1      -0.252  -0.664  -1.002  0.00  0.00     0.002 A 
ENDROOT
BRANCH   1   7
ATOM      7  C1  UNL d   1      -0.868  -2.354   0.769  0.00  0.00     0.055 C 
ATOM      8  C   UNL d   1      -0.520  -3.427  -0.253  0.00  0.00     0.019 C 
ENDBRANCH   1   7
TORSDOF 1
ENDMDL
