MODEL 1
REMARK minimizedAffinity -5.30321264
REMARK minimizedRMSD -1
REMARK  1 active torsions:
REMARK  status: ('A' for Active; 'I' for Inactive)
REMARK    1  A    between atoms: C1_2  and  C2_3 
ROOT
ATOM      1  C2  UNL d   1       0.823   1.176   0.269  0.00  0.00    -0.077 A 
ATOM      2  C3  UNL d   1      -0.552   1.348   0.062  0.00  0.00     0.002 A 
ATOM      3  C4  UNL d   1      -1.451   0.340   0.417  0.00  0.00     0.002 A 
ATOM      4  C5  UNL d   1      -0.985  -0.843   0.986  0.00  0.00    -0.004 A 
ATOM      5  C6  UNL d   1       0.382  -1.024   1.195  0.00  0.00     0.002 A 
ATOM      6  C7  UNL d   1       1.282  -0.018   0.839  0.00  0.00     0.002 A 
ENDROOT
BRANCH   1   7
ATOM      7  C1  UNL d   1       1.790   2.281  -0.068  0.00  0.00     0.055 C 
ATOM      8  C   UNL d   1       1.361   3.602   0.556  0.00  0.00     0.019 C 
ENDBRANCH   1   7
TORSDOF 1
ENDMDL
