MODEL 1
REMARK minimizedAffinity -3.38100386
REMARK minimizedRMSD -1
REMARK  1 active torsions:
REMARK  status: ('A' for Active; 'I' for Inactive)
REMARK    1  A    between atoms: C1_2  and  C2_3 
ROOT
ATOM      1  C2  UNL d   1      -0.918  -1.611  -0.200  0.00  0.00    -0.077 A 
ATOM      2  C3  UNL d   1      -0.934  -0.508   0.665  0.00  0.00     0.002 A 
ATOM      3  C4  UNL d   1      -0.501   0.743   0.222  0.00  0.00     0.002 A 
ATOM      4  C5  UNL d   1      -0.053   0.904  -1.087  0.00  0.00    -0.004 A 
ATOM      5  C6  UNL d   1      -0.030  -0.187  -1.954  0.00  0.00     0.002 A 
ATOM      6  C7  UNL d   1      -0.462  -1.439  -1.514  0.00  0.00     0.002 A 
ENDROOT
BRANCH   1   7
ATOM      7  C1  UNL d   1      -1.430  -2.951   0.260  0.00  0.00     0.055 C 
ATOM      8  C   UNL d   1      -0.525  -4.081  -0.208  0.00  0.00     0.019 C 
ENDBRANCH   1   7
TORSDOF 1
ENDMDL
