MODEL 1
REMARK minimizedAffinity -3.82620978
REMARK minimizedRMSD -1
REMARK  1 active torsions:
REMARK  status: ('A' for Active; 'I' for Inactive)
REMARK    1  A    between atoms: C1_2  and  C2_3 
ROOT
ATOM      1  C2  UNL d   1      -0.203   0.188  -0.603  0.00  0.00    -0.077 A 
ATOM      2  C3  UNL d   1      -0.704  -0.516   0.501  0.00  0.00     0.002 A 
ATOM      3  C4  UNL d   1      -0.982  -1.881   0.401  0.00  0.00     0.002 A 
ATOM      4  C5  UNL d   1      -0.760  -2.553  -0.799  0.00  0.00    -0.004 A 
ATOM      5  C6  UNL d   1      -0.264  -1.861  -1.903  0.00  0.00     0.002 A 
ATOM      6  C7  UNL d   1       0.014  -0.497  -1.806  0.00  0.00     0.002 A 
ENDROOT
BRANCH   1   7
ATOM      7  C1  UNL d   1       0.144   1.649  -0.483  0.00  0.00     0.055 C 
ATOM      8  C   UNL d   1       1.202   1.880   0.586  0.00  0.00     0.019 C 
ENDBRANCH   1   7
TORSDOF 1
ENDMDL
