MODEL 1
REMARK minimizedAffinity -2.89383841
REMARK minimizedRMSD -1
REMARK  1 active torsions:
REMARK  status: ('A' for Active; 'I' for Inactive)
REMARK    1  A    between atoms: C1_2  and  C2_3 
ROOT
ATOM      1  C2  UNL d   1       0.244   1.440   0.412  0.00  0.00    -0.077 A 
ATOM      2  C3  UNL d   1      -0.219   0.759  -0.723  0.00  0.00     0.002 A 
ATOM      3  C4  UNL d   1      -0.581  -0.586  -0.641  0.00  0.00     0.002 A 
ATOM      4  C5  UNL d   1      -0.488  -1.262   0.575  0.00  0.00    -0.004 A 
ATOM      5  C6  UNL d   1      -0.027  -0.594   1.709  0.00  0.00     0.002 A 
ATOM      6  C7  UNL d   1       0.336   0.751   1.628  0.00  0.00     0.002 A 
ENDROOT
BRANCH   1   7
ATOM      7  C1  UNL d   1       0.588   2.905   0.337  0.00  0.00     0.055 C 
ATOM      8  C   UNL d   1       2.018   3.161   0.790  0.00  0.00     0.019 C 
ENDBRANCH   1   7
TORSDOF 1
ENDMDL
