MODEL 1
REMARK minimizedAffinity -3.936239
REMARK minimizedRMSD -1
REMARK  1 active torsions:
REMARK  status: ('A' for Active; 'I' for Inactive)
REMARK    1  A    between atoms: C1_2  and  C2_3 
ROOT
ATOM      1  C2  UNL d   1       0.655   2.154   0.200  0.00  0.00    -0.077 A 
ATOM      2  C3  UNL d   1       0.831   2.243   1.588  0.00  0.00     0.002 A 
ATOM      3  C4  UNL d   1       1.416   3.377   2.155  0.00  0.00     0.002 A 
ATOM      4  C5  UNL d   1       1.826   4.431   1.342  0.00  0.00    -0.004 A 
ATOM      5  C6  UNL d   1       1.657   4.352  -0.040  0.00  0.00     0.002 A 
ATOM      6  C7  UNL d   1       1.073   3.219  -0.608  0.00  0.00     0.002 A 
ENDROOT
BRANCH   1   7
ATOM      7  C1  UNL d   1      -0.021   0.954  -0.409  0.00  0.00     0.055 C 
ATOM      8  C   UNL d   1      -0.093  -0.201   0.580  0.00  0.00     0.019 C 
ENDBRANCH   1   7
TORSDOF 1
ENDMDL
