MODEL 1
REMARK minimizedAffinity -2.34090328
REMARK minimizedRMSD -1
REMARK  1 active torsions:
REMARK  status: ('A' for Active; 'I' for Inactive)
REMARK    1  A    between atoms: C1_2  and  C2_3 
ROOT
ATOM      1  C2  UNL d   1       0.776   2.099   0.225  0.00  0.00    -0.077 A 
ATOM      2  C3  UNL d   1       0.332   3.414   0.421  0.00  0.00     0.002 A 
ATOM      3  C4  UNL d   1       1.193   4.379   0.948  0.00  0.00     0.002 A 
ATOM      4  C5  UNL d   1       2.503   4.039   1.280  0.00  0.00    -0.004 A 
ATOM      5  C6  UNL d   1       2.953   2.733   1.090  0.00  0.00     0.002 A 
ATOM      6  C7  UNL d   1       2.094   1.768   0.564  0.00  0.00     0.002 A 
ENDROOT
BRANCH   1   7
ATOM      7  C1  UNL d   1      -0.136   1.069  -0.389  0.00  0.00     0.055 C 
ATOM      8  C   UNL d   1      -0.572   0.033   0.637  0.00  0.00     0.019 C 
ENDBRANCH   1   7
TORSDOF 1
ENDMDL
