MODEL 1
REMARK minimizedAffinity 4.26956463
REMARK minimizedRMSD -1
REMARK  1 active torsions:
REMARK  status: ('A' for Active; 'I' for Inactive)
REMARK    1  A    between atoms: C1_2  and  C2_3 
ROOT
ATOM      1  C2  UNL d   1      -0.466   0.611   1.475  0.00  0.00    -0.076 A 
ATOM      2  C3  UNL d   1      -1.545   0.336   0.618  0.00  0.00     0.004 A 
ATOM      3  C4  UNL d   1      -2.816   0.846   0.878  0.00  0.00    -0.003 A 
ATOM      4  C5  UNL d   1      -3.027   1.642   1.999  0.00  0.00     0.000 A 
ATOM      5  C6  UNL d   1      -1.964   1.940   2.850  0.00  0.00     0.000 A 
ATOM      6  C7  UNL d   1      -0.673   1.446   2.594  0.00  0.00    -0.073 A 
ATOM      7  C8  UNL d   1       0.436   1.794   3.549  0.00  0.00     0.078 C 
ENDROOT
BRANCH   1   8
ATOM      8  C1  UNL d   1       0.884   0.007   1.157  0.00  0.00     0.053 C 
ATOM      9  C   UNL d   1       1.677   0.843   0.165  0.00  0.00     0.018 C 
ENDBRANCH   1   8
TORSDOF 1
ENDMDL
