MODEL 1
REMARK minimizedAffinity 0.882803023
REMARK minimizedRMSD -1
REMARK  1 active torsions:
REMARK  status: ('A' for Active; 'I' for Inactive)
REMARK    1  A    between atoms: C1_2  and  C2_3 
ROOT
ATOM      1  C2  UNL d   1      -2.168   1.689   3.212  0.00  0.00    -0.076 A 
ATOM      2  C3  UNL d   1      -3.110   1.160   2.313  0.00  0.00     0.004 A 
ATOM      3  C4  UNL d   1      -2.708   0.590   1.106  0.00  0.00    -0.003 A 
ATOM      4  C5  UNL d   1      -1.358   0.539   0.779  0.00  0.00     0.000 A 
ATOM      5  C6  UNL d   1      -0.408   1.043   1.667  0.00  0.00     0.000 A 
ATOM      6  C7  UNL d   1      -0.795   1.606   2.895  0.00  0.00    -0.073 A 
ATOM      7  C8  UNL d   1       0.271   2.140   3.812  0.00  0.00     0.078 C 
ENDROOT
BRANCH   1   8
ATOM      8  C1  UNL d   1      -2.664   2.319   4.494  0.00  0.00     0.053 C 
ATOM      9  C   UNL d   1      -3.487   1.356   5.336  0.00  0.00     0.018 C 
ENDBRANCH   1   8
TORSDOF 1
ENDMDL
