MODEL 1
REMARK minimizedAffinity 1.97654796
REMARK minimizedRMSD -1
REMARK  1 active torsions:
REMARK  status: ('A' for Active; 'I' for Inactive)
REMARK    1  A    between atoms: C1_2  and  C2_3 
ROOT
ATOM      1  C2  UNL d   1      -4.461   1.028   3.539  0.00  0.00    -0.076 A 
ATOM      2  C3  UNL d   1      -3.995   1.568   4.751  0.00  0.00     0.004 A 
ATOM      3  C4  UNL d   1      -4.529   1.157   5.971  0.00  0.00    -0.003 A 
ATOM      4  C5  UNL d   1      -5.537   0.200   5.999  0.00  0.00     0.000 A 
ATOM      5  C6  UNL d   1      -5.999  -0.359   4.808  0.00  0.00     0.000 A 
ATOM      6  C7  UNL d   1      -5.460   0.032   3.570  0.00  0.00    -0.073 A 
ATOM      7  C8  UNL d   1      -6.000  -0.599   2.316  0.00  0.00     0.078 C 
ENDROOT
BRANCH   1   8
ATOM      8  C1  UNL d   1      -3.863   1.532   2.245  0.00  0.00     0.053 C 
ATOM      9  C   UNL d   1      -2.342   1.544   2.271  0.00  0.00     0.018 C 
ENDBRANCH   1   8
TORSDOF 1
ENDMDL
