MODEL 1
REMARK minimizedAffinity 13.2654839
REMARK minimizedRMSD -1
REMARK  1 active torsions:
REMARK  status: ('A' for Active; 'I' for Inactive)
REMARK    1  A    between atoms: C1_2  and  C2_3 
ROOT
ATOM      1  C2  UNL d   1      -1.219   0.820   1.418  0.00  0.00    -0.076 A 
ATOM      2  C3  UNL d   1      -0.150   1.566   1.944  0.00  0.00     0.004 A 
ATOM      3  C4  UNL d   1       1.022   0.940   2.366  0.00  0.00    -0.003 A 
ATOM      4  C5  UNL d   1       1.144  -0.441   2.267  0.00  0.00     0.000 A 
ATOM      5  C6  UNL d   1       0.100  -1.195   1.730  0.00  0.00     0.000 A 
ATOM      6  C7  UNL d   1      -1.082  -0.578   1.286  0.00  0.00    -0.073 A 
ATOM      7  C8  UNL d   1      -2.178  -1.440   0.721  0.00  0.00     0.078 C 
ENDROOT
BRANCH   1   8
ATOM      8  C1  UNL d   1      -2.476   1.551   1.002  0.00  0.00     0.053 C 
ATOM      9  C   UNL d   1      -3.423   1.792   2.168  0.00  0.00     0.018 C 
ENDBRANCH   1   8
TORSDOF 1
ENDMDL
