MODEL 1
REMARK minimizedAffinity 10.5812702
REMARK minimizedRMSD -1
REMARK  1 active torsions:
REMARK  status: ('A' for Active; 'I' for Inactive)
REMARK    1  A    between atoms: C1_2  and  C2_3 
ROOT
ATOM      1  C2  UNL d   1      -5.474   1.691   4.078  0.00  0.00    -0.076 A 
ATOM      2  C3  UNL d   1      -5.687   0.352   3.706  0.00  0.00     0.004 A 
ATOM      3  C4  UNL d   1      -5.636  -0.037   2.369  0.00  0.00    -0.003 A 
ATOM      4  C5  UNL d   1      -5.369   0.905   1.382  0.00  0.00     0.000 A 
ATOM      5  C6  UNL d   1      -5.137   2.234   1.735  0.00  0.00     0.000 A 
ATOM      6  C7  UNL d   1      -5.169   2.641   3.080  0.00  0.00    -0.073 A 
ATOM      7  C8  UNL d   1      -4.918   4.088   3.403  0.00  0.00     0.078 C 
ENDROOT
BRANCH   1   8
ATOM      8  C1  UNL d   1      -5.569   2.060   5.541  0.00  0.00     0.053 C 
ATOM      9  C   UNL d   1      -4.440   2.978   5.986  0.00  0.00     0.018 C 
ENDBRANCH   1   8
TORSDOF 1
ENDMDL
