MODEL 1
REMARK minimizedAffinity 13.4806652
REMARK minimizedRMSD -1
REMARK  1 active torsions:
REMARK  status: ('A' for Active; 'I' for Inactive)
REMARK    1  A    between atoms: C1_2  and  C2_3 
ROOT
ATOM      1  C2  UNL d   1      -4.000  -3.549   3.665  0.00  0.00    -0.076 A 
ATOM      2  C3  UNL d   1      -4.104  -3.846   5.035  0.00  0.00     0.004 A 
ATOM      3  C4  UNL d   1      -3.649  -2.949   6.000  0.00  0.00    -0.003 A 
ATOM      4  C5  UNL d   1      -3.083  -1.740   5.611  0.00  0.00     0.000 A 
ATOM      5  C6  UNL d   1      -2.987  -1.421   4.257  0.00  0.00     0.000 A 
ATOM      6  C7  UNL d   1      -3.456  -2.307   3.271  0.00  0.00    -0.073 A 
ATOM      7  C8  UNL d   1      -3.323  -1.915   1.825  0.00  0.00     0.078 C 
ENDROOT
BRANCH   1   8
ATOM      8  C1  UNL d   1      -4.486  -4.572   2.663  0.00  0.00     0.053 C 
ATOM      9  C   UNL d   1      -5.996  -4.544   2.488  0.00  0.00     0.018 C 
ENDBRANCH   1   8
TORSDOF 1
ENDMDL
