MODEL 1
REMARK minimizedAffinity 0.514235854
REMARK minimizedRMSD -1
REMARK  1 active torsions:
REMARK  status: ('A' for Active; 'I' for Inactive)
REMARK    1  A    between atoms: C1_2  and  C2_3 
ROOT
ATOM      1  C2  UNL d   1      -3.911  -4.003   3.631  0.00  0.00    -0.076 A 
ATOM      2  C3  UNL d   1      -3.970  -4.171   5.026  0.00  0.00     0.004 A 
ATOM      3  C4  UNL d   1      -3.591  -3.145   5.889  0.00  0.00    -0.003 A 
ATOM      4  C5  UNL d   1      -3.147  -1.933   5.372  0.00  0.00     0.000 A 
ATOM      5  C6  UNL d   1      -3.099  -1.742   3.992  0.00  0.00     0.000 A 
ATOM      6  C7  UNL d   1      -3.493  -2.761   3.108  0.00  0.00    -0.073 A 
ATOM      7  C8  UNL d   1      -3.414  -2.503   1.628  0.00  0.00     0.078 C 
ENDROOT
BRANCH   1   8
ATOM      8  C1  UNL d   1      -4.309  -5.161   2.745  0.00  0.00     0.053 C 
ATOM      9  C   UNL d   1      -5.818  -5.306   2.619  0.00  0.00     0.018 C 
ENDBRANCH   1   8
TORSDOF 1
ENDMDL
