MODEL 1
REMARK minimizedAffinity 13.3361998
REMARK minimizedRMSD -1
REMARK  1 active torsions:
REMARK  status: ('A' for Active; 'I' for Inactive)
REMARK    1  A    between atoms: C1_2  and  C2_3 
ROOT
ATOM      1  C2  UNL d   1       2.695  -0.189   2.010  0.00  0.00    -0.076 A 
ATOM      2  C3  UNL d   1       3.957  -0.641   2.432  0.00  0.00     0.004 A 
ATOM      3  C4  UNL d   1       5.126  -0.031   1.978  0.00  0.00    -0.003 A 
ATOM      4  C5  UNL d   1       5.051   1.040   1.095  0.00  0.00     0.000 A 
ATOM      5  C6  UNL d   1       3.806   1.512   0.680  0.00  0.00     0.000 A 
ATOM      6  C7  UNL d   1       2.618   0.920   1.141  0.00  0.00    -0.073 A 
ATOM      7  C8  UNL d   1       1.303   1.466   0.655  0.00  0.00     0.078 C 
ENDROOT
BRANCH   1   8
ATOM      8  C1  UNL d   1       1.463  -0.906   2.515  0.00  0.00     0.053 C 
ATOM      9  C   UNL d   1       1.056  -2.066   1.618  0.00  0.00     0.018 C 
ENDBRANCH   1   8
TORSDOF 1
ENDMDL
