MODEL 1
REMARK minimizedAffinity 8.73990726
REMARK minimizedRMSD -1
REMARK  1 active torsions:
REMARK  status: ('A' for Active; 'I' for Inactive)
REMARK    1  A    between atoms: C1_2  and  C2_3 
ROOT
ATOM      1  C2  UNL d   1       2.993   0.381  -4.878  0.00  0.00    -0.076 A 
ATOM      2  C3  UNL d   1       4.163   0.620  -4.136  0.00  0.00     0.004 A 
ATOM      3  C4  UNL d   1       4.532  -0.220  -3.087  0.00  0.00    -0.003 A 
ATOM      4  C5  UNL d   1       3.737  -1.315  -2.764  0.00  0.00     0.000 A 
ATOM      5  C6  UNL d   1       2.583  -1.578  -3.501  0.00  0.00     0.000 A 
ATOM      6  C7  UNL d   1       2.205  -0.749  -4.572  0.00  0.00    -0.073 A 
ATOM      7  C8  UNL d   1       0.947  -1.076  -5.329  0.00  0.00     0.078 C 
ENDROOT
BRANCH   1   8
ATOM      8  C1  UNL d   1       2.630   1.342  -5.987  0.00  0.00     0.053 C 
ATOM      9  C   UNL d   1       3.444   2.626  -5.936  0.00  0.00     0.018 C 
ENDBRANCH   1   8
TORSDOF 1
ENDMDL
