MODEL 1
REMARK minimizedAffinity 11.8583374
REMARK minimizedRMSD -1
REMARK  1 active torsions:
REMARK  status: ('A' for Active; 'I' for Inactive)
REMARK    1  A    between atoms: C1_2  and  C2_3 
ROOT
ATOM      1  C2  UNL d   1       2.836   0.352  -4.178  0.00  0.00    -0.076 A 
ATOM      2  C3  UNL d   1       3.958   0.735  -3.424  0.00  0.00     0.004 A 
ATOM      3  C4  UNL d   1       4.722  -0.212  -2.743  0.00  0.00    -0.003 A 
ATOM      4  C5  UNL d   1       4.376  -1.557  -2.806  0.00  0.00     0.000 A 
ATOM      5  C6  UNL d   1       3.276  -1.957  -3.564  0.00  0.00     0.000 A 
ATOM      6  C7  UNL d   1       2.505  -1.017  -4.270  0.00  0.00    -0.073 A 
ATOM      7  C8  UNL d   1       1.326  -1.503  -5.067  0.00  0.00     0.078 C 
ENDROOT
BRANCH   1   8
ATOM      8  C1  UNL d   1       2.029   1.426  -4.873  0.00  0.00     0.053 C 
ATOM      9  C   UNL d   1       2.801   2.097  -5.999  0.00  0.00     0.018 C 
ENDBRANCH   1   8
TORSDOF 1
ENDMDL
