MODEL 1
REMARK minimizedAffinity 11.038106
REMARK minimizedRMSD -1
REMARK  1 active torsions:
REMARK  status: ('A' for Active; 'I' for Inactive)
REMARK    1  A    between atoms: C1_2  and  C2_3 
ROOT
ATOM      1  C2  UNL d   1      -3.614  -2.622   3.192  0.00  0.00    -0.076 A 
ATOM      2  C3  UNL d   1      -2.875  -1.651   3.892  0.00  0.00     0.004 A 
ATOM      3  C4  UNL d   1      -2.807  -1.668   5.284  0.00  0.00    -0.003 A 
ATOM      4  C5  UNL d   1      -3.475  -2.656   5.999  0.00  0.00     0.000 A 
ATOM      5  C6  UNL d   1      -4.197  -3.637   5.321  0.00  0.00     0.000 A 
ATOM      6  C7  UNL d   1      -4.263  -3.644   3.917  0.00  0.00    -0.073 A 
ATOM      7  C8  UNL d   1      -5.062  -4.722   3.237  0.00  0.00     0.078 C 
ENDROOT
BRANCH   1   8
ATOM      8  C1  UNL d   1      -3.674  -2.537   1.684  0.00  0.00     0.053 C 
ATOM      9  C   UNL d   1      -3.666  -1.102   1.180  0.00  0.00     0.018 C 
ENDBRANCH   1   8
TORSDOF 1
ENDMDL
