MODEL 1
REMARK minimizedAffinity 13.4104595
REMARK minimizedRMSD -1
REMARK  1 active torsions:
REMARK  status: ('A' for Active; 'I' for Inactive)
REMARK    1  A    between atoms: C1_2  and  C2_3 
ROOT
ATOM      1  C2  UNL d   1      -3.343  -1.953   3.355  0.00  0.00    -0.076 A 
ATOM      2  C3  UNL d   1      -2.907  -1.178   4.444  0.00  0.00     0.004 A 
ATOM      3  C4  UNL d   1      -3.232  -1.532   5.752  0.00  0.00    -0.003 A 
ATOM      4  C5  UNL d   1      -3.999  -2.667   5.993  0.00  0.00     0.000 A 
ATOM      5  C6  UNL d   1      -4.426  -3.457   4.926  0.00  0.00     0.000 A 
ATOM      6  C7  UNL d   1      -4.092  -3.123   3.602  0.00  0.00    -0.073 A 
ATOM      7  C8  UNL d   1      -4.584  -4.007   2.489  0.00  0.00     0.078 C 
ENDROOT
BRANCH   1   8
ATOM      8  C1  UNL d   1      -2.982  -1.504   1.957  0.00  0.00     0.053 C 
ATOM      9  C   UNL d   1      -4.201  -1.106   1.140  0.00  0.00     0.018 C 
ENDBRANCH   1   8
TORSDOF 1
ENDMDL
