MODEL 1
REMARK minimizedAffinity 7.14253092
REMARK minimizedRMSD -1
REMARK  1 active torsions:
REMARK  status: ('A' for Active; 'I' for Inactive)
REMARK    1  A    between atoms: C1_2  and  C2_3 
ROOT
ATOM      1  C2  UNL d   1       4.686   1.850   0.995  0.00  0.00    -0.076 A 
ATOM      2  C3  UNL d   1       5.453   1.177   1.961  0.00  0.00     0.004 A 
ATOM      3  C4  UNL d   1       4.925   0.104   2.677  0.00  0.00    -0.003 A 
ATOM      4  C5  UNL d   1       3.620  -0.313   2.438  0.00  0.00     0.000 A 
ATOM      5  C6  UNL d   1       2.850   0.332   1.470  0.00  0.00     0.000 A 
ATOM      6  C7  UNL d   1       3.374   1.405   0.728  0.00  0.00    -0.073 A 
ATOM      7  C8  UNL d   1       2.497   2.068  -0.299  0.00  0.00     0.078 C 
ENDROOT
BRANCH   1   8
ATOM      8  C1  UNL d   1       5.304   3.024   0.269  0.00  0.00     0.053 C 
ATOM      9  C   UNL d   1       4.790   4.361   0.781  0.00  0.00     0.018 C 
ENDBRANCH   1   8
TORSDOF 1
ENDMDL
