MODEL 1
REMARK minimizedAffinity 15.941905
REMARK minimizedRMSD -1
REMARK  1 active torsions:
REMARK  status: ('A' for Active; 'I' for Inactive)
REMARK    1  A    between atoms: C1_2  and  C2_3 
ROOT
ATOM      1  C2  UNL d   1       3.333   0.980   1.148  0.00  0.00    -0.076 A 
ATOM      2  C3  UNL d   1       2.767   0.096   2.083  0.00  0.00     0.004 A 
ATOM      3  C4  UNL d   1       3.562  -0.569   3.015  0.00  0.00    -0.003 A 
ATOM      4  C5  UNL d   1       4.937  -0.359   3.027  0.00  0.00     0.000 A 
ATOM      5  C6  UNL d   1       5.514   0.528   2.119  0.00  0.00     0.000 A 
ATOM      6  C7  UNL d   1       4.724   1.218   1.184  0.00  0.00    -0.073 A 
ATOM      7  C8  UNL d   1       5.399   2.159   0.223  0.00  0.00     0.078 C 
ENDROOT
BRANCH   1   8
ATOM      8  C1  UNL d   1       2.424   1.652   0.144  0.00  0.00     0.053 C 
ATOM      9  C   UNL d   1       1.636   2.803   0.750  0.00  0.00     0.018 C 
ENDBRANCH   1   8
TORSDOF 1
ENDMDL
