MODEL 1
REMARK minimizedAffinity 15.7854605
REMARK minimizedRMSD -1
REMARK  1 active torsions:
REMARK  status: ('A' for Active; 'I' for Inactive)
REMARK    1  A    between atoms: C1_2  and  C2_3 
ROOT
ATOM      1  C2  UNL d   1       3.328  -0.523   2.737  0.00  0.00    -0.076 A 
ATOM      2  C3  UNL d   1       3.111   0.599   1.919  0.00  0.00     0.004 A 
ATOM      3  C4  UNL d   1       2.070   0.621   0.993  0.00  0.00    -0.003 A 
ATOM      4  C5  UNL d   1       1.227  -0.478   0.871  0.00  0.00     0.000 A 
ATOM      5  C6  UNL d   1       1.417  -1.593   1.687  0.00  0.00     0.000 A 
ATOM      6  C7  UNL d   1       2.453  -1.625   2.636  0.00  0.00    -0.073 A 
ATOM      7  C8  UNL d   1       2.615  -2.856   3.486  0.00  0.00     0.078 C 
ENDROOT
BRANCH   1   8
ATOM      8  C1  UNL d   1       4.491  -0.501   3.703  0.00  0.00     0.053 C 
ATOM      9  C   UNL d   1       5.780  -0.021   3.054  0.00  0.00     0.018 C 
ENDBRANCH   1   8
TORSDOF 1
ENDMDL
