MODEL 1
REMARK minimizedAffinity -2.2794106
REMARK minimizedRMSD -1
REMARK  1 active torsions:
REMARK  status: ('A' for Active; 'I' for Inactive)
REMARK    1  A    between atoms: N_2  and  C1_3 
ROOT
ATOM      1  C1  UNL d   1       0.323  -1.588  -1.092  0.00  0.00     0.143 A 
ATOM      2  C2  UNL d   1      -0.679  -1.658  -2.066  0.00  0.00    -0.057 A 
ATOM      3  C3  UNL d   1      -1.069  -2.883  -2.620  0.00  0.00     0.033 A 
ATOM      4  C4  UNL d   1      -0.441  -4.061  -2.230  0.00  0.00    -0.042 A 
ATOM      5  C5  UNL d   1       0.575  -4.013  -1.282  0.00  0.00     0.033 A 
ATOM      6  C6  UNL d   1       0.955  -2.787  -0.727  0.00  0.00    -0.057 A 
ENDROOT
BRANCH   1   7
ATOM      7  N   UNL d   1       0.823  -0.390  -0.574  0.00  0.00    -0.732 N 
ATOM      8  C   UNL d   1       0.498   0.023   0.774  0.00  0.00     0.284 C 
ATOM      9  H3  UNL d   1       1.793  -0.230  -0.836  0.00  0.00     0.395 HD
ENDBRANCH   1   7
TORSDOF 1
ENDMDL
