MODEL 1
REMARK minimizedAffinity -2.96882677
REMARK minimizedRMSD -1
REMARK  1 active torsions:
REMARK  status: ('A' for Active; 'I' for Inactive)
REMARK    1  A    between atoms: N_2  and  C1_3 
ROOT
ATOM      1  C1  UNL d   1      -0.061  -1.735  -0.721  0.00  0.00     0.143 A 
ATOM      2  C2  UNL d   1      -1.050  -1.699   0.268  0.00  0.00    -0.057 A 
ATOM      3  C3  UNL d   1      -0.993  -0.775   1.319  0.00  0.00     0.033 A 
ATOM      4  C4  UNL d   1       0.075   0.111   1.416  0.00  0.00    -0.042 A 
ATOM      5  C5  UNL d   1       1.082   0.076   0.458  0.00  0.00     0.033 A 
ATOM      6  C6  UNL d   1       1.015  -0.843  -0.593  0.00  0.00    -0.057 A 
ENDROOT
BRANCH   1   7
ATOM      7  N   UNL d   1      -0.011  -2.694  -1.736  0.00  0.00    -0.732 N 
ATOM      8  C   UNL d   1      -0.299  -4.084  -1.452  0.00  0.00     0.284 C 
ATOM      9  H3  UNL d   1      -0.410  -2.357  -2.609  0.00  0.00     0.395 HD
ENDBRANCH   1   7
TORSDOF 1
ENDMDL
