MODEL 1
REMARK minimizedAffinity -3.77962041
REMARK minimizedRMSD -1
REMARK  1 active torsions:
REMARK  status: ('A' for Active; 'I' for Inactive)
REMARK    1  A    between atoms: N_2  and  C1_3 
ROOT
ATOM      1  C1  UNL d   1      -0.036   1.333   0.704  0.00  0.00     0.143 A 
ATOM      2  C2  UNL d   1      -0.276   2.288   1.698  0.00  0.00    -0.057 A 
ATOM      3  C3  UNL d   1      -0.599   3.610   1.372  0.00  0.00     0.033 A 
ATOM      4  C4  UNL d   1      -0.659   4.009   0.041  0.00  0.00    -0.042 A 
ATOM      5  C5  UNL d   1      -0.400   3.083  -0.964  0.00  0.00     0.033 A 
ATOM      6  C6  UNL d   1      -0.085   1.762  -0.631  0.00  0.00    -0.057 A 
ENDROOT
BRANCH   1   7
ATOM      7  N   UNL d   1       0.386   0.027   0.966  0.00  0.00    -0.732 N 
ATOM      8  C   UNL d   1       0.811  -0.840  -0.112  0.00  0.00     0.284 C 
ATOM      9  H3  UNL d   1       0.963  -0.035   1.802  0.00  0.00     0.395 HD
ENDBRANCH   1   7
TORSDOF 1
ENDMDL
