MODEL 1
REMARK minimizedAffinity -4.09277534
REMARK minimizedRMSD -1
REMARK  1 active torsions:
REMARK  status: ('A' for Active; 'I' for Inactive)
REMARK    1  A    between atoms: N_2  and  C1_3 
ROOT
ATOM      1  C1  UNL d   1       0.125  -1.013  -0.519  0.00  0.00     0.143 A 
ATOM      2  C2  UNL d   1      -0.962  -1.833  -0.199  0.00  0.00    -0.057 A 
ATOM      3  C3  UNL d   1      -1.245  -2.986  -0.940  0.00  0.00     0.033 A 
ATOM      4  C4  UNL d   1      -0.460  -3.325  -2.038  0.00  0.00    -0.042 A 
ATOM      5  C5  UNL d   1       0.610  -2.511  -2.390  0.00  0.00     0.033 A 
ATOM      6  C6  UNL d   1       0.892  -1.364  -1.641  0.00  0.00    -0.057 A 
ENDROOT
BRANCH   1   7
ATOM      7  N   UNL d   1       0.400   0.199   0.118  0.00  0.00    -0.732 N 
ATOM      8  C   UNL d   1      -0.034   0.431   1.479  0.00  0.00     0.284 C 
ATOM      9  H3  UNL d   1       1.338   0.540  -0.083  0.00  0.00     0.395 HD
ENDBRANCH   1   7
TORSDOF 1
ENDMDL
