MODEL 1
REMARK minimizedAffinity -5.37676001
REMARK minimizedRMSD -1
REMARK  0 active torsions:
REMARK  status: ('A' for Active; 'I' for Inactive)
ROOT
ATOM      1  C   UNL d   1       0.016  -3.801  -0.374  0.00  0.00     0.077 C 
ATOM      2  C1  UNL d   1      -0.081  -2.306  -0.447  0.00  0.00    -0.074 A 
ATOM      3  C2  UNL d   1       0.461  -1.602  -1.527  0.00  0.00    -0.005 A 
ATOM      4  C3  UNL d   1       0.355  -0.212  -1.585  0.00  0.00     0.006 A 
ATOM      5  C4  UNL d   1      -0.294   0.486  -0.567  0.00  0.00    -0.005 A 
ATOM      6  C5  UNL d   1      -0.844  -0.201   0.520  0.00  0.00    -0.074 A 
ATOM      7  C6  UNL d   1      -1.553   0.534   1.619  0.00  0.00     0.077 C 
ATOM      8  C7  UNL d   1      -0.739  -1.597   0.569  0.00  0.00    -0.001 A 
ENDROOT
TORSDOF 0
ENDMDL
