MODEL 1
REMARK minimizedAffinity -3.8907342
REMARK minimizedRMSD -1
REMARK  0 active torsions:
REMARK  status: ('A' for Active; 'I' for Inactive)
ROOT
ATOM      1  C   UNL d   1       0.042  -2.992  -0.064  0.00  0.00     0.077 C 
ATOM      2  C1  UNL d   1       0.109  -1.610  -0.644  0.00  0.00    -0.074 A 
ATOM      3  C2  UNL d   1       0.172  -1.414  -2.028  0.00  0.00    -0.005 A 
ATOM      4  C3  UNL d   1       0.224  -0.123  -2.553  0.00  0.00     0.006 A 
ATOM      5  C4  UNL d   1       0.214   0.983  -1.702  0.00  0.00    -0.005 A 
ATOM      6  C5  UNL d   1       0.151   0.806  -0.316  0.00  0.00    -0.074 A 
ATOM      7  C6  UNL d   1       0.130   1.984   0.612  0.00  0.00     0.077 C 
ATOM      8  C7  UNL d   1       0.092  -0.494   0.204  0.00  0.00    -0.001 A 
ENDROOT
TORSDOF 0
ENDMDL
