MODEL 1
REMARK minimizedAffinity -2.79950833
REMARK minimizedRMSD -1
REMARK  0 active torsions:
REMARK  status: ('A' for Active; 'I' for Inactive)
ROOT
ATOM      1  C   UNL d   1       0.307   1.466  -0.094  0.00  0.00     0.077 C 
ATOM      2  C1  UNL d   1      -0.281   0.146   0.307  0.00  0.00    -0.074 A 
ATOM      3  C2  UNL d   1      -1.179   0.054   1.376  0.00  0.00    -0.005 A 
ATOM      4  C3  UNL d   1      -1.725  -1.179   1.732  0.00  0.00     0.006 A 
ATOM      5  C4  UNL d   1      -1.380  -2.331   1.023  0.00  0.00    -0.005 A 
ATOM      6  C5  UNL d   1      -0.485  -2.258  -0.049  0.00  0.00    -0.074 A 
ATOM      7  C6  UNL d   1      -0.112  -3.485  -0.827  0.00  0.00     0.077 C 
ATOM      8  C7  UNL d   1       0.054  -1.014  -0.405  0.00  0.00    -0.001 A 
ENDROOT
TORSDOF 0
ENDMDL
