MODEL 1
REMARK minimizedAffinity -4.89386368
REMARK minimizedRMSD -1
REMARK  0 active torsions:
REMARK  status: ('A' for Active; 'I' for Inactive)
ROOT
ATOM      1  C   UNL d   1       0.660  -3.336  -0.096  0.00  0.00     0.077 C 
ATOM      2  C1  UNL d   1       0.485  -1.991  -0.735  0.00  0.00    -0.074 A 
ATOM      3  C2  UNL d   1       0.750  -1.801  -2.095  0.00  0.00    -0.005 A 
ATOM      4  C3  UNL d   1       0.574  -0.546  -2.678  0.00  0.00     0.006 A 
ATOM      5  C4  UNL d   1       0.132   0.530  -1.907  0.00  0.00    -0.005 A 
ATOM      6  C5  UNL d   1      -0.139   0.359  -0.546  0.00  0.00    -0.074 A 
ATOM      7  C6  UNL d   1      -0.624   1.503   0.294  0.00  0.00     0.077 C 
ATOM      8  C7  UNL d   1       0.034  -0.906   0.030  0.00  0.00    -0.001 A 
ENDROOT
TORSDOF 0
ENDMDL
