MODEL 1
REMARK minimizedAffinity -4.90999031
REMARK minimizedRMSD -1
REMARK  0 active torsions:
REMARK  status: ('A' for Active; 'I' for Inactive)
ROOT
ATOM      1  C   UNL d   1      -0.992   6.000   2.624  0.00  0.00     0.077 C 
ATOM      2  C1  UNL d   1       0.145   5.320   1.922  0.00  0.00    -0.074 A 
ATOM      3  C2  UNL d   1       1.414   5.905   1.876  0.00  0.00    -0.005 A 
ATOM      4  C3  UNL d   1       2.465   5.256   1.227  0.00  0.00     0.006 A 
ATOM      5  C4  UNL d   1       2.257   4.017   0.618  0.00  0.00    -0.005 A 
ATOM      6  C5  UNL d   1       0.994   3.416   0.655  0.00  0.00    -0.074 A 
ATOM      7  C6  UNL d   1       0.756   2.081   0.015  0.00  0.00     0.077 C 
ATOM      8  C7  UNL d   1      -0.054   4.072   1.315  0.00  0.00    -0.001 A 
ENDROOT
TORSDOF 0
ENDMDL
