MODEL 1
REMARK minimizedAffinity -4.64602041
REMARK minimizedRMSD -1
REMARK  0 active torsions:
REMARK  status: ('A' for Active; 'I' for Inactive)
ROOT
ATOM      1  C   UNL d   1       0.207  -2.973   0.961  0.00  0.00     0.077 C 
ATOM      2  C1  UNL d   1      -0.022  -1.622   0.351  0.00  0.00    -0.074 A 
ATOM      3  C2  UNL d   1      -0.622  -0.594   1.087  0.00  0.00    -0.005 A 
ATOM      4  C3  UNL d   1      -0.820   0.660   0.510  0.00  0.00     0.006 A 
ATOM      5  C4  UNL d   1      -0.421   0.900  -0.806  0.00  0.00    -0.005 A 
ATOM      6  C5  UNL d   1       0.182  -0.115  -1.556  0.00  0.00    -0.074 A 
ATOM      7  C6  UNL d   1       0.626   0.129  -2.967  0.00  0.00     0.077 C 
ATOM      8  C7  UNL d   1       0.384  -1.371  -0.967  0.00  0.00    -0.001 A 
ENDROOT
TORSDOF 0
ENDMDL
