MODEL 1
REMARK minimizedAffinity -4.44888115
REMARK minimizedRMSD -1
REMARK  0 active torsions:
REMARK  status: ('A' for Active; 'I' for Inactive)
ROOT
ATOM      1  C   UNL d   1       0.330  -3.466   0.398  0.00  0.00     0.077 C 
ATOM      2  C1  UNL d   1       0.000  -2.005   0.319  0.00  0.00    -0.074 A 
ATOM      3  C2  UNL d   1      -0.765  -1.386   1.312  0.00  0.00    -0.005 A 
ATOM      4  C3  UNL d   1      -1.055  -0.024   1.229  0.00  0.00     0.006 A 
ATOM      5  C4  UNL d   1      -0.585   0.731   0.154  0.00  0.00    -0.005 A 
ATOM      6  C5  UNL d   1       0.182   0.129  -0.849  0.00  0.00    -0.074 A 
ATOM      7  C6  UNL d   1       0.704   0.927  -2.006  0.00  0.00     0.077 C 
ATOM      8  C7  UNL d   1       0.476  -1.239  -0.755  0.00  0.00    -0.001 A 
ENDROOT
TORSDOF 0
ENDMDL
