MODEL 1
REMARK minimizedAffinity -4.33314848
REMARK minimizedRMSD -1
REMARK  0 active torsions:
REMARK  status: ('A' for Active; 'I' for Inactive)
ROOT
ATOM      1  C   UNL d   1       2.633   3.111   1.747  0.00  0.00     0.077 C 
ATOM      2  C1  UNL d   1       1.571   2.455   0.916  0.00  0.00    -0.074 A 
ATOM      3  C2  UNL d   1       0.787   3.202   0.031  0.00  0.00    -0.005 A 
ATOM      4  C3  UNL d   1      -0.190   2.577  -0.743  0.00  0.00     0.006 A 
ATOM      5  C4  UNL d   1      -0.393   1.200  -0.641  0.00  0.00    -0.005 A 
ATOM      6  C5  UNL d   1       0.381   0.436   0.238  0.00  0.00    -0.074 A 
ATOM      7  C6  UNL d   1       0.183  -1.046   0.354  0.00  0.00     0.077 C 
ATOM      8  C7  UNL d   1       1.366   1.071   1.007  0.00  0.00    -0.001 A 
ENDROOT
TORSDOF 0
ENDMDL
