MODEL 1
REMARK minimizedAffinity -3.92697906
REMARK minimizedRMSD -1
REMARK  0 active torsions:
REMARK  status: ('A' for Active; 'I' for Inactive)
ROOT
ATOM      1  C   UNL d   1       0.309  -3.479   0.579  0.00  0.00     0.077 C 
ATOM      2  C1  UNL d   1      -0.108  -2.043   0.695  0.00  0.00    -0.074 A 
ATOM      3  C2  UNL d   1      -1.115  -1.657   1.585  0.00  0.00    -0.005 A 
ATOM      4  C3  UNL d   1      -1.486  -0.317   1.688  0.00  0.00     0.006 A 
ATOM      5  C4  UNL d   1      -0.855   0.650   0.904  0.00  0.00    -0.005 A 
ATOM      6  C5  UNL d   1       0.155   0.282   0.009  0.00  0.00    -0.074 A 
ATOM      7  C6  UNL d   1       0.850   1.309  -0.834  0.00  0.00     0.077 C 
ATOM      8  C7  UNL d   1       0.527  -1.066  -0.084  0.00  0.00    -0.001 A 
ENDROOT
TORSDOF 0
ENDMDL
