MODEL 1
REMARK minimizedAffinity -5.04179335
REMARK minimizedRMSD -1
REMARK  0 active torsions:
REMARK  status: ('A' for Active; 'I' for Inactive)
ROOT
ATOM      1  C   UNL d   1       0.230  -3.363   0.188  0.00  0.00     0.077 C 
ATOM      2  C1  UNL d   1      -0.287  -1.994   0.516  0.00  0.00    -0.074 A 
ATOM      3  C2  UNL d   1      -1.108  -1.783   1.629  0.00  0.00    -0.005 A 
ATOM      4  C3  UNL d   1      -1.573  -0.502   1.927  0.00  0.00     0.006 A 
ATOM      5  C4  UNL d   1      -1.223   0.579   1.117  0.00  0.00    -0.005 A 
ATOM      6  C5  UNL d   1      -0.403   0.387   0.001  0.00  0.00    -0.074 A 
ATOM      7  C6  UNL d   1      -0.009   1.540  -0.874  0.00  0.00     0.077 C 
ATOM      8  C7  UNL d   1       0.066  -0.901  -0.288  0.00  0.00    -0.001 A 
ENDROOT
TORSDOF 0
ENDMDL
