MODEL 1
REMARK minimizedAffinity -4.36909533
REMARK minimizedRMSD -1
REMARK  0 active torsions:
REMARK  status: ('A' for Active; 'I' for Inactive)
ROOT
ATOM      1  C   UNL d   1      -0.264  -3.209   0.410  0.00  0.00     0.077 C 
ATOM      2  C1  UNL d   1      -0.096  -1.923  -0.343  0.00  0.00    -0.074 A 
ATOM      3  C2  UNL d   1       0.242  -1.923  -1.700  0.00  0.00    -0.005 A 
ATOM      4  C3  UNL d   1       0.385  -0.719  -2.389  0.00  0.00     0.006 A 
ATOM      5  C4  UNL d   1       0.193   0.496  -1.729  0.00  0.00    -0.005 A 
ATOM      6  C5  UNL d   1      -0.146   0.515  -0.372  0.00  0.00    -0.074 A 
ATOM      7  C6  UNL d   1      -0.365   1.812   0.350  0.00  0.00     0.077 C 
ATOM      8  C7  UNL d   1      -0.295  -0.699   0.311  0.00  0.00    -0.001 A 
ENDROOT
TORSDOF 0
ENDMDL
