MODEL 1
REMARK minimizedAffinity -6.49256945
REMARK minimizedRMSD -1
REMARK  0 active torsions:
REMARK  status: ('A' for Active; 'I' for Inactive)
ROOT
ATOM      1  C   UNL d   1       0.181  -2.675  -2.599  0.00  0.00     0.077 C 
ATOM      2  C1  UNL d   1       0.022  -1.959  -1.291  0.00  0.00    -0.074 A 
ATOM      3  C2  UNL d   1      -0.143  -2.670  -0.098  0.00  0.00    -0.005 A 
ATOM      4  C3  UNL d   1      -0.280  -1.990   1.113  0.00  0.00     0.006 A 
ATOM      5  C4  UNL d   1      -0.255  -0.595   1.142  0.00  0.00    -0.005 A 
ATOM      6  C5  UNL d   1      -0.090   0.132  -0.040  0.00  0.00    -0.074 A 
ATOM      7  C6  UNL d   1      -0.050   1.632  -0.025  0.00  0.00     0.077 C 
ATOM      8  C7  UNL d   1       0.054  -0.558  -1.252  0.00  0.00    -0.001 A 
ENDROOT
TORSDOF 0
ENDMDL
