MODEL 1
REMARK minimizedAffinity -4.12294102
REMARK minimizedRMSD -1
REMARK  0 active torsions:
REMARK  status: ('A' for Active; 'I' for Inactive)
ROOT
ATOM      1  C   UNL d   1       0.268   0.716  -2.254  0.00  0.00     0.077 C 
ATOM      2  C1  UNL d   1      -0.081   0.024  -0.970  0.00  0.00    -0.074 A 
ATOM      3  C2  UNL d   1      -0.630   0.734   0.103  0.00  0.00    -0.005 A 
ATOM      4  C3  UNL d   1      -0.959   0.075   1.287  0.00  0.00     0.006 A 
ATOM      5  C4  UNL d   1      -0.742  -1.297   1.412  0.00  0.00    -0.005 A 
ATOM      6  C5  UNL d   1      -0.194  -2.024   0.350  0.00  0.00    -0.074 A 
ATOM      7  C6  UNL d   1       0.036  -3.502   0.463  0.00  0.00     0.077 C 
ATOM      8  C7  UNL d   1       0.127  -1.356  -0.840  0.00  0.00    -0.001 A 
ENDROOT
TORSDOF 0
ENDMDL
