MODEL 1
REMARK minimizedAffinity -3.86706924
REMARK minimizedRMSD -1
REMARK  0 active torsions:
REMARK  status: ('A' for Active; 'I' for Inactive)
ROOT
ATOM      1  C   UNL d   1       2.167  -2.176   2.517  0.00  0.00     0.077 C 
ATOM      2  C1  UNL d   1       0.991  -1.868   1.639  0.00  0.00    -0.074 A 
ATOM      3  C2  UNL d   1      -0.034  -2.802   1.455  0.00  0.00    -0.005 A 
ATOM      4  C3  UNL d   1      -1.126  -2.497   0.642  0.00  0.00     0.006 A 
ATOM      5  C4  UNL d   1      -1.204  -1.257   0.006  0.00  0.00    -0.005 A 
ATOM      6  C5  UNL d   1      -0.189  -0.310   0.179  0.00  0.00    -0.074 A 
ATOM      7  C6  UNL d   1      -0.262   1.031  -0.489  0.00  0.00     0.077 C 
ATOM      8  C7  UNL d   1       0.901  -0.621   1.003  0.00  0.00    -0.001 A 
ENDROOT
TORSDOF 0
ENDMDL
