MODEL 1
REMARK minimizedAffinity -4.98289299
REMARK minimizedRMSD -1
REMARK  0 active torsions:
REMARK  status: ('A' for Active; 'I' for Inactive)
ROOT
ATOM      1  C   UNL d   1      -0.072   1.733  -0.288  0.00  0.00     0.077 C 
ATOM      2  C1  UNL d   1      -0.256   0.278   0.025  0.00  0.00    -0.074 A 
ATOM      3  C2  UNL d   1      -1.011  -0.130   1.130  0.00  0.00    -0.005 A 
ATOM      4  C3  UNL d   1      -1.181  -1.487   1.403  0.00  0.00     0.006 A 
ATOM      5  C4  UNL d   1      -0.600  -2.449   0.576  0.00  0.00    -0.005 A 
ATOM      6  C5  UNL d   1       0.157  -2.060  -0.534  0.00  0.00    -0.074 A 
ATOM      7  C6  UNL d   1       0.781  -3.081  -1.439  0.00  0.00     0.077 C 
ATOM      8  C7  UNL d   1       0.318  -0.694  -0.806  0.00  0.00    -0.001 A 
ENDROOT
TORSDOF 0
ENDMDL
