MODEL 1
REMARK minimizedAffinity 14.769208
REMARK minimizedRMSD -1
REMARK  0 active torsions:
REMARK  status: ('A' for Active; 'I' for Inactive)
ROOT
ATOM      1  C   UNL d   1      -2.930   1.631   1.458  0.00  0.00    -0.002 A 
ATOM      2  C1  UNL d   1      -2.271   0.990   2.497  0.00  0.00     0.010 A 
ATOM      3  C2  UNL d   1      -1.724   1.723   3.551  0.00  0.00     0.041 A 
ATOM      4  C3  UNL d   1      -1.853   3.126   3.545  0.00  0.00    -0.075 A 
ATOM      5  S   UNL d   1      -1.263   4.230   4.731  0.00  0.00     0.015 SA
ATOM      6  C4  UNL d   1      -1.872   5.579   3.887  0.00  0.00     0.022 A 
ATOM      7  C5  UNL d   1      -2.512   5.215   2.726  0.00  0.00     0.026 A 
ATOM      8  C6  UNL d   1      -2.512   3.795   2.510  0.00  0.00    -0.082 A 
ATOM      9  C7  UNL d   1      -3.056   3.023   1.455  0.00  0.00     0.045 A 
ENDROOT
TORSDOF 0
ENDMDL
