MODEL 1
REMARK minimizedAffinity 4.72745037
REMARK minimizedRMSD -1
REMARK  0 active torsions:
REMARK  status: ('A' for Active; 'I' for Inactive)
ROOT
ATOM      1  C   UNL d   1       3.579   5.107  -1.973  0.00  0.00    -0.002 A 
ATOM      2  C1  UNL d   1       2.516   5.694  -1.302  0.00  0.00     0.010 A 
ATOM      3  C2  UNL d   1       2.616   5.999   0.057  0.00  0.00     0.041 A 
ATOM      4  C3  UNL d   1       3.814   5.703   0.736  0.00  0.00    -0.075 A 
ATOM      5  S   UNL d   1       4.164   5.988   2.400  0.00  0.00     0.015 SA
ATOM      6  C4  UNL d   1       5.733   5.338   2.258  0.00  0.00     0.022 A 
ATOM      7  C5  UNL d   1       6.000   4.909   0.980  0.00  0.00     0.026 A 
ATOM      8  C6  UNL d   1       4.899   5.112   0.081  0.00  0.00    -0.082 A 
ATOM      9  C7  UNL d   1       4.766   4.814  -1.296  0.00  0.00     0.045 A 
ENDROOT
TORSDOF 0
ENDMDL
