MODEL 1
REMARK minimizedAffinity 12.7670288
REMARK minimizedRMSD -1
REMARK  0 active torsions:
REMARK  status: ('A' for Active; 'I' for Inactive)
ROOT
ATOM      1  C   UNL d   1      -2.832  -0.903   1.433  0.00  0.00    -0.002 A 
ATOM      2  C1  UNL d   1      -2.823  -0.309   0.179  0.00  0.00     0.010 A 
ATOM      3  C2  UNL d   1      -2.770   1.081   0.051  0.00  0.00     0.041 A 
ATOM      4  C3  UNL d   1      -2.724   1.871   1.217  0.00  0.00    -0.075 A 
ATOM      5  S   UNL d   1      -2.654   3.591   1.305  0.00  0.00     0.015 SA
ATOM      6  C4  UNL d   1      -2.634   3.578   3.009  0.00  0.00     0.022 A 
ATOM      7  C5  UNL d   1      -2.679   2.300   3.515  0.00  0.00     0.026 A 
ATOM      8  C6  UNL d   1      -2.731   1.295   2.491  0.00  0.00    -0.082 A 
ATOM      9  C7  UNL d   1      -2.786  -0.116   2.587  0.00  0.00     0.045 A 
ENDROOT
TORSDOF 0
ENDMDL
