MODEL 1
REMARK minimizedAffinity 26.5613022
REMARK minimizedRMSD -1
REMARK  0 active torsions:
REMARK  status: ('A' for Active; 'I' for Inactive)
ROOT
ATOM      1  C   UNL d   1      -4.526   5.296   1.770  0.00  0.00    -0.002 A 
ATOM      2  C1  UNL d   1      -5.506   5.584   2.709  0.00  0.00     0.010 A 
ATOM      3  C2  UNL d   1      -5.165   5.813   4.044  0.00  0.00     0.041 A 
ATOM      4  C3  UNL d   1      -3.809   5.751   4.421  0.00  0.00    -0.075 A 
ATOM      5  S   UNL d   1      -3.156   5.998   5.997  0.00  0.00     0.015 SA
ATOM      6  C4  UNL d   1      -1.561   5.728   5.460  0.00  0.00     0.022 A 
ATOM      7  C5  UNL d   1      -1.510   5.455   4.114  0.00  0.00     0.026 A 
ATOM      8  C6  UNL d   1      -2.804   5.464   3.492  0.00  0.00    -0.082 A 
ATOM      9  C7  UNL d   1      -3.182   5.234   2.148  0.00  0.00     0.045 A 
ENDROOT
TORSDOF 0
ENDMDL
