MODEL 1
REMARK minimizedAffinity 14.1640081
REMARK minimizedRMSD -1
REMARK  0 active torsions:
REMARK  status: ('A' for Active; 'I' for Inactive)
ROOT
ATOM      1  C   UNL d   1      -4.266   3.919   2.050  0.00  0.00    -0.002 A 
ATOM      2  C1  UNL d   1      -5.573   3.501   1.838  0.00  0.00     0.010 A 
ATOM      3  C2  UNL d   1      -5.982   2.224   2.225  0.00  0.00     0.041 A 
ATOM      4  C3  UNL d   1      -5.048   1.365   2.837  0.00  0.00    -0.075 A 
ATOM      5  S   UNL d   1      -5.324  -0.243   3.394  0.00  0.00     0.015 SA
ATOM      6  C4  UNL d   1      -3.714  -0.413   3.928  0.00  0.00     0.022 A 
ATOM      7  C5  UNL d   1      -2.970   0.719   3.695  0.00  0.00     0.026 A 
ATOM      8  C6  UNL d   1      -3.727   1.763   3.062  0.00  0.00    -0.082 A 
ATOM      9  C7  UNL d   1      -3.343   3.064   2.657  0.00  0.00     0.045 A 
ENDROOT
TORSDOF 0
ENDMDL
