MODEL 1
REMARK minimizedAffinity 14.0083628
REMARK minimizedRMSD -1
REMARK  0 active torsions:
REMARK  status: ('A' for Active; 'I' for Inactive)
ROOT
ATOM      1  C   UNL d   1      -2.003   5.412   5.999  0.00  0.00    -0.002 A 
ATOM      2  C1  UNL d   1      -1.509   4.388   5.203  0.00  0.00     0.010 A 
ATOM      3  C2  UNL d   1      -2.238   3.930   4.103  0.00  0.00     0.041 A 
ATOM      4  C3  UNL d   1      -3.481   4.525   3.814  0.00  0.00    -0.075 A 
ATOM      5  S   UNL d   1      -4.547   4.128   2.518  0.00  0.00     0.015 SA
ATOM      6  C4  UNL d   1      -5.682   5.308   2.991  0.00  0.00     0.022 A 
ATOM      7  C5  UNL d   1      -5.274   5.998   4.108  0.00  0.00     0.026 A 
ATOM      8  C6  UNL d   1      -3.999   5.558   4.600  0.00  0.00    -0.082 A 
ATOM      9  C7  UNL d   1      -3.237   6.000   5.709  0.00  0.00     0.045 A 
ENDROOT
TORSDOF 0
ENDMDL
