MODEL 1
REMARK minimizedAffinity 3.05352354
REMARK minimizedRMSD -1
REMARK  0 active torsions:
REMARK  status: ('A' for Active; 'I' for Inactive)
ROOT
ATOM      1  C   UNL d   1       2.141   0.541  -1.690  0.00  0.00    -0.002 A 
ATOM      2  C1  UNL d   1       3.391   1.078  -1.965  0.00  0.00     0.010 A 
ATOM      3  C2  UNL d   1       3.634   1.726  -3.177  0.00  0.00     0.041 A 
ATOM      4  C3  UNL d   1       2.589   1.829  -4.116  0.00  0.00    -0.075 A 
ATOM      5  S   UNL d   1       2.656   2.581  -5.667  0.00  0.00     0.015 SA
ATOM      6  C4  UNL d   1       1.026   2.208  -6.000  0.00  0.00     0.022 A 
ATOM      7  C5  UNL d   1       0.431   1.526  -4.965  0.00  0.00     0.026 A 
ATOM      8  C6  UNL d   1       1.322   1.297  -3.862  0.00  0.00    -0.082 A 
ATOM      9  C7  UNL d   1       1.107   0.645  -2.624  0.00  0.00     0.045 A 
ENDROOT
TORSDOF 0
ENDMDL
