MODEL 1
REMARK minimizedAffinity 19.567852
REMARK minimizedRMSD -1
REMARK  0 active torsions:
REMARK  status: ('A' for Active; 'I' for Inactive)
ROOT
ATOM      1  C   UNL d   1       3.694   4.451  -0.021  0.00  0.00    -0.002 A 
ATOM      2  C1  UNL d   1       2.849   5.439   0.464  0.00  0.00     0.010 A 
ATOM      3  C2  UNL d   1       3.030   5.963   1.745  0.00  0.00     0.041 A 
ATOM      4  C3  UNL d   1       4.087   5.474   2.538  0.00  0.00    -0.075 A 
ATOM      5  S   UNL d   1       4.502   5.968   4.137  0.00  0.00     0.015 SA
ATOM      6  C4  UNL d   1       5.811   4.880   4.214  0.00  0.00     0.022 A 
ATOM      7  C5  UNL d   1       5.943   4.149   3.056  0.00  0.00     0.026 A 
ATOM      8  C6  UNL d   1       4.952   4.480   2.071  0.00  0.00    -0.082 A 
ATOM      9  C7  UNL d   1       4.741   3.968   0.768  0.00  0.00     0.045 A 
ENDROOT
TORSDOF 0
ENDMDL
