MODEL 1
REMARK minimizedAffinity 21.507597
REMARK minimizedRMSD -1
REMARK  0 active torsions:
REMARK  status: ('A' for Active; 'I' for Inactive)
ROOT
ATOM      1  C   UNL d   1      -5.108  -1.037   5.758  0.00  0.00    -0.002 A 
ATOM      2  C1  UNL d   1      -5.941  -1.051   4.648  0.00  0.00     0.010 A 
ATOM      3  C2  UNL d   1      -5.494  -0.562   3.419  0.00  0.00     0.041 A 
ATOM      4  C3  UNL d   1      -4.182  -0.057   3.323  0.00  0.00    -0.075 A 
ATOM      5  S   UNL d   1      -3.419   0.593   1.920  0.00  0.00     0.015 SA
ATOM      6  C4  UNL d   1      -1.969   0.902   2.760  0.00  0.00     0.022 A 
ATOM      7  C5  UNL d   1      -2.048   0.526   4.080  0.00  0.00     0.026 A 
ATOM      8  C6  UNL d   1      -3.325  -0.033   4.426  0.00  0.00    -0.082 A 
ATOM      9  C7  UNL d   1      -3.808  -0.535   5.659  0.00  0.00     0.045 A 
ENDROOT
TORSDOF 0
ENDMDL
