MODEL 1
REMARK minimizedAffinity 16.0469398
REMARK minimizedRMSD -1
REMARK  0 active torsions:
REMARK  status: ('A' for Active; 'I' for Inactive)
ROOT
ATOM      1  C   UNL d   1      -0.355   5.999  -0.630  0.00  0.00    -0.002 A 
ATOM      2  C1  UNL d   1       0.872   6.000   0.018  0.00  0.00     0.010 A 
ATOM      3  C2  UNL d   1       2.061   5.999  -0.714  0.00  0.00     0.041 A 
ATOM      4  C3  UNL d   1       1.996   6.000  -2.121  0.00  0.00    -0.075 A 
ATOM      5  S   UNL d   1       3.322   6.000  -3.223  0.00  0.00     0.015 SA
ATOM      6  C4  UNL d   1       2.291   6.000  -4.580  0.00  0.00     0.022 A 
ATOM      7  C5  UNL d   1       0.964   6.000  -4.219  0.00  0.00     0.026 A 
ATOM      8  C6  UNL d   1       0.772   6.000  -2.796  0.00  0.00    -0.082 A 
ATOM      9  C7  UNL d   1      -0.416   6.000  -2.026  0.00  0.00     0.045 A 
ENDROOT
TORSDOF 0
ENDMDL
