MODEL 1
REMARK minimizedAffinity 10.6222715
REMARK minimizedRMSD -1
REMARK  0 active torsions:
REMARK  status: ('A' for Active; 'I' for Inactive)
ROOT
ATOM      1  C   UNL d   1      -5.108  -0.355   5.491  0.00  0.00    -0.002 A 
ATOM      2  C1  UNL d   1      -5.934  -0.618   4.407  0.00  0.00     0.010 A 
ATOM      3  C2  UNL d   1      -5.441  -0.538   3.103  0.00  0.00     0.041 A 
ATOM      4  C3  UNL d   1      -4.090  -0.189   2.905  0.00  0.00    -0.075 A 
ATOM      5  S   UNL d   1      -3.268  -0.032   1.398  0.00  0.00     0.015 SA
ATOM      6  C4  UNL d   1      -1.801   0.386   2.158  0.00  0.00     0.022 A 
ATOM      7  C5  UNL d   1      -1.917   0.410   3.528  0.00  0.00     0.026 A 
ATOM      8  C6  UNL d   1      -3.239   0.078   3.981  0.00  0.00    -0.082 A 
ATOM      9  C7  UNL d   1      -3.769  -0.010   5.291  0.00  0.00     0.045 A 
ENDROOT
TORSDOF 0
ENDMDL
