MODEL 1
REMARK minimizedAffinity 0.00367312273
REMARK minimizedRMSD -1
REMARK  0 active torsions:
REMARK  status: ('A' for Active; 'I' for Inactive)
ROOT
ATOM      1  C   UNL d   1      -5.054  -1.475  -0.750  0.00  0.00    -0.002 A 
ATOM      2  C1  UNL d   1      -5.943  -1.195   0.277  0.00  0.00     0.010 A 
ATOM      3  C2  UNL d   1      -5.494  -0.622   1.469  0.00  0.00     0.041 A 
ATOM      4  C3  UNL d   1      -4.123  -0.331   1.611  0.00  0.00    -0.075 A 
ATOM      5  S   UNL d   1      -3.346   0.372   2.980  0.00  0.00     0.015 SA
ATOM      6  C4  UNL d   1      -1.815   0.318   2.233  0.00  0.00     0.022 A 
ATOM      7  C5  UNL d   1      -1.877  -0.221   0.969  0.00  0.00     0.026 A 
ATOM      8  C6  UNL d   1      -3.208  -0.603   0.590  0.00  0.00    -0.082 A 
ATOM      9  C7  UNL d   1      -3.694  -1.185  -0.606  0.00  0.00     0.045 A 
ENDROOT
TORSDOF 0
ENDMDL
