MODEL 1
REMARK minimizedAffinity 18.1223946
REMARK minimizedRMSD -1
REMARK  0 active torsions:
REMARK  status: ('A' for Active; 'I' for Inactive)
ROOT
ATOM      1  C4' PXY d   1      -2.692  -2.652   2.823  0.00  0.00     0.077 C 
ATOM      2  C1' PXY d   1      -0.636  -1.579  -2.472  0.00  0.00     0.077 C 
ATOM      3  C1  PXY d   1      -1.172  -1.873  -1.085  0.00  0.00    -0.082 A 
ATOM      4  C2  PXY d   1      -2.060  -1.057  -0.540  0.00  0.00     0.003 A 
ATOM      5  C3  PXY d   1      -2.532  -1.291   0.726  0.00  0.00     0.003 A 
ATOM      6  C4  PXY d   1      -2.130  -2.400   1.421  0.00  0.00    -0.082 A 
ATOM      7  C5  PXY d   1      -1.233  -3.243   0.868  0.00  0.00     0.003 A 
ATOM      8  C6  PXY d   1      -0.735  -2.966  -0.402  0.00  0.00     0.003 A 
ENDROOT
TORSDOF 0
ENDMDL
