MODEL 1
REMARK minimizedAffinity 0.953871429
REMARK minimizedRMSD -1
REMARK  0 active torsions:
REMARK  status: ('A' for Active; 'I' for Inactive)
ROOT
ATOM      1  C4' PXY d   1      -1.044  -2.327  -0.196  0.00  0.00     0.077 C 
ATOM      2  C1' PXY d   1      -1.371  -6.000   4.257  0.00  0.00     0.077 C 
ATOM      3  C1  PXY d   1      -1.275  -5.044   3.084  0.00  0.00    -0.082 A 
ATOM      4  C2  PXY d   1      -1.729  -3.807   3.210  0.00  0.00     0.003 A 
ATOM      5  C3  PXY d   1      -1.680  -2.939   2.149  0.00  0.00     0.003 A 
ATOM      6  C4  PXY d   1      -1.111  -3.324   0.965  0.00  0.00    -0.082 A 
ATOM      7  C5  PXY d   1      -0.636  -4.581   0.832  0.00  0.00     0.003 A 
ATOM      8  C6  PXY d   1      -0.733  -5.459   1.907  0.00  0.00     0.003 A 
ENDROOT
TORSDOF 0
ENDMDL
