MODEL 1
REMARK minimizedAffinity 16.7006836
REMARK minimizedRMSD -1
REMARK  0 active torsions:
REMARK  status: ('A' for Active; 'I' for Inactive)
ROOT
ATOM      1  C4' PXY d   1      -0.750  -2.358  -2.065  0.00  0.00     0.077 C 
ATOM      2  C1' PXY d   1      -0.014  -6.000   2.363  0.00  0.00     0.077 C 
ATOM      3  C1  PXY d   1      -0.203  -5.054   1.193  0.00  0.00    -0.082 A 
ATOM      4  C2  PXY d   1      -0.181  -3.747   1.399  0.00  0.00     0.003 A 
ATOM      5  C3  PXY d   1      -0.382  -2.878   0.358  0.00  0.00     0.003 A 
ATOM      6  C4  PXY d   1      -0.554  -3.350  -0.916  0.00  0.00    -0.082 A 
ATOM      7  C5  PXY d   1      -0.567  -4.682  -1.135  0.00  0.00     0.003 A 
ATOM      8  C6  PXY d   1      -0.402  -5.548  -0.059  0.00  0.00     0.003 A 
ENDROOT
TORSDOF 0
ENDMDL
