MODEL 1
REMARK minimizedAffinity 15.578433
REMARK minimizedRMSD -1
REMARK  0 active torsions:
REMARK  status: ('A' for Active; 'I' for Inactive)
ROOT
ATOM      1  C4' PXY d   1       0.282  -4.626   0.959  0.00  0.00     0.077 C 
ATOM      2  C1' PXY d   1      -1.992  -1.274  -3.166  0.00  0.00     0.077 C 
ATOM      3  C1  PXY d   1      -1.400  -2.164  -2.090  0.00  0.00    -0.082 A 
ATOM      4  C2  PXY d   1      -1.202  -1.678  -0.876  0.00  0.00     0.003 A 
ATOM      5  C3  PXY d   1      -0.638  -2.459   0.100  0.00  0.00     0.003 A 
ATOM      6  C4  PXY d   1      -0.322  -3.767  -0.156  0.00  0.00    -0.082 A 
ATOM      7  C5  PXY d   1      -0.531  -4.273  -1.389  0.00  0.00     0.003 A 
ATOM      8  C6  PXY d   1      -1.067  -3.451  -2.377  0.00  0.00     0.003 A 
ENDROOT
TORSDOF 0
ENDMDL
