MODEL 1
REMARK minimizedAffinity 13.3548698
REMARK minimizedRMSD -1
REMARK  0 active torsions:
REMARK  status: ('A' for Active; 'I' for Inactive)
ROOT
ATOM      1  C4' PXY d   1       0.369  -6.000   0.676  0.00  0.00     0.077 C 
ATOM      2  C1' PXY d   1      -1.732  -1.938  -2.859  0.00  0.00     0.077 C 
ATOM      3  C1  PXY d   1      -1.188  -3.012  -1.938  0.00  0.00    -0.082 A 
ATOM      4  C2  PXY d   1      -0.718  -2.676  -0.747  0.00  0.00     0.003 A 
ATOM      5  C3  PXY d   1      -0.193  -3.631   0.085  0.00  0.00     0.003 A 
ATOM      6  C4  PXY d   1      -0.198  -4.950  -0.283  0.00  0.00    -0.082 A 
ATOM      7  C5  PXY d   1      -0.686  -5.302  -1.491  0.00  0.00     0.003 A 
ATOM      8  C6  PXY d   1      -1.177  -4.312  -2.338  0.00  0.00     0.003 A 
ENDROOT
TORSDOF 0
ENDMDL
