MODEL 1
REMARK minimizedAffinity 15.7053194
REMARK minimizedRMSD -1
REMARK  0 active torsions:
REMARK  status: ('A' for Active; 'I' for Inactive)
ROOT
ATOM      1  C4' PXY d   1       0.704   3.379  -4.616  0.00  0.00     0.077 C 
ATOM      2  C1' PXY d   1      -4.823   2.385  -5.987  0.00  0.00     0.077 C 
ATOM      3  C1  PXY d   1      -3.376   2.659  -5.627  0.00  0.00    -0.082 A 
ATOM      4  C2  PXY d   1      -2.437   1.805  -5.999  0.00  0.00     0.003 A 
ATOM      5  C3  PXY d   1      -1.127   2.020  -5.654  0.00  0.00     0.003 A 
ATOM      6  C4  PXY d   1      -0.769   3.148  -4.966  0.00  0.00    -0.082 A 
ATOM      7  C5  PXY d   1      -1.720   4.030  -4.592  0.00  0.00     0.003 A 
ATOM      8  C6  PXY d   1      -3.049   3.772  -4.916  0.00  0.00     0.003 A 
ENDROOT
TORSDOF 0
ENDMDL
