MODEL 1
REMARK minimizedAffinity 9.97930622
REMARK minimizedRMSD -1
REMARK  0 active torsions:
REMARK  status: ('A' for Active; 'I' for Inactive)
ROOT
ATOM      1  C4' PXY d   1      -0.761  -4.645   0.514  0.00  0.00     0.077 C 
ATOM      2  C1' PXY d   1      -3.876   0.010  -0.917  0.00  0.00     0.077 C 
ATOM      3  C1  PXY d   1      -3.054  -1.211  -0.554  0.00  0.00    -0.082 A 
ATOM      4  C2  PXY d   1      -3.475  -2.023   0.402  0.00  0.00     0.003 A 
ATOM      5  C3  PXY d   1      -2.727  -3.113   0.766  0.00  0.00     0.003 A 
ATOM      6  C4  PXY d   1      -1.563  -3.406   0.107  0.00  0.00    -0.082 A 
ATOM      7  C5  PXY d   1      -1.132  -2.588  -0.877  0.00  0.00     0.003 A 
ATOM      8  C6  PXY d   1      -1.884  -1.464  -1.203  0.00  0.00     0.003 A 
ENDROOT
TORSDOF 0
ENDMDL
