MODEL 1
REMARK minimizedAffinity 10.284584
REMARK minimizedRMSD -1
REMARK  0 active torsions:
REMARK  status: ('A' for Active; 'I' for Inactive)
ROOT
ATOM      1  C4' PXY d   1      -0.094  -3.335   0.357  0.00  0.00     0.077 C 
ATOM      2  C1' PXY d   1       0.602  -1.561   5.815  0.00  0.00     0.077 C 
ATOM      3  C1  PXY d   1       0.431  -2.020   4.380  0.00  0.00    -0.082 A 
ATOM      4  C2  PXY d   1      -0.780  -2.287   3.919  0.00  0.00     0.003 A 
ATOM      5  C3  PXY d   1      -0.950  -2.734   2.634  0.00  0.00     0.003 A 
ATOM      6  C4  PXY d   1       0.125  -2.859   1.796  0.00  0.00    -0.082 A 
ATOM      7  C5  PXY d   1       1.363  -2.579   2.256  0.00  0.00     0.003 A 
ATOM      8  C6  PXY d   1       1.519  -2.166   3.576  0.00  0.00     0.003 A 
ENDROOT
TORSDOF 0
ENDMDL
