MODEL 1
REMARK minimizedAffinity 11.8362408
REMARK minimizedRMSD -1
REMARK  0 active torsions:
REMARK  status: ('A' for Active; 'I' for Inactive)
ROOT
ATOM      1  C4' PXY d   1      -0.007  -6.000   1.877  0.00  0.00     0.077 C 
ATOM      2  C1' PXY d   1      -2.137  -1.091  -0.309  0.00  0.00     0.077 C 
ATOM      3  C1  PXY d   1      -1.580  -2.384   0.253  0.00  0.00    -0.082 A 
ATOM      4  C2  PXY d   1      -1.655  -2.618   1.553  0.00  0.00     0.003 A 
ATOM      5  C3  PXY d   1      -1.128  -3.768   2.082  0.00  0.00     0.003 A 
ATOM      6  C4  PXY d   1      -0.565  -4.712   1.265  0.00  0.00    -0.082 A 
ATOM      7  C5  PXY d   1      -0.494  -4.485  -0.064  0.00  0.00     0.003 A 
ATOM      8  C6  PXY d   1      -0.998  -3.293  -0.576  0.00  0.00     0.003 A 
ENDROOT
TORSDOF 0
ENDMDL
