MODEL 1
REMARK minimizedAffinity 14.6627388
REMARK minimizedRMSD -1
REMARK  0 active torsions:
REMARK  status: ('A' for Active; 'I' for Inactive)
ROOT
ATOM      1  C4' PXY d   1      -1.245  -1.646  -1.479  0.00  0.00     0.077 C 
ATOM      2  C1' PXY d   1       0.560  -5.999   1.869  0.00  0.00     0.077 C 
ATOM      3  C1  PXY d   1       0.089  -4.864   0.980  0.00  0.00    -0.082 A 
ATOM      4  C2  PXY d   1       0.101  -3.624   1.441  0.00  0.00     0.003 A 
ATOM      5  C3  PXY d   1      -0.351  -2.590   0.662  0.00  0.00     0.003 A 
ATOM      6  C4  PXY d   1      -0.770  -2.821  -0.621  0.00  0.00    -0.082 A 
ATOM      7  C5  PXY d   1      -0.775  -4.082  -1.102  0.00  0.00     0.003 A 
ATOM      8  C6  PXY d   1      -0.351  -5.123  -0.281  0.00  0.00     0.003 A 
ENDROOT
TORSDOF 0
ENDMDL
