MODEL 1
REMARK minimizedAffinity 14.7628746
REMARK minimizedRMSD -1
REMARK  0 active torsions:
REMARK  status: ('A' for Active; 'I' for Inactive)
ROOT
ATOM      1  C4' PXY d   1      -2.807  -0.338  -3.240  0.00  0.00     0.077 C 
ATOM      2  C1' PXY d   1      -0.355  -4.014   0.487  0.00  0.00     0.077 C 
ATOM      3  C1  PXY d   1      -0.988  -3.052  -0.499  0.00  0.00    -0.082 A 
ATOM      4  C2  PXY d   1      -1.813  -2.114  -0.060  0.00  0.00     0.003 A 
ATOM      5  C3  PXY d   1      -2.419  -1.256  -0.942  0.00  0.00     0.003 A 
ATOM      6  C4  PXY d   1      -2.137  -1.325  -2.280  0.00  0.00    -0.082 A 
ATOM      7  C5  PXY d   1      -1.289  -2.272  -2.734  0.00  0.00     0.003 A 
ATOM      8  C6  PXY d   1      -0.716  -3.160  -1.827  0.00  0.00     0.003 A 
ENDROOT
TORSDOF 0
ENDMDL
