MODEL 1
REMARK minimizedAffinity 14.2251616
REMARK minimizedRMSD -1
REMARK  0 active torsions:
REMARK  status: ('A' for Active; 'I' for Inactive)
ROOT
ATOM      1  C4' PXY d   1      -3.086  -0.762   0.606  0.00  0.00     0.077 C 
ATOM      2  C1' PXY d   1      -3.605   1.513   5.895  0.00  0.00     0.077 C 
ATOM      3  C1  PXY d   1      -3.474   0.927   4.503  0.00  0.00    -0.082 A 
ATOM      4  C2  PXY d   1      -3.425  -0.386   4.348  0.00  0.00     0.003 A 
ATOM      5  C3  PXY d   1      -3.274  -0.932   3.099  0.00  0.00     0.003 A 
ATOM      6  C4  PXY d   1      -3.227  -0.127   1.992  0.00  0.00    -0.082 A 
ATOM      7  C5  PXY d   1      -3.287   1.213   2.141  0.00  0.00     0.003 A 
ATOM      8  C6  PXY d   1      -3.399   1.749   3.421  0.00  0.00     0.003 A 
ENDROOT
TORSDOF 0
ENDMDL
