MODEL 1
REMARK minimizedAffinity 14.1716518
REMARK minimizedRMSD -1
REMARK  0 active torsions:
REMARK  status: ('A' for Active; 'I' for Inactive)
ROOT
ATOM      1  C4' PXY d   1      -5.320   5.536  -5.645  0.00  0.00     0.077 C 
ATOM      2  C1' PXY d   1      -3.999   5.598  -0.018  0.00  0.00     0.077 C 
ATOM      3  C1  PXY d   1      -4.358   5.580  -1.491  0.00  0.00    -0.082 A 
ATOM      4  C2  PXY d   1      -3.433   5.274  -2.386  0.00  0.00     0.003 A 
ATOM      5  C3  PXY d   1      -3.732   5.284  -3.724  0.00  0.00     0.003 A 
ATOM      6  C4  PXY d   1      -5.005   5.558  -4.147  0.00  0.00    -0.082 A 
ATOM      7  C5  PXY d   1      -5.957   5.860  -3.239  0.00  0.00     0.003 A 
ATOM      8  C6  PXY d   1      -5.623   5.885  -1.889  0.00  0.00     0.003 A 
ENDROOT
TORSDOF 0
ENDMDL
