MODEL 1
REMARK minimizedAffinity 20.1503506
REMARK minimizedRMSD -1
REMARK  0 active torsions:
REMARK  status: ('A' for Active; 'I' for Inactive)
ROOT
ATOM      1  C4' PXY d   1      -2.444   1.526  -4.658  0.00  0.00     0.077 C 
ATOM      2  C1' PXY d   1      -5.998   6.000  -5.533  0.00  0.00     0.077 C 
ATOM      3  C1  PXY d   1      -5.057   4.835  -5.299  0.00  0.00    -0.082 A 
ATOM      4  C2  PXY d   1      -5.229   3.709  -5.973  0.00  0.00     0.003 A 
ATOM      5  C3  PXY d   1      -4.407   2.635  -5.750  0.00  0.00     0.003 A 
ATOM      6  C4  PXY d   1      -3.364   2.731  -4.868  0.00  0.00    -0.082 A 
ATOM      7  C5  PXY d   1      -3.175   3.880  -4.185  0.00  0.00     0.003 A 
ATOM      8  C6  PXY d   1      -4.046   4.945  -4.395  0.00  0.00     0.003 A 
ENDROOT
TORSDOF 0
ENDMDL
