MODEL 1
REMARK minimizedAffinity 20.2335529
REMARK minimizedRMSD -1
REMARK  0 active torsions:
REMARK  status: ('A' for Active; 'I' for Inactive)
ROOT
ATOM      1  C4' PXY d   1       0.961   3.018  -3.991  0.00  0.00     0.077 C 
ATOM      2  C1' PXY d   1      -4.445   2.578  -5.992  0.00  0.00     0.077 C 
ATOM      3  C1  PXY d   1      -3.029   2.706  -5.464  0.00  0.00    -0.082 A 
ATOM      4  C2  PXY d   1      -2.092   1.879  -5.898  0.00  0.00     0.003 A 
ATOM      5  C3  PXY d   1      -0.815   1.960  -5.407  0.00  0.00     0.003 A 
ATOM      6  C4  PXY d   1      -0.480   2.932  -4.503  0.00  0.00    -0.082 A 
ATOM      7  C5  PXY d   1      -1.428   3.787  -4.064  0.00  0.00     0.003 A 
ATOM      8  C6  PXY d   1      -2.728   3.662  -4.543  0.00  0.00     0.003 A 
ENDROOT
TORSDOF 0
ENDMDL
