MODEL 1
REMARK minimizedAffinity 14.2583923
REMARK minimizedRMSD -1
REMARK  0 active torsions:
REMARK  status: ('A' for Active; 'I' for Inactive)
ROOT
ATOM      1  C4' PXY d   1      -0.028  -4.367   0.337  0.00  0.00     0.077 C 
ATOM      2  C1' PXY d   1      -2.753  -0.770  -3.277  0.00  0.00     0.077 C 
ATOM      3  C1  PXY d   1      -2.039  -1.723  -2.338  0.00  0.00    -0.082 A 
ATOM      4  C2  PXY d   1      -2.109  -1.529  -1.031  0.00  0.00     0.003 A 
ATOM      5  C3  PXY d   1      -1.443  -2.362  -0.170  0.00  0.00     0.003 A 
ATOM      6  C4  PXY d   1      -0.741  -3.436  -0.648  0.00  0.00    -0.082 A 
ATOM      7  C5  PXY d   1      -0.674  -3.647  -1.980  0.00  0.00     0.003 A 
ATOM      8  C6  PXY d   1      -1.323  -2.766  -2.839  0.00  0.00     0.003 A 
ENDROOT
TORSDOF 0
ENDMDL
