MODEL 1
REMARK minimizedAffinity 17.3407536
REMARK minimizedRMSD -1
REMARK  0 active torsions:
REMARK  status: ('A' for Active; 'I' for Inactive)
ROOT
ATOM      1  C4' PXY d   1      -5.921   2.038   6.000  0.00  0.00     0.077 C 
ATOM      2  C1' PXY d   1      -1.446  -1.283   4.463  0.00  0.00     0.077 C 
ATOM      3  C1  PXY d   1      -2.612  -0.407   4.876  0.00  0.00    -0.082 A 
ATOM      4  C2  PXY d   1      -3.840  -0.739   4.512  0.00  0.00     0.003 A 
ATOM      5  C3  PXY d   1      -4.903   0.058   4.850  0.00  0.00     0.003 A 
ATOM      6  C4  PXY d   1      -4.714   1.179   5.613  0.00  0.00    -0.082 A 
ATOM      7  C5  PXY d   1      -3.465   1.518   5.998  0.00  0.00     0.003 A 
ATOM      8  C6  PXY d   1      -2.395   0.718   5.609  0.00  0.00     0.003 A 
ENDROOT
TORSDOF 0
ENDMDL
