MODEL 1
REMARK minimizedAffinity 9.09583855
REMARK minimizedRMSD -1
REMARK  0 active torsions:
REMARK  status: ('A' for Active; 'I' for Inactive)
ROOT
ATOM      1  C4' PXY d   1      -2.208  -1.641  -1.116  0.00  0.00     0.077 C 
ATOM      2  C1' PXY d   1       2.652   1.117  -2.593  0.00  0.00     0.077 C 
ATOM      3  C1  PXY d   1       1.374   0.393  -2.219  0.00  0.00    -0.082 A 
ATOM      4  C2  PXY d   1       0.869   0.544  -1.005  0.00  0.00     0.003 A 
ATOM      5  C3  PXY d   1      -0.269  -0.128  -0.639  0.00  0.00     0.003 A 
ATOM      6  C4  PXY d   1      -0.925  -0.922  -1.541  0.00  0.00    -0.082 A 
ATOM      7  C5  PXY d   1      -0.422  -1.072  -2.785  0.00  0.00     0.003 A 
ATOM      8  C6  PXY d   1       0.757  -0.414  -3.123  0.00  0.00     0.003 A 
ENDROOT
TORSDOF 0
ENDMDL
