MODEL 1
REMARK minimizedAffinity 12.8970098
REMARK minimizedRMSD -1
REMARK  0 active torsions:
REMARK  status: ('A' for Active; 'I' for Inactive)
ROOT
ATOM      1  C4' PXY d   1       2.862   1.853  -2.149  0.00  0.00     0.077 C 
ATOM      2  C1' PXY d   1       3.758   2.543   3.520  0.00  0.00     0.077 C 
ATOM      3  C1  PXY d   1       3.527   2.374   2.032  0.00  0.00    -0.082 A 
ATOM      4  C2  PXY d   1       2.660   1.472   1.602  0.00  0.00     0.003 A 
ATOM      5  C3  PXY d   1       2.462   1.284   0.259  0.00  0.00     0.003 A 
ATOM      6  C4  PXY d   1       3.120   2.064  -0.654  0.00  0.00    -0.082 A 
ATOM      7  C5  PXY d   1       4.000   2.994  -0.224  0.00  0.00     0.003 A 
ATOM      8  C6  PXY d   1       4.216   3.141   1.143  0.00  0.00     0.003 A 
ENDROOT
TORSDOF 0
ENDMDL
