MODEL 1
REMARK minimizedAffinity 0.485405296
REMARK minimizedRMSD -1
REMARK  0 active torsions:
REMARK  status: ('A' for Active; 'I' for Inactive)
ROOT
ATOM      1  N1  IND d   1       2.018   3.867   5.987  0.00  0.00    -0.196 N 
ATOM      2  C2  IND d   1       2.099   5.232   5.982  0.00  0.00     0.054 A 
ATOM      3  C3  IND d   1       3.392   5.626   5.996  0.00  0.00    -0.031 A 
ATOM      4  C4  IND d   1       5.536   4.204   5.925  0.00  0.00     0.051 A 
ATOM      5  C5  IND d   1       5.972   2.909   5.957  0.00  0.00    -0.031 A 
ATOM      6  C6  IND d   1       5.094   1.845   6.000  0.00  0.00     0.015 A 
ATOM      7  C7  IND d   1       3.741   2.038   5.999  0.00  0.00    -0.016 A 
ATOM      8  C8  IND d   1       3.295   3.352   5.973  0.00  0.00    -0.047 A 
ATOM      9  C9  IND d   1       4.182   4.436   5.973  0.00  0.00    -0.096 A 
ATOM     10  HN1 IND d   1       1.291   3.407   5.996  0.00  0.00     0.298 HD
ENDROOT
TORSDOF 0
ENDMDL
