MODEL 1
REMARK minimizedAffinity -1.38361573
REMARK minimizedRMSD -1
REMARK  0 active torsions:
REMARK  status: ('A' for Active; 'I' for Inactive)
ROOT
ATOM      1  N1  IND d   1       1.099   4.079   5.999  0.00  0.00    -0.196 N 
ATOM      2  C2  IND d   1       1.690   5.264   5.659  0.00  0.00     0.054 A 
ATOM      3  C3  IND d   1       2.964   5.056   5.256  0.00  0.00    -0.031 A 
ATOM      4  C4  IND d   1       4.251   2.844   4.979  0.00  0.00     0.051 A 
ATOM      5  C5  IND d   1       4.142   1.500   5.199  0.00  0.00    -0.031 A 
ATOM      6  C6  IND d   1       2.989   0.935   5.705  0.00  0.00     0.015 A 
ATOM      7  C7  IND d   1       1.893   1.695   6.000  0.00  0.00    -0.016 A 
ATOM      8  C8  IND d   1       2.003   3.062   5.784  0.00  0.00    -0.047 A 
ATOM      9  C9  IND d   1       3.185   3.646   5.311  0.00  0.00    -0.096 A 
ATOM     10  HN1 IND d   1       0.298   3.986   6.296  0.00  0.00     0.298 HD
ENDROOT
TORSDOF 0
ENDMDL
