MODEL 1
REMARK minimizedAffinity 3.9548738
REMARK minimizedRMSD -1
REMARK  0 active torsions:
REMARK  status: ('A' for Active; 'I' for Inactive)
ROOT
ATOM      1  N1  IND d   1       2.335   5.872   4.801  0.00  0.00    -0.196 N 
ATOM      2  C2  IND d   1       1.144   5.976   5.464  0.00  0.00     0.054 A 
ATOM      3  C3  IND d   1       0.798   4.784   6.000  0.00  0.00    -0.031 A 
ATOM      4  C4  IND d   1       2.087   2.556   6.000  0.00  0.00     0.051 A 
ATOM      5  C5  IND d   1       3.206   1.959   5.491  0.00  0.00    -0.031 A 
ATOM      6  C6  IND d   1       4.112   2.650   4.713  0.00  0.00     0.015 A 
ATOM      7  C7  IND d   1       3.937   3.974   4.422  0.00  0.00    -0.016 A 
ATOM      8  C8  IND d   1       2.798   4.581   4.931  0.00  0.00    -0.047 A 
ATOM      9  C9  IND d   1       1.854   3.874   5.686  0.00  0.00    -0.096 A 
ATOM     10  HN1 IND d   1       2.728   6.506   4.374  0.00  0.00     0.298 HD
ENDROOT
TORSDOF 0
ENDMDL
