MODEL 1
REMARK minimizedAffinity 2.37880325
REMARK minimizedRMSD -1
REMARK  0 active torsions:
REMARK  status: ('A' for Active; 'I' for Inactive)
ROOT
ATOM      1  N1  IND d   1       2.012   5.746   6.000  0.00  0.00    -0.196 N 
ATOM      2  C2  IND d   1       0.669   5.493   5.995  0.00  0.00     0.054 A 
ATOM      3  C3  IND d   1       0.441   4.161   5.957  0.00  0.00    -0.031 A 
ATOM      4  C4  IND d   1       2.122   2.212   5.999  0.00  0.00     0.051 A 
ATOM      5  C5  IND d   1       3.462   1.944   5.966  0.00  0.00    -0.031 A 
ATOM      6  C6  IND d   1       4.406   2.950   5.945  0.00  0.00     0.015 A 
ATOM      7  C7  IND d   1       4.044   4.268   5.968  0.00  0.00    -0.016 A 
ATOM      8  C8  IND d   1       2.685   4.543   5.994  0.00  0.00    -0.047 A 
ATOM      9  C9  IND d   1       1.721   3.527   5.972  0.00  0.00    -0.096 A 
ATOM     10  HN1 IND d   1       2.376   6.525   6.005  0.00  0.00     0.298 HD
ENDROOT
TORSDOF 0
ENDMDL
