MODEL 1
REMARK minimizedAffinity -2.02906299
REMARK minimizedRMSD -1
REMARK  0 active torsions:
REMARK  status: ('A' for Active; 'I' for Inactive)
ROOT
ATOM      1  N1  IND d   1       1.394   3.817   5.996  0.00  0.00    -0.196 N 
ATOM      2  C2  IND d   1       1.427   5.184   6.000  0.00  0.00     0.054 A 
ATOM      3  C3  IND d   1       2.705   5.624   5.994  0.00  0.00    -0.031 A 
ATOM      4  C4  IND d   1       4.897   4.278   5.875  0.00  0.00     0.051 A 
ATOM      5  C5  IND d   1       5.378   2.999   5.892  0.00  0.00    -0.031 A 
ATOM      6  C6  IND d   1       4.538   1.905   5.942  0.00  0.00     0.015 A 
ATOM      7  C7  IND d   1       3.180   2.050   5.966  0.00  0.00    -0.016 A 
ATOM      8  C8  IND d   1       2.688   3.348   5.957  0.00  0.00    -0.047 A 
ATOM      9  C9  IND d   1       3.536   4.462   5.949  0.00  0.00    -0.096 A 
ATOM     10  HN1 IND d   1       0.684   3.333   6.016  0.00  0.00     0.298 HD
ENDROOT
TORSDOF 0
ENDMDL
