MODEL 1
REMARK minimizedAffinity 3.34773135
REMARK minimizedRMSD -1
REMARK  0 active torsions:
REMARK  status: ('A' for Active; 'I' for Inactive)
ROOT
ATOM      1  N1  IND d   1       1.986   5.999   5.921  0.00  0.00    -0.196 N 
ATOM      2  C2  IND d   1       0.643   5.748   5.873  0.00  0.00     0.054 A 
ATOM      3  C3  IND d   1       0.414   4.416   5.848  0.00  0.00    -0.031 A 
ATOM      4  C4  IND d   1       2.088   2.465   5.980  0.00  0.00     0.051 A 
ATOM      5  C5  IND d   1       3.428   2.195   5.999  0.00  0.00    -0.031 A 
ATOM      6  C6  IND d   1       4.374   3.199   5.995  0.00  0.00     0.015 A 
ATOM      7  C7  IND d   1       4.015   4.517   5.984  0.00  0.00    -0.016 A 
ATOM      8  C8  IND d   1       2.655   4.795   5.958  0.00  0.00    -0.047 A 
ATOM      9  C9  IND d   1       1.691   3.780   5.918  0.00  0.00    -0.096 A 
ATOM     10  HN1 IND d   1       2.352   6.777   5.926  0.00  0.00     0.298 HD
ENDROOT
TORSDOF 0
ENDMDL
