MODEL 1
REMARK minimizedAffinity -1.6131196
REMARK minimizedRMSD -1
REMARK  0 active torsions:
REMARK  status: ('A' for Active; 'I' for Inactive)
ROOT
ATOM      1  N1  IND d   1       2.332   1.688   5.991  0.00  0.00    -0.196 N 
ATOM      2  C2  IND d   1       3.566   1.102   5.964  0.00  0.00     0.054 A 
ATOM      3  C3  IND d   1       4.534   2.045   5.924  0.00  0.00    -0.031 A 
ATOM      4  C4  IND d   1       4.324   4.609   5.998  0.00  0.00     0.051 A 
ATOM      5  C5  IND d   1       3.398   5.615   5.989  0.00  0.00    -0.031 A 
ATOM      6  C6  IND d   1       2.042   5.358   5.982  0.00  0.00     0.015 A 
ATOM      7  C7  IND d   1       1.559   4.080   5.996  0.00  0.00    -0.016 A 
ATOM      8  C8  IND d   1       2.496   3.056   5.999  0.00  0.00    -0.047 A 
ATOM      9  C9  IND d   1       3.873   3.311   5.963  0.00  0.00    -0.096 A 
ATOM     10  HN1 IND d   1       1.579   1.273   6.001  0.00  0.00     0.298 HD
ENDROOT
TORSDOF 0
ENDMDL
