MODEL 1
REMARK minimizedAffinity 4.51969719
REMARK minimizedRMSD -1
REMARK  0 active torsions:
REMARK  status: ('A' for Active; 'I' for Inactive)
ROOT
ATOM      1  N1  IND d   1       2.696   5.615   5.996  0.00  0.00    -0.196 N 
ATOM      2  C2  IND d   1       1.364   5.307   5.988  0.00  0.00     0.054 A 
ATOM      3  C3  IND d   1       1.192   3.966   5.950  0.00  0.00    -0.031 A 
ATOM      4  C4  IND d   1       2.953   2.089   5.997  0.00  0.00     0.051 A 
ATOM      5  C5  IND d   1       4.303   1.877   5.967  0.00  0.00    -0.031 A 
ATOM      6  C6  IND d   1       5.204   2.922   5.947  0.00  0.00     0.015 A 
ATOM      7  C7  IND d   1       4.788   4.223   5.969  0.00  0.00    -0.016 A 
ATOM      8  C8  IND d   1       3.418   4.442   5.992  0.00  0.00    -0.047 A 
ATOM      9  C9  IND d   1       2.497   3.386   5.969  0.00  0.00    -0.096 A 
ATOM     10  HN1 IND d   1       3.027   6.408   6.001  0.00  0.00     0.298 HD
ENDROOT
TORSDOF 0
ENDMDL
