MODEL 1
REMARK minimizedAffinity -3.32063198
REMARK minimizedRMSD -1
REMARK  0 active torsions:
REMARK  status: ('A' for Active; 'I' for Inactive)
ROOT
ATOM      1  N1  IND d   1       2.253  -2.629   5.275  0.00  0.00    -0.196 N 
ATOM      2  C2  IND d   1       1.873  -1.685   4.361  0.00  0.00     0.054 A 
ATOM      3  C3  IND d   1       0.732  -2.063   3.743  0.00  0.00    -0.031 A 
ATOM      4  C4  IND d   1      -0.737  -4.139   4.145  0.00  0.00     0.051 A 
ATOM      5  C5  IND d   1      -0.780  -5.306   4.854  0.00  0.00    -0.031 A 
ATOM      6  C6  IND d   1       0.204  -5.647   5.760  0.00  0.00     0.015 A 
ATOM      7  C7  IND d   1       1.267  -4.823   6.000  0.00  0.00    -0.016 A 
ATOM      8  C8  IND d   1       1.318  -3.640   5.276  0.00  0.00    -0.047 A 
ATOM      9  C9  IND d   1       0.344  -3.309   4.325  0.00  0.00    -0.096 A 
ATOM     10  HN1 IND d   1       2.958  -2.596   5.766  0.00  0.00     0.298 HD
ENDROOT
TORSDOF 0
ENDMDL
