MODEL 1
REMARK minimizedAffinity 8.23771191
REMARK minimizedRMSD -1
REMARK  0 active torsions:
REMARK  status: ('A' for Active; 'I' for Inactive)
ROOT
ATOM      1  N1  IND d   1       2.722   4.986   3.860  0.00  0.00    -0.196 N 
ATOM      2  C2  IND d   1       3.299   4.460   4.983  0.00  0.00     0.054 A 
ATOM      3  C3  IND d   1       2.402   4.409   5.993  0.00  0.00    -0.031 A 
ATOM      4  C4  IND d   1      -0.094   5.039   5.997  0.00  0.00     0.051 A 
ATOM      5  C5  IND d   1      -1.065   5.598   5.215  0.00  0.00    -0.031 A 
ATOM      6  C6  IND d   1      -0.819   5.988   3.914  0.00  0.00     0.015 A 
ATOM      7  C7  IND d   1       0.410   5.821   3.341  0.00  0.00    -0.016 A 
ATOM      8  C8  IND d   1       1.400   5.259   4.134  0.00  0.00    -0.047 A 
ATOM      9  C9  IND d   1       1.168   4.901   5.469  0.00  0.00    -0.096 A 
ATOM     10  HN1 IND d   1       3.118   5.122   3.110  0.00  0.00     0.298 HD
ENDROOT
TORSDOF 0
ENDMDL
