MODEL 1
REMARK minimizedAffinity 5.54705429
REMARK minimizedRMSD -1
REMARK  0 active torsions:
REMARK  status: ('A' for Active; 'I' for Inactive)
ROOT
ATOM      1  N1  IND d   1      -1.968   0.576  -0.501  0.00  0.00    -0.196 N 
ATOM      2  C2  IND d   1      -2.002  -0.076  -1.702  0.00  0.00     0.054 A 
ATOM      3  C3  IND d   1      -3.254  -0.515  -1.963  0.00  0.00    -0.031 A 
ATOM      4  C4  IND d   1      -5.418  -0.186  -0.609  0.00  0.00     0.051 A 
ATOM      5  C5  IND d   1      -5.882   0.313   0.576  0.00  0.00    -0.031 A 
ATOM      6  C6  IND d   1      -5.049   0.940   1.480  0.00  0.00     0.015 A 
ATOM      7  C7  IND d   1      -3.716   1.103   1.226  0.00  0.00    -0.016 A 
ATOM      8  C8  IND d   1      -3.240   0.591   0.027  0.00  0.00    -0.047 A 
ATOM      9  C9  IND d   1      -4.073  -0.084  -0.875  0.00  0.00    -0.096 A 
ATOM     10  HN1 IND d   1      -1.269   0.919  -0.136  0.00  0.00     0.298 HD
ENDROOT
TORSDOF 0
ENDMDL
