MODEL 1
REMARK minimizedAffinity 6.01375484
REMARK minimizedRMSD -1
REMARK  0 active torsions:
REMARK  status: ('A' for Active; 'I' for Inactive)
ROOT
ATOM      1  N1  IND d   1       4.312   3.088   5.999  0.00  0.00    -0.196 N 
ATOM      2  C2  IND d   1       4.076   1.742   5.996  0.00  0.00     0.054 A 
ATOM      3  C3  IND d   1       4.247   1.237   4.754  0.00  0.00    -0.031 A 
ATOM      4  C4  IND d   1       5.012   2.419   2.599  0.00  0.00     0.051 A 
ATOM      5  C5  IND d   1       5.311   3.654   2.096  0.00  0.00    -0.031 A 
ATOM      6  C6  IND d   1       5.296   4.786   2.885  0.00  0.00     0.015 A 
ATOM      7  C7  IND d   1       4.989   4.723   4.215  0.00  0.00    -0.016 A 
ATOM      8  C8  IND d   1       4.677   3.472   4.728  0.00  0.00    -0.047 A 
ATOM      9  C9  IND d   1       4.650   2.326   3.922  0.00  0.00    -0.096 A 
ATOM     10  HN1 IND d   1       4.244   3.608   6.681  0.00  0.00     0.298 HD
ENDROOT
TORSDOF 0
ENDMDL
