MODEL 1
REMARK minimizedAffinity -3.85970378
REMARK minimizedRMSD -1
REMARK  1 active torsions:
REMARK  status: ('A' for Active; 'I' for Inactive)
REMARK    1  A    between atoms: N_2  and  C1_3 
ROOT
ATOM      1  C1  UNL d   1       0.638  -1.207   1.071  0.00  0.00     0.143 A 
ATOM      2  C2  UNL d   1       1.097  -2.265   1.863  0.00  0.00    -0.057 A 
ATOM      3  C3  UNL d   1       0.343  -2.745   2.941  0.00  0.00     0.033 A 
ATOM      4  C4  UNL d   1      -0.874  -2.155   3.265  0.00  0.00    -0.042 A 
ATOM      5  C5  UNL d   1      -1.338  -1.086   2.506  0.00  0.00     0.033 A 
ATOM      6  C6  UNL d   1      -0.584  -0.615   1.427  0.00  0.00    -0.057 A 
ENDROOT
BRANCH   1   7
ATOM      7  N   UNL d   1       1.386  -0.621   0.047  0.00  0.00    -0.732 N 
ATOM      8  C   UNL d   1       1.283   0.798  -0.221  0.00  0.00     0.284 C 
ATOM      9  H3  UNL d   1       2.335  -0.985   0.002  0.00  0.00     0.395 HD
ENDBRANCH   1   7
TORSDOF 1
ENDMDL
