MODEL 1
REMARK minimizedAffinity -4.35055304
REMARK minimizedRMSD -1
REMARK  1 active torsions:
REMARK  status: ('A' for Active; 'I' for Inactive)
REMARK    1  A    between atoms: N_2  and  C1_3 
ROOT
ATOM      1  C1  UNL d   1       0.321  -0.184   0.146  0.00  0.00     0.143 A 
ATOM      2  C2  UNL d   1      -0.002  -1.153   1.102  0.00  0.00    -0.057 A 
ATOM      3  C3  UNL d   1       0.698  -2.364   1.173  0.00  0.00     0.033 A 
ATOM      4  C4  UNL d   1       1.718  -2.639   0.268  0.00  0.00    -0.042 A 
ATOM      5  C5  UNL d   1       2.039  -1.700  -0.706  0.00  0.00     0.033 A 
ATOM      6  C6  UNL d   1       1.341  -0.490  -0.768  0.00  0.00    -0.057 A 
ENDROOT
BRANCH   1   7
ATOM      7  N   UNL d   1      -0.403   0.997  -0.039  0.00  0.00    -0.732 N 
ATOM      8  C   UNL d   1      -1.167   1.211  -1.249  0.00  0.00     0.284 C 
ATOM      9  H3  UNL d   1      -0.874   1.301   0.810  0.00  0.00     0.395 HD
ENDBRANCH   1   7
TORSDOF 1
ENDMDL
