MODEL 1
REMARK minimizedAffinity -4.25465488
REMARK minimizedRMSD -1
REMARK  1 active torsions:
REMARK  status: ('A' for Active; 'I' for Inactive)
REMARK    1  A    between atoms: N_2  and  C1_3 
ROOT
ATOM      1  C1  UNL d   1       0.923  -0.231   0.060  0.00  0.00     0.143 A 
ATOM      2  C2  UNL d   1       2.272  -0.392   0.394  0.00  0.00    -0.057 A 
ATOM      3  C3  UNL d   1       2.757  -1.609   0.890  0.00  0.00     0.033 A 
ATOM      4  C4  UNL d   1       1.892  -2.680   1.088  0.00  0.00    -0.042 A 
ATOM      5  C5  UNL d   1       0.543  -2.535   0.786  0.00  0.00     0.033 A 
ATOM      6  C6  UNL d   1       0.066  -1.320   0.285  0.00  0.00    -0.057 A 
ENDROOT
BRANCH   1   7
ATOM      7  N   UNL d   1       0.362   0.983  -0.344  0.00  0.00    -0.732 N 
ATOM      8  C   UNL d   1      -0.911   1.013  -1.033  0.00  0.00     0.284 C 
ATOM      9  H3  UNL d   1       0.474   1.714   0.354  0.00  0.00     0.395 HD
ENDBRANCH   1   7
TORSDOF 1
ENDMDL
