MODEL 1
REMARK minimizedAffinity -3.80467415
REMARK minimizedRMSD -1
REMARK  1 active torsions:
REMARK  status: ('A' for Active; 'I' for Inactive)
REMARK    1  A    between atoms: N_2  and  C1_3 
ROOT
ATOM      1  C1  UNL d   1       0.663  -0.663  -0.181  0.00  0.00     0.143 A 
ATOM      2  C2  UNL d   1       1.946  -0.622   0.376  0.00  0.00    -0.057 A 
ATOM      3  C3  UNL d   1       2.494  -1.737   1.020  0.00  0.00     0.033 A 
ATOM      4  C4  UNL d   1       1.755  -2.909   1.144  0.00  0.00    -0.042 A 
ATOM      5  C5  UNL d   1       0.468  -2.965   0.620  0.00  0.00     0.033 A 
ATOM      6  C6  UNL d   1      -0.071  -1.849  -0.028  0.00  0.00    -0.057 A 
ENDROOT
BRANCH   1   7
ATOM      7  N   UNL d   1       0.025   0.444  -0.747  0.00  0.00    -0.732 N 
ATOM      8  C   UNL d   1      -1.145   1.020  -0.120  0.00  0.00     0.284 C 
ATOM      9  H3  UNL d   1       0.684   1.130  -1.108  0.00  0.00     0.395 HD
ENDBRANCH   1   7
TORSDOF 1
ENDMDL
