MODEL 1
REMARK minimizedAffinity -3.2600956
REMARK minimizedRMSD -1
REMARK  1 active torsions:
REMARK  status: ('A' for Active; 'I' for Inactive)
REMARK    1  A    between atoms: N_2  and  C1_3 
ROOT
ATOM      1  C1  UNL d   1       0.443  -0.190   0.241  0.00  0.00     0.143 A 
ATOM      2  C2  UNL d   1       1.771  -0.572   0.020  0.00  0.00    -0.057 A 
ATOM      3  C3  UNL d   1       2.258  -1.803   0.476  0.00  0.00     0.033 A 
ATOM      4  C4  UNL d   1       1.430  -2.665   1.188  0.00  0.00    -0.042 A 
ATOM      5  C5  UNL d   1       0.113  -2.296   1.440  0.00  0.00     0.033 A 
ATOM      6  C6  UNL d   1      -0.369  -1.068   0.977  0.00  0.00    -0.057 A 
ENDROOT
BRANCH   1   7
ATOM      7  N   UNL d   1      -0.074   1.062  -0.101  0.00  0.00    -0.732 N 
ATOM      8  C   UNL d   1      -1.169   1.177  -1.039  0.00  0.00     0.284 C 
ATOM      9  H3  UNL d   1      -0.147   1.684   0.701  0.00  0.00     0.395 HD
ENDBRANCH   1   7
TORSDOF 1
ENDMDL
