MODEL 1
REMARK minimizedAffinity -2.82465935
REMARK minimizedRMSD -1
REMARK  1 active torsions:
REMARK  status: ('A' for Active; 'I' for Inactive)
REMARK    1  A    between atoms: N_2  and  C1_3 
ROOT
ATOM      1  C1  UNL d   1       1.556  -0.761   0.972  0.00  0.00     0.143 A 
ATOM      2  C2  UNL d   1       0.319  -1.412   0.929  0.00  0.00    -0.057 A 
ATOM      3  C3  UNL d   1      -0.809  -0.792   0.378  0.00  0.00     0.033 A 
ATOM      4  C4  UNL d   1      -0.726   0.506  -0.115  0.00  0.00    -0.042 A 
ATOM      5  C5  UNL d   1       0.488   1.182  -0.059  0.00  0.00     0.033 A 
ATOM      6  C6  UNL d   1       1.612   0.555   0.486  0.00  0.00    -0.057 A 
ENDROOT
BRANCH   1   7
ATOM      7  N   UNL d   1       2.690  -1.286   1.596  0.00  0.00    -0.732 N 
ATOM      8  C   UNL d   1       3.811  -0.433   1.928  0.00  0.00     0.284 C 
ATOM      9  H3  UNL d   1       2.458  -1.966   2.317  0.00  0.00     0.395 HD
ENDBRANCH   1   7
TORSDOF 1
ENDMDL
