MODEL 1
REMARK minimizedAffinity -4.56396103
REMARK minimizedRMSD -1
REMARK  1 active torsions:
REMARK  status: ('A' for Active; 'I' for Inactive)
REMARK    1  A    between atoms: N_2  and  C1_3 
ROOT
ATOM      1  C1  UNL d   1       0.097   0.298   0.273  0.00  0.00     0.143 A 
ATOM      2  C2  UNL d   1       1.443   0.355  -0.104  0.00  0.00    -0.057 A 
ATOM      3  C3  UNL d   1       2.312  -0.715   0.145  0.00  0.00     0.033 A 
ATOM      4  C4  UNL d   1       1.855  -1.852   0.803  0.00  0.00    -0.042 A 
ATOM      5  C5  UNL d   1       0.526  -1.920   1.209  0.00  0.00     0.033 A 
ATOM      6  C6  UNL d   1      -0.338  -0.851   0.952  0.00  0.00    -0.057 A 
ENDROOT
BRANCH   1   7
ATOM      7  N   UNL d   1      -0.793   1.367   0.142  0.00  0.00    -0.732 N 
ATOM      8  C   UNL d   1      -1.425   1.649  -1.129  0.00  0.00     0.284 C 
ATOM      9  H3  UNL d   1      -1.413   1.457   0.943  0.00  0.00     0.395 HD
ENDBRANCH   1   7
TORSDOF 1
ENDMDL
