MODEL 1
REMARK minimizedAffinity -5.10987186
REMARK minimizedRMSD -1
REMARK  1 active torsions:
REMARK  status: ('A' for Active; 'I' for Inactive)
REMARK    1  A    between atoms: N_2  and  C1_3 
ROOT
ATOM      1  C1  UNL d   1       0.534  -0.456   0.482  0.00  0.00     0.143 A 
ATOM      2  C2  UNL d   1      -0.076  -1.617   0.968  0.00  0.00    -0.057 A 
ATOM      3  C3  UNL d   1       0.617  -2.831   1.029  0.00  0.00     0.033 A 
ATOM      4  C4  UNL d   1       1.930  -2.913   0.576  0.00  0.00    -0.042 A 
ATOM      5  C5  UNL d   1       2.549  -1.777   0.065  0.00  0.00     0.033 A 
ATOM      6  C6  UNL d   1       1.853  -0.566   0.013  0.00  0.00    -0.057 A 
ENDROOT
BRANCH   1   7
ATOM      7  N   UNL d   1      -0.133   0.759   0.305  0.00  0.00    -0.732 N 
ATOM      8  C   UNL d   1      -0.894   1.012  -0.900  0.00  0.00     0.284 C 
ATOM      9  H3  UNL d   1      -0.584   1.082   1.157  0.00  0.00     0.395 HD
ENDBRANCH   1   7
TORSDOF 1
ENDMDL
