MODEL 1
REMARK minimizedAffinity -4.94898272
REMARK minimizedRMSD -1
REMARK  1 active torsions:
REMARK  status: ('A' for Active; 'I' for Inactive)
REMARK    1  A    between atoms: N_2  and  C1_3 
ROOT
ATOM      1  C1  UNL d   1       0.116  -1.105   0.525  0.00  0.00     0.143 A 
ATOM      2  C2  UNL d   1       1.287  -1.865   0.622  0.00  0.00    -0.057 A 
ATOM      3  C3  UNL d   1       1.528  -2.688   1.729  0.00  0.00     0.033 A 
ATOM      4  C4  UNL d   1       0.613  -2.742   2.775  0.00  0.00    -0.042 A 
ATOM      5  C5  UNL d   1      -0.546  -1.976   2.711  0.00  0.00     0.033 A 
ATOM      6  C6  UNL d   1      -0.784  -1.161   1.600  0.00  0.00    -0.057 A 
ENDROOT
BRANCH   1   7
ATOM      7  N   UNL d   1      -0.135  -0.193  -0.503  0.00  0.00    -0.732 N 
ATOM      8  C   UNL d   1      -0.552   1.160  -0.203  0.00  0.00     0.284 C 
ATOM      9  H3  UNL d   1       0.544  -0.261  -1.258  0.00  0.00     0.395 HD
ENDBRANCH   1   7
TORSDOF 1
ENDMDL
