MODEL 1
REMARK minimizedAffinity -4.59713554
REMARK minimizedRMSD -1
REMARK  1 active torsions:
REMARK  status: ('A' for Active; 'I' for Inactive)
REMARK    1  A    between atoms: N_2  and  C1_3 
ROOT
ATOM      1  C1  UNL d   1       0.591   0.155  -0.221  0.00  0.00     0.143 A 
ATOM      2  C2  UNL d   1       1.972  -0.058  -0.287  0.00  0.00    -0.057 A 
ATOM      3  C3  UNL d   1       2.551  -1.227   0.222  0.00  0.00     0.033 A 
ATOM      4  C4  UNL d   1       1.760  -2.193   0.834  0.00  0.00    -0.042 A 
ATOM      5  C5  UNL d   1       0.388  -1.991   0.933  0.00  0.00     0.033 A 
ATOM      6  C6  UNL d   1      -0.186  -0.825   0.417  0.00  0.00    -0.057 A 
ENDROOT
BRANCH   1   7
ATOM      7  N   UNL d   1      -0.033   1.340  -0.620  0.00  0.00    -0.732 N 
ATOM      8  C   UNL d   1      -1.230   1.305  -1.433  0.00  0.00     0.284 C 
ATOM      9  H3  UNL d   1      -0.054   2.036   0.121  0.00  0.00     0.395 HD
ENDBRANCH   1   7
TORSDOF 1
ENDMDL
