MODEL 1
REMARK minimizedAffinity -5.64559364
REMARK minimizedRMSD -1
REMARK  1 active torsions:
REMARK  status: ('A' for Active; 'I' for Inactive)
REMARK    1  A    between atoms: N_2  and  C1_3 
ROOT
ATOM      1  C1  UNL d   1       0.064  -1.002   0.427  0.00  0.00     0.143 A 
ATOM      2  C2  UNL d   1       1.179  -1.831   0.260  0.00  0.00    -0.057 A 
ATOM      3  C3  UNL d   1       1.469  -2.850   1.175  0.00  0.00     0.033 A 
ATOM      4  C4  UNL d   1       0.664  -3.040   2.293  0.00  0.00    -0.042 A 
ATOM      5  C5  UNL d   1      -0.436  -2.212   2.492  0.00  0.00     0.033 A 
ATOM      6  C6  UNL d   1      -0.725  -1.201   1.571  0.00  0.00    -0.057 A 
ENDROOT
BRANCH   1   7
ATOM      7  N   UNL d   1      -0.223   0.091  -0.394  0.00  0.00    -0.732 N 
ATOM      8  C   UNL d   1      -0.890   1.259   0.139  0.00  0.00     0.284 C 
ATOM      9  H3  UNL d   1       0.537   0.304  -1.037  0.00  0.00     0.395 HD
ENDBRANCH   1   7
TORSDOF 1
ENDMDL
