MODEL 1
REMARK minimizedAffinity -3.60764742
REMARK minimizedRMSD -1
REMARK  1 active torsions:
REMARK  status: ('A' for Active; 'I' for Inactive)
REMARK    1  A    between atoms: N_2  and  C1_3 
ROOT
ATOM      1  C1  UNL d   1      -0.957   1.467  -1.426  0.00  0.00     0.143 A 
ATOM      2  C2  UNL d   1      -0.181   2.368  -2.162  0.00  0.00    -0.057 A 
ATOM      3  C3  UNL d   1      -0.488   2.673  -3.493  0.00  0.00     0.033 A 
ATOM      4  C4  UNL d   1      -1.565   2.057  -4.123  0.00  0.00    -0.042 A 
ATOM      5  C5  UNL d   1      -2.335   1.139  -3.419  0.00  0.00     0.033 A 
ATOM      6  C6  UNL d   1      -2.027   0.844  -2.087  0.00  0.00    -0.057 A 
ENDROOT
BRANCH   1   7
ATOM      7  N   UNL d   1      -0.644   1.048  -0.130  0.00  0.00    -0.732 N 
ATOM      8  C   UNL d   1       0.074  -0.189   0.092  0.00  0.00     0.284 C 
ATOM      9  H3  UNL d   1      -0.341   1.817   0.464  0.00  0.00     0.395 HD
ENDBRANCH   1   7
TORSDOF 1
ENDMDL
