MODEL 1
REMARK minimizedAffinity 2.76829123
REMARK minimizedRMSD -1
REMARK  1 active torsions:
REMARK  status: ('A' for Active; 'I' for Inactive)
REMARK    1  A    between atoms: C3_4  and  O_7 
ROOT
ATOM      1  C   UNL d   1      -4.934  -3.871  -5.856  0.00  0.00    -0.033 A 
ATOM      2  C1  UNL d   1      -4.964  -5.260  -5.999  0.00  0.00     0.039 A 
ATOM      3  C2  UNL d   1      -3.774  -5.991  -5.988  0.00  0.00    -0.080 A 
ATOM      4  C3  UNL d   1      -2.563  -5.322  -5.833  0.00  0.00     0.150 A 
ATOM      5  C4  UNL d   1      -2.526  -3.939  -5.687  0.00  0.00    -0.007 A 
ATOM      6  C5  UNL d   1      -3.715  -3.211  -5.699  0.00  0.00     0.039 A 
ENDROOT
BRANCH   4   7
ATOM      7  O   UNL d   1      -1.376  -5.992  -5.821  0.00  0.00    -0.526 OA
ATOM      8  H5  UNL d   1      -1.554  -6.937  -5.961  0.00  0.00     0.418 HD
ENDBRANCH   4   7
TORSDOF 1
ENDMDL
