MODEL 1
REMARK minimizedAffinity -2.36875105
REMARK minimizedRMSD -1
REMARK  1 active torsions:
REMARK  status: ('A' for Active; 'I' for Inactive)
REMARK    1  A    between atoms: C3_4  and  O_7 
ROOT
ATOM      1  C   UNL d   1      -4.233  -5.970  -4.478  0.00  0.00    -0.033 A 
ATOM      2  C1  UNL d   1      -5.589  -5.639  -4.461  0.00  0.00     0.039 A 
ATOM      3  C2  UNL d   1      -5.999  -4.347  -4.797  0.00  0.00    -0.080 A 
ATOM      4  C3  UNL d   1      -5.044  -3.397  -5.148  0.00  0.00     0.150 A 
ATOM      5  C4  UNL d   1      -3.692  -3.721  -5.171  0.00  0.00    -0.007 A 
ATOM      6  C5  UNL d   1      -3.284  -5.011  -4.835  0.00  0.00     0.039 A 
ENDROOT
BRANCH   4   7
ATOM      7  O   UNL d   1      -5.396  -2.122  -5.479  0.00  0.00    -0.526 OA
ATOM      8  H5  UNL d   1      -6.360  -2.036  -5.391  0.00  0.00     0.418 HD
ENDBRANCH   4   7
TORSDOF 1
ENDMDL
