MODEL 1
REMARK minimizedAffinity 0.0340600386
REMARK minimizedRMSD -1
REMARK  1 active torsions:
REMARK  status: ('A' for Active; 'I' for Inactive)
REMARK    1  A    between atoms: C3_4  and  O_7 
ROOT
ATOM      1  C   UNL d   1      -0.561  -1.622  -0.107  0.00  0.00    -0.033 A 
ATOM      2  C1  UNL d   1      -0.157  -0.434   0.507  0.00  0.00     0.039 A 
ATOM      3  C2  UNL d   1      -0.775  -0.010   1.685  0.00  0.00    -0.080 A 
ATOM      4  C3  UNL d   1      -1.792  -0.782   2.239  0.00  0.00     0.150 A 
ATOM      5  C4  UNL d   1      -2.197  -1.968   1.635  0.00  0.00    -0.007 A 
ATOM      6  C5  UNL d   1      -1.579  -2.389   0.458  0.00  0.00     0.039 A 
ENDROOT
BRANCH   4   7
ATOM      7  O   UNL d   1      -2.428  -0.406   3.385  0.00  0.00    -0.526 OA
ATOM      8  H5  UNL d   1      -2.064   0.447   3.673  0.00  0.00     0.418 HD
ENDBRANCH   4   7
TORSDOF 1
ENDMDL
