MODEL 1
REMARK minimizedAffinity -2.47738695
REMARK minimizedRMSD -1
REMARK  1 active torsions:
REMARK  status: ('A' for Active; 'I' for Inactive)
REMARK    1  A    between atoms: C3_4  and  O_7 
ROOT
ATOM      1  C   UNL d   1      -3.165  -4.515  -6.000  0.00  0.00    -0.033 A 
ATOM      2  C1  UNL d   1      -1.932  -5.165  -5.918  0.00  0.00     0.039 A 
ATOM      3  C2  UNL d   1      -1.489  -5.672  -4.695  0.00  0.00    -0.080 A 
ATOM      4  C3  UNL d   1      -2.287  -5.524  -3.564  0.00  0.00     0.150 A 
ATOM      5  C4  UNL d   1      -3.518  -4.881  -3.639  0.00  0.00    -0.007 A 
ATOM      6  C5  UNL d   1      -3.959  -4.374  -4.861  0.00  0.00     0.039 A 
ENDROOT
BRANCH   4   7
ATOM      7  O   UNL d   1      -1.895  -5.998  -2.347  0.00  0.00    -0.526 OA
ATOM      8  H5  UNL d   1      -1.011  -6.392  -2.441  0.00  0.00     0.418 HD
ENDBRANCH   4   7
TORSDOF 1
ENDMDL
