MODEL 1
REMARK minimizedAffinity -1.32134044
REMARK minimizedRMSD -1
REMARK  1 active torsions:
REMARK  status: ('A' for Active; 'I' for Inactive)
REMARK    1  A    between atoms: C3_4  and  O_7 
ROOT
ATOM      1  C   UNL d   1      -4.100  -5.164  -4.871  0.00  0.00    -0.033 A 
ATOM      2  C1  UNL d   1      -3.326  -4.805  -3.766  0.00  0.00     0.039 A 
ATOM      3  C2  UNL d   1      -1.947  -5.026  -3.775  0.00  0.00    -0.080 A 
ATOM      4  C3  UNL d   1      -1.356  -5.606  -4.894  0.00  0.00     0.150 A 
ATOM      5  C4  UNL d   1      -2.120  -5.963  -5.999  0.00  0.00    -0.007 A 
ATOM      6  C5  UNL d   1      -3.497  -5.742  -5.988  0.00  0.00     0.039 A 
ENDROOT
BRANCH   4   7
ATOM      7  O   UNL d   1      -0.015  -5.847  -4.947  0.00  0.00    -0.526 OA
ATOM      8  H5  UNL d   1       0.380  -5.575  -4.101  0.00  0.00     0.418 HD
ENDBRANCH   4   7
TORSDOF 1
ENDMDL
