MODEL 1
REMARK minimizedAffinity -0.320818037
REMARK minimizedRMSD -1
REMARK  1 active torsions:
REMARK  status: ('A' for Active; 'I' for Inactive)
REMARK    1  A    between atoms: C3_4  and  O_7 
ROOT
ATOM      1  C   UNL d   1      -0.732  -1.661   0.127  0.00  0.00    -0.033 A 
ATOM      2  C1  UNL d   1      -1.334  -2.518   1.051  0.00  0.00     0.039 A 
ATOM      3  C2  UNL d   1      -2.075  -1.994   2.112  0.00  0.00    -0.080 A 
ATOM      4  C3  UNL d   1      -2.207  -0.613   2.236  0.00  0.00     0.150 A 
ATOM      5  C4  UNL d   1      -1.614   0.246   1.317  0.00  0.00    -0.007 A 
ATOM      6  C5  UNL d   1      -0.874  -0.280   0.259  0.00  0.00     0.039 A 
ENDROOT
BRANCH   4   7
ATOM      7  O   UNL d   1      -2.917  -0.055   3.258  0.00  0.00    -0.526 OA
ATOM      8  H5  UNL d   1      -3.245  -0.768   3.830  0.00  0.00     0.418 HD
ENDBRANCH   4   7
TORSDOF 1
ENDMDL
