MODEL 1
REMARK minimizedAffinity -0.262304634
REMARK minimizedRMSD -1
REMARK  1 active torsions:
REMARK  status: ('A' for Active; 'I' for Inactive)
REMARK    1  A    between atoms: C3_4  and  O_7 
ROOT
ATOM      1  C   UNL d   1      -3.764  -3.974  -4.805  0.00  0.00    -0.033 A 
ATOM      2  C1  UNL d   1      -3.044  -4.098  -3.614  0.00  0.00     0.039 A 
ATOM      3  C2  UNL d   1      -1.802  -4.735  -3.610  0.00  0.00    -0.080 A 
ATOM      4  C3  UNL d   1      -1.290  -5.242  -4.801  0.00  0.00     0.150 A 
ATOM      5  C4  UNL d   1      -1.999  -5.119  -5.991  0.00  0.00    -0.007 A 
ATOM      6  C5  UNL d   1      -3.240  -4.484  -5.993  0.00  0.00     0.039 A 
ENDROOT
BRANCH   4   7
ATOM      7  O   UNL d   1      -0.084  -5.876  -4.846  0.00  0.00    -0.526 OA
ATOM      8  H5  UNL d   1       0.278  -5.912  -3.945  0.00  0.00     0.418 HD
ENDBRANCH   4   7
TORSDOF 1
ENDMDL
