MODEL 1
REMARK minimizedAffinity -1.84305072
REMARK minimizedRMSD -1
REMARK  1 active torsions:
REMARK  status: ('A' for Active; 'I' for Inactive)
REMARK    1  A    between atoms: C3_4  and  O_7 
ROOT
ATOM      1  C   UNL d   1      -1.839  -5.827  -4.870  0.00  0.00    -0.033 A 
ATOM      2  C1  UNL d   1      -2.668  -6.000  -5.980  0.00  0.00     0.039 A 
ATOM      3  C2  UNL d   1      -3.941  -5.427  -6.000  0.00  0.00    -0.080 A 
ATOM      4  C3  UNL d   1      -4.372  -4.684  -4.905  0.00  0.00     0.150 A 
ATOM      5  C4  UNL d   1      -3.551  -4.504  -3.797  0.00  0.00    -0.007 A 
ATOM      6  C5  UNL d   1      -2.280  -5.077  -3.779  0.00  0.00     0.039 A 
ENDROOT
BRANCH   4   7
ATOM      7  O   UNL d   1      -5.609  -4.109  -4.876  0.00  0.00    -0.526 OA
ATOM      8  H5  UNL d   1      -6.075  -4.342  -5.696  0.00  0.00     0.418 HD
ENDBRANCH   4   7
TORSDOF 1
ENDMDL
