MODEL 1
REMARK minimizedAffinity -2.65850878
REMARK minimizedRMSD -1
REMARK  1 active torsions:
REMARK  status: ('A' for Active; 'I' for Inactive)
REMARK    1  A    between atoms: C3_4  and  O_7 
ROOT
ATOM      1  C   UNL d   1      -3.351  -1.827  -0.122  0.00  0.00    -0.033 A 
ATOM      2  C1  UNL d   1      -2.897  -1.733   1.195  0.00  0.00     0.039 A 
ATOM      3  C2  UNL d   1      -2.328  -0.545   1.657  0.00  0.00    -0.080 A 
ATOM      4  C3  UNL d   1      -2.219   0.541   0.793  0.00  0.00     0.150 A 
ATOM      5  C4  UNL d   1      -2.672   0.456  -0.519  0.00  0.00    -0.007 A 
ATOM      6  C5  UNL d   1      -3.240  -0.731  -0.979  0.00  0.00     0.039 A 
ENDROOT
BRANCH   4   7
ATOM      7  O   UNL d   1      -1.666   1.720   1.197  0.00  0.00    -0.526 OA
ATOM      8  H5  UNL d   1      -1.371   1.622   2.117  0.00  0.00     0.418 HD
ENDBRANCH   4   7
TORSDOF 1
ENDMDL
