MODEL 1
REMARK minimizedAffinity -2.04911327
REMARK minimizedRMSD -1
REMARK  1 active torsions:
REMARK  status: ('A' for Active; 'I' for Inactive)
REMARK    1  A    between atoms: C3_4  and  O_7 
ROOT
ATOM      1  C   UNL d   1      -2.133  -5.987  -4.880  0.00  0.00    -0.033 A 
ATOM      2  C1  UNL d   1      -2.446  -5.207  -3.766  0.00  0.00     0.039 A 
ATOM      3  C2  UNL d   1      -3.601  -4.422  -3.763  0.00  0.00    -0.080 A 
ATOM      4  C3  UNL d   1      -4.434  -4.428  -4.879  0.00  0.00     0.150 A 
ATOM      5  C4  UNL d   1      -4.130  -5.206  -5.991  0.00  0.00    -0.007 A 
ATOM      6  C5  UNL d   1      -2.976  -5.988  -5.992  0.00  0.00     0.039 A 
ENDROOT
BRANCH   4   7
ATOM      7  O   UNL d   1      -5.569  -3.675  -4.924  0.00  0.00    -0.526 OA
ATOM      8  H5  UNL d   1      -5.635  -3.168  -4.098  0.00  0.00     0.418 HD
ENDBRANCH   4   7
TORSDOF 1
ENDMDL
