MODEL 1
REMARK minimizedAffinity 0.955842257
REMARK minimizedRMSD -1
REMARK  1 active torsions:
REMARK  status: ('A' for Active; 'I' for Inactive)
REMARK    1  A    between atoms: C3_4  and  O_7 
ROOT
ATOM      1  C   UNL d   1      -5.962  -1.158  -4.746  0.00  0.00    -0.033 A 
ATOM      2  C1  UNL d   1      -5.998  -2.024  -3.651  0.00  0.00     0.039 A 
ATOM      3  C2  UNL d   1      -5.388  -3.277  -3.729  0.00  0.00    -0.080 A 
ATOM      4  C3  UNL d   1      -4.746  -3.652  -4.906  0.00  0.00     0.150 A 
ATOM      5  C4  UNL d   1      -4.703  -2.794  -6.000  0.00  0.00    -0.007 A 
ATOM      6  C5  UNL d   1      -5.314  -1.543  -5.920  0.00  0.00     0.039 A 
ENDROOT
BRANCH   4   7
ATOM      7  O   UNL d   1      -4.141  -4.867  -5.032  0.00  0.00    -0.526 OA
ATOM      8  H5  UNL d   1      -4.275  -5.365  -4.208  0.00  0.00     0.418 HD
ENDBRANCH   4   7
TORSDOF 1
ENDMDL
