MODEL 1
REMARK minimizedAffinity -2.39608335
REMARK minimizedRMSD -1
REMARK  1 active torsions:
REMARK  status: ('A' for Active; 'I' for Inactive)
REMARK    1  A    between atoms: C3_4  and  O_7 
ROOT
ATOM      1  C   UNL d   1      -4.098  -5.989  -5.397  0.00  0.00    -0.033 A 
ATOM      2  C1  UNL d   1      -5.347  -5.821  -5.999  0.00  0.00     0.039 A 
ATOM      3  C2  UNL d   1      -5.999  -4.589  -5.927  0.00  0.00    -0.080 A 
ATOM      4  C3  UNL d   1      -5.392  -3.533  -5.251  0.00  0.00     0.150 A 
ATOM      5  C4  UNL d   1      -4.147  -3.692  -4.653  0.00  0.00    -0.007 A 
ATOM      6  C5  UNL d   1      -3.498  -4.924  -4.725  0.00  0.00     0.039 A 
ENDROOT
BRANCH   4   7
ATOM      7  O   UNL d   1      -5.992  -2.313  -5.150  0.00  0.00    -0.526 OA
ATOM      8  H5  UNL d   1      -6.860  -2.360  -5.586  0.00  0.00     0.418 HD
ENDBRANCH   4   7
TORSDOF 1
ENDMDL
