MODEL 1
REMARK minimizedAffinity -2.81994128
REMARK minimizedRMSD -1
REMARK  1 active torsions:
REMARK  status: ('A' for Active; 'I' for Inactive)
REMARK    1  A    between atoms: C3_4  and  O_7 
ROOT
ATOM      1  C   UNL d   1      -3.548  -5.996  -5.530  0.00  0.00    -0.033 A 
ATOM      2  C1  UNL d   1      -4.863  -6.000  -5.998  0.00  0.00     0.039 A 
ATOM      3  C2  UNL d   1      -5.678  -4.883  -5.806  0.00  0.00    -0.080 A 
ATOM      4  C3  UNL d   1      -5.166  -3.769  -5.146  0.00  0.00     0.150 A 
ATOM      5  C4  UNL d   1      -3.856  -3.756  -4.680  0.00  0.00    -0.007 A 
ATOM      6  C5  UNL d   1      -3.044  -4.873  -4.872  0.00  0.00     0.039 A 
ENDROOT
BRANCH   4   7
ATOM      7  O   UNL d   1      -5.925  -2.657  -4.931  0.00  0.00    -0.526 OA
ATOM      8  H5  UNL d   1      -6.817  -2.820  -5.281  0.00  0.00     0.418 HD
ENDBRANCH   4   7
TORSDOF 1
ENDMDL
