MODEL 1
REMARK minimizedAffinity -3.40534711
REMARK minimizedRMSD -1
REMARK  1 active torsions:
REMARK  status: ('A' for Active; 'I' for Inactive)
REMARK    1  A    between atoms: C3_4  and  O_7 
ROOT
ATOM      1  C   UNL d   1      -4.460  -4.013  -5.751  0.00  0.00    -0.033 A 
ATOM      2  C1  UNL d   1      -4.325  -5.381  -5.999  0.00  0.00     0.039 A 
ATOM      3  C2  UNL d   1      -3.082  -6.000  -5.852  0.00  0.00    -0.080 A 
ATOM      4  C3  UNL d   1      -1.984  -5.241  -5.456  0.00  0.00     0.150 A 
ATOM      5  C4  UNL d   1      -2.112  -3.879  -5.203  0.00  0.00    -0.007 A 
ATOM      6  C5  UNL d   1      -3.353  -3.263  -5.352  0.00  0.00     0.039 A 
ENDROOT
BRANCH   4   7
ATOM      7  O   UNL d   1      -0.750  -5.800  -5.303  0.00  0.00    -0.526 OA
ATOM      8  H5  UNL d   1      -0.806  -6.741  -5.539  0.00  0.00     0.418 HD
ENDBRANCH   4   7
TORSDOF 1
ENDMDL
