MODEL 1
REMARK minimizedAffinity -2.26210332
REMARK minimizedRMSD -1
REMARK  1 active torsions:
REMARK  status: ('A' for Active; 'I' for Inactive)
REMARK    1  A    between atoms: C3_4  and  O_7 
ROOT
ATOM      1  C   UNL d   1      -5.072  -4.764  -5.575  0.00  0.00    -0.033 A 
ATOM      2  C1  UNL d   1      -4.318  -3.651  -5.201  0.00  0.00     0.039 A 
ATOM      3  C2  UNL d   1      -2.923  -3.711  -5.223  0.00  0.00    -0.080 A 
ATOM      4  C3  UNL d   1      -2.296  -4.888  -5.622  0.00  0.00     0.150 A 
ATOM      5  C4  UNL d   1      -3.041  -6.000  -6.000  0.00  0.00    -0.007 A 
ATOM      6  C5  UNL d   1      -4.434  -5.938  -5.976  0.00  0.00     0.039 A 
ENDROOT
BRANCH   4   7
ATOM      7  O   UNL d   1      -0.937  -4.995  -5.655  0.00  0.00    -0.526 OA
ATOM      8  H5  UNL d   1      -0.554  -4.159  -5.340  0.00  0.00     0.418 HD
ENDBRANCH   4   7
TORSDOF 1
ENDMDL
