MODEL 1
REMARK minimizedAffinity -0.0433108136
REMARK minimizedRMSD -1
REMARK  1 active torsions:
REMARK  status: ('A' for Active; 'I' for Inactive)
REMARK    1  A    between atoms: C3_4  and  O_7 
ROOT
ATOM      1  C   UNL d   1      -4.725  -4.562  -5.284  0.00  0.00    -0.033 A 
ATOM      2  C1  UNL d   1      -3.946  -3.503  -5.754  0.00  0.00     0.039 A 
ATOM      3  C2  UNL d   1      -2.585  -3.689  -6.000  0.00  0.00    -0.080 A 
ATOM      4  C3  UNL d   1      -2.015  -4.939  -5.773  0.00  0.00     0.150 A 
ATOM      5  C4  UNL d   1      -2.785  -6.000  -5.308  0.00  0.00    -0.007 A 
ATOM      6  C5  UNL d   1      -4.144  -5.811  -5.062  0.00  0.00     0.039 A 
ENDROOT
BRANCH   4   7
ATOM      7  O   UNL d   1      -0.689  -5.168  -5.994  0.00  0.00    -0.526 OA
ATOM      8  H5  UNL d   1      -0.277  -4.338  -6.285  0.00  0.00     0.418 HD
ENDBRANCH   4   7
TORSDOF 1
ENDMDL
