MODEL 1
REMARK minimizedAffinity -0.870729923
REMARK minimizedRMSD -1
REMARK  1 active torsions:
REMARK  status: ('A' for Active; 'I' for Inactive)
REMARK    1  A    between atoms: C3_4  and  O_7 
ROOT
ATOM      1  C   UNL d   1      -5.988  -1.742  -4.557  0.00  0.00    -0.033 A 
ATOM      2  C1  UNL d   1      -5.293  -1.855  -5.762  0.00  0.00     0.039 A 
ATOM      3  C2  UNL d   1      -4.168  -1.062  -5.999  0.00  0.00    -0.080 A 
ATOM      4  C3  UNL d   1      -3.750  -0.162  -5.023  0.00  0.00     0.150 A 
ATOM      5  C4  UNL d   1      -4.435  -0.047  -3.818  0.00  0.00    -0.007 A 
ATOM      6  C5  UNL d   1      -5.558  -0.839  -3.584  0.00  0.00     0.039 A 
ENDROOT
BRANCH   4   7
ATOM      7  O   UNL d   1      -2.661   0.637  -5.210  0.00  0.00    -0.526 OA
ATOM      8  H5  UNL d   1      -2.305   0.469  -6.099  0.00  0.00     0.418 HD
ENDBRANCH   4   7
TORSDOF 1
ENDMDL
