MODEL 1
REMARK minimizedAffinity 4.16854048
REMARK minimizedRMSD -1
REMARK  1 active torsions:
REMARK  status: ('A' for Active; 'I' for Inactive)
REMARK    1  A    between atoms: C1_2  and  C2_3 
ROOT
ATOM      1  C2  UNL d   1       0.648   0.305   2.649  0.00  0.00    -0.073 A 
ATOM      2  C3  UNL d   1      -0.449   1.160   2.807  0.00  0.00    -0.002 A 
ATOM      3  C4  UNL d   1      -1.083   1.708   1.691  0.00  0.00     0.004 A 
ATOM      4  C5  UNL d   1      -0.631   1.402   0.407  0.00  0.00    -0.004 A 
ATOM      5  C6  UNL d   1       0.456   0.541   0.228  0.00  0.00    -0.075 A 
ATOM      6  C7  UNL d   1       0.956   0.205  -1.146  0.00  0.00     0.076 C 
ATOM      7  C8  UNL d   1       1.089  -0.003   1.354  0.00  0.00     0.001 A 
ENDROOT
BRANCH   1   8
ATOM      8  C1  UNL d   1       1.331  -0.294   3.851  0.00  0.00     0.053 C 
ATOM      9  C   UNL d   1       1.513  -1.797   3.713  0.00  0.00     0.018 C 
ENDBRANCH   1   8
TORSDOF 1
ENDMDL
