MODEL 1
REMARK minimizedAffinity 0.142299503
REMARK minimizedRMSD -1
REMARK  1 active torsions:
REMARK  status: ('A' for Active; 'I' for Inactive)
REMARK    1  A    between atoms: C1_2  and  C2_3 
ROOT
ATOM      1  C2  UNL d   1      -0.756   2.042   0.208  0.00  0.00    -0.073 A 
ATOM      2  C3  UNL d   1      -0.032   1.055  -0.471  0.00  0.00    -0.002 A 
ATOM      3  C4  UNL d   1       0.784   1.396  -1.550  0.00  0.00     0.004 A 
ATOM      4  C5  UNL d   1       0.890   2.726  -1.957  0.00  0.00    -0.004 A 
ATOM      5  C6  UNL d   1       0.185   3.729  -1.284  0.00  0.00    -0.075 A 
ATOM      6  C7  UNL d   1       0.287   5.164  -1.710  0.00  0.00     0.076 C 
ATOM      7  C8  UNL d   1      -0.635   3.378  -0.202  0.00  0.00     0.001 A 
ENDROOT
BRANCH   1   8
ATOM      8  C1  UNL d   1      -1.633   1.680   1.378  0.00  0.00     0.053 C 
ATOM      9  C   UNL d   1      -0.899   0.822   2.397  0.00  0.00     0.018 C 
ENDBRANCH   1   8
TORSDOF 1
ENDMDL
