MODEL 1
REMARK minimizedAffinity 2.37425804
REMARK minimizedRMSD -1
REMARK  1 active torsions:
REMARK  status: ('A' for Active; 'I' for Inactive)
REMARK    1  A    between atoms: C1_2  and  C2_3 
ROOT
ATOM      1  C2  UNL d   1      -0.693   1.939  -0.794  0.00  0.00    -0.073 A 
ATOM      2  C3  UNL d   1      -1.402   2.236   0.376  0.00  0.00    -0.002 A 
ATOM      3  C4  UNL d   1      -1.543   3.558   0.799  0.00  0.00     0.004 A 
ATOM      4  C5  UNL d   1      -0.983   4.597   0.055  0.00  0.00    -0.004 A 
ATOM      5  C6  UNL d   1      -0.281   4.322  -1.123  0.00  0.00    -0.075 A 
ATOM      6  C7  UNL d   1       0.329   5.427  -1.933  0.00  0.00     0.076 C 
ATOM      7  C8  UNL d   1      -0.141   2.991  -1.540  0.00  0.00     0.001 A 
ENDROOT
BRANCH   1   8
ATOM      8  C1  UNL d   1      -0.544   0.514  -1.258  0.00  0.00     0.053 C 
ATOM      9  C   UNL d   1       0.916   0.111  -1.403  0.00  0.00     0.018 C 
ENDBRANCH   1   8
TORSDOF 1
ENDMDL
