MODEL 1
REMARK minimizedAffinity 3.59386802
REMARK minimizedRMSD -1
REMARK  1 active torsions:
REMARK  status: ('A' for Active; 'I' for Inactive)
REMARK    1  A    between atoms: C1_2  and  C2_3 
ROOT
ATOM      1  C2  UNL d   1       0.228   0.744   1.718  0.00  0.00    -0.073 A 
ATOM      2  C3  UNL d   1      -0.910   0.074   2.180  0.00  0.00    -0.002 A 
ATOM      3  C4  UNL d   1      -2.175   0.642   2.022  0.00  0.00     0.004 A 
ATOM      4  C5  UNL d   1      -2.315   1.880   1.395  0.00  0.00    -0.004 A 
ATOM      5  C6  UNL d   1      -1.191   2.560   0.917  0.00  0.00    -0.075 A 
ATOM      6  C7  UNL d   1      -1.324   3.894   0.243  0.00  0.00     0.076 C 
ATOM      7  C8  UNL d   1       0.076   1.984   1.082  0.00  0.00     0.001 A 
ENDROOT
BRANCH   1   8
ATOM      8  C1  UNL d   1       1.596   0.132   1.881  0.00  0.00     0.053 C 
ATOM      9  C   UNL d   1       2.302  -0.049   0.546  0.00  0.00     0.018 C 
ENDBRANCH   1   8
TORSDOF 1
ENDMDL
