MODEL 1
REMARK minimizedAffinity 1.11604524
REMARK minimizedRMSD -1
REMARK  1 active torsions:
REMARK  status: ('A' for Active; 'I' for Inactive)
REMARK    1  A    between atoms: C1_2  and  C2_3 
ROOT
ATOM      1  C2  UNL d   1      -1.138   2.905   0.201  0.00  0.00    -0.073 A 
ATOM      2  C3  UNL d   1      -2.190   3.827   0.242  0.00  0.00    -0.002 A 
ATOM      3  C4  UNL d   1      -3.270   3.626   1.103  0.00  0.00     0.004 A 
ATOM      4  C5  UNL d   1      -3.306   2.507   1.936  0.00  0.00    -0.004 A 
ATOM      5  C6  UNL d   1      -2.258   1.581   1.918  0.00  0.00    -0.075 A 
ATOM      6  C7  UNL d   1      -2.281   0.372   2.806  0.00  0.00     0.076 C 
ATOM      7  C8  UNL d   1      -1.178   1.789   1.049  0.00  0.00     0.001 A 
ENDROOT
BRANCH   1   8
ATOM      8  C1  UNL d   1       0.033   3.121  -0.722  0.00  0.00     0.053 C 
ATOM      9  C   UNL d   1       0.615   1.808  -1.221  0.00  0.00     0.018 C 
ENDBRANCH   1   8
TORSDOF 1
ENDMDL
