MODEL 1
REMARK minimizedAffinity 0.537234902
REMARK minimizedRMSD -1
REMARK  1 active torsions:
REMARK  status: ('A' for Active; 'I' for Inactive)
REMARK    1  A    between atoms: C1_2  and  C2_3 
ROOT
ATOM      1  C2  UNL d   1      -1.349   1.032   1.648  0.00  0.00    -0.073 A 
ATOM      2  C3  UNL d   1      -2.647   1.491   1.898  0.00  0.00    -0.002 A 
ATOM      3  C4  UNL d   1      -3.144   2.605   1.222  0.00  0.00     0.004 A 
ATOM      4  C5  UNL d   1      -2.352   3.268   0.284  0.00  0.00    -0.004 A 
ATOM      5  C6  UNL d   1      -1.057   2.818   0.011  0.00  0.00    -0.075 A 
ATOM      6  C7  UNL d   1      -0.191   3.521  -0.993  0.00  0.00     0.076 C 
ATOM      7  C8  UNL d   1      -0.564   1.700   0.697  0.00  0.00     0.001 A 
ENDROOT
BRANCH   1   8
ATOM      8  C1  UNL d   1      -0.810  -0.175   2.371  0.00  0.00     0.053 C 
ATOM      9  C   UNL d   1      -1.904  -0.937   3.101  0.00  0.00     0.018 C 
ENDBRANCH   1   8
TORSDOF 1
ENDMDL
