MODEL 1
REMARK minimizedAffinity -1.52774692
REMARK minimizedRMSD -1
REMARK  1 active torsions:
REMARK  status: ('A' for Active; 'I' for Inactive)
REMARK    1  A    between atoms: C1_2  and  C2_3 
ROOT
ATOM      1  C2  UNL d   1      -1.036   1.518   1.173  0.00  0.00    -0.073 A 
ATOM      2  C3  UNL d   1      -2.334   2.030   1.283  0.00  0.00    -0.002 A 
ATOM      3  C4  UNL d   1      -2.701   3.178   0.579  0.00  0.00     0.004 A 
ATOM      4  C5  UNL d   1      -1.778   3.820  -0.247  0.00  0.00    -0.004 A 
ATOM      5  C6  UNL d   1      -0.480   3.316  -0.379  0.00  0.00    -0.075 A 
ATOM      6  C7  UNL d   1       0.525   3.996  -1.262  0.00  0.00     0.076 C 
ATOM      7  C8  UNL d   1      -0.118   2.165   0.334  0.00  0.00     0.001 A 
ENDROOT
BRANCH   1   8
ATOM      8  C1  UNL d   1      -0.637   0.276   1.927  0.00  0.00     0.053 C 
ATOM      9  C   UNL d   1      -1.808  -0.334   2.681  0.00  0.00     0.018 C 
ENDBRANCH   1   8
TORSDOF 1
ENDMDL
