MODEL 1
REMARK minimizedAffinity 2.69430614
REMARK minimizedRMSD -1
REMARK  1 active torsions:
REMARK  status: ('A' for Active; 'I' for Inactive)
REMARK    1  A    between atoms: C1_2  and  C2_3 
ROOT
ATOM      1  C2  UNL d   1      -0.812   1.402   1.207  0.00  0.00    -0.073 A 
ATOM      2  C3  UNL d   1      -0.167   0.489   0.364  0.00  0.00    -0.002 A 
ATOM      3  C4  UNL d   1       0.459   0.929  -0.803  0.00  0.00     0.004 A 
ATOM      4  C5  UNL d   1       0.452   2.284  -1.135  0.00  0.00    -0.004 A 
ATOM      5  C6  UNL d   1      -0.177   3.212  -0.299  0.00  0.00    -0.075 A 
ATOM      6  C7  UNL d   1      -0.194   4.673  -0.644  0.00  0.00     0.076 C 
ATOM      7  C8  UNL d   1      -0.805   2.763   0.870  0.00  0.00     0.001 A 
ENDROOT
BRANCH   1   8
ATOM      8  C1  UNL d   1      -1.484   0.932   2.472  0.00  0.00     0.053 C 
ATOM      9  C   UNL d   1      -1.557  -0.584   2.550  0.00  0.00     0.018 C 
ENDBRANCH   1   8
TORSDOF 1
ENDMDL
