MODEL 1
REMARK minimizedAffinity 2.25415421
REMARK minimizedRMSD -1
REMARK  1 active torsions:
REMARK  status: ('A' for Active; 'I' for Inactive)
REMARK    1  A    between atoms: C1_2  and  C2_3 
ROOT
ATOM      1  C2  UNL d   1      -1.306   2.057   0.810  0.00  0.00    -0.073 A 
ATOM      2  C3  UNL d   1      -1.340   3.449   0.672  0.00  0.00    -0.002 A 
ATOM      3  C4  UNL d   1      -0.658   4.070  -0.376  0.00  0.00     0.004 A 
ATOM      4  C5  UNL d   1       0.056   3.306  -1.299  0.00  0.00    -0.004 A 
ATOM      5  C6  UNL d   1       0.092   1.913  -1.184  0.00  0.00    -0.075 A 
ATOM      6  C7  UNL d   1       0.858   1.077  -2.167  0.00  0.00     0.076 C 
ATOM      7  C8  UNL d   1      -0.593   1.297  -0.128  0.00  0.00     0.001 A 
ENDROOT
BRANCH   1   8
ATOM      8  C1  UNL d   1      -2.046   1.381   1.936  0.00  0.00     0.053 C 
ATOM      9  C   UNL d   1      -1.332   0.127   2.415  0.00  0.00     0.018 C 
ENDBRANCH   1   8
TORSDOF 1
ENDMDL
