MODEL 1
REMARK minimizedAffinity 6.13659859
REMARK minimizedRMSD -1
REMARK  1 active torsions:
REMARK  status: ('A' for Active; 'I' for Inactive)
REMARK    1  A    between atoms: C1_2  and  C2_3 
ROOT
ATOM      1  C2  UNL d   1       0.532   1.212  -0.401  0.00  0.00    -0.073 A 
ATOM      2  C3  UNL d   1       1.576   0.334  -0.086  0.00  0.00    -0.002 A 
ATOM      3  C4  UNL d   1       1.857   0.021   1.244  0.00  0.00     0.004 A 
ATOM      4  C5  UNL d   1       1.093   0.574   2.272  0.00  0.00    -0.004 A 
ATOM      5  C6  UNL d   1       0.038   1.443   1.977  0.00  0.00    -0.075 A 
ATOM      6  C7  UNL d   1      -0.792   2.048   3.071  0.00  0.00     0.076 C 
ATOM      7  C8  UNL d   1      -0.236   1.756   0.639  0.00  0.00     0.001 A 
ENDROOT
BRANCH   1   8
ATOM      8  C1  UNL d   1       0.221   1.548  -1.836  0.00  0.00     0.053 C 
ATOM      9  C   UNL d   1       0.206   3.049  -2.079  0.00  0.00     0.018 C 
ENDBRANCH   1   8
TORSDOF 1
ENDMDL
