MODEL 1
REMARK minimizedAffinity 6.35789394
REMARK minimizedRMSD -1
REMARK  1 active torsions:
REMARK  status: ('A' for Active; 'I' for Inactive)
REMARK    1  A    between atoms: C1_2  and  C2_3 
ROOT
ATOM      1  C2  UNL d   1      -0.253   1.426   1.774  0.00  0.00    -0.073 A 
ATOM      2  C3  UNL d   1      -0.702   1.445   0.448  0.00  0.00    -0.002 A 
ATOM      3  C4  UNL d   1      -0.017   0.735  -0.538  0.00  0.00     0.004 A 
ATOM      4  C5  UNL d   1       1.117  -0.007  -0.209  0.00  0.00    -0.004 A 
ATOM      5  C6  UNL d   1       1.575  -0.048   1.112  0.00  0.00    -0.075 A 
ATOM      6  C7  UNL d   1       2.795  -0.840   1.482  0.00  0.00     0.076 C 
ATOM      7  C8  UNL d   1       0.883   0.670   2.096  0.00  0.00     0.001 A 
ENDROOT
BRANCH   1   8
ATOM      8  C1  UNL d   1      -0.993   2.187   2.844  0.00  0.00     0.053 C 
ATOM      9  C   UNL d   1      -0.057   2.713   3.920  0.00  0.00     0.018 C 
ENDBRANCH   1   8
TORSDOF 1
ENDMDL
