MODEL 1
REMARK minimizedAffinity 13.8890696
REMARK minimizedRMSD -1
REMARK  1 active torsions:
REMARK  status: ('A' for Active; 'I' for Inactive)
REMARK    1  A    between atoms: C1_2  and  C2_3 
ROOT
ATOM      1  C2  UNL d   1       0.207   2.488   2.282  0.00  0.00    -0.073 A 
ATOM      2  C3  UNL d   1      -0.953   1.772   2.599  0.00  0.00    -0.002 A 
ATOM      3  C4  UNL d   1      -1.013   0.395   2.383  0.00  0.00     0.004 A 
ATOM      4  C5  UNL d   1       0.087  -0.281   1.854  0.00  0.00    -0.004 A 
ATOM      5  C6  UNL d   1       1.259   0.415   1.542  0.00  0.00    -0.075 A 
ATOM      6  C7  UNL d   1       2.450  -0.296   0.971  0.00  0.00     0.076 C 
ATOM      7  C8  UNL d   1       1.310   1.799   1.760  0.00  0.00     0.001 A 
ENDROOT
BRANCH   1   8
ATOM      8  C1  UNL d   1       0.278   3.974   2.521  0.00  0.00     0.053 C 
ATOM      9  C   UNL d   1       0.498   4.749   1.231  0.00  0.00     0.018 C 
ENDBRANCH   1   8
TORSDOF 1
ENDMDL
