MODEL 1
REMARK minimizedAffinity -0.861308873
REMARK minimizedRMSD -1
REMARK  0 active torsions:
REMARK  status: ('A' for Active; 'I' for Inactive)
ROOT
ATOM      1  C2' OXE d   1      -3.727   5.800  -1.902  0.00  0.00     0.078 C 
ATOM      2  C1' OXE d   1      -5.113   5.962  -4.338  0.00  0.00     0.078 C 
ATOM      3  C1  OXE d   1      -5.208   4.674  -3.559  0.00  0.00    -0.078 A 
ATOM      4  C2  OXE d   1      -4.489   4.587  -2.391  0.00  0.00    -0.078 A 
ATOM      5  C3  OXE d   1      -4.585   3.442  -1.606  0.00  0.00     0.003 A 
ATOM      6  C4  OXE d   1      -5.283   2.321  -2.071  0.00  0.00    -0.002 A 
ATOM      7  C5  OXE d   1      -5.990   2.374  -3.277  0.00  0.00    -0.002 A 
ATOM      8  C6  OXE d   1      -5.998   3.555  -4.011  0.00  0.00     0.003 A 
ENDROOT
TORSDOF 0
ENDMDL
