MODEL 1
REMARK minimizedAffinity 6.10422182
REMARK minimizedRMSD -1
REMARK  0 active torsions:
REMARK  status: ('A' for Active; 'I' for Inactive)
ROOT
ATOM      1  C2' OXE d   1       1.876  -0.370   2.841  0.00  0.00     0.078 C 
ATOM      2  C1' OXE d   1       0.977   2.289   2.852  0.00  0.00     0.078 C 
ATOM      3  C1  OXE d   1       0.319   1.328   1.894  0.00  0.00    -0.078 A 
ATOM      4  C2  OXE d   1       0.797   0.040   1.862  0.00  0.00    -0.078 A 
ATOM      5  C3  OXE d   1       0.189  -0.901   1.036  0.00  0.00     0.003 A 
ATOM      6  C4  OXE d   1      -0.801  -0.512   0.127  0.00  0.00    -0.002 A 
ATOM      7  C5  OXE d   1      -1.275   0.804   0.114  0.00  0.00    -0.002 A 
ATOM      8  C6  OXE d   1      -0.757   1.724   1.019  0.00  0.00     0.003 A 
ENDROOT
TORSDOF 0
ENDMDL
