MODEL 1
REMARK minimizedAffinity 5.26318407
REMARK minimizedRMSD -1
REMARK  0 active torsions:
REMARK  status: ('A' for Active; 'I' for Inactive)
ROOT
ATOM      1  C2' OXE d   1       0.521   0.765   2.292  0.00  0.00     0.078 C 
ATOM      2  C1' OXE d   1      -1.960   1.184   1.048  0.00  0.00     0.078 C 
ATOM      3  C1  OXE d   1      -0.842   0.613   0.213  0.00  0.00    -0.078 A 
ATOM      4  C2  OXE d   1       0.382   0.455   0.817  0.00  0.00    -0.078 A 
ATOM      5  C3  OXE d   1       1.433  -0.119   0.107  0.00  0.00     0.003 A 
ATOM      6  C4  OXE d   1       1.298  -0.394  -1.259  0.00  0.00    -0.002 A 
ATOM      7  C5  OXE d   1       0.072  -0.203  -1.904  0.00  0.00    -0.002 A 
ATOM      8  C6  OXE d   1      -1.018   0.258  -1.174  0.00  0.00     0.003 A 
ENDROOT
TORSDOF 0
ENDMDL
