MODEL 1
REMARK minimizedAffinity 3.21280146
REMARK minimizedRMSD -1
REMARK  0 active torsions:
REMARK  status: ('A' for Active; 'I' for Inactive)
ROOT
ATOM      1  C2' OXE d   1      -3.547  -0.455  -4.992  0.00  0.00     0.078 C 
ATOM      2  C1' OXE d   1      -4.064   0.594  -2.440  0.00  0.00     0.078 C 
ATOM      3  C1  OXE d   1      -4.674   1.297  -3.626  0.00  0.00    -0.078 A 
ATOM      4  C2  OXE d   1      -4.378   0.805  -4.874  0.00  0.00    -0.078 A 
ATOM      5  C3  OXE d   1      -4.959   1.383  -5.999  0.00  0.00     0.003 A 
ATOM      6  C4  OXE d   1      -5.719   2.553  -5.883  0.00  0.00    -0.002 A 
ATOM      7  C5  OXE d   1      -6.000   3.094  -4.624  0.00  0.00    -0.002 A 
ATOM      8  C6  OXE d   1      -5.522   2.455  -3.485  0.00  0.00     0.003 A 
ENDROOT
TORSDOF 0
ENDMDL
