MODEL 1
REMARK minimizedAffinity 2.84183693
REMARK minimizedRMSD -1
REMARK  0 active torsions:
REMARK  status: ('A' for Active; 'I' for Inactive)
ROOT
ATOM      1  C2' OXE d   1       1.575  -1.144   0.766  0.00  0.00     0.078 C 
ATOM      2  C1' OXE d   1      -0.876  -2.463   0.401  0.00  0.00     0.078 C 
ATOM      3  C1  OXE d   1      -0.860  -0.961   0.272  0.00  0.00    -0.078 A 
ATOM      4  C2  OXE d   1       0.335  -0.320   0.498  0.00  0.00    -0.078 A 
ATOM      5  C3  OXE d   1       0.417   1.061   0.339  0.00  0.00     0.003 A 
ATOM      6  C4  OXE d   1      -0.737   1.817   0.101  0.00  0.00    -0.002 A 
ATOM      7  C5  OXE d   1      -1.971   1.187  -0.093  0.00  0.00    -0.002 A 
ATOM      8  C6  OXE d   1      -2.041  -0.201  -0.053  0.00  0.00     0.003 A 
ENDROOT
TORSDOF 0
ENDMDL
