MODEL 1
REMARK minimizedAffinity -4.18772316
REMARK minimizedRMSD -1
REMARK  3 active torsions:
REMARK  status: ('A' for Active; 'I' for Inactive)
REMARK    1  A    between atoms: C3'_2  and  C2'_3 
REMARK    2  A    between atoms: C2'_3  and  C1'_4 
REMARK    3  A    between atoms: C1'_4  and  C1_5 
ROOT
ATOM      1  C1  N4B d   1       0.340   0.125  -1.084  0.00  0.00    -0.075 A 
ATOM      2  C2  N4B d   1       1.154  -0.261  -2.171  0.00  0.00     0.002 A 
ATOM      3  C3  N4B d   1       0.669  -1.133  -3.116  0.00  0.00     0.002 A 
ATOM      4  C4  N4B d   1      -0.614  -1.643  -2.983  0.00  0.00    -0.004 A 
ATOM      5  C5  N4B d   1      -1.402  -1.245  -1.944  0.00  0.00     0.002 A 
ATOM      6  C6  N4B d   1      -0.929  -0.366  -0.990  0.00  0.00     0.002 A 
ENDROOT
BRANCH   1   7
ATOM      7  C1' N4B d   1       0.857   1.008   0.019  0.00  0.00     0.057 C 
BRANCH   7   8
ATOM      8  C2' N4B d   1       1.916   0.250   0.814  0.00  0.00     0.009 C 
BRANCH   8   9
ATOM      9  C3' N4B d   1       1.397  -0.199   2.169  0.00  0.00     0.004 C 
ATOM     10  C4' N4B d   1       0.180   0.559   2.605  0.00  0.00     0.003 C 
ENDBRANCH   8   9
ENDBRANCH   7   8
ENDBRANCH   1   7
TORSDOF 3
ENDMDL
