MODEL 1
REMARK minimizedAffinity -3.74143386
REMARK minimizedRMSD -1
REMARK  3 active torsions:
REMARK  status: ('A' for Active; 'I' for Inactive)
REMARK    1  A    between atoms: C3'_2  and  C2'_3 
REMARK    2  A    between atoms: C2'_3  and  C1'_4 
REMARK    3  A    between atoms: C1'_4  and  C1_5 
ROOT
ATOM      1  C1  N4B d   1       0.063  -0.161   0.315  0.00  0.00    -0.075 A 
ATOM      2  C2  N4B d   1      -1.096  -0.832   0.764  0.00  0.00     0.002 A 
ATOM      3  C3  N4B d   1      -1.308  -1.011   2.109  0.00  0.00     0.002 A 
ATOM      4  C4  N4B d   1      -0.370  -0.547   3.019  0.00  0.00    -0.004 A 
ATOM      5  C5  N4B d   1       0.734   0.122   2.578  0.00  0.00     0.002 A 
ATOM      6  C6  N4B d   1       0.958   0.313   1.230  0.00  0.00     0.002 A 
ENDROOT
BRANCH   1   7
ATOM      7  C1' N4B d   1       0.380  -0.017  -1.148  0.00  0.00     0.057 C 
BRANCH   7   8
ATOM      8  C2' N4B d   1       0.387  -1.397  -1.798  0.00  0.00     0.009 C 
BRANCH   8   9
ATOM      9  C3' N4B d   1       1.165  -1.407  -3.103  0.00  0.00     0.004 C 
ATOM     10  C4' N4B d   1       1.935  -2.678  -3.310  0.00  0.00     0.003 C 
ENDBRANCH   8   9
ENDBRANCH   7   8
ENDBRANCH   1   7
TORSDOF 3
ENDMDL
