MODEL 1
REMARK minimizedAffinity -5.48083973
REMARK minimizedRMSD -1
REMARK  3 active torsions:
REMARK  status: ('A' for Active; 'I' for Inactive)
REMARK    1  A    between atoms: C3'_2  and  C2'_3 
REMARK    2  A    between atoms: C2'_3  and  C1'_4 
REMARK    3  A    between atoms: C1'_4  and  C1_5 
ROOT
ATOM      1  C1  N4B d   1      -0.161   0.083  -0.916  0.00  0.00    -0.075 A 
ATOM      2  C2  N4B d   1      -1.307   0.389  -1.682  0.00  0.00     0.002 A 
ATOM      3  C3  N4B d   1      -2.558   0.217  -1.144  0.00  0.00     0.002 A 
ATOM      4  C4  N4B d   1      -2.689  -0.277   0.145  0.00  0.00    -0.004 A 
ATOM      5  C5  N4B d   1      -1.576  -0.546   0.887  0.00  0.00     0.002 A 
ATOM      6  C6  N4B d   1      -0.312  -0.374   0.361  0.00  0.00     0.002 A 
ENDROOT
BRANCH   1   7
ATOM      7  C1' N4B d   1       1.227   0.174  -1.491  0.00  0.00     0.057 C 
BRANCH   7   8
ATOM      8  C2' N4B d   1       1.143   0.110  -3.014  0.00  0.00     0.009 C 
BRANCH   8   9
ATOM      9  C3' N4B d   1       1.964  -1.035  -3.581  0.00  0.00     0.004 C 
ATOM     10  C4' N4B d   1       1.124  -2.058  -4.285  0.00  0.00     0.003 C 
ENDBRANCH   8   9
ENDBRANCH   7   8
ENDBRANCH   1   7
TORSDOF 3
ENDMDL
