MODEL 1
REMARK minimizedAffinity -4.8645196
REMARK minimizedRMSD -1
REMARK  3 active torsions:
REMARK  status: ('A' for Active; 'I' for Inactive)
REMARK    1  A    between atoms: C3'_2  and  C2'_3 
REMARK    2  A    between atoms: C2'_3  and  C1'_4 
REMARK    3  A    between atoms: C1'_4  and  C1_5 
ROOT
ATOM      1  C1  N4B d   1      -0.676  -0.116   0.979  0.00  0.00    -0.075 A 
ATOM      2  C2  N4B d   1       0.293  -0.179   2.004  0.00  0.00     0.002 A 
ATOM      3  C3  N4B d   1      -0.099  -0.326   3.312  0.00  0.00     0.002 A 
ATOM      4  C4  N4B d   1      -1.449  -0.394   3.620  0.00  0.00    -0.004 A 
ATOM      5  C5  N4B d   1      -2.378  -0.358   2.622  0.00  0.00     0.002 A 
ATOM      6  C6  N4B d   1      -1.999  -0.214   1.302  0.00  0.00     0.002 A 
ENDROOT
BRANCH   1   7
ATOM      7  C1' N4B d   1      -0.300   0.131  -0.456  0.00  0.00     0.057 C 
BRANCH   7   8
ATOM      8  C2' N4B d   1      -1.407  -0.398  -1.362  0.00  0.00     0.009 C 
BRANCH   8   9
ATOM      9  C3' N4B d   1      -1.037  -1.728  -1.996  0.00  0.00     0.004 C 
ATOM     10  C4' N4B d   1       0.113  -1.615  -2.952  0.00  0.00     0.003 C 
ENDBRANCH   8   9
ENDBRANCH   7   8
ENDBRANCH   1   7
TORSDOF 3
ENDMDL
