MODEL 1
REMARK minimizedAffinity -4.0407443
REMARK minimizedRMSD -1
REMARK  3 active torsions:
REMARK  status: ('A' for Active; 'I' for Inactive)
REMARK    1  A    between atoms: C3'_2  and  C2'_3 
REMARK    2  A    between atoms: C2'_3  and  C1'_4 
REMARK    3  A    between atoms: C1'_4  and  C1_5 
ROOT
ATOM      1  C1  N4B d   1      -1.072  -0.431  -1.582  0.00  0.00    -0.075 A 
ATOM      2  C2  N4B d   1       0.184   0.214  -1.544  0.00  0.00     0.002 A 
ATOM      3  C3  N4B d   1       1.164  -0.138  -2.439  0.00  0.00     0.002 A 
ATOM      4  C4  N4B d   1       0.919  -1.141  -3.365  0.00  0.00    -0.004 A 
ATOM      5  C5  N4B d   1      -0.305  -1.741  -3.412  0.00  0.00     0.002 A 
ATOM      6  C6  N4B d   1      -1.301  -1.395  -2.521  0.00  0.00     0.002 A 
ENDROOT
BRANCH   1   7
ATOM      7  C1' N4B d   1      -2.145  -0.140  -0.569  0.00  0.00     0.057 C 
BRANCH   7   8
ATOM      8  C2' N4B d   1      -1.763  -0.779   0.763  0.00  0.00     0.009 C 
BRANCH   8   9
ATOM      9  C3' N4B d   1      -2.295  -2.196   0.887  0.00  0.00     0.004 C 
ATOM     10  C4' N4B d   1      -1.711  -2.937   2.053  0.00  0.00     0.003 C 
ENDBRANCH   8   9
ENDBRANCH   7   8
ENDBRANCH   1   7
TORSDOF 3
ENDMDL
