MODEL 1
REMARK minimizedAffinity -7.15339565
REMARK minimizedRMSD -1
REMARK  3 active torsions:
REMARK  status: ('A' for Active; 'I' for Inactive)
REMARK    1  A    between atoms: C3'_2  and  C2'_3 
REMARK    2  A    between atoms: C2'_3  and  C1'_4 
REMARK    3  A    between atoms: C1'_4  and  C1_5 
ROOT
ATOM      1  C1  N4B d   1      -0.753  -0.174   0.987  0.00  0.00    -0.075 A 
ATOM      2  C2  N4B d   1      -0.441  -0.541   2.315  0.00  0.00     0.002 A 
ATOM      3  C3  N4B d   1      -1.437  -0.619   3.257  0.00  0.00     0.002 A 
ATOM      4  C4  N4B d   1      -2.743  -0.317   2.902  0.00  0.00    -0.004 A 
ATOM      5  C5  N4B d   1      -3.039   0.013   1.612  0.00  0.00     0.002 A 
ATOM      6  C6  N4B d   1      -2.049   0.091   0.653  0.00  0.00     0.002 A 
ENDROOT
BRANCH   1   7
ATOM      7  C1' N4B d   1       0.314   0.009  -0.058  0.00  0.00     0.057 C 
BRANCH   7   8
ATOM      8  C2' N4B d   1      -0.307  -0.161  -1.441  0.00  0.00     0.009 C 
BRANCH   8   9
ATOM      9  C3' N4B d   1       0.749  -0.314  -2.523  0.00  0.00     0.004 C 
ATOM     10  C4' N4B d   1       0.431  -1.411  -3.494  0.00  0.00     0.003 C 
ENDBRANCH   8   9
ENDBRANCH   7   8
ENDBRANCH   1   7
TORSDOF 3
ENDMDL
