MODEL 1
REMARK minimizedAffinity -2.25789165
REMARK minimizedRMSD -1
REMARK  3 active torsions:
REMARK  status: ('A' for Active; 'I' for Inactive)
REMARK    1  A    between atoms: C3'_2  and  C2'_3 
REMARK    2  A    between atoms: C2'_3  and  C1'_4 
REMARK    3  A    between atoms: C1'_4  and  C1_5 
ROOT
ATOM      1  C1  N4B d   1       0.297  -0.088  -1.509  0.00  0.00    -0.075 A 
ATOM      2  C2  N4B d   1       0.687  -0.885  -2.608  0.00  0.00     0.002 A 
ATOM      3  C3  N4B d   1      -0.253  -1.610  -3.298  0.00  0.00     0.002 A 
ATOM      4  C4  N4B d   1      -1.580  -1.569  -2.898  0.00  0.00    -0.004 A 
ATOM      5  C5  N4B d   1      -1.953  -0.777  -1.851  0.00  0.00     0.002 A 
ATOM      6  C6  N4B d   1      -1.019  -0.040  -1.151  0.00  0.00     0.002 A 
ENDROOT
BRANCH   1   7
ATOM      7  C1' N4B d   1       1.301   0.655  -0.671  0.00  0.00     0.057 C 
BRANCH   7   8
ATOM      8  C2' N4B d   1       1.440  -0.042   0.680  0.00  0.00     0.009 C 
BRANCH   8   9
ATOM      9  C3' N4B d   1       1.386   0.942   1.835  0.00  0.00     0.004 C 
ATOM     10  C4' N4B d   1       0.388   0.552   2.885  0.00  0.00     0.003 C 
ENDBRANCH   8   9
ENDBRANCH   7   8
ENDBRANCH   1   7
TORSDOF 3
ENDMDL
