MODEL 1
REMARK minimizedAffinity -2.47808814
REMARK minimizedRMSD -1
REMARK  3 active torsions:
REMARK  status: ('A' for Active; 'I' for Inactive)
REMARK    1  A    between atoms: C3'_2  and  C2'_3 
REMARK    2  A    between atoms: C2'_3  and  C1'_4 
REMARK    3  A    between atoms: C1'_4  and  C1_5 
ROOT
ATOM      1  C1  N4B d   1       0.084   0.149   0.062  0.00  0.00    -0.075 A 
ATOM      2  C2  N4B d   1      -0.824   0.295   1.133  0.00  0.00     0.002 A 
ATOM      3  C3  N4B d   1      -0.362   0.337   2.426  0.00  0.00     0.002 A 
ATOM      4  C4  N4B d   1       0.998   0.217   2.672  0.00  0.00    -0.004 A 
ATOM      5  C5  N4B d   1       1.871   0.102   1.630  0.00  0.00     0.002 A 
ATOM      6  C6  N4B d   1       1.421   0.062   0.326  0.00  0.00     0.002 A 
ENDROOT
BRANCH   1   7
ATOM      7  C1' N4B d   1      -0.381   0.012  -1.361  0.00  0.00     0.057 C 
BRANCH   7   8
ATOM      8  C2' N4B d   1       0.819  -0.288  -2.254  0.00  0.00     0.009 C 
BRANCH   8   9
ATOM      9  C3' N4B d   1       0.625  -1.561  -3.060  0.00  0.00     0.004 C 
ATOM     10  C4' N4B d   1       1.920  -2.164  -3.515  0.00  0.00     0.003 C 
ENDBRANCH   8   9
ENDBRANCH   7   8
ENDBRANCH   1   7
TORSDOF 3
ENDMDL
