MODEL 1
REMARK minimizedAffinity -4.52691364
REMARK minimizedRMSD -1
REMARK  3 active torsions:
REMARK  status: ('A' for Active; 'I' for Inactive)
REMARK    1  A    between atoms: C3'_2  and  C2'_3 
REMARK    2  A    between atoms: C2'_3  and  C1'_4 
REMARK    3  A    between atoms: C1'_4  and  C1_5 
ROOT
ATOM      1  C1  N4B d   1      -0.217  -0.226  -1.676  0.00  0.00    -0.075 A 
ATOM      2  C2  N4B d   1       1.023  -0.157  -2.349  0.00  0.00     0.002 A 
ATOM      3  C3  N4B d   1       1.315  -1.056  -3.345  0.00  0.00     0.002 A 
ATOM      4  C4  N4B d   1       0.395  -2.041  -3.671  0.00  0.00    -0.004 A 
ATOM      5  C5  N4B d   1      -0.811  -2.086  -3.033  0.00  0.00     0.002 A 
ATOM      6  C6  N4B d   1      -1.119  -1.186  -2.033  0.00  0.00     0.002 A 
ENDROOT
BRANCH   1   7
ATOM      7  C1' N4B d   1      -0.546   0.681  -0.523  0.00  0.00     0.057 C 
BRANCH   7   8
ATOM      8  C2' N4B d   1       0.737   1.020   0.231  0.00  0.00     0.009 C 
BRANCH   8   9
ATOM      9  C3' N4B d   1       0.969   0.085   1.406  0.00  0.00     0.004 C 
ATOM     10  C4' N4B d   1       0.155   0.455   2.610  0.00  0.00     0.003 C 
ENDBRANCH   8   9
ENDBRANCH   7   8
ENDBRANCH   1   7
TORSDOF 3
ENDMDL
