MODEL 1
REMARK minimizedAffinity -4.80431175
REMARK minimizedRMSD -1
REMARK  3 active torsions:
REMARK  status: ('A' for Active; 'I' for Inactive)
REMARK    1  A    between atoms: C3'_2  and  C2'_3 
REMARK    2  A    between atoms: C2'_3  and  C1'_4 
REMARK    3  A    between atoms: C1'_4  and  C1_5 
ROOT
ATOM      1  C1  N4B d   1      -0.338  -0.032   0.681  0.00  0.00    -0.075 A 
ATOM      2  C2  N4B d   1      -1.184   0.104   1.804  0.00  0.00     0.002 A 
ATOM      3  C3  N4B d   1      -0.646   0.174   3.065  0.00  0.00     0.002 A 
ATOM      4  C4  N4B d   1       0.729   0.091   3.229  0.00  0.00    -0.004 A 
ATOM      5  C5  N4B d   1       1.541  -0.015   2.138  0.00  0.00     0.002 A 
ATOM      6  C6  N4B d   1       1.013  -0.082   0.864  0.00  0.00     0.002 A 
ENDROOT
BRANCH   1   7
ATOM      7  C1' N4B d   1      -0.886  -0.199  -0.710  0.00  0.00     0.057 C 
BRANCH   7   8
ATOM      8  C2' N4B d   1       0.271  -0.421  -1.680  0.00  0.00     0.009 C 
BRANCH   8   9
ATOM      9  C3' N4B d   1      -0.043  -1.500  -2.702  0.00  0.00     0.004 C 
ATOM     10  C4' N4B d   1       1.100  -1.768  -3.634  0.00  0.00     0.003 C 
ENDBRANCH   8   9
ENDBRANCH   7   8
ENDBRANCH   1   7
TORSDOF 3
ENDMDL
