MODEL 1
REMARK minimizedAffinity 4.27880716
REMARK minimizedRMSD -1
REMARK  0 active torsions:
REMARK  status: ('A' for Active; 'I' for Inactive)
ROOT
ATOM      1  N1  IND d   1       1.624  -2.480   0.377  0.00  0.00    -0.196 N 
ATOM      2  C2  IND d   1       2.935  -2.258   0.695  0.00  0.00     0.054 A 
ATOM      3  C3  IND d   1       3.027  -1.435   1.763  0.00  0.00    -0.031 A 
ATOM      4  C4  IND d   1       1.156  -0.414   3.208  0.00  0.00     0.051 A 
ATOM      5  C5  IND d   1      -0.204  -0.301   3.287  0.00  0.00    -0.031 A 
ATOM      6  C6  IND d   1      -1.041  -0.923   2.383  0.00  0.00     0.015 A 
ATOM      7  C7  IND d   1      -0.547  -1.695   1.369  0.00  0.00    -0.016 A 
ATOM      8  C8  IND d   1       0.833  -1.806   1.282  0.00  0.00    -0.047 A 
ATOM      9  C9  IND d   1       1.689  -1.143   2.170  0.00  0.00    -0.096 A 
ATOM     10  HN1 IND d   1       1.341  -2.960  -0.277  0.00  0.00     0.298 HD
ENDROOT
TORSDOF 0
ENDMDL
