MODEL 1
REMARK minimizedAffinity 3.70239043
REMARK minimizedRMSD -1
REMARK  0 active torsions:
REMARK  status: ('A' for Active; 'I' for Inactive)
ROOT
ATOM      1  N1  IND d   1       1.936  -2.615  -0.200  0.00  0.00    -0.196 N 
ATOM      2  C2  IND d   1       3.177  -2.754   0.357  0.00  0.00     0.054 A 
ATOM      3  C3  IND d   1       3.245  -2.081   1.527  0.00  0.00    -0.031 A 
ATOM      4  C4  IND d   1       1.411  -0.768   2.768  0.00  0.00     0.051 A 
ATOM      5  C5  IND d   1       0.123  -0.329   2.635  0.00  0.00    -0.031 A 
ATOM      6  C6  IND d   1      -0.643  -0.639   1.530  0.00  0.00     0.015 A 
ATOM      7  C7  IND d   1      -0.150  -1.412   0.516  0.00  0.00    -0.016 A 
ATOM      8  C8  IND d   1       1.159  -1.853   0.644  0.00  0.00    -0.047 A 
ATOM      9  C9  IND d   1       1.955  -1.506   1.744  0.00  0.00    -0.096 A 
ATOM     10  HN1 IND d   1       1.684  -2.948  -0.952  0.00  0.00     0.298 HD
ENDROOT
TORSDOF 0
ENDMDL
