MODEL 1
REMARK minimizedAffinity 7.99476099
REMARK minimizedRMSD -1
REMARK  0 active torsions:
REMARK  status: ('A' for Active; 'I' for Inactive)
ROOT
ATOM      1  N1  IND d   1       2.688  -1.163  -1.641  0.00  0.00    -0.196 N 
ATOM      2  C2  IND d   1       3.242  -1.720  -0.522  0.00  0.00     0.054 A 
ATOM      3  C3  IND d   1       3.368  -0.791   0.453  0.00  0.00    -0.031 A 
ATOM      4  C4  IND d   1       2.639   1.678   0.463  0.00  0.00     0.051 A 
ATOM      5  C5  IND d   1       2.121   2.651  -0.344  0.00  0.00    -0.031 A 
ATOM      6  C6  IND d   1       1.756   2.397  -1.650  0.00  0.00     0.015 A 
ATOM      7  C7  IND d   1       1.885   1.152  -2.197  0.00  0.00    -0.016 A 
ATOM      8  C8  IND d   1       2.417   0.163  -1.383  0.00  0.00    -0.047 A 
ATOM      9  C9  IND d   1       2.830   0.424  -0.070  0.00  0.00    -0.096 A 
ATOM     10  HN1 IND d   1       2.536  -1.572  -2.382  0.00  0.00     0.298 HD
ENDROOT
TORSDOF 0
ENDMDL
