MODEL 1
REMARK minimizedAffinity 11.7304163
REMARK minimizedRMSD -1
REMARK  0 active torsions:
REMARK  status: ('A' for Active; 'I' for Inactive)
ROOT
ATOM      1  N1  IND d   1       0.499  -0.704  -0.950  0.00  0.00    -0.196 N 
ATOM      2  C2  IND d   1       1.824  -0.912  -1.214  0.00  0.00     0.054 A 
ATOM      3  C3  IND d   1       2.465  -1.335  -0.102  0.00  0.00    -0.031 A 
ATOM      4  C4  IND d   1       1.516  -1.853   2.235  0.00  0.00     0.051 A 
ATOM      5  C5  IND d   1       0.367  -1.781   2.971  0.00  0.00    -0.031 A 
ATOM      6  C6  IND d   1      -0.822  -1.340   2.426  0.00  0.00     0.015 A 
ATOM      7  C7  IND d   1      -0.908  -0.964   1.116  0.00  0.00    -0.016 A 
ATOM      8  C8  IND d   1       0.258  -1.029   0.367  0.00  0.00    -0.047 A 
ATOM      9  C9  IND d   1       1.477  -1.435   0.926  0.00  0.00    -0.096 A 
ATOM     10  HN1 IND d   1      -0.086  -0.418  -1.512  0.00  0.00     0.298 HD
ENDROOT
TORSDOF 0
ENDMDL
