MODEL 1
REMARK minimizedAffinity 6.43024683
REMARK minimizedRMSD -1
REMARK  0 active torsions:
REMARK  status: ('A' for Active; 'I' for Inactive)
ROOT
ATOM      1  N1  IND d   1      -0.378  -0.728   1.706  0.00  0.00    -0.196 N 
ATOM      2  C2  IND d   1      -0.564  -0.538   3.047  0.00  0.00     0.054 A 
ATOM      3  C3  IND d   1       0.458  -1.081   3.745  0.00  0.00    -0.031 A 
ATOM      4  C4  IND d   1       2.590  -2.241   2.887  0.00  0.00     0.051 A 
ATOM      5  C5  IND d   1       3.190  -2.683   1.741  0.00  0.00    -0.031 A 
ATOM      6  C6  IND d   1       2.620  -2.489   0.499  0.00  0.00     0.015 A 
ATOM      7  C7  IND d   1       1.430  -1.834   0.356  0.00  0.00    -0.016 A 
ATOM      8  C8  IND d   1       0.815  -1.390   1.518  0.00  0.00    -0.047 A 
ATOM      9  C9  IND d   1       1.368  -1.621   2.784  0.00  0.00    -0.096 A 
ATOM     10  HN1 IND d   1      -0.917  -0.477   1.084  0.00  0.00     0.298 HD
ENDROOT
TORSDOF 0
ENDMDL
