MODEL 1
REMARK minimizedAffinity 9.65023422
REMARK minimizedRMSD -1
REMARK  0 active torsions:
REMARK  status: ('A' for Active; 'I' for Inactive)
ROOT
ATOM      1  N1  IND d   1       1.877  -0.896  -0.565  0.00  0.00    -0.196 N 
ATOM      2  C2  IND d   1       0.750  -0.566  -1.266  0.00  0.00     0.054 A 
ATOM      3  C3  IND d   1      -0.331  -0.585  -0.454  0.00  0.00    -0.031 A 
ATOM      4  C4  IND d   1      -0.468  -1.031   2.078  0.00  0.00     0.051 A 
ATOM      5  C5  IND d   1       0.293  -1.412   3.147  0.00  0.00    -0.031 A 
ATOM      6  C6  IND d   1       1.649  -1.642   3.032  0.00  0.00     0.015 A 
ATOM      7  C7  IND d   1       2.299  -1.488   1.840  0.00  0.00    -0.016 A 
ATOM      8  C8  IND d   1       1.528  -1.109   0.751  0.00  0.00    -0.047 A 
ATOM      9  C9  IND d   1       0.145  -0.915   0.852  0.00  0.00    -0.096 A 
ATOM     10  HN1 IND d   1       2.670  -0.960  -0.891  0.00  0.00     0.298 HD
ENDROOT
TORSDOF 0
ENDMDL
