MODEL 1
REMARK minimizedAffinity 0.218191132
REMARK minimizedRMSD -1
REMARK  0 active torsions:
REMARK  status: ('A' for Active; 'I' for Inactive)
ROOT
ATOM      1  N1  IND d   1       0.977  -1.207   2.494  0.00  0.00    -0.196 N 
ATOM      2  C2  IND d   1      -0.263  -1.137   3.065  0.00  0.00     0.054 A 
ATOM      3  C3  IND d   1      -1.204  -0.921   2.119  0.00  0.00    -0.031 A 
ATOM      4  C4  IND d   1      -0.946  -0.751  -0.436  0.00  0.00     0.051 A 
ATOM      5  C5  IND d   1      -0.002  -0.716  -1.424  0.00  0.00    -0.031 A 
ATOM      6  C6  IND d   1       1.344  -0.849  -1.150  0.00  0.00     0.015 A 
ATOM      7  C7  IND d   1       1.797  -1.033   0.125  0.00  0.00    -0.016 A 
ATOM      8  C8  IND d   1       0.841  -1.062   1.131  0.00  0.00    -0.047 A 
ATOM      9  C9  IND d   1      -0.522  -0.885   0.865  0.00  0.00    -0.096 A 
ATOM     10  HN1 IND d   1       1.718  -1.322   2.916  0.00  0.00     0.298 HD
ENDROOT
TORSDOF 0
ENDMDL
