MODEL 1
REMARK minimizedAffinity 9.35668278
REMARK minimizedRMSD -1
REMARK  0 active torsions:
REMARK  status: ('A' for Active; 'I' for Inactive)
ROOT
ATOM      1  N1  IND d   1       1.477  -1.632  -1.466  0.00  0.00    -0.196 N 
ATOM      2  C2  IND d   1       2.831  -1.800  -1.382  0.00  0.00     0.054 A 
ATOM      3  C3  IND d   1       3.227  -1.790  -0.090  0.00  0.00    -0.031 A 
ATOM      4  C4  IND d   1       1.812  -1.614   2.053  0.00  0.00     0.051 A 
ATOM      5  C5  IND d   1       0.531  -1.408   2.484  0.00  0.00    -0.031 A 
ATOM      6  C6  IND d   1      -0.521  -1.266   1.603  0.00  0.00     0.015 A 
ATOM      7  C7  IND d   1      -0.333  -1.337   0.252  0.00  0.00    -0.016 A 
ATOM      8  C8  IND d   1       0.967  -1.538  -0.190  0.00  0.00    -0.047 A 
ATOM      9  C9  IND d   1       2.045  -1.640   0.698  0.00  0.00    -0.096 A 
ATOM     10  HN1 IND d   1       1.021  -1.591  -2.194  0.00  0.00     0.298 HD
ENDROOT
TORSDOF 0
ENDMDL
