MODEL 1
REMARK minimizedAffinity 5.25903893
REMARK minimizedRMSD -1
REMARK  0 active torsions:
REMARK  status: ('A' for Active; 'I' for Inactive)
ROOT
ATOM      1  N1  IND d   1       2.034  -2.470   0.191  0.00  0.00    -0.196 N 
ATOM      2  C2  IND d   1       2.664  -2.427   1.403  0.00  0.00     0.054 A 
ATOM      3  C3  IND d   1       2.894  -1.146   1.769  0.00  0.00    -0.031 A 
ATOM      4  C4  IND d   1       2.229   1.038   0.580  0.00  0.00     0.051 A 
ATOM      5  C5  IND d   1       1.670   1.509  -0.575  0.00  0.00    -0.031 A 
ATOM      6  C6  IND d   1       1.191   0.660  -1.552  0.00  0.00     0.015 A 
ATOM      7  C7  IND d   1       1.244  -0.697  -1.405  0.00  0.00    -0.016 A 
ATOM      8  C8  IND d   1       1.818  -1.179  -0.237  0.00  0.00    -0.047 A 
ATOM      9  C9  IND d   1       2.344  -0.322   0.739  0.00  0.00    -0.096 A 
ATOM     10  HN1 IND d   1       1.811  -3.184  -0.233  0.00  0.00     0.298 HD
ENDROOT
TORSDOF 0
ENDMDL
