MODEL 1
REMARK minimizedAffinity -1.40224397
REMARK minimizedRMSD -1
REMARK  0 active torsions:
REMARK  status: ('A' for Active; 'I' for Inactive)
ROOT
ATOM      1  N1  IND d   1       2.198  -0.080   3.454  0.00  0.00    -0.196 N 
ATOM      2  C2  IND d   1       2.369   1.219   3.067  0.00  0.00     0.054 A 
ATOM      3  C3  IND d   1       2.785   1.276   1.782  0.00  0.00    -0.031 A 
ATOM      4  C4  IND d   1       3.153  -0.634   0.096  0.00  0.00     0.051 A 
ATOM      5  C5  IND d   1       3.160  -1.997  -0.004  0.00  0.00    -0.031 A 
ATOM      6  C6  IND d   1       2.838  -2.807   1.066  0.00  0.00     0.015 A 
ATOM      7  C7  IND d   1       2.483  -2.282   2.276  0.00  0.00    -0.016 A 
ATOM      8  C8  IND d   1       2.482  -0.898   2.382  0.00  0.00    -0.047 A 
ATOM      9  C9  IND d   1       2.850  -0.071   1.313  0.00  0.00    -0.096 A 
ATOM     10  HN1 IND d   1       1.954  -0.343   4.236  0.00  0.00     0.298 HD
ENDROOT
TORSDOF 0
ENDMDL
