MODEL 1
REMARK minimizedAffinity 6.22908115
REMARK minimizedRMSD -1
REMARK  0 active torsions:
REMARK  status: ('A' for Active; 'I' for Inactive)
ROOT
ATOM      1  N1  IND d   1      -0.269  -1.184   1.175  0.00  0.00    -0.196 N 
ATOM      2  C2  IND d   1      -0.779  -1.105   2.441  0.00  0.00     0.054 A 
ATOM      3  C3  IND d   1       0.176  -1.397   3.352  0.00  0.00    -0.031 A 
ATOM      4  C4  IND d   1       2.669  -1.931   2.993  0.00  0.00     0.051 A 
ATOM      5  C5  IND d   1       3.592  -2.154   2.011  0.00  0.00    -0.031 A 
ATOM      6  C6  IND d   1       3.270  -2.060   0.672  0.00  0.00     0.015 A 
ATOM      7  C7  IND d   1       2.009  -1.727   0.265  0.00  0.00    -0.016 A 
ATOM      8  C8  IND d   1       1.067  -1.507   1.260  0.00  0.00    -0.047 A 
ATOM      9  C9  IND d   1       1.378  -1.643   2.619  0.00  0.00    -0.096 A 
ATOM     10  HN1 IND d   1      -0.709  -1.053   0.448  0.00  0.00     0.298 HD
ENDROOT
TORSDOF 0
ENDMDL
