MODEL 1
REMARK minimizedAffinity -2.83353591
REMARK minimizedRMSD -1
REMARK  0 active torsions:
REMARK  status: ('A' for Active; 'I' for Inactive)
ROOT
ATOM      1  C   UNL d   1      -0.083  -2.625   4.236  0.00  0.00     0.020 A 
ATOM      2  C1  UNL d   1      -1.383  -2.190   3.980  0.00  0.00     0.020 A 
ATOM      3  C2  UNL d   1      -1.605  -1.145   3.080  0.00  0.00     0.034 A 
ATOM      4  C3  UNL d   1      -0.526  -0.532   2.434  0.00  0.00     0.017 A 
ATOM      5  C4  UNL d   1       0.778  -0.969   2.691  0.00  0.00     0.017 A 
ATOM      6  C5  UNL d   1       0.995  -2.016   3.593  0.00  0.00     0.034 A 
ATOM      7 Cl   UNL d   1       2.160  -0.261   1.932  0.00  0.00    -0.070 Cl
ATOM      8 Cl1  UNL d   1      -0.874   0.754   1.333  0.00  0.00    -0.070 Cl
ENDROOT
TORSDOF 0
ENDMDL
