MODEL 1
REMARK minimizedAffinity 0.218992054
REMARK minimizedRMSD -1
REMARK  0 active torsions:
REMARK  status: ('A' for Active; 'I' for Inactive)
ROOT
ATOM      1  C   UNL d   1      -1.092   0.335   1.388  0.00  0.00     0.020 A 
ATOM      2  C1  UNL d   1      -1.806  -0.248   2.434  0.00  0.00     0.020 A 
ATOM      3  C2  UNL d   1      -1.137  -1.002   3.401  0.00  0.00     0.034 A 
ATOM      4  C3  UNL d   1       0.250  -1.175   3.323  0.00  0.00     0.017 A 
ATOM      5  C4  UNL d   1       0.965  -0.589   2.273  0.00  0.00     0.017 A 
ATOM      6  C5  UNL d   1       0.290   0.165   1.308  0.00  0.00     0.034 A 
ATOM      7 Cl   UNL d   1       2.678  -0.757   2.110  0.00  0.00    -0.070 Cl
ATOM      8 Cl1  UNL d   1       1.012  -2.119   4.553  0.00  0.00    -0.070 Cl
ENDROOT
TORSDOF 0
ENDMDL
