MODEL 1
REMARK minimizedAffinity -0.961305022
REMARK minimizedRMSD -1
REMARK  0 active torsions:
REMARK  status: ('A' for Active; 'I' for Inactive)
ROOT
ATOM      1  C   UNL d   1       0.992  -2.238   3.942  0.00  0.00     0.020 A 
ATOM      2  C1  UNL d   1       1.560  -1.203   3.200  0.00  0.00     0.020 A 
ATOM      3  C2  UNL d   1       0.776  -0.477   2.300  0.00  0.00     0.034 A 
ATOM      4  C3  UNL d   1      -0.580  -0.786   2.140  0.00  0.00     0.017 A 
ATOM      5  C4  UNL d   1      -1.149  -1.825   2.885  0.00  0.00     0.017 A 
ATOM      6  C5  UNL d   1      -0.360  -2.548   3.785  0.00  0.00     0.034 A 
ATOM      7 Cl   UNL d   1      -2.815  -2.264   2.742  0.00  0.00    -0.070 Cl
ATOM      8 Cl1  UNL d   1      -1.489   0.153   1.010  0.00  0.00    -0.070 Cl
ENDROOT
TORSDOF 0
ENDMDL
