MODEL 1
REMARK minimizedAffinity 2.15264392
REMARK minimizedRMSD -1
REMARK  0 active torsions:
REMARK  status: ('A' for Active; 'I' for Inactive)
ROOT
ATOM      1  C   UNL d   1       1.298  -0.868   3.176  0.00  0.00     0.020 A 
ATOM      2  C1  UNL d   1       0.430  -0.040   2.465  0.00  0.00     0.020 A 
ATOM      3  C2  UNL d   1      -0.935  -0.333   2.421  0.00  0.00     0.034 A 
ATOM      4  C3  UNL d   1      -1.435  -1.458   3.089  0.00  0.00     0.017 A 
ATOM      5  C4  UNL d   1      -0.562  -2.288   3.801  0.00  0.00     0.017 A 
ATOM      6  C5  UNL d   1       0.803  -1.989   3.842  0.00  0.00     0.034 A 
ATOM      7 Cl   UNL d   1      -1.105  -3.693   4.650  0.00  0.00    -0.070 Cl
ATOM      8 Cl1  UNL d   1      -3.133  -1.760   2.992  0.00  0.00    -0.070 Cl
ENDROOT
TORSDOF 0
ENDMDL
