MODEL 1
REMARK minimizedAffinity -0.791888952
REMARK minimizedRMSD -1
REMARK  0 active torsions:
REMARK  status: ('A' for Active; 'I' for Inactive)
ROOT
ATOM      1  C   UNL d   1       0.013  -1.478   2.412  0.00  0.00     0.020 A 
ATOM      2  C1  UNL d   1       0.466  -0.160   2.409  0.00  0.00     0.020 A 
ATOM      3  C2  UNL d   1       1.472   0.234   3.294  0.00  0.00     0.034 A 
ATOM      4  C3  UNL d   1       2.028  -0.691   4.185  0.00  0.00     0.017 A 
ATOM      5  C4  UNL d   1       1.572  -2.014   4.187  0.00  0.00     0.017 A 
ATOM      6  C5  UNL d   1       0.565  -2.403   3.299  0.00  0.00     0.034 A 
ATOM      7 Cl   UNL d   1       2.209  -3.213   5.257  0.00  0.00    -0.070 Cl
ATOM      8 Cl1  UNL d   1       3.268  -0.135   5.252  0.00  0.00    -0.070 Cl
ENDROOT
TORSDOF 0
ENDMDL
