MODEL 1
REMARK minimizedAffinity 7.473804
REMARK minimizedRMSD -1
REMARK  0 active torsions:
REMARK  status: ('A' for Active; 'I' for Inactive)
ROOT
ATOM      1  C   UNL d   1       1.229  -5.501  -5.534  0.00  0.00     0.020 A 
ATOM      2  C1  UNL d   1      -0.070  -6.000  -5.441  0.00  0.00     0.020 A 
ATOM      3  C2  UNL d   1      -0.791  -5.851  -4.254  0.00  0.00     0.034 A 
ATOM      4  C3  UNL d   1      -0.214  -5.203  -3.156  0.00  0.00     0.017 A 
ATOM      5  C4  UNL d   1       1.089  -4.702  -3.251  0.00  0.00     0.017 A 
ATOM      6  C5  UNL d   1       1.807  -4.853  -4.442  0.00  0.00     0.034 A 
ATOM      7 Cl   UNL d   1       1.868  -3.890  -1.939  0.00  0.00    -0.070 Cl
ATOM      8 Cl1  UNL d   1      -1.164  -5.055  -1.720  0.00  0.00    -0.070 Cl
ENDROOT
TORSDOF 0
ENDMDL
