MODEL 1
REMARK minimizedAffinity 7.33934641
REMARK minimizedRMSD -1
REMARK  0 active torsions:
REMARK  status: ('A' for Active; 'I' for Inactive)
ROOT
ATOM      1  C   UNL d   1      -0.926   0.664   2.125  0.00  0.00     0.020 A 
ATOM      2  C1  UNL d   1      -0.262  -0.337   1.416  0.00  0.00     0.020 A 
ATOM      3  C2  UNL d   1       0.651  -1.167   2.069  0.00  0.00     0.034 A 
ATOM      4  C3  UNL d   1       0.904  -0.998   3.435  0.00  0.00     0.017 A 
ATOM      5  C4  UNL d   1       0.237   0.007   4.146  0.00  0.00     0.017 A 
ATOM      6  C5  UNL d   1      -0.676   0.836   3.487  0.00  0.00     0.034 A 
ATOM      7 Cl   UNL d   1       0.496   0.277   5.834  0.00  0.00    -0.070 Cl
ATOM      8 Cl1  UNL d   1       2.045  -2.060   4.179  0.00  0.00    -0.070 Cl
ENDROOT
TORSDOF 0
ENDMDL
