MODEL 1
REMARK minimizedAffinity 0.520415187
REMARK minimizedRMSD -1
REMARK  1 active torsions:
REMARK  status: ('A' for Active; 'I' for Inactive)
REMARK    1  A    between atoms: C1_2  and  C2_3 
ROOT
ATOM      1  C2  UNL d   1       3.311  -1.092   3.051  0.00  0.00    -0.073 A 
ATOM      2  C3  UNL d   1       2.769  -0.986   1.765  0.00  0.00    -0.002 A 
ATOM      3  C4  UNL d   1       1.387  -1.025   1.577  0.00  0.00     0.004 A 
ATOM      4  C5  UNL d   1       0.533  -1.161   2.671  0.00  0.00    -0.004 A 
ATOM      5  C6  UNL d   1       1.055  -1.255   3.965  0.00  0.00    -0.075 A 
ATOM      6  C7  UNL d   1       0.150  -1.404   5.153  0.00  0.00     0.076 C 
ATOM      7  C8  UNL d   1       2.444  -1.219   4.146  0.00  0.00     0.001 A 
ENDROOT
BRANCH   1   8
ATOM      8  C1  UNL d   1       4.803  -1.045   3.260  0.00  0.00     0.053 C 
ATOM      9  C   UNL d   1       5.521  -0.383   2.094  0.00  0.00     0.018 C 
ENDBRANCH   1   8
TORSDOF 1
ENDMDL
