MODEL 1
REMARK minimizedAffinity 0.971253037
REMARK minimizedRMSD -1
REMARK  1 active torsions:
REMARK  status: ('A' for Active; 'I' for Inactive)
REMARK    1  A    between atoms: C1_2  and  C2_3 
ROOT
ATOM      1  C2  UNL d   1       2.062  -1.125   1.876  0.00  0.00    -0.073 A 
ATOM      2  C3  UNL d   1       2.960  -0.489   1.011  0.00  0.00    -0.002 A 
ATOM      3  C4  UNL d   1       2.492   0.375   0.020  0.00  0.00     0.004 A 
ATOM      4  C5  UNL d   1       1.125   0.617  -0.112  0.00  0.00    -0.004 A 
ATOM      5  C6  UNL d   1       0.213  -0.000   0.750  0.00  0.00    -0.075 A 
ATOM      6  C7  UNL d   1      -1.261   0.248   0.620  0.00  0.00     0.076 C 
ATOM      7  C8  UNL d   1       0.690  -0.868   1.741  0.00  0.00     0.001 A 
ENDROOT
BRANCH   1   8
ATOM      8  C1  UNL d   1       2.563  -2.053   2.952  0.00  0.00     0.053 C 
ATOM      9  C   UNL d   1       3.375  -1.318   4.007  0.00  0.00     0.018 C 
ENDBRANCH   1   8
TORSDOF 1
ENDMDL
