MODEL 1
REMARK minimizedAffinity -3.14823437
REMARK minimizedRMSD -1
REMARK  1 active torsions:
REMARK  status: ('A' for Active; 'I' for Inactive)
REMARK    1  A    between atoms: C1_2  and  C2_3 
ROOT
ATOM      1  C2  UNL d   1       1.397  -1.799   2.598  0.00  0.00    -0.073 A 
ATOM      2  C3  UNL d   1       2.574  -1.872   1.845  0.00  0.00    -0.002 A 
ATOM      3  C4  UNL d   1       2.714  -1.114   0.681  0.00  0.00     0.004 A 
ATOM      4  C5  UNL d   1       1.684  -0.272   0.264  0.00  0.00    -0.004 A 
ATOM      5  C6  UNL d   1       0.505  -0.176   1.010  0.00  0.00    -0.075 A 
ATOM      6  C7  UNL d   1      -0.613   0.724   0.573  0.00  0.00     0.076 C 
ATOM      7  C8  UNL d   1       0.371  -0.942   2.176  0.00  0.00     0.001 A 
ENDROOT
BRANCH   1   8
ATOM      8  C1  UNL d   1       1.244  -2.610   3.859  0.00  0.00     0.053 C 
ATOM      9  C   UNL d   1       0.745  -1.767   5.022  0.00  0.00     0.018 C 
ENDBRANCH   1   8
TORSDOF 1
ENDMDL
