MODEL 1
REMARK minimizedAffinity 3.24176431
REMARK minimizedRMSD -1
REMARK  1 active torsions:
REMARK  status: ('A' for Active; 'I' for Inactive)
REMARK    1  A    between atoms: C1_2  and  C2_3 
ROOT
ATOM      1  C2  UNL d   1      -3.208   0.103  -1.135  0.00  0.00    -0.073 A 
ATOM      2  C3  UNL d   1      -3.111   0.927  -2.262  0.00  0.00    -0.002 A 
ATOM      3  C4  UNL d   1      -1.869   1.407  -2.680  0.00  0.00     0.004 A 
ATOM      4  C5  UNL d   1      -0.712   1.062  -1.981  0.00  0.00    -0.004 A 
ATOM      5  C6  UNL d   1      -0.787   0.230  -0.860  0.00  0.00    -0.075 A 
ATOM      6  C7  UNL d   1       0.448  -0.148  -0.095  0.00  0.00     0.076 C 
ATOM      7  C8  UNL d   1      -2.038  -0.245  -0.445  0.00  0.00     0.001 A 
ENDROOT
BRANCH   1   8
ATOM      8  C1  UNL d   1      -4.546  -0.422  -0.684  0.00  0.00     0.053 C 
ATOM      9  C   UNL d   1      -4.910   0.067   0.709  0.00  0.00     0.018 C 
ENDBRANCH   1   8
TORSDOF 1
ENDMDL
