MODEL 1
REMARK minimizedAffinity 2.53083658
REMARK minimizedRMSD -1
REMARK  1 active torsions:
REMARK  status: ('A' for Active; 'I' for Inactive)
REMARK    1  A    between atoms: C1_2  and  C2_3 
ROOT
ATOM      1  C2  UNL d   1       1.766  -0.517   1.093  0.00  0.00    -0.073 A 
ATOM      2  C3  UNL d   1       1.080  -0.859   2.264  0.00  0.00    -0.002 A 
ATOM      3  C4  UNL d   1       1.784  -1.146   3.435  0.00  0.00     0.004 A 
ATOM      4  C5  UNL d   1       3.177  -1.088   3.448  0.00  0.00    -0.004 A 
ATOM      5  C6  UNL d   1       3.880  -0.736   2.291  0.00  0.00    -0.075 A 
ATOM      6  C7  UNL d   1       5.379  -0.671   2.288  0.00  0.00     0.076 C 
ATOM      7  C8  UNL d   1       3.166  -0.452   1.119  0.00  0.00     0.001 A 
ENDROOT
BRANCH   1   8
ATOM      8  C1  UNL d   1       1.010  -0.200  -0.171  0.00  0.00     0.053 C 
ATOM      9  C   UNL d   1       1.723   0.846  -1.015  0.00  0.00     0.018 C 
ENDBRANCH   1   8
TORSDOF 1
ENDMDL
