MODEL 1
REMARK minimizedAffinity -2.35786033
REMARK minimizedRMSD -1
REMARK  1 active torsions:
REMARK  status: ('A' for Active; 'I' for Inactive)
REMARK    1  A    between atoms: C1_2  and  C2_3 
ROOT
ATOM      1  C2  UNL d   1       2.230   1.259  -0.261  0.00  0.00    -0.073 A 
ATOM      2  C3  UNL d   1       1.328   2.200   0.248  0.00  0.00    -0.002 A 
ATOM      3  C4  UNL d   1       1.717   3.529   0.416  0.00  0.00     0.004 A 
ATOM      4  C5  UNL d   1       3.007   3.933   0.071  0.00  0.00    -0.004 A 
ATOM      5  C6  UNL d   1       3.919   3.010  -0.450  0.00  0.00    -0.075 A 
ATOM      6  C7  UNL d   1       5.311   3.427  -0.823  0.00  0.00     0.076 C 
ATOM      7  C8  UNL d   1       3.522   1.675  -0.613  0.00  0.00     0.001 A 
ENDROOT
BRANCH   1   8
ATOM      8  C1  UNL d   1       1.813  -0.177  -0.450  0.00  0.00     0.053 C 
ATOM      9  C   UNL d   1       0.681  -0.570   0.486  0.00  0.00     0.018 C 
ENDBRANCH   1   8
TORSDOF 1
ENDMDL
