MODEL 1
REMARK minimizedAffinity 6.11156464
REMARK minimizedRMSD -1
REMARK  1 active torsions:
REMARK  status: ('A' for Active; 'I' for Inactive)
REMARK    1  A    between atoms: C1_2  and  C2_3 
ROOT
ATOM      1  C2  UNL d   1       2.642  -1.014   1.666  0.00  0.00    -0.073 A 
ATOM      2  C3  UNL d   1       3.278  -0.746   0.449  0.00  0.00    -0.002 A 
ATOM      3  C4  UNL d   1       2.575  -0.144  -0.595  0.00  0.00     0.004 A 
ATOM      4  C5  UNL d   1       1.234   0.202  -0.432  0.00  0.00    -0.004 A 
ATOM      5  C6  UNL d   1       0.584  -0.047   0.782  0.00  0.00    -0.075 A 
ATOM      6  C7  UNL d   1      -0.859   0.317   0.973  0.00  0.00     0.076 C 
ATOM      7  C8  UNL d   1       1.296  -0.655   1.825  0.00  0.00     0.001 A 
ENDROOT
BRANCH   1   8
ATOM      8  C1  UNL d   1       3.399  -1.658   2.799  0.00  0.00     0.053 C 
ATOM      9  C   UNL d   1       4.483  -0.747   3.352  0.00  0.00     0.018 C 
ENDBRANCH   1   8
TORSDOF 1
ENDMDL
