MODEL 1
REMARK minimizedAffinity 2.73981094
REMARK minimizedRMSD -1
REMARK  1 active torsions:
REMARK  status: ('A' for Active; 'I' for Inactive)
REMARK    1  A    between atoms: C1_2  and  C2_3 
ROOT
ATOM      1  C2  UNL d   1      -0.275  -5.634  -4.719  0.00  0.00    -0.073 A 
ATOM      2  C3  UNL d   1      -0.910  -5.962  -5.922  0.00  0.00    -0.002 A 
ATOM      3  C4  UNL d   1      -2.303  -5.996  -5.997  0.00  0.00     0.004 A 
ATOM      4  C5  UNL d   1      -3.074  -5.696  -4.874  0.00  0.00    -0.004 A 
ATOM      5  C6  UNL d   1      -2.457  -5.354  -3.666  0.00  0.00    -0.075 A 
ATOM      6  C7  UNL d   1      -3.272  -5.031  -2.448  0.00  0.00     0.076 C 
ATOM      7  C8  UNL d   1      -1.058  -5.325  -3.598  0.00  0.00     0.001 A 
ENDROOT
BRANCH   1   8
ATOM      8  C1  UNL d   1       1.229  -5.590  -4.636  0.00  0.00     0.053 C 
ATOM      9  C   UNL d   1       1.882  -5.792  -5.994  0.00  0.00     0.018 C 
ENDBRANCH   1   8
TORSDOF 1
ENDMDL
