MODEL 1
REMARK minimizedAffinity 2.50218844
REMARK minimizedRMSD -1
REMARK  1 active torsions:
REMARK  status: ('A' for Active; 'I' for Inactive)
REMARK    1  A    between atoms: C1_2  and  C2_3 
ROOT
ATOM      1  C2  UNL d   1       1.961   1.003  -0.451  0.00  0.00    -0.073 A 
ATOM      2  C3  UNL d   1       0.726   1.642  -0.295  0.00  0.00    -0.002 A 
ATOM      3  C4  UNL d   1       0.639   3.033  -0.365  0.00  0.00     0.004 A 
ATOM      4  C5  UNL d   1       1.782   3.797  -0.599  0.00  0.00    -0.004 A 
ATOM      5  C6  UNL d   1       3.024   3.176  -0.770  0.00  0.00    -0.075 A 
ATOM      6  C7  UNL d   1       4.263   3.983  -1.020  0.00  0.00     0.076 C 
ATOM      7  C8  UNL d   1       3.103   1.779  -0.695  0.00  0.00     0.001 A 
ENDROOT
BRANCH   1   8
ATOM      8  C1  UNL d   1       2.059  -0.499  -0.382  0.00  0.00     0.053 C 
ATOM      9  C   UNL d   1       3.055  -0.958   0.671  0.00  0.00     0.018 C 
ENDBRANCH   1   8
TORSDOF 1
ENDMDL
