MODEL 1
REMARK minimizedAffinity -4.8009491
REMARK minimizedRMSD -1
REMARK  3 active torsions:
REMARK  status: ('A' for Active; 'I' for Inactive)
REMARK    1  A    between atoms: C3'_2  and  C2'_3 
REMARK    2  A    between atoms: C2'_3  and  C1'_4 
REMARK    3  A    between atoms: C1'_4  and  C1_5 
ROOT
ATOM      1  C1  N4B d   1       0.199   1.551  -0.210  0.00  0.00    -0.075 A 
ATOM      2  C2  N4B d   1      -0.816   0.849   0.477  0.00  0.00     0.002 A 
ATOM      3  C3  N4B d   1      -0.543  -0.372   1.043  0.00  0.00     0.002 A 
ATOM      4  C4  N4B d   1       0.726  -0.918   0.919  0.00  0.00    -0.004 A 
ATOM      5  C5  N4B d   1       1.707  -0.222   0.276  0.00  0.00     0.002 A 
ATOM      6  C6  N4B d   1       1.448   1.008  -0.295  0.00  0.00     0.002 A 
ENDROOT
BRANCH   1   7
ATOM      7  C1' N4B d   1      -0.074   2.849  -0.919  0.00  0.00     0.057 C 
BRANCH   7   8
ATOM      8  C2' N4B d   1      -1.270   2.670  -1.850  0.00  0.00     0.009 C 
BRANCH   8   9
ATOM      9  C3' N4B d   1      -1.108   3.454  -3.141  0.00  0.00     0.004 C 
ATOM     10  C4' N4B d   1      -0.216   4.649  -2.986  0.00  0.00     0.003 C 
ENDBRANCH   8   9
ENDBRANCH   7   8
ENDBRANCH   1   7
TORSDOF 3
ENDMDL
