MODEL 1
REMARK minimizedAffinity -6.29552269
REMARK minimizedRMSD -1
REMARK  3 active torsions:
REMARK  status: ('A' for Active; 'I' for Inactive)
REMARK    1  A    between atoms: C3'_2  and  C2'_3 
REMARK    2  A    between atoms: C2'_3  and  C1'_4 
REMARK    3  A    between atoms: C1'_4  and  C1_5 
ROOT
ATOM      1  C1  N4B d   1       0.062   0.928   0.230  0.00  0.00    -0.075 A 
ATOM      2  C2  N4B d   1       1.433   0.877  -0.108  0.00  0.00     0.002 A 
ATOM      3  C3  N4B d   1       2.189  -0.210   0.257  0.00  0.00     0.002 A 
ATOM      4  C4  N4B d   1       1.604  -1.244   0.972  0.00  0.00    -0.004 A 
ATOM      5  C5  N4B d   1       0.274  -1.199   1.271  0.00  0.00     0.002 A 
ATOM      6  C6  N4B d   1      -0.499  -0.115   0.908  0.00  0.00     0.002 A 
ENDROOT
BRANCH   1   7
ATOM      7  C1' N4B d   1      -0.785   2.134  -0.072  0.00  0.00     0.057 C 
BRANCH   7   8
ATOM      8  C2' N4B d   1       0.022   3.114  -0.918  0.00  0.00     0.009 C 
BRANCH   8   9
ATOM      9  C3' N4B d   1      -0.804   3.701  -2.050  0.00  0.00     0.004 C 
ATOM     10  C4' N4B d   1      -0.022   4.652  -2.906  0.00  0.00     0.003 C 
ENDBRANCH   8   9
ENDBRANCH   7   8
ENDBRANCH   1   7
TORSDOF 3
ENDMDL
