MODEL 1
REMARK minimizedAffinity -6.31773615
REMARK minimizedRMSD -1
REMARK  3 active torsions:
REMARK  status: ('A' for Active; 'I' for Inactive)
REMARK    1  A    between atoms: C3'_2  and  C2'_3 
REMARK    2  A    between atoms: C2'_3  and  C1'_4 
REMARK    3  A    between atoms: C1'_4  and  C1_5 
ROOT
ATOM      1  C1  N4B d   1       0.605  -0.494  -0.057  0.00  0.00    -0.075 A 
ATOM      2  C2  N4B d   1      -0.096  -1.548   0.571  0.00  0.00     0.002 A 
ATOM      3  C3  N4B d   1       0.577  -2.440   1.369  0.00  0.00     0.002 A 
ATOM      4  C4  N4B d   1       1.947  -2.311   1.538  0.00  0.00    -0.004 A 
ATOM      5  C5  N4B d   1       2.613  -1.276   0.949  0.00  0.00     0.002 A 
ATOM      6  C6  N4B d   1       1.949  -0.370   0.147  0.00  0.00     0.002 A 
ENDROOT
BRANCH   1   7
ATOM      7  C1' N4B d   1      -0.073   0.455  -1.007  0.00  0.00     0.057 C 
BRANCH   7   8
ATOM      8  C2' N4B d   1      -1.219   1.154  -0.283  0.00  0.00     0.009 C 
BRANCH   8   9
ATOM      9  C3' N4B d   1      -2.027   2.037  -1.219  0.00  0.00     0.004 C 
ATOM     10  C4' N4B d   1      -2.870   1.249  -2.177  0.00  0.00     0.003 C 
ENDBRANCH   8   9
ENDBRANCH   7   8
ENDBRANCH   1   7
TORSDOF 3
ENDMDL
