MODEL 1
REMARK minimizedAffinity -5.15475845
REMARK minimizedRMSD -1
REMARK  3 active torsions:
REMARK  status: ('A' for Active; 'I' for Inactive)
REMARK    1  A    between atoms: C3'_2  and  C2'_3 
REMARK    2  A    between atoms: C2'_3  and  C1'_4 
REMARK    3  A    between atoms: C1'_4  and  C1_5 
ROOT
ATOM      1  C1  N4B d   1       0.387  -0.663   0.372  0.00  0.00    -0.075 A 
ATOM      2  C2  N4B d   1       1.478  -1.545   0.527  0.00  0.00     0.002 A 
ATOM      3  C3  N4B d   1       1.445  -2.515   1.498  0.00  0.00     0.002 A 
ATOM      4  C4  N4B d   1       0.344  -2.609   2.336  0.00  0.00    -0.004 A 
ATOM      5  C5  N4B d   1      -0.717  -1.769   2.164  0.00  0.00     0.002 A 
ATOM      6  C6  N4B d   1      -0.699  -0.792   1.189  0.00  0.00     0.002 A 
ENDROOT
BRANCH   1   7
ATOM      7  C1' N4B d   1       0.414   0.468  -0.619  0.00  0.00     0.057 C 
BRANCH   7   8
ATOM      8  C2' N4B d   1      -0.958   1.134  -0.658  0.00  0.00     0.009 C 
BRANCH   8   9
ATOM      9  C3' N4B d   1      -1.267   1.720  -2.024  0.00  0.00     0.004 C 
ATOM     10  C4' N4B d   1      -2.486   1.115  -2.654  0.00  0.00     0.003 C 
ENDBRANCH   8   9
ENDBRANCH   7   8
ENDBRANCH   1   7
TORSDOF 3
ENDMDL
