MODEL 1
REMARK minimizedAffinity -5.2856307
REMARK minimizedRMSD -1
REMARK  3 active torsions:
REMARK  status: ('A' for Active; 'I' for Inactive)
REMARK    1  A    between atoms: C3'_2  and  C2'_3 
REMARK    2  A    between atoms: C2'_3  and  C1'_4 
REMARK    3  A    between atoms: C1'_4  and  C1_5 
ROOT
ATOM      1  C1  N4B d   1       0.045  -0.202   0.308  0.00  0.00    -0.075 A 
ATOM      2  C2  N4B d   1       1.074  -1.143   0.533  0.00  0.00     0.002 A 
ATOM      3  C3  N4B d   1       1.004  -1.992   1.610  0.00  0.00     0.002 A 
ATOM      4  C4  N4B d   1      -0.071  -1.907   2.482  0.00  0.00    -0.004 A 
ATOM      5  C5  N4B d   1      -1.073  -1.013   2.243  0.00  0.00     0.002 A 
ATOM      6  C6  N4B d   1      -1.018  -0.156   1.162  0.00  0.00     0.002 A 
ENDROOT
BRANCH   1   7
ATOM      7  C1' N4B d   1       0.120   0.805  -0.807  0.00  0.00     0.057 C 
BRANCH   7   8
ATOM      8  C2' N4B d   1      -1.081   1.742  -0.717  0.00  0.00     0.009 C 
BRANCH   8   9
ATOM      9  C3' N4B d   1      -1.435   2.343  -2.066  0.00  0.00     0.004 C 
ATOM     10  C4' N4B d   1      -2.846   2.051  -2.481  0.00  0.00     0.003 C 
ENDBRANCH   8   9
ENDBRANCH   7   8
ENDBRANCH   1   7
TORSDOF 3
ENDMDL
