MODEL 1
REMARK minimizedAffinity -2.77960038
REMARK minimizedRMSD -1
REMARK  3 active torsions:
REMARK  status: ('A' for Active; 'I' for Inactive)
REMARK    1  A    between atoms: C3'_2  and  C2'_3 
REMARK    2  A    between atoms: C2'_3  and  C1'_4 
REMARK    3  A    between atoms: C1'_4  and  C1_5 
ROOT
ATOM      1  C1  N4B d   1      -1.805   1.566  -1.325  0.00  0.00    -0.075 A 
ATOM      2  C2  N4B d   1      -1.205   2.626  -2.040  0.00  0.00     0.002 A 
ATOM      3  C3  N4B d   1      -1.572   2.871  -3.340  0.00  0.00     0.002 A 
ATOM      4  C4  N4B d   1      -2.520   2.063  -3.950  0.00  0.00    -0.004 A 
ATOM      5  C5  N4B d   1      -3.114   1.058  -3.244  0.00  0.00     0.002 A 
ATOM      6  C6  N4B d   1      -2.757   0.802  -1.935  0.00  0.00     0.002 A 
ENDROOT
BRANCH   1   7
ATOM      7  C1' N4B d   1      -1.374   1.205   0.070  0.00  0.00     0.057 C 
BRANCH   7   8
ATOM      8  C2' N4B d   1      -0.529  -0.064   0.021  0.00  0.00     0.009 C 
BRANCH   8   9
ATOM      9  C3' N4B d   1       0.914   0.229  -0.354  0.00  0.00     0.004 C 
ATOM     10  C4' N4B d   1       1.897  -0.545   0.473  0.00  0.00     0.003 C 
ENDBRANCH   8   9
ENDBRANCH   7   8
ENDBRANCH   1   7
TORSDOF 3
ENDMDL
