MODEL 1
REMARK minimizedAffinity 2.0752306
REMARK minimizedRMSD -1
REMARK  3 active torsions:
REMARK  status: ('A' for Active; 'I' for Inactive)
REMARK    1  A    between atoms: C3'_2  and  C2'_3 
REMARK    2  A    between atoms: C2'_3  and  C1'_4 
REMARK    3  A    between atoms: C1'_4  and  C1_5 
ROOT
ATOM      1  C1  N4B d   1      -0.979   1.091  -0.695  0.00  0.00    -0.075 A 
ATOM      2  C2  N4B d   1      -1.860   0.980   0.403  0.00  0.00     0.002 A 
ATOM      3  C3  N4B d   1      -1.707  -0.044   1.306  0.00  0.00     0.002 A 
ATOM      4  C4  N4B d   1      -0.696  -0.975   1.121  0.00  0.00    -0.004 A 
ATOM      5  C5  N4B d   1       0.167  -0.845   0.073  0.00  0.00     0.002 A 
ATOM      6  C6  N4B d   1       0.027   0.181  -0.840  0.00  0.00     0.002 A 
ENDROOT
BRANCH   1   7
ATOM      7  C1' N4B d   1      -1.160   2.143  -1.755  0.00  0.00     0.057 C 
BRANCH   7   8
ATOM      8  C2' N4B d   1      -2.428   1.842  -2.548  0.00  0.00     0.009 C 
BRANCH   8   9
ATOM      9  C3' N4B d   1      -2.218   2.011  -4.042  0.00  0.00     0.004 C 
ATOM     10  C4' N4B d   1      -1.309   3.156  -4.376  0.00  0.00     0.003 C 
ENDBRANCH   8   9
ENDBRANCH   7   8
ENDBRANCH   1   7
TORSDOF 3
ENDMDL
