MODEL 1
REMARK minimizedAffinity -5.95917988
REMARK minimizedRMSD -1
REMARK  3 active torsions:
REMARK  status: ('A' for Active; 'I' for Inactive)
REMARK    1  A    between atoms: C3'_2  and  C2'_3 
REMARK    2  A    between atoms: C2'_3  and  C1'_4 
REMARK    3  A    between atoms: C1'_4  and  C1_5 
ROOT
ATOM      1  C1  N4B d   1       0.013   0.313   0.162  0.00  0.00    -0.075 A 
ATOM      2  C2  N4B d   1       1.303   0.571  -0.353  0.00  0.00     0.002 A 
ATOM      3  C3  N4B d   1       2.317  -0.332  -0.149  0.00  0.00     0.002 A 
ATOM      4  C4  N4B d   1       2.071  -1.486   0.580  0.00  0.00    -0.004 A 
ATOM      5  C5  N4B d   1       0.817  -1.740   1.053  0.00  0.00     0.002 A 
ATOM      6  C6  N4B d   1      -0.213  -0.843   0.852  0.00  0.00     0.002 A 
ENDROOT
BRANCH   1   7
ATOM      7  C1' N4B d   1      -1.106   1.311   0.038  0.00  0.00     0.057 C 
BRANCH   7   8
ATOM      8  C2' N4B d   1      -1.061   1.943  -1.350  0.00  0.00     0.009 C 
BRANCH   8   9
ATOM      9  C3' N4B d   1      -2.343   1.701  -2.127  0.00  0.00     0.004 C 
ATOM     10  C4' N4B d   1      -2.130   1.688  -3.611  0.00  0.00     0.003 C 
ENDBRANCH   8   9
ENDBRANCH   7   8
ENDBRANCH   1   7
TORSDOF 3
ENDMDL
