MODEL 1
REMARK minimizedAffinity -4.83677769
REMARK minimizedRMSD -1
REMARK  3 active torsions:
REMARK  status: ('A' for Active; 'I' for Inactive)
REMARK    1  A    between atoms: C3'_2  and  C2'_3 
REMARK    2  A    between atoms: C2'_3  and  C1'_4 
REMARK    3  A    between atoms: C1'_4  and  C1_5 
ROOT
ATOM      1  C1  N4B d   1      -0.619   0.425   0.161  0.00  0.00    -0.075 A 
ATOM      2  C2  N4B d   1      -1.520   0.615   1.232  0.00  0.00     0.002 A 
ATOM      3  C3  N4B d   1      -1.798  -0.423   2.087  0.00  0.00     0.002 A 
ATOM      4  C4  N4B d   1      -1.205  -1.659   1.881  0.00  0.00    -0.004 A 
ATOM      5  C5  N4B d   1      -0.316  -1.827   0.860  0.00  0.00     0.002 A 
ATOM      6  C6  N4B d   1      -0.024  -0.792  -0.005  0.00  0.00     0.002 A 
ENDROOT
BRANCH   1   7
ATOM      7  C1' N4B d   1      -0.350   1.505  -0.851  0.00  0.00     0.057 C 
BRANCH   7   8
ATOM      8  C2' N4B d   1      -1.660   1.893  -1.531  0.00  0.00     0.009 C 
BRANCH   8   9
ATOM      9  C3' N4B d   1      -1.465   3.006  -2.546  0.00  0.00     0.004 C 
ATOM     10  C4' N4B d   1      -1.421   2.502  -3.958  0.00  0.00     0.003 C 
ENDBRANCH   8   9
ENDBRANCH   7   8
ENDBRANCH   1   7
TORSDOF 3
ENDMDL
