MODEL 1
REMARK minimizedAffinity -5.61698055
REMARK minimizedRMSD -1
REMARK  3 active torsions:
REMARK  status: ('A' for Active; 'I' for Inactive)
REMARK    1  A    between atoms: C3'_2  and  C2'_3 
REMARK    2  A    between atoms: C2'_3  and  C1'_4 
REMARK    3  A    between atoms: C1'_4  and  C1_5 
ROOT
ATOM      1  C1  N4B d   1       0.676  -0.318   0.101  0.00  0.00    -0.075 A 
ATOM      2  C2  N4B d   1      -0.263  -1.333   0.384  0.00  0.00     0.002 A 
ATOM      3  C3  N4B d   1       0.168  -2.587   0.744  0.00  0.00     0.002 A 
ATOM      4  C4  N4B d   1       1.528  -2.852   0.808  0.00  0.00    -0.004 A 
ATOM      5  C5  N4B d   1       2.429  -1.859   0.557  0.00  0.00     0.002 A 
ATOM      6  C6  N4B d   1       2.009  -0.593   0.198  0.00  0.00     0.002 A 
ENDROOT
BRANCH   1   7
ATOM      7  C1' N4B d   1       0.253   1.044  -0.380  0.00  0.00     0.057 C 
BRANCH   7   8
ATOM      8  C2' N4B d   1      -1.236   1.018  -0.708  0.00  0.00     0.009 C 
BRANCH   8   9
ATOM      9  C3' N4B d   1      -1.555   1.810  -1.965  0.00  0.00     0.004 C 
ATOM     10  C4' N4B d   1      -2.603   1.155  -2.814  0.00  0.00     0.003 C 
ENDBRANCH   8   9
ENDBRANCH   7   8
ENDBRANCH   1   7
TORSDOF 3
ENDMDL
