MODEL 1
REMARK minimizedAffinity -4.98249054
REMARK minimizedRMSD -1
REMARK  3 active torsions:
REMARK  status: ('A' for Active; 'I' for Inactive)
REMARK    1  A    between atoms: C3'_2  and  C2'_3 
REMARK    2  A    between atoms: C2'_3  and  C1'_4 
REMARK    3  A    between atoms: C1'_4  and  C1_5 
ROOT
ATOM      1  C1  N4B d   1      -1.187   2.551  -2.585  0.00  0.00    -0.075 A 
ATOM      2  C2  N4B d   1      -0.696   3.725  -1.973  0.00  0.00     0.002 A 
ATOM      3  C3  N4B d   1      -0.323   4.797  -2.746  0.00  0.00     0.002 A 
ATOM      4  C4  N4B d   1      -0.414   4.712  -4.127  0.00  0.00    -0.004 A 
ATOM      5  C5  N4B d   1      -0.914   3.584  -4.709  0.00  0.00     0.002 A 
ATOM      6  C6  N4B d   1      -1.296   2.500  -3.944  0.00  0.00     0.002 A 
ENDROOT
BRANCH   1   7
ATOM      7  C1' N4B d   1      -1.526   1.322  -1.787  0.00  0.00     0.057 C 
BRANCH   7   8
ATOM      8  C2' N4B d   1      -0.601   1.240  -0.575  0.00  0.00     0.009 C 
BRANCH   8   9
ATOM      9  C3' N4B d   1      -0.621  -0.138   0.063  0.00  0.00     0.004 C 
ATOM     10  C4' N4B d   1       0.694  -0.849  -0.048  0.00  0.00     0.003 C 
ENDBRANCH   8   9
ENDBRANCH   7   8
ENDBRANCH   1   7
TORSDOF 3
ENDMDL
