MODEL 1
REMARK minimizedAffinity -1.24614906
REMARK minimizedRMSD -1
REMARK  1 active torsions:
REMARK  status: ('A' for Active; 'I' for Inactive)
REMARK    1  A    between atoms: C3_4  and  O_7 
ROOT
ATOM      1  C   UNL d   1      -2.498   2.572  -0.388  0.00  0.00    -0.033 A 
ATOM      2  C1  UNL d   1      -2.770   2.201   0.930  0.00  0.00     0.039 A 
ATOM      3  C2  UNL d   1      -3.172   3.162   1.859  0.00  0.00    -0.080 A 
ATOM      4  C3  UNL d   1      -3.300   4.489   1.457  0.00  0.00     0.150 A 
ATOM      5  C4  UNL d   1      -3.036   4.865   0.145  0.00  0.00    -0.007 A 
ATOM      6  C5  UNL d   1      -2.633   3.904  -0.781  0.00  0.00     0.039 A 
ENDROOT
BRANCH   4   7
ATOM      7  O   UNL d   1      -3.686   5.463   2.330  0.00  0.00    -0.526 OA
ATOM      8  H5  UNL d   1      -3.806   5.062   3.206  0.00  0.00     0.418 HD
ENDBRANCH   4   7
TORSDOF 1
ENDMDL
