MODEL 1
REMARK minimizedAffinity 5.81332493
REMARK minimizedRMSD -1
REMARK  1 active torsions:
REMARK  status: ('A' for Active; 'I' for Inactive)
REMARK    1  A    between atoms: C3_4  and  O_7 
ROOT
ATOM      1  C   UNL d   1      -5.120   0.744  -0.913  0.00  0.00    -0.033 A 
ATOM      2  C1  UNL d   1      -3.741   0.723  -0.696  0.00  0.00     0.039 A 
ATOM      3  C2  UNL d   1      -3.238   0.524   0.592  0.00  0.00    -0.080 A 
ATOM      4  C3  UNL d   1      -4.124   0.347   1.651  0.00  0.00     0.150 A 
ATOM      5  C4  UNL d   1      -5.499   0.362   1.441  0.00  0.00    -0.007 A 
ATOM      6  C5  UNL d   1      -5.999   0.562   0.155  0.00  0.00     0.039 A 
ENDROOT
BRANCH   4   7
ATOM      7  O   UNL d   1      -3.681   0.154   2.926  0.00  0.00    -0.526 OA
ATOM      8  H5  UNL d   1      -2.710   0.196   2.924  0.00  0.00     0.418 HD
ENDBRANCH   4   7
TORSDOF 1
ENDMDL
