MODEL 1
REMARK minimizedAffinity -2.43599081
REMARK minimizedRMSD -1
REMARK  1 active torsions:
REMARK  status: ('A' for Active; 'I' for Inactive)
REMARK    1  A    between atoms: C3_4  and  O_7 
ROOT
ATOM      1  C   UNL d   1      -2.956   0.375   1.316  0.00  0.00    -0.033 A 
ATOM      2  C1  UNL d   1      -3.205   0.806   0.011  0.00  0.00     0.039 A 
ATOM      3  C2  UNL d   1      -3.190   2.169  -0.291  0.00  0.00    -0.080 A 
ATOM      4  C3  UNL d   1      -2.924   3.089   0.719  0.00  0.00     0.150 A 
ATOM      5  C4  UNL d   1      -2.671   2.668   2.020  0.00  0.00    -0.007 A 
ATOM      6  C5  UNL d   1      -2.687   1.306   2.320  0.00  0.00     0.039 A 
ENDROOT
BRANCH   4   7
ATOM      7  O   UNL d   1      -2.903   4.430   0.473  0.00  0.00    -0.526 OA
ATOM      8  H5  UNL d   1      -3.123   4.575  -0.463  0.00  0.00     0.418 HD
ENDBRANCH   4   7
TORSDOF 1
ENDMDL
