MODEL 1
REMARK minimizedAffinity -3.05424237
REMARK minimizedRMSD -1
REMARK  1 active torsions:
REMARK  status: ('A' for Active; 'I' for Inactive)
REMARK    1  A    between atoms: C3_4  and  O_7 
ROOT
ATOM      1  C   UNL d   1      -2.968  -0.729   1.236  0.00  0.00    -0.033 A 
ATOM      2  C1  UNL d   1      -2.670  -0.120   2.456  0.00  0.00     0.039 A 
ATOM      3  C2  UNL d   1      -2.509   1.266   2.527  0.00  0.00    -0.080 A 
ATOM      4  C3  UNL d   1      -2.651   2.029   1.371  0.00  0.00     0.150 A 
ATOM      5  C4  UNL d   1      -2.952   1.430   0.153  0.00  0.00    -0.007 A 
ATOM      6  C5  UNL d   1      -3.110   0.046   0.084  0.00  0.00     0.039 A 
ENDROOT
BRANCH   4   7
ATOM      7  O   UNL d   1      -2.499   3.384   1.389  0.00  0.00    -0.526 OA
ATOM      8  H5  UNL d   1      -2.265   3.655   2.293  0.00  0.00     0.418 HD
ENDBRANCH   4   7
TORSDOF 1
ENDMDL
