MODEL 1
REMARK minimizedAffinity -1.705809
REMARK minimizedRMSD -1
REMARK  1 active torsions:
REMARK  status: ('A' for Active; 'I' for Inactive)
REMARK    1  A    between atoms: C3_4  and  O_7 
ROOT
ATOM      1  C   UNL d   1      -2.256   0.713   2.523  0.00  0.00    -0.033 A 
ATOM      2  C1  UNL d   1      -2.395   0.045   3.740  0.00  0.00     0.039 A 
ATOM      3  C2  UNL d   1      -3.451  -0.849   3.932  0.00  0.00    -0.080 A 
ATOM      4  C3  UNL d   1      -4.359  -1.065   2.899  0.00  0.00     0.150 A 
ATOM      5  C4  UNL d   1      -4.225  -0.405   1.682  0.00  0.00    -0.007 A 
ATOM      6  C5  UNL d   1      -3.171   0.488   1.493  0.00  0.00     0.039 A 
ENDROOT
BRANCH   4   7
ATOM      7  O   UNL d   1      -5.408  -1.924   3.041  0.00  0.00    -0.526 OA
ATOM      8  H5  UNL d   1      -5.390  -2.285   3.943  0.00  0.00     0.418 HD
ENDBRANCH   4   7
TORSDOF 1
ENDMDL
