MODEL 1
REMARK minimizedAffinity -4.221241
REMARK minimizedRMSD -1
REMARK  1 active torsions:
REMARK  status: ('A' for Active; 'I' for Inactive)
REMARK    1  A    between atoms: C3_4  and  O_7 
ROOT
ATOM      1  C   UNL d   1      -2.859  -0.689   0.037  0.00  0.00    -0.033 A 
ATOM      2  C1  UNL d   1      -4.147  -0.431   0.510  0.00  0.00     0.039 A 
ATOM      3  C2  UNL d   1      -4.342  -0.058   1.841  0.00  0.00    -0.080 A 
ATOM      4  C3  UNL d   1      -3.243   0.055   2.688  0.00  0.00     0.150 A 
ATOM      5  C4  UNL d   1      -1.956  -0.197   2.222  0.00  0.00    -0.007 A 
ATOM      6  C5  UNL d   1      -1.763  -0.570   0.893  0.00  0.00     0.039 A 
ENDROOT
BRANCH   4   7
ATOM      7  O   UNL d   1      -3.384   0.411   3.996  0.00  0.00    -0.526 OA
ATOM      8  H5  UNL d   1      -4.331   0.525   4.183  0.00  0.00     0.418 HD
ENDBRANCH   4   7
TORSDOF 1
ENDMDL
