MODEL 1
REMARK minimizedAffinity 2.8847506
REMARK minimizedRMSD -1
REMARK  1 active torsions:
REMARK  status: ('A' for Active; 'I' for Inactive)
REMARK    1  A    between atoms: C3_4  and  O_7 
ROOT
ATOM      1  C   UNL d   1       1.886   1.441  -5.192  0.00  0.00    -0.033 A 
ATOM      2  C1  UNL d   1       0.716   1.906  -4.588  0.00  0.00     0.039 A 
ATOM      3  C2  UNL d   1       0.365   3.254  -4.687  0.00  0.00    -0.080 A 
ATOM      4  C3  UNL d   1       1.191   4.125  -5.392  0.00  0.00     0.150 A 
ATOM      5  C4  UNL d   1       2.356   3.668  -5.999  0.00  0.00    -0.007 A 
ATOM      6  C5  UNL d   1       2.705   2.322  -5.898  0.00  0.00     0.039 A 
ENDROOT
BRANCH   4   7
ATOM      7  O   UNL d   1       0.893   5.450  -5.512  0.00  0.00    -0.526 OA
ATOM      8  H5  UNL d   1       0.075   5.627  -5.018  0.00  0.00     0.418 HD
ENDBRANCH   4   7
TORSDOF 1
ENDMDL
