MODEL 1
REMARK minimizedAffinity 1.54436243
REMARK minimizedRMSD -1
REMARK  1 active torsions:
REMARK  status: ('A' for Active; 'I' for Inactive)
REMARK    1  A    between atoms: C3_4  and  O_7 
ROOT
ATOM      1  C   UNL d   1      -2.757   0.624  -0.265  0.00  0.00    -0.033 A 
ATOM      2  C1  UNL d   1      -1.829   1.599  -0.637  0.00  0.00     0.039 A 
ATOM      3  C2  UNL d   1      -2.072   2.943  -0.347  0.00  0.00    -0.080 A 
ATOM      4  C3  UNL d   1      -3.244   3.298   0.315  0.00  0.00     0.150 A 
ATOM      5  C4  UNL d   1      -4.171   2.332   0.692  0.00  0.00    -0.007 A 
ATOM      6  C5  UNL d   1      -3.927   0.990   0.400  0.00  0.00     0.039 A 
ENDROOT
BRANCH   4   7
ATOM      7  O   UNL d   1      -3.527   4.598   0.615  0.00  0.00    -0.526 OA
ATOM      8  H5  UNL d   1      -2.812   5.156   0.269  0.00  0.00     0.418 HD
ENDBRANCH   4   7
TORSDOF 1
ENDMDL
