MODEL 1
REMARK minimizedAffinity 0.236259863
REMARK minimizedRMSD -1
REMARK  1 active torsions:
REMARK  status: ('A' for Active; 'I' for Inactive)
REMARK    1  A    between atoms: C3_4  and  O_7 
ROOT
ATOM      1  C   UNL d   1      -3.572  -0.355   2.682  0.00  0.00    -0.033 A 
ATOM      2  C1  UNL d   1      -3.003   0.919   2.640  0.00  0.00     0.039 A 
ATOM      3  C2  UNL d   1      -3.210   1.814   3.691  0.00  0.00    -0.080 A 
ATOM      4  C3  UNL d   1      -3.988   1.423   4.778  0.00  0.00     0.150 A 
ATOM      5  C4  UNL d   1      -4.555   0.154   4.828  0.00  0.00    -0.007 A 
ATOM      6  C5  UNL d   1      -4.348  -0.738   3.777  0.00  0.00     0.039 A 
ENDROOT
BRANCH   4   7
ATOM      7  O   UNL d   1      -4.222   2.264   5.825  0.00  0.00    -0.526 OA
ATOM      8  H5  UNL d   1      -3.792   3.115   5.639  0.00  0.00     0.418 HD
ENDBRANCH   4   7
TORSDOF 1
ENDMDL
