MODEL 1
REMARK minimizedAffinity 7.32413673
REMARK minimizedRMSD -1
REMARK  1 active torsions:
REMARK  status: ('A' for Active; 'I' for Inactive)
REMARK    1  A    between atoms: C3_4  and  O_7 
ROOT
ATOM      1  C   UNL d   1      -1.916   0.688   3.142  0.00  0.00    -0.033 A 
ATOM      2  C1  UNL d   1      -2.269   0.243   4.418  0.00  0.00     0.039 A 
ATOM      3  C2  UNL d   1      -3.422  -0.524   4.597  0.00  0.00    -0.080 A 
ATOM      4  C3  UNL d   1      -4.210  -0.841   3.494  0.00  0.00     0.150 A 
ATOM      5  C4  UNL d   1      -3.862  -0.404   2.220  0.00  0.00    -0.007 A 
ATOM      6  C5  UNL d   1      -2.711   0.363   2.043  0.00  0.00     0.039 A 
ENDROOT
BRANCH   4   7
ATOM      7  O   UNL d   1      -5.346  -1.583   3.620  0.00  0.00    -0.526 OA
ATOM      8  H5  UNL d   1      -5.476  -1.790   4.561  0.00  0.00     0.418 HD
ENDBRANCH   4   7
TORSDOF 1
ENDMDL
