MODEL 1
REMARK minimizedAffinity -3.23148274
REMARK minimizedRMSD -1
REMARK  1 active torsions:
REMARK  status: ('A' for Active; 'I' for Inactive)
REMARK    1  A    between atoms: C3_4  and  O_7 
ROOT
ATOM      1  C   UNL d   1      -2.490  -1.073   1.492  0.00  0.00    -0.033 A 
ATOM      2  C1  UNL d   1      -2.510  -0.256   2.624  0.00  0.00     0.039 A 
ATOM      3  C2  UNL d   1      -2.509   1.133   2.485  0.00  0.00    -0.080 A 
ATOM      4  C3  UNL d   1      -2.489   1.692   1.210  0.00  0.00     0.150 A 
ATOM      5  C4  UNL d   1      -2.473   0.884   0.078  0.00  0.00    -0.007 A 
ATOM      6  C5  UNL d   1      -2.473  -0.503   0.219  0.00  0.00     0.039 A 
ENDROOT
BRANCH   4   7
ATOM      7  O   UNL d   1      -2.482   3.043   1.024  0.00  0.00    -0.526 OA
ATOM      8  H5  UNL d   1      -2.466   3.473   1.895  0.00  0.00     0.418 HD
ENDBRANCH   4   7
TORSDOF 1
ENDMDL
