MODEL 1
REMARK minimizedAffinity -3.71067119
REMARK minimizedRMSD -1
REMARK  1 active torsions:
REMARK  status: ('A' for Active; 'I' for Inactive)
REMARK    1  A    between atoms: C3_4  and  O_7 
ROOT
ATOM      1  C   UNL d   1      -3.157  -0.945   1.814  0.00  0.00    -0.033 A 
ATOM      2  C1  UNL d   1      -2.826  -0.197   2.946  0.00  0.00     0.039 A 
ATOM      3  C2  UNL d   1      -2.590   1.175   2.834  0.00  0.00    -0.080 A 
ATOM      4  C3  UNL d   1      -2.690   1.786   1.587  0.00  0.00     0.150 A 
ATOM      5  C4  UNL d   1      -3.024   1.047   0.456  0.00  0.00    -0.007 A 
ATOM      6  C5  UNL d   1      -3.257  -0.323   0.570  0.00  0.00     0.039 A 
ENDROOT
BRANCH   4   7
ATOM      7  O   UNL d   1      -2.465   3.121   1.427  0.00  0.00    -0.526 OA
ATOM      8  H5  UNL d   1      -2.216   3.496   2.289  0.00  0.00     0.418 HD
ENDBRANCH   4   7
TORSDOF 1
ENDMDL
