MODEL 1
REMARK minimizedAffinity -4.24610329
REMARK minimizedRMSD -1
REMARK  1 active torsions:
REMARK  status: ('A' for Active; 'I' for Inactive)
REMARK    1  A    between atoms: C3_4  and  O_7 
ROOT
ATOM      1  C   UNL d   1      -3.135  -0.672   2.683  0.00  0.00    -0.033 A 
ATOM      2  C1  UNL d   1      -4.306  -0.718   3.442  0.00  0.00     0.039 A 
ATOM      3  C2  UNL d   1      -4.702   0.396   4.186  0.00  0.00    -0.080 A 
ATOM      4  C3  UNL d   1      -3.919   1.547   4.162  0.00  0.00     0.150 A 
ATOM      5  C4  UNL d   1      -2.753   1.600   3.406  0.00  0.00    -0.007 A 
ATOM      6  C5  UNL d   1      -2.359   0.487   2.664  0.00  0.00     0.039 A 
ENDROOT
BRANCH   4   7
ATOM      7  O   UNL d   1      -4.262   2.656   4.876  0.00  0.00    -0.526 OA
ATOM      8  H5  UNL d   1      -5.074   2.464   5.373  0.00  0.00     0.418 HD
ENDBRANCH   4   7
TORSDOF 1
ENDMDL
