MODEL 1
REMARK minimizedAffinity -0.774173141
REMARK minimizedRMSD -1
REMARK  1 active torsions:
REMARK  status: ('A' for Active; 'I' for Inactive)
REMARK    1  A    between atoms: C3_4  and  O_7 
ROOT
ATOM      1  C   UNL d   1      -3.313   0.593   1.648  0.00  0.00    -0.033 A 
ATOM      2  C1  UNL d   1      -3.577   0.662   0.278  0.00  0.00     0.039 A 
ATOM      3  C2  UNL d   1      -3.329   1.844  -0.423  0.00  0.00    -0.080 A 
ATOM      4  C3  UNL d   1      -2.817   2.946   0.255  0.00  0.00     0.150 A 
ATOM      5  C4  UNL d   1      -2.548   2.883   1.618  0.00  0.00    -0.007 A 
ATOM      6  C5  UNL d   1      -2.797   1.703   2.317  0.00  0.00     0.039 A 
ENDROOT
BRANCH   4   7
ATOM      7  O   UNL d   1      -2.563   4.123  -0.386  0.00  0.00    -0.526 OA
ATOM      8  H5  UNL d   1      -2.824   4.028  -1.318  0.00  0.00     0.418 HD
ENDBRANCH   4   7
TORSDOF 1
ENDMDL
