MODEL 1
REMARK minimizedAffinity -2.87730384
REMARK minimizedRMSD -1
REMARK  1 active torsions:
REMARK  status: ('A' for Active; 'I' for Inactive)
REMARK    1  A    between atoms: C3_4  and  O_7 
ROOT
ATOM      1  C   UNL d   1      -2.650  -0.087   1.173  0.00  0.00    -0.033 A 
ATOM      2  C1  UNL d   1      -3.277   0.232  -0.033  0.00  0.00     0.039 A 
ATOM      3  C2  UNL d   1      -3.409   1.567  -0.421  0.00  0.00    -0.080 A 
ATOM      4  C3  UNL d   1      -2.909   2.571   0.403  0.00  0.00     0.150 A 
ATOM      5  C4  UNL d   1      -2.280   2.260   1.604  0.00  0.00    -0.007 A 
ATOM      6  C5  UNL d   1      -2.150   0.927   1.991  0.00  0.00     0.039 A 
ENDROOT
BRANCH   4   7
ATOM      7  O   UNL d   1      -3.018   3.888   0.069  0.00  0.00    -0.526 OA
ATOM      8  H5  UNL d   1      -3.500   3.953  -0.773  0.00  0.00     0.418 HD
ENDBRANCH   4   7
TORSDOF 1
ENDMDL
