MODEL 1
REMARK minimizedAffinity -0.401796103
REMARK minimizedRMSD -1
REMARK  1 active torsions:
REMARK  status: ('A' for Active; 'I' for Inactive)
REMARK    1  A    between atoms: C3_4  and  O_7 
ROOT
ATOM      1  C   UNL d   1       4.850  -0.314   4.483  0.00  0.00    -0.033 A 
ATOM      2  C1  UNL d   1       4.049  -0.230   3.343  0.00  0.00     0.039 A 
ATOM      3  C2  UNL d   1       3.905   0.988   2.677  0.00  0.00    -0.080 A 
ATOM      4  C3  UNL d   1       4.568   2.113   3.159  0.00  0.00     0.150 A 
ATOM      5  C4  UNL d   1       5.371   2.036   4.292  0.00  0.00    -0.007 A 
ATOM      6  C5  UNL d   1       5.513   0.819   4.957  0.00  0.00     0.039 A 
ENDROOT
BRANCH   4   7
ATOM      7  O   UNL d   1       4.454   3.325   2.545  0.00  0.00    -0.526 OA
ATOM      8  H5  UNL d   1       3.845   3.234   1.794  0.00  0.00     0.418 HD
ENDBRANCH   4   7
TORSDOF 1
ENDMDL
