MODEL 1
REMARK minimizedAffinity 2.98735285
REMARK minimizedRMSD -1
REMARK  1 active torsions:
REMARK  status: ('A' for Active; 'I' for Inactive)
REMARK    1  A    between atoms: N_2  and  C1_3 
ROOT
ATOM      1  C1  UNL d   1       0.824   0.308   0.138  0.00  0.00     0.143 A 
ATOM      2  C2  UNL d   1       1.363   1.139  -0.851  0.00  0.00    -0.057 A 
ATOM      3  C3  UNL d   1       1.565   2.505  -0.620  0.00  0.00     0.033 A 
ATOM      4  C4  UNL d   1       1.204   3.072   0.598  0.00  0.00    -0.042 A 
ATOM      5  C5  UNL d   1       0.644   2.270   1.586  0.00  0.00     0.033 A 
ATOM      6  C6  UNL d   1       0.451   0.905   1.352  0.00  0.00    -0.057 A 
ENDROOT
BRANCH   1   7
ATOM      7  N   UNL d   1       0.508  -1.038  -0.065  0.00  0.00    -0.732 N 
ATOM      8  C   UNL d   1      -0.765  -1.570   0.374  0.00  0.00     0.284 C 
ATOM      9  H3  UNL d   1       0.807  -1.374  -0.977  0.00  0.00     0.395 HD
ENDBRANCH   1   7
TORSDOF 1
ENDMDL
