MODEL 1
REMARK minimizedAffinity 8.32210159
REMARK minimizedRMSD -1
REMARK  1 active torsions:
REMARK  status: ('A' for Active; 'I' for Inactive)
REMARK    1  A    between atoms: N_2  and  C1_3 
ROOT
ATOM      1  C1  UNL d   1       2.708   0.230   0.482  0.00  0.00     0.143 A 
ATOM      2  C2  UNL d   1       2.425   0.051   1.840  0.00  0.00    -0.057 A 
ATOM      3  C3  UNL d   1       1.287   0.619   2.426  0.00  0.00     0.033 A 
ATOM      4  C4  UNL d   1       0.425   1.403   1.667  0.00  0.00    -0.042 A 
ATOM      5  C5  UNL d   1       0.700   1.615   0.320  0.00  0.00     0.033 A 
ATOM      6  C6  UNL d   1       1.834   1.040  -0.260  0.00  0.00    -0.057 A 
ENDROOT
BRANCH   1   7
ATOM      7  N   UNL d   1       3.874  -0.227  -0.137  0.00  0.00    -0.732 N 
ATOM      8  C   UNL d   1       5.161   0.342   0.204  0.00  0.00     0.284 C 
ATOM      9  H3  UNL d   1       3.884  -1.238  -0.249  0.00  0.00     0.395 HD
ENDBRANCH   1   7
TORSDOF 1
ENDMDL
