MODEL 1
REMARK minimizedAffinity 3.88562846
REMARK minimizedRMSD -1
REMARK  1 active torsions:
REMARK  status: ('A' for Active; 'I' for Inactive)
REMARK    1  A    between atoms: N_2  and  C1_3 
ROOT
ATOM      1  C1  UNL d   1      -1.391   4.769  -3.464  0.00  0.00     0.143 A 
ATOM      2  C2  UNL d   1      -2.038   3.563  -3.756  0.00  0.00    -0.057 A 
ATOM      3  C3  UNL d   1      -2.551   2.749  -2.739  0.00  0.00     0.033 A 
ATOM      4  C4  UNL d   1      -2.401   3.115  -1.406  0.00  0.00    -0.042 A 
ATOM      5  C5  UNL d   1      -1.740   4.297  -1.091  0.00  0.00     0.033 A 
ATOM      6  C6  UNL d   1      -1.235   5.108  -2.111  0.00  0.00    -0.057 A 
ENDROOT
BRANCH   1   7
ATOM      7  N   UNL d   1      -0.773   5.573  -4.425  0.00  0.00    -0.732 N 
ATOM      8  C   UNL d   1       0.670   5.658  -4.497  0.00  0.00     0.284 C 
ATOM      9  H3  UNL d   1      -1.232   5.517  -5.332  0.00  0.00     0.395 HD
ENDBRANCH   1   7
TORSDOF 1
ENDMDL
