MODEL 1
REMARK minimizedAffinity 12.9091978
REMARK minimizedRMSD -1
REMARK  1 active torsions:
REMARK  status: ('A' for Active; 'I' for Inactive)
REMARK    1  A    between atoms: N_2  and  C1_3 
ROOT
ATOM      1  C1  UNL d   1       3.615   0.595  -0.140  0.00  0.00     0.143 A 
ATOM      2  C2  UNL d   1       3.130   1.447  -1.138  0.00  0.00    -0.057 A 
ATOM      3  C3  UNL d   1       1.768   1.755  -1.231  0.00  0.00     0.033 A 
ATOM      4  C4  UNL d   1       0.859   1.192  -0.341  0.00  0.00    -0.042 A 
ATOM      5  C5  UNL d   1       1.315   0.323   0.644  0.00  0.00     0.033 A 
ATOM      6  C6  UNL d   1       2.678   0.024   0.735  0.00  0.00    -0.057 A 
ENDROOT
BRANCH   1   7
ATOM      7  N   UNL d   1       4.944   0.172  -0.056  0.00  0.00    -0.732 N 
ATOM      8  C   UNL d   1       5.996   1.109   0.275  0.00  0.00     0.284 C 
ATOM      9  H3  UNL d   1       5.036  -0.733   0.399  0.00  0.00     0.395 HD
ENDBRANCH   1   7
TORSDOF 1
ENDMDL
