MODEL 1
REMARK minimizedAffinity 0.874016523
REMARK minimizedRMSD -1
REMARK  1 active torsions:
REMARK  status: ('A' for Active; 'I' for Inactive)
REMARK    1  A    between atoms: N_2  and  C1_3 
ROOT
ATOM      1  C1  UNL d   1      -0.975  -1.877   0.994  0.00  0.00     0.143 A 
ATOM      2  C2  UNL d   1      -0.972  -0.560   1.468  0.00  0.00    -0.057 A 
ATOM      3  C3  UNL d   1       0.043   0.337   1.112  0.00  0.00     0.033 A 
ATOM      4  C4  UNL d   1       1.091  -0.078   0.297  0.00  0.00    -0.042 A 
ATOM      5  C5  UNL d   1       1.122  -1.389  -0.165  0.00  0.00     0.033 A 
ATOM      6  C6  UNL d   1       0.102  -2.278   0.189  0.00  0.00    -0.057 A 
ENDROOT
BRANCH   1   7
ATOM      7  N   UNL d   1      -1.902  -2.844   1.391  0.00  0.00    -0.732 N 
ATOM      8  C   UNL d   1      -2.695  -3.552   0.409  0.00  0.00     0.284 C 
ATOM      9  H3  UNL d   1      -1.552  -3.431   2.145  0.00  0.00     0.395 HD
ENDBRANCH   1   7
TORSDOF 1
ENDMDL
