MODEL 1
REMARK minimizedAffinity 0.543487608
REMARK minimizedRMSD -1
REMARK  1 active torsions:
REMARK  status: ('A' for Active; 'I' for Inactive)
REMARK    1  A    between atoms: N_2  and  C1_3 
ROOT
ATOM      1  C1  UNL d   1       1.220   5.901  -5.274  0.00  0.00     0.143 A 
ATOM      2  C2  UNL d   1       1.135   5.943  -3.879  0.00  0.00    -0.057 A 
ATOM      3  C3  UNL d   1      -0.103   5.970  -3.227  0.00  0.00     0.033 A 
ATOM      4  C4  UNL d   1      -1.283   5.985  -3.963  0.00  0.00    -0.042 A 
ATOM      5  C5  UNL d   1      -1.223   5.969  -5.352  0.00  0.00     0.033 A 
ATOM      6  C6  UNL d   1       0.017   5.935  -5.997  0.00  0.00    -0.057 A 
ENDROOT
BRANCH   1   7
ATOM      7  N   UNL d   1       2.422   5.972  -5.983  0.00  0.00    -0.732 N 
ATOM      8  C   UNL d   1       3.691   5.906  -5.291  0.00  0.00     0.284 C 
ATOM      9  H3  UNL d   1       2.393   5.441  -6.851  0.00  0.00     0.395 HD
ENDBRANCH   1   7
TORSDOF 1
ENDMDL
