MODEL 1
REMARK minimizedAffinity 0.302247941
REMARK minimizedRMSD -1
REMARK  1 active torsions:
REMARK  status: ('A' for Active; 'I' for Inactive)
REMARK    1  A    between atoms: N_2  and  C1_3 
ROOT
ATOM      1  C1  UNL d   1       0.827   5.350  -5.189  0.00  0.00     0.143 A 
ATOM      2  C2  UNL d   1       1.124   4.153  -5.849  0.00  0.00    -0.057 A 
ATOM      3  C3  UNL d   1       2.410   3.601  -5.808  0.00  0.00     0.033 A 
ATOM      4  C4  UNL d   1       3.432   4.254  -5.127  0.00  0.00    -0.042 A 
ATOM      5  C5  UNL d   1       3.166   5.457  -4.483  0.00  0.00     0.033 A 
ATOM      6  C6  UNL d   1       1.878   6.000  -4.523  0.00  0.00    -0.057 A 
ENDROOT
BRANCH   1   7
ATOM      7  N   UNL d   1      -0.407   6.000  -5.274  0.00  0.00    -0.732 N 
ATOM      8  C   UNL d   1      -1.325   5.988  -4.156  0.00  0.00     0.284 C 
ATOM      9  H3  UNL d   1      -0.341   6.897  -5.749  0.00  0.00     0.395 HD
ENDBRANCH   1   7
TORSDOF 1
ENDMDL
