MODEL 1
REMARK minimizedAffinity 0.26366958
REMARK minimizedRMSD -1
REMARK  1 active torsions:
REMARK  status: ('A' for Active; 'I' for Inactive)
REMARK    1  A    between atoms: N_2  and  C1_3 
ROOT
ATOM      1  C1  UNL d   1      -1.908   5.961  -4.360  0.00  0.00     0.143 A 
ATOM      2  C2  UNL d   1      -3.235   5.903  -4.799  0.00  0.00    -0.057 A 
ATOM      3  C3  UNL d   1      -4.301   5.920  -3.892  0.00  0.00     0.033 A 
ATOM      4  C4  UNL d   1      -4.057   5.967  -2.523  0.00  0.00    -0.042 A 
ATOM      5  C5  UNL d   1      -2.745   6.000  -2.063  0.00  0.00     0.033 A 
ATOM      6  C6  UNL d   1      -1.685   5.989  -2.975  0.00  0.00    -0.057 A 
ENDROOT
BRANCH   1   7
ATOM      7  N   UNL d   1      -0.803   5.848  -5.207  0.00  0.00    -0.732 N 
ATOM      8  C   UNL d   1       0.541   5.999  -4.691  0.00  0.00     0.284 C 
ATOM      9  H3  UNL d   1      -0.906   5.093  -5.882  0.00  0.00     0.395 HD
ENDBRANCH   1   7
TORSDOF 1
ENDMDL
