MODEL 1
REMARK minimizedAffinity 0.00141897309
REMARK minimizedRMSD -1
REMARK  1 active torsions:
REMARK  status: ('A' for Active; 'I' for Inactive)
REMARK    1  A    between atoms: N_2  and  C1_3 
ROOT
ATOM      1  C1  UNL d   1       0.722   0.433   0.441  0.00  0.00     0.143 A 
ATOM      2  C2  UNL d   1       1.198   0.520  -0.872  0.00  0.00    -0.057 A 
ATOM      3  C3  UNL d   1       1.756   1.707  -1.365  0.00  0.00     0.033 A 
ATOM      4  C4  UNL d   1       1.820   2.839  -0.559  0.00  0.00    -0.042 A 
ATOM      5  C5  UNL d   1       1.330   2.782   0.741  0.00  0.00     0.033 A 
ATOM      6  C6  UNL d   1       0.781   1.593   1.229  0.00  0.00    -0.057 A 
ENDROOT
BRANCH   1   7
ATOM      7  N   UNL d   1       0.068  -0.688   0.957  0.00  0.00    -0.732 N 
ATOM      8  C   UNL d   1      -1.186  -0.548   1.667  0.00  0.00     0.284 C 
ATOM      9  H3  UNL d   1       0.100  -1.483   0.323  0.00  0.00     0.395 HD
ENDBRANCH   1   7
TORSDOF 1
ENDMDL
