MODEL 1
REMARK minimizedAffinity 5.67311239
REMARK minimizedRMSD -1
REMARK  1 active torsions:
REMARK  status: ('A' for Active; 'I' for Inactive)
REMARK    1  A    between atoms: N_2  and  C1_3 
ROOT
ATOM      1  C1  UNL d   1       0.128   0.441   1.006  0.00  0.00     0.143 A 
ATOM      2  C2  UNL d   1       0.066   1.081  -0.237  0.00  0.00    -0.057 A 
ATOM      3  C3  UNL d   1       0.877   2.185  -0.527  0.00  0.00     0.033 A 
ATOM      4  C4  UNL d   1       1.748   2.687   0.435  0.00  0.00    -0.042 A 
ATOM      5  C5  UNL d   1       1.809   2.083   1.685  0.00  0.00     0.033 A 
ATOM      6  C6  UNL d   1       1.000   0.977   1.967  0.00  0.00    -0.057 A 
ENDROOT
BRANCH   1   7
ATOM      7  N   UNL d   1      -0.723  -0.598   1.389  0.00  0.00    -0.732 N 
ATOM      8  C   UNL d   1      -1.934  -0.324   2.132  0.00  0.00     0.284 C 
ATOM      9  H3  UNL d   1      -0.832  -1.299   0.660  0.00  0.00     0.395 HD
ENDBRANCH   1   7
TORSDOF 1
ENDMDL
