MODEL 1
REMARK minimizedAffinity -0.323468685
REMARK minimizedRMSD -1
REMARK  1 active torsions:
REMARK  status: ('A' for Active; 'I' for Inactive)
REMARK    1  A    between atoms: N_2  and  C1_3 
ROOT
ATOM      1  C1  UNL d   1       0.615   0.318   0.201  0.00  0.00     0.143 A 
ATOM      2  C2  UNL d   1       1.067   0.983   1.345  0.00  0.00    -0.057 A 
ATOM      3  C3  UNL d   1       1.455   2.328   1.298  0.00  0.00     0.033 A 
ATOM      4  C4  UNL d   1       1.425   3.025   0.094  0.00  0.00    -0.042 A 
ATOM      5  C5  UNL d   1       1.003   2.376  -1.061  0.00  0.00     0.033 A 
ATOM      6  C6  UNL d   1       0.611   1.035  -1.006  0.00  0.00    -0.057 A 
ENDROOT
BRANCH   1   7
ATOM      7  N   UNL d   1       0.309  -1.045   0.163  0.00  0.00    -0.732 N 
ATOM      8  C   UNL d   1      -0.984  -1.523   0.604  0.00  0.00     0.284 C 
ATOM      9  H3  UNL d   1       0.654  -1.497  -0.681  0.00  0.00     0.395 HD
ENDBRANCH   1   7
TORSDOF 1
ENDMDL
