MODEL 1
REMARK minimizedAffinity 0.52672863
REMARK minimizedRMSD -1
REMARK  1 active torsions:
REMARK  status: ('A' for Active; 'I' for Inactive)
REMARK    1  A    between atoms: N_2  and  C1_3 
ROOT
ATOM      1  C1  UNL d   1      -1.682   5.919  -4.263  0.00  0.00     0.143 A 
ATOM      2  C2  UNL d   1      -1.012   5.978  -5.489  0.00  0.00    -0.057 A 
ATOM      3  C3  UNL d   1       0.387   5.999  -5.553  0.00  0.00     0.033 A 
ATOM      4  C4  UNL d   1       1.142   5.991  -4.385  0.00  0.00    -0.042 A 
ATOM      5  C5  UNL d   1       0.497   5.957  -3.154  0.00  0.00     0.033 A 
ATOM      6  C6  UNL d   1      -0.900   5.929  -3.097  0.00  0.00    -0.057 A 
ENDROOT
BRANCH   1   7
ATOM      7  N   UNL d   1      -3.070   5.995  -4.130  0.00  0.00    -0.732 N 
ATOM      8  C   UNL d   1      -3.687   5.990  -2.821  0.00  0.00     0.284 C 
ATOM      9  H3  UNL d   1      -3.488   6.653  -4.784  0.00  0.00     0.395 HD
ENDBRANCH   1   7
TORSDOF 1
ENDMDL
