MODEL 1
REMARK minimizedAffinity 5.08845425
REMARK minimizedRMSD -1
REMARK  1 active torsions:
REMARK  status: ('A' for Active; 'I' for Inactive)
REMARK    1  A    between atoms: N_2  and  C1_3 
ROOT
ATOM      1  C1  UNL d   1       0.854   0.669   0.867  0.00  0.00     0.143 A 
ATOM      2  C2  UNL d   1      -0.378   0.017   0.989  0.00  0.00    -0.057 A 
ATOM      3  C3  UNL d   1      -1.291   0.371   1.990  0.00  0.00     0.033 A 
ATOM      4  C4  UNL d   1      -0.975   1.367   2.908  0.00  0.00    -0.042 A 
ATOM      5  C5  UNL d   1       0.254   2.012   2.821  0.00  0.00     0.033 A 
ATOM      6  C6  UNL d   1       1.159   1.659   1.815  0.00  0.00    -0.057 A 
ENDROOT
BRANCH   1   7
ATOM      7  N   UNL d   1       1.844   0.297  -0.045  0.00  0.00    -0.732 N 
ATOM      8  C   UNL d   1       1.658   0.510  -1.464  0.00  0.00     0.284 C 
ATOM      9  H3  UNL d   1       2.781   0.513   0.289  0.00  0.00     0.395 HD
ENDBRANCH   1   7
TORSDOF 1
ENDMDL
