MODEL 1
REMARK minimizedAffinity 2.52009463
REMARK minimizedRMSD -1
REMARK  1 active torsions:
REMARK  status: ('A' for Active; 'I' for Inactive)
REMARK    1  A    between atoms: N_2  and  C1_3 
ROOT
ATOM      1  C1  UNL d   1       0.598   1.215   2.662  0.00  0.00     0.143 A 
ATOM      2  C2  UNL d   1      -0.328   0.387   2.019  0.00  0.00    -0.057 A 
ATOM      3  C3  UNL d   1      -0.236   0.122   0.647  0.00  0.00     0.033 A 
ATOM      4  C4  UNL d   1       0.772   0.706  -0.114  0.00  0.00    -0.042 A 
ATOM      5  C5  UNL d   1       1.689   1.552   0.499  0.00  0.00     0.033 A 
ATOM      6  C6  UNL d   1       1.595   1.808   1.871  0.00  0.00    -0.057 A 
ENDROOT
BRANCH   1   7
ATOM      7  N   UNL d   1       0.502   1.595   4.002  0.00  0.00    -0.732 N 
ATOM      8  C   UNL d   1       1.427   1.072   4.985  0.00  0.00     0.284 C 
ATOM      9  H3  UNL d   1       0.296   2.586   4.111  0.00  0.00     0.395 HD
ENDBRANCH   1   7
TORSDOF 1
ENDMDL
