MODEL 1
REMARK minimizedAffinity 1.38000429
REMARK minimizedRMSD -1
REMARK  2 active torsions:
REMARK  status: ('A' for Active; 'I' for Inactive)
REMARK    1  A    between atoms: C1_2  and  C2_3 
REMARK    2  A    between atoms: C2_3  and  C3_4 
ROOT
ATOM      1  C3  UNL d   1       1.323  -3.261   1.754  0.00  0.00    -0.075 A 
ATOM      2  C4  UNL d   1       2.064  -3.694   2.863  0.00  0.00     0.002 A 
ATOM      3  C5  UNL d   1       2.248  -5.055   3.105  0.00  0.00     0.002 A 
ATOM      4  C6  UNL d   1       1.687  -6.000   2.248  0.00  0.00    -0.004 A 
ATOM      5  C7  UNL d   1       0.935  -5.582   1.152  0.00  0.00     0.002 A 
ATOM      6  C8  UNL d   1       0.753  -4.220   0.906  0.00  0.00     0.002 A 
ENDROOT
BRANCH   1   7
ATOM      7  C2  UNL d   1       1.144  -1.789   1.470  0.00  0.00     0.056 C 
BRANCH   7   8
ATOM      8  C1  UNL d   1      -0.003  -1.138   2.250  0.00  0.00     0.007 C 
ATOM      9  C   UNL d   1      -0.664   0.010   1.500  0.00  0.00     0.009 C 
ENDBRANCH   7   8
ENDBRANCH   1   7
TORSDOF 2
ENDMDL
