MODEL 1
REMARK minimizedAffinity 14.1412516
REMARK minimizedRMSD -1
REMARK  2 active torsions:
REMARK  status: ('A' for Active; 'I' for Inactive)
REMARK    1  A    between atoms: C1_2  and  C2_3 
REMARK    2  A    between atoms: C2_3  and  C3_4 
ROOT
ATOM      1  C3  UNL d   1       1.240  -5.278   1.087  0.00  0.00    -0.075 A 
ATOM      2  C4  UNL d   1      -0.122  -5.382   1.406  0.00  0.00     0.002 A 
ATOM      3  C5  UNL d   1      -1.055  -5.722   0.426  0.00  0.00     0.002 A 
ATOM      4  C6  UNL d   1      -0.641  -5.952  -0.884  0.00  0.00    -0.004 A 
ATOM      5  C7  UNL d   1       0.707  -5.835  -1.216  0.00  0.00     0.002 A 
ATOM      6  C8  UNL d   1       1.643  -5.499  -0.237  0.00  0.00     0.002 A 
ENDROOT
BRANCH   1   7
ATOM      7  C2  UNL d   1       2.258  -4.939   2.149  0.00  0.00     0.056 C 
BRANCH   7   8
ATOM      8  C1  UNL d   1       2.037  -3.576   2.813  0.00  0.00     0.007 C 
ATOM      9  C   UNL d   1       1.960  -2.428   1.816  0.00  0.00     0.009 C 
ENDBRANCH   7   8
ENDBRANCH   1   7
TORSDOF 2
ENDMDL
