MODEL 1
REMARK minimizedAffinity 7.27179337
REMARK minimizedRMSD -1
REMARK  2 active torsions:
REMARK  status: ('A' for Active; 'I' for Inactive)
REMARK    1  A    between atoms: C1_2  and  C2_3 
REMARK    2  A    between atoms: C2_3  and  C3_4 
ROOT
ATOM      1  C3  UNL d   1      -3.973   3.215  -0.087  0.00  0.00    -0.075 A 
ATOM      2  C4  UNL d   1      -3.696   3.200   1.288  0.00  0.00     0.002 A 
ATOM      3  C5  UNL d   1      -4.568   3.808   2.192  0.00  0.00     0.002 A 
ATOM      4  C6  UNL d   1      -5.719   4.445   1.734  0.00  0.00    -0.004 A 
ATOM      5  C7  UNL d   1      -5.995   4.480   0.369  0.00  0.00     0.002 A 
ATOM      6  C8  UNL d   1      -5.127   3.869  -0.537  0.00  0.00     0.002 A 
ENDROOT
BRANCH   1   7
ATOM      7  C2  UNL d   1      -3.049   2.533  -1.068  0.00  0.00     0.056 C 
BRANCH   7   8
ATOM      8  C1  UNL d   1      -3.767   1.909  -2.270  0.00  0.00     0.007 C 
ATOM      9  C   UNL d   1      -3.301   0.493  -2.578  0.00  0.00     0.009 C 
ENDBRANCH   7   8
ENDBRANCH   1   7
TORSDOF 2
ENDMDL
