MODEL 1
REMARK minimizedAffinity 7.1167016
REMARK minimizedRMSD -1
REMARK  2 active torsions:
REMARK  status: ('A' for Active; 'I' for Inactive)
REMARK    1  A    between atoms: C1_2  and  C2_3 
REMARK    2  A    between atoms: C2_3  and  C3_4 
ROOT
ATOM      1  C3  UNL d   1       3.047  -1.494   1.494  0.00  0.00    -0.075 A 
ATOM      2  C4  UNL d   1       2.214  -0.520   0.926  0.00  0.00     0.002 A 
ATOM      3  C5  UNL d   1       0.879  -0.415   1.316  0.00  0.00     0.002 A 
ATOM      4  C6  UNL d   1       0.358  -1.288   2.269  0.00  0.00    -0.004 A 
ATOM      5  C7  UNL d   1       1.172  -2.270   2.828  0.00  0.00     0.002 A 
ATOM      6  C8  UNL d   1       2.510  -2.375   2.442  0.00  0.00     0.002 A 
ENDROOT
BRANCH   1   7
ATOM      7  C2  UNL d   1       4.501  -1.594   1.097  0.00  0.00     0.056 C 
BRANCH   7   8
ATOM      8  C1  UNL d   1       5.289  -2.653   1.875  0.00  0.00     0.007 C 
ATOM      9  C   UNL d   1       5.999  -2.092   3.101  0.00  0.00     0.009 C 
ENDBRANCH   7   8
ENDBRANCH   1   7
TORSDOF 2
ENDMDL
