MODEL 1
REMARK minimizedAffinity 10.818655
REMARK minimizedRMSD -1
REMARK  2 active torsions:
REMARK  status: ('A' for Active; 'I' for Inactive)
REMARK    1  A    between atoms: C1_2  and  C2_3 
REMARK    2  A    between atoms: C2_3  and  C3_4 
ROOT
ATOM      1  C3  UNL d   1       1.980  -1.205   1.021  0.00  0.00    -0.075 A 
ATOM      2  C4  UNL d   1       1.160  -0.485   1.902  0.00  0.00     0.002 A 
ATOM      3  C5  UNL d   1       1.502   0.811   2.289  0.00  0.00     0.002 A 
ATOM      4  C6  UNL d   1       2.671   1.398   1.810  0.00  0.00    -0.004 A 
ATOM      5  C7  UNL d   1       3.502   0.686   0.947  0.00  0.00     0.002 A 
ATOM      6  C8  UNL d   1       3.159  -0.609   0.555  0.00  0.00     0.002 A 
ENDROOT
BRANCH   1   7
ATOM      7  C2  UNL d   1       1.600  -2.597   0.575  0.00  0.00     0.056 C 
BRANCH   7   8
ATOM      8  C1  UNL d   1       1.444  -2.745  -0.943  0.00  0.00     0.007 C 
ATOM      9  C   UNL d   1       0.973  -4.130  -1.366  0.00  0.00     0.009 C 
ENDBRANCH   7   8
ENDBRANCH   1   7
TORSDOF 2
ENDMDL
