MODEL 1
REMARK minimizedAffinity 9.65554047
REMARK minimizedRMSD -1
REMARK  2 active torsions:
REMARK  status: ('A' for Active; 'I' for Inactive)
REMARK    1  A    between atoms: C1_2  and  C2_3 
REMARK    2  A    between atoms: C2_3  and  C3_4 
ROOT
ATOM      1  C3  UNL d   1       1.410  -0.101   2.938  0.00  0.00    -0.075 A 
ATOM      2  C4  UNL d   1       1.455  -0.236   4.333  0.00  0.00     0.002 A 
ATOM      3  C5  UNL d   1       0.924  -1.367   4.953  0.00  0.00     0.002 A 
ATOM      4  C6  UNL d   1       0.334  -2.372   4.188  0.00  0.00    -0.004 A 
ATOM      5  C7  UNL d   1       0.269  -2.240   2.803  0.00  0.00     0.002 A 
ATOM      6  C8  UNL d   1       0.803  -1.111   2.180  0.00  0.00     0.002 A 
ENDROOT
BRANCH   1   7
ATOM      7  C2  UNL d   1       2.009   1.108   2.259  0.00  0.00     0.056 C 
BRANCH   7   8
ATOM      8  C1  UNL d   1       3.179   0.782   1.324  0.00  0.00     0.007 C 
ATOM      9  C   UNL d   1       3.750  -0.612   1.541  0.00  0.00     0.009 C 
ENDBRANCH   7   8
ENDBRANCH   1   7
TORSDOF 2
ENDMDL
