MODEL 1
REMARK minimizedAffinity 3.69431448
REMARK minimizedRMSD -1
REMARK  1 active torsions:
REMARK  status: ('A' for Active; 'I' for Inactive)
REMARK    1  A    between atoms: N_2  and  C1_3 
ROOT
ATOM      1  C1  UNL d   1      -4.546   1.428  -2.633  0.00  0.00     0.143 A 
ATOM      2  C2  UNL d   1      -4.948   1.859  -3.902  0.00  0.00    -0.057 A 
ATOM      3  C3  UNL d   1      -4.125   1.688  -5.022  0.00  0.00     0.033 A 
ATOM      4  C4  UNL d   1      -2.869   1.107  -4.887  0.00  0.00    -0.042 A 
ATOM      5  C5  UNL d   1      -2.438   0.694  -3.631  0.00  0.00     0.033 A 
ATOM      6  C6  UNL d   1      -3.266   0.861  -2.518  0.00  0.00    -0.057 A 
ENDROOT
BRANCH   1   7
ATOM      7  N   UNL d   1      -5.276   1.659  -1.465  0.00  0.00    -0.732 N 
ATOM      8  C   UNL d   1      -5.035   0.869  -0.277  0.00  0.00     0.284 C 
ATOM      9  H3  UNL d   1      -5.417   2.650  -1.284  0.00  0.00     0.395 HD
ENDBRANCH   1   7
TORSDOF 1
ENDMDL
