MODEL 1
REMARK minimizedAffinity 8.39555359
REMARK minimizedRMSD -1
REMARK  1 active torsions:
REMARK  status: ('A' for Active; 'I' for Inactive)
REMARK    1  A    between atoms: N_2  and  C1_3 
ROOT
ATOM      1  C1  UNL d   1      -0.940   1.653  -0.238  0.00  0.00     0.143 A 
ATOM      2  C2  UNL d   1      -0.664   2.868   0.397  0.00  0.00    -0.057 A 
ATOM      3  C3  UNL d   1      -1.574   3.442   1.294  0.00  0.00     0.033 A 
ATOM      4  C4  UNL d   1      -2.793   2.823   1.548  0.00  0.00    -0.042 A 
ATOM      5  C5  UNL d   1      -3.099   1.627   0.909  0.00  0.00     0.033 A 
ATOM      6  C6  UNL d   1      -2.183   1.056   0.020  0.00  0.00    -0.057 A 
ENDROOT
BRANCH   1   7
ATOM      7  N   UNL d   1      -0.119   1.082  -1.214  0.00  0.00    -0.732 N 
ATOM      8  C   UNL d   1      -0.679   0.603  -2.460  0.00  0.00     0.284 C 
ATOM      9  H3  UNL d   1       0.764   1.577  -1.318  0.00  0.00     0.395 HD
ENDBRANCH   1   7
TORSDOF 1
ENDMDL
