MODEL 1
REMARK minimizedAffinity 10.9476881
REMARK minimizedRMSD -1
REMARK  1 active torsions:
REMARK  status: ('A' for Active; 'I' for Inactive)
REMARK    1  A    between atoms: N_2  and  C1_3 
ROOT
ATOM      1  C1  UNL d   1       1.751   0.308  -0.102  0.00  0.00     0.143 A 
ATOM      2  C2  UNL d   1       1.643   0.226   1.290  0.00  0.00    -0.057 A 
ATOM      3  C3  UNL d   1       0.466   0.602   1.950  0.00  0.00     0.033 A 
ATOM      4  C4  UNL d   1      -0.616   1.095   1.229  0.00  0.00    -0.042 A 
ATOM      5  C5  UNL d   1      -0.521   1.209  -0.154  0.00  0.00     0.033 A 
ATOM      6  C6  UNL d   1       0.654   0.826  -0.808  0.00  0.00    -0.057 A 
ENDROOT
BRANCH   1   7
ATOM      7  N   UNL d   1       2.928   0.043  -0.808  0.00  0.00    -0.732 N 
ATOM      8  C   UNL d   1       4.043   0.963  -0.752  0.00  0.00     0.284 C 
ATOM      9  H3  UNL d   1       3.195  -0.938  -0.763  0.00  0.00     0.395 HD
ENDBRANCH   1   7
TORSDOF 1
ENDMDL
