MODEL 1
REMARK minimizedAffinity 0.165437549
REMARK minimizedRMSD -1
REMARK  1 active torsions:
REMARK  status: ('A' for Active; 'I' for Inactive)
REMARK    1  A    between atoms: C1_2  and  C2_3 
ROOT
ATOM      1  C2  UNL d   1       1.819  -1.286   0.322  0.00  0.00    -0.073 A 
ATOM      2  C3  UNL d   1       0.574  -1.801  -0.057  0.00  0.00    -0.002 A 
ATOM      3  C4  UNL d   1      -0.474  -0.940  -0.384  0.00  0.00     0.004 A 
ATOM      4  C5  UNL d   1      -0.287   0.442  -0.344  0.00  0.00    -0.004 A 
ATOM      5  C6  UNL d   1       0.953   0.975   0.021  0.00  0.00    -0.075 A 
ATOM      6  C7  UNL d   1       1.170   2.459   0.072  0.00  0.00     0.076 C 
ATOM      7  C8  UNL d   1       2.000   0.104   0.352  0.00  0.00     0.001 A 
ENDROOT
BRANCH   1   8
ATOM      8  C1  UNL d   1       2.956  -2.211   0.671  0.00  0.00     0.053 C 
ATOM      9  C   UNL d   1       4.282  -1.474   0.766  0.00  0.00     0.018 C 
ENDBRANCH   1   8
TORSDOF 1
ENDMDL
