MODEL 1
REMARK minimizedAffinity 1.2452172
REMARK minimizedRMSD -1
REMARK  1 active torsions:
REMARK  status: ('A' for Active; 'I' for Inactive)
REMARK    1  A    between atoms: C1_2  and  C2_3 
ROOT
ATOM      1  C2  UNL d   1      -0.452  -0.593  -1.446  0.00  0.00    -0.073 A 
ATOM      2  C3  UNL d   1       0.834  -0.114  -1.172  0.00  0.00    -0.002 A 
ATOM      3  C4  UNL d   1       1.073   0.653  -0.031  0.00  0.00     0.004 A 
ATOM      4  C5  UNL d   1       0.032   0.942   0.851  0.00  0.00    -0.004 A 
ATOM      5  C6  UNL d   1      -1.258   0.463   0.601  0.00  0.00    -0.075 A 
ATOM      6  C7  UNL d   1      -2.389   0.768   1.539  0.00  0.00     0.076 C 
ATOM      7  C8  UNL d   1      -1.491  -0.304  -0.548  0.00  0.00     0.001 A 
ENDROOT
BRANCH   1   8
ATOM      8  C1  UNL d   1      -0.714  -1.427  -2.673  0.00  0.00     0.053 C 
ATOM      9  C   UNL d   1      -1.099  -0.573  -3.871  0.00  0.00     0.018 C 
ENDBRANCH   1   8
TORSDOF 1
ENDMDL
