MODEL 1
REMARK minimizedAffinity 4.35061121
REMARK minimizedRMSD -1
REMARK  1 active torsions:
REMARK  status: ('A' for Active; 'I' for Inactive)
REMARK    1  A    between atoms: C1_2  and  C2_3 
ROOT
ATOM      1  C2  UNL d   1       1.767  -1.479  -1.121  0.00  0.00    -0.073 A 
ATOM      2  C3  UNL d   1       0.374  -1.513  -1.256  0.00  0.00    -0.002 A 
ATOM      3  C4  UNL d   1      -0.427  -0.654  -0.503  0.00  0.00     0.004 A 
ATOM      4  C5  UNL d   1       0.154   0.250   0.386  0.00  0.00    -0.004 A 
ATOM      5  C6  UNL d   1       1.544   0.307   0.526  0.00  0.00    -0.075 A 
ATOM      6  C7  UNL d   1       2.185   1.273   1.479  0.00  0.00     0.076 C 
ATOM      7  C8  UNL d   1       2.343  -0.561  -0.232  0.00  0.00     0.001 A 
ENDROOT
BRANCH   1   8
ATOM      8  C1  UNL d   1       2.637  -2.400  -1.937  0.00  0.00     0.053 C 
ATOM      9  C   UNL d   1       3.890  -1.702  -2.441  0.00  0.00     0.018 C 
ENDBRANCH   1   8
TORSDOF 1
ENDMDL
