MODEL 1
REMARK minimizedAffinity -3.74125481
REMARK minimizedRMSD -1
REMARK  1 active torsions:
REMARK  status: ('A' for Active; 'I' for Inactive)
REMARK    1  A    between atoms: C1_2  and  C2_3 
ROOT
ATOM      1  C2  UNL d   1      -1.521   3.198   0.309  0.00  0.00    -0.073 A 
ATOM      2  C3  UNL d   1      -2.655   2.468   0.681  0.00  0.00    -0.002 A 
ATOM      3  C4  UNL d   1      -2.578   1.085   0.851  0.00  0.00     0.004 A 
ATOM      4  C5  UNL d   1      -1.368   0.420   0.657  0.00  0.00    -0.004 A 
ATOM      5  C6  UNL d   1      -0.220   1.134   0.297  0.00  0.00    -0.075 A 
ATOM      6  C7  UNL d   1       1.089   0.433   0.083  0.00  0.00     0.076 C 
ATOM      7  C8  UNL d   1      -0.306   2.522   0.126  0.00  0.00     0.001 A 
ENDROOT
BRANCH   1   8
ATOM      8  C1  UNL d   1      -1.597   4.693   0.131  0.00  0.00     0.053 C 
ATOM      9  C   UNL d   1      -2.996   5.227   0.395  0.00  0.00     0.018 C 
ENDBRANCH   1   8
TORSDOF 1
ENDMDL
