MODEL 1
REMARK minimizedAffinity -3.38756108
REMARK minimizedRMSD -1
REMARK  1 active torsions:
REMARK  status: ('A' for Active; 'I' for Inactive)
REMARK    1  A    between atoms: C1_2  and  C2_3 
ROOT
ATOM      1  C2  UNL d   1       0.275   0.157  -0.065  0.00  0.00    -0.081 A 
ATOM      2  C3  UNL d   1       1.146   0.131   1.031  0.00  0.00     0.006 A 
ATOM      3  C4  UNL d   1       0.675  -0.208   2.302  0.00  0.00     0.002 A 
ATOM      4  C5  UNL d   1      -0.672  -0.535   2.496  0.00  0.00    -0.080 A 
ATOM      5  C6  UNL d   1      -1.184  -0.930   3.849  0.00  0.00     0.076 C 
ATOM      6  C7  UNL d   1      -1.545  -0.492   1.404  0.00  0.00     0.002 A 
ATOM      7  C8  UNL d   1      -1.075  -0.152   0.134  0.00  0.00     0.006 A 
ENDROOT
BRANCH   1   8
ATOM      8  C1  UNL d   1       0.792   0.459  -1.448  0.00  0.00     0.054 C 
ATOM      9  C   UNL d   1       0.833  -0.795  -2.310  0.00  0.00     0.018 C 
ENDBRANCH   1   8
TORSDOF 1
ENDMDL
