MODEL 1
REMARK minimizedAffinity -5.3361063
REMARK minimizedRMSD -1
REMARK  1 active torsions:
REMARK  status: ('A' for Active; 'I' for Inactive)
REMARK    1  A    between atoms: C1_2  and  C2_3 
ROOT
ATOM      1  C2  UNL d   1       0.640   0.339  -1.089  0.00  0.00    -0.081 A 
ATOM      2  C3  UNL d   1       1.265   0.764   0.090  0.00  0.00     0.006 A 
ATOM      3  C4  UNL d   1       0.713   0.455   1.335  0.00  0.00     0.002 A 
ATOM      4  C5  UNL d   1      -0.467  -0.290   1.423  0.00  0.00    -0.080 A 
ATOM      5  C6  UNL d   1      -1.054  -0.654   2.755  0.00  0.00     0.076 C 
ATOM      6  C7  UNL d   1      -1.102  -0.699   0.246  0.00  0.00     0.002 A 
ATOM      7  C8  UNL d   1      -0.551  -0.390  -1.000  0.00  0.00     0.006 A 
ENDROOT
BRANCH   1   8
ATOM      8  C1  UNL d   1       1.266   0.615  -2.432  0.00  0.00     0.054 C 
ATOM      9  C   UNL d   1       1.474  -0.670  -3.220  0.00  0.00     0.018 C 
ENDBRANCH   1   8
TORSDOF 1
ENDMDL
