MODEL 1
REMARK minimizedAffinity -5.21457481
REMARK minimizedRMSD -1
REMARK  1 active torsions:
REMARK  status: ('A' for Active; 'I' for Inactive)
REMARK    1  A    between atoms: C1_2  and  C2_3 
ROOT
ATOM      1  C2  UNL d   1      -1.131  -0.182   0.958  0.00  0.00    -0.081 A 
ATOM      2  C3  UNL d   1      -1.500   0.627  -0.124  0.00  0.00     0.006 A 
ATOM      3  C4  UNL d   1      -0.678   0.721  -1.250  0.00  0.00     0.002 A 
ATOM      4  C5  UNL d   1       0.520   0.002  -1.317  0.00  0.00    -0.080 A 
ATOM      5  C6  UNL d   1       1.396   0.071  -2.532  0.00  0.00     0.076 C 
ATOM      6  C7  UNL d   1       0.897  -0.793  -0.229  0.00  0.00     0.002 A 
ATOM      7  C8  UNL d   1       0.076  -0.886   0.898  0.00  0.00     0.006 A 
ENDROOT
BRANCH   1   8
ATOM      8  C1  UNL d   1      -2.046  -0.336   2.146  0.00  0.00     0.054 C 
ATOM      9  C   UNL d   1      -1.255  -0.439   3.443  0.00  0.00     0.018 C 
ENDBRANCH   1   8
TORSDOF 1
ENDMDL
