MODEL 1
REMARK minimizedAffinity -2.84832978
REMARK minimizedRMSD -1
REMARK  1 active torsions:
REMARK  status: ('A' for Active; 'I' for Inactive)
REMARK    1  A    between atoms: C1_2  and  C2_3 
ROOT
ATOM      1  C2  UNL d   1       0.742   0.470  -1.042  0.00  0.00    -0.081 A 
ATOM      2  C3  UNL d   1       1.683   0.608  -0.014  0.00  0.00     0.006 A 
ATOM      3  C4  UNL d   1       1.305   0.439   1.320  0.00  0.00     0.002 A 
ATOM      4  C5  UNL d   1      -0.017   0.121   1.648  0.00  0.00    -0.080 A 
ATOM      5  C6  UNL d   1      -0.429  -0.094   3.074  0.00  0.00     0.076 C 
ATOM      6  C7  UNL d   1      -0.961  -0.000   0.623  0.00  0.00     0.002 A 
ATOM      7  C8  UNL d   1      -0.584   0.170  -0.711  0.00  0.00     0.006 A 
ENDROOT
BRANCH   1   8
ATOM      8  C1  UNL d   1       1.160   0.589  -2.485  0.00  0.00     0.054 C 
ATOM      9  C   UNL d   1       0.965  -0.726  -3.228  0.00  0.00     0.018 C 
ENDBRANCH   1   8
TORSDOF 1
ENDMDL
