MODEL 1
REMARK minimizedAffinity -4.81287956
REMARK minimizedRMSD -1
REMARK  1 active torsions:
REMARK  status: ('A' for Active; 'I' for Inactive)
REMARK    1  A    between atoms: C1_2  and  C2_3 
ROOT
ATOM      1  C2  UNL d   1      -2.038   0.481   1.463  0.00  0.00    -0.081 A 
ATOM      2  C3  UNL d   1      -1.584  -0.020   2.689  0.00  0.00     0.006 A 
ATOM      3  C4  UNL d   1      -0.243  -0.374   2.856  0.00  0.00     0.002 A 
ATOM      4  C5  UNL d   1       0.667  -0.225   1.804  0.00  0.00    -0.080 A 
ATOM      5  C6  UNL d   1       2.116  -0.572   1.980  0.00  0.00     0.076 C 
ATOM      6  C7  UNL d   1       0.210   0.259   0.573  0.00  0.00     0.002 A 
ATOM      7  C8  UNL d   1      -1.131   0.612   0.405  0.00  0.00     0.006 A 
ENDROOT
BRANCH   1   8
ATOM      8  C1  UNL d   1      -3.470   0.924   1.299  0.00  0.00     0.054 C 
ATOM      9  C   UNL d   1      -4.400  -0.267   1.121  0.00  0.00     0.018 C 
ENDBRANCH   1   8
TORSDOF 1
ENDMDL
