MODEL 1
REMARK minimizedAffinity -5.35966158
REMARK minimizedRMSD -1
REMARK  1 active torsions:
REMARK  status: ('A' for Active; 'I' for Inactive)
REMARK    1  A    between atoms: C1_2  and  C2_3 
ROOT
ATOM      1  C2  UNL d   1       0.287   0.182  -0.472  0.00  0.00    -0.081 A 
ATOM      2  C3  UNL d   1       1.235   0.074   0.552  0.00  0.00     0.006 A 
ATOM      3  C4  UNL d   1       0.835  -0.198   1.862  0.00  0.00     0.002 A 
ATOM      4  C5  UNL d   1      -0.518  -0.376   2.169  0.00  0.00    -0.080 A 
ATOM      5  C6  UNL d   1      -0.959  -0.699   3.565  0.00  0.00     0.076 C 
ATOM      6  C7  UNL d   1      -1.468  -0.251   1.148  0.00  0.00     0.002 A 
ATOM      7  C8  UNL d   1      -1.068   0.022  -0.162  0.00  0.00     0.006 A 
ENDROOT
BRANCH   1   8
ATOM      8  C1  UNL d   1       0.721   0.412  -1.898  0.00  0.00     0.054 C 
ATOM      9  C   UNL d   1       0.677  -0.878  -2.704  0.00  0.00     0.018 C 
ENDBRANCH   1   8
TORSDOF 1
ENDMDL
