MODEL 1
REMARK minimizedAffinity -2.11052203
REMARK minimizedRMSD -1
REMARK  1 active torsions:
REMARK  status: ('A' for Active; 'I' for Inactive)
REMARK    1  A    between atoms: C1_2  and  C2_3 
ROOT
ATOM      1  C2  UNL d   1       0.109   0.275  -0.695  0.00  0.00    -0.081 A 
ATOM      2  C3  UNL d   1       1.097   0.435   0.284  0.00  0.00     0.006 A 
ATOM      3  C4  UNL d   1       0.828   0.122   1.619  0.00  0.00     0.002 A 
ATOM      4  C5  UNL d   1      -0.429  -0.363   1.995  0.00  0.00    -0.080 A 
ATOM      5  C6  UNL d   1      -0.720  -0.732   3.419  0.00  0.00     0.076 C 
ATOM      6  C7  UNL d   1      -1.421  -0.506   1.019  0.00  0.00     0.002 A 
ATOM      7  C8  UNL d   1      -1.154  -0.193  -0.315  0.00  0.00     0.006 A 
ENDROOT
BRANCH   1   8
ATOM      8  C1  UNL d   1       0.415   0.551  -2.145  0.00  0.00     0.054 C 
ATOM      9  C   UNL d   1       1.401  -0.465  -2.705  0.00  0.00     0.018 C 
ENDBRANCH   1   8
TORSDOF 1
ENDMDL
