MODEL 1
REMARK minimizedAffinity -5.69482946
REMARK minimizedRMSD -1
REMARK  1 active torsions:
REMARK  status: ('A' for Active; 'I' for Inactive)
REMARK    1  A    between atoms: C1_2  and  C2_3 
ROOT
ATOM      1  C2  UNL d   1      -0.049   0.121  -1.342  0.00  0.00    -0.081 A 
ATOM      2  C3  UNL d   1       0.561  -0.113  -0.103  0.00  0.00     0.006 A 
ATOM      3  C4  UNL d   1      -0.134   0.125   1.085  0.00  0.00     0.002 A 
ATOM      4  C5  UNL d   1      -1.453   0.592   1.054  0.00  0.00    -0.080 A 
ATOM      5  C6  UNL d   1      -2.221   0.822   2.322  0.00  0.00     0.076 C 
ATOM      6  C7  UNL d   1      -2.057   0.841  -0.183  0.00  0.00     0.002 A 
ATOM      7  C8  UNL d   1      -1.362   0.605  -1.371  0.00  0.00     0.006 A 
ENDROOT
BRANCH   1   8
ATOM      8  C1  UNL d   1       0.675  -0.196  -2.625  0.00  0.00     0.054 C 
ATOM      9  C   UNL d   1      -0.019  -1.312  -3.392  0.00  0.00     0.018 C 
ENDBRANCH   1   8
TORSDOF 1
ENDMDL
