MODEL 1
REMARK minimizedAffinity -5.51341486
REMARK minimizedRMSD -1
REMARK  1 active torsions:
REMARK  status: ('A' for Active; 'I' for Inactive)
REMARK    1  A    between atoms: C1_2  and  C2_3 
ROOT
ATOM      1  C2  UNL d   1      -1.600  -0.005   1.757  0.00  0.00    -0.081 A 
ATOM      2  C3  UNL d   1      -0.730  -0.185   2.839  0.00  0.00     0.006 A 
ATOM      3  C4  UNL d   1       0.653  -0.190   2.644  0.00  0.00     0.002 A 
ATOM      4  C5  UNL d   1       1.189  -0.008   1.365  0.00  0.00    -0.080 A 
ATOM      5  C6  UNL d   1       2.673   0.020   1.145  0.00  0.00     0.076 C 
ATOM      6  C7  UNL d   1       0.320   0.155   0.280  0.00  0.00     0.002 A 
ATOM      7  C8  UNL d   1      -1.063   0.159   0.475  0.00  0.00     0.006 A 
ENDROOT
BRANCH   1   8
ATOM      8  C1  UNL d   1      -3.090   0.065   1.974  0.00  0.00     0.054 C 
ATOM      9  C   UNL d   1      -3.745   1.040   1.006  0.00  0.00     0.018 C 
ENDBRANCH   1   8
TORSDOF 1
ENDMDL
