MODEL 1
REMARK minimizedAffinity -0.33547309
REMARK minimizedRMSD -1
REMARK  1 active torsions:
REMARK  status: ('A' for Active; 'I' for Inactive)
REMARK    1  A    between atoms: C1_2  and  C2_3 
ROOT
ATOM      1  C2  UNL d   1       0.300   0.113  -0.563  0.00  0.00    -0.081 A 
ATOM      2  C3  UNL d   1       0.660   0.735   0.638  0.00  0.00     0.006 A 
ATOM      3  C4  UNL d   1       0.088   0.329   1.846  0.00  0.00     0.002 A 
ATOM      4  C5  UNL d   1      -0.848  -0.710   1.874  0.00  0.00    -0.080 A 
ATOM      5  C6  UNL d   1      -1.448  -1.176   3.167  0.00  0.00     0.076 C 
ATOM      6  C7  UNL d   1      -1.222  -1.320   0.672  0.00  0.00     0.002 A 
ATOM      7  C8  UNL d   1      -0.650  -0.914  -0.536  0.00  0.00     0.006 A 
ENDROOT
BRANCH   1   8
ATOM      8  C1  UNL d   1       0.963   0.504  -1.859  0.00  0.00     0.054 C 
ATOM      9  C   UNL d   1       1.269  -0.716  -2.715  0.00  0.00     0.018 C 
ENDBRANCH   1   8
TORSDOF 1
ENDMDL
