MODEL 1
REMARK minimizedAffinity -5.15491772
REMARK minimizedRMSD -1
REMARK  1 active torsions:
REMARK  status: ('A' for Active; 'I' for Inactive)
REMARK    1  A    between atoms: C1_2  and  C2_3 
ROOT
ATOM      1  C2  UNL d   1       0.006  -0.223  -0.204  0.00  0.00    -0.081 A 
ATOM      2  C3  UNL d   1      -1.380  -0.282  -0.016  0.00  0.00     0.006 A 
ATOM      3  C4  UNL d   1      -1.916  -0.378   1.271  0.00  0.00     0.002 A 
ATOM      4  C5  UNL d   1      -1.076  -0.410   2.389  0.00  0.00    -0.080 A 
ATOM      5  C6  UNL d   1      -1.640  -0.483   3.777  0.00  0.00     0.076 C 
ATOM      6  C7  UNL d   1       0.309  -0.369   2.200  0.00  0.00     0.002 A 
ATOM      7  C8  UNL d   1       0.846  -0.273   0.914  0.00  0.00     0.006 A 
ENDROOT
BRANCH   1   8
ATOM      8  C1  UNL d   1       0.585  -0.054  -1.586  0.00  0.00     0.054 C 
ATOM      9  C   UNL d   1       0.163  -1.190  -2.506  0.00  0.00     0.018 C 
ENDBRANCH   1   8
TORSDOF 1
ENDMDL
