MODEL 1
REMARK minimizedAffinity -2.8408196
REMARK minimizedRMSD -1
REMARK  0 active torsions:
REMARK  status: ('A' for Active; 'I' for Inactive)
ROOT
ATOM      1  C2' OXE d   1      -3.158   6.000  -4.902  0.00  0.00     0.078 C 
ATOM      2  C1' OXE d   1      -1.914   5.982  -2.386  0.00  0.00     0.078 C 
ATOM      3  C1  OXE d   1      -1.030   5.966  -3.608  0.00  0.00    -0.078 A 
ATOM      4  C2  OXE d   1      -1.648   5.928  -4.835  0.00  0.00    -0.078 A 
ATOM      5  C3  OXE d   1      -0.880   5.967  -5.995  0.00  0.00     0.003 A 
ATOM      6  C4  OXE d   1       0.516   5.890  -5.923  0.00  0.00    -0.002 A 
ATOM      7  C5  OXE d   1       1.165   5.888  -4.684  0.00  0.00    -0.002 A 
ATOM      8  C6  OXE d   1       0.409   5.968  -3.519  0.00  0.00     0.003 A 
ENDROOT
TORSDOF 0
ENDMDL
