MODEL 1
REMARK minimizedAffinity 8.60998917
REMARK minimizedRMSD -1
REMARK  0 active torsions:
REMARK  status: ('A' for Active; 'I' for Inactive)
ROOT
ATOM      1  C2' OXE d   1       0.301   5.988  -2.183  0.00  0.00     0.078 C 
ATOM      2  C1' OXE d   1       1.805   5.969  -4.554  0.00  0.00     0.078 C 
ATOM      3  C1  OXE d   1       0.302   5.976  -4.674  0.00  0.00    -0.078 A 
ATOM      4  C2  OXE d   1      -0.426   5.938  -3.510  0.00  0.00    -0.078 A 
ATOM      5  C3  OXE d   1      -1.816   5.999  -3.563  0.00  0.00     0.003 A 
ATOM      6  C4  OXE d   1      -2.481   5.942  -4.793  0.00  0.00    -0.002 A 
ATOM      7  C5  OXE d   1      -1.759   5.940  -5.992  0.00  0.00    -0.002 A 
ATOM      8  C6  OXE d   1      -0.370   6.000  -5.950  0.00  0.00     0.003 A 
ENDROOT
TORSDOF 0
ENDMDL
