MODEL 1
REMARK minimizedAffinity -1.99314427
REMARK minimizedRMSD -1
REMARK  0 active torsions:
REMARK  status: ('A' for Active; 'I' for Inactive)
ROOT
ATOM      1  C2' OXE d   1      -1.119   5.687  -1.550  0.00  0.00     0.078 C 
ATOM      2  C1' OXE d   1      -3.762   5.998  -2.444  0.00  0.00     0.078 C 
ATOM      3  C1  OXE d   1      -2.670   5.933  -3.483  0.00  0.00    -0.078 A 
ATOM      4  C2  OXE d   1      -1.376   5.828  -3.035  0.00  0.00    -0.078 A 
ATOM      5  C3  OXE d   1      -0.336   5.709  -3.952  0.00  0.00     0.003 A 
ATOM      6  C4  OXE d   1      -0.581   5.851  -5.323  0.00  0.00    -0.002 A 
ATOM      7  C5  OXE d   1      -1.888   5.999  -5.800  0.00  0.00    -0.002 A 
ATOM      8  C6  OXE d   1      -2.946   6.000  -4.897  0.00  0.00     0.003 A 
ENDROOT
TORSDOF 0
ENDMDL
