MODEL 1
REMARK minimizedAffinity 11.8840075
REMARK minimizedRMSD -1
REMARK  0 active torsions:
REMARK  status: ('A' for Active; 'I' for Inactive)
ROOT
ATOM      1  C2' OXE d   1      -0.938   0.984  -6.000  0.00  0.00     0.078 C 
ATOM      2  C1' OXE d   1      -1.074  -1.800  -5.670  0.00  0.00     0.078 C 
ATOM      3  C1  OXE d   1       0.027  -1.060  -4.952  0.00  0.00    -0.078 A 
ATOM      4  C2  OXE d   1       0.114   0.297  -5.156  0.00  0.00    -0.078 A 
ATOM      5  C3  OXE d   1       1.076   1.036  -4.474  0.00  0.00     0.003 A 
ATOM      6  C4  OXE d   1       2.051   0.391  -3.704  0.00  0.00    -0.002 A 
ATOM      7  C5  OXE d   1       2.005  -0.994  -3.515  0.00  0.00    -0.002 A 
ATOM      8  C6  OXE d   1       0.976  -1.727  -4.096  0.00  0.00     0.003 A 
ENDROOT
TORSDOF 0
ENDMDL
