MODEL 1
REMARK minimizedAffinity -1.76686823
REMARK minimizedRMSD -1
REMARK  0 active torsions:
REMARK  status: ('A' for Active; 'I' for Inactive)
ROOT
ATOM      1  C2' OXE d   1       1.868   1.092  -1.818  0.00  0.00     0.078 C 
ATOM      2  C1' OXE d   1       2.991   2.350   0.426  0.00  0.00     0.078 C 
ATOM      3  C1  OXE d   1       1.849   1.390   0.655  0.00  0.00    -0.078 A 
ATOM      4  C2  OXE d   1       1.276   0.815  -0.454  0.00  0.00    -0.078 A 
ATOM      5  C3  OXE d   1       0.256  -0.119  -0.295  0.00  0.00     0.003 A 
ATOM      6  C4  OXE d   1      -0.293  -0.362   0.970  0.00  0.00    -0.002 A 
ATOM      7  C5  OXE d   1       0.250   0.244   2.107  0.00  0.00    -0.002 A 
ATOM      8  C6  OXE d   1       1.347   1.088   1.972  0.00  0.00     0.003 A 
ENDROOT
TORSDOF 0
ENDMDL
