MODEL 1
REMARK minimizedAffinity -2.15215135
REMARK minimizedRMSD -1
REMARK  0 active torsions:
REMARK  status: ('A' for Active; 'I' for Inactive)
ROOT
ATOM      1  C2' OXE d   1       1.375   5.893  -3.193  0.00  0.00     0.078 C 
ATOM      2  C1' OXE d   1       1.390   5.932  -6.000  0.00  0.00     0.078 C 
ATOM      3  C1  OXE d   1       2.721   5.933  -5.289  0.00  0.00    -0.078 A 
ATOM      4  C2  OXE d   1       2.703   5.961  -3.915  0.00  0.00    -0.078 A 
ATOM      5  C3  OXE d   1       3.902   5.907  -3.209  0.00  0.00     0.003 A 
ATOM      6  C4  OXE d   1       5.126   5.980  -3.885  0.00  0.00    -0.002 A 
ATOM      7  C5  OXE d   1       5.166   5.992  -5.283  0.00  0.00    -0.002 A 
ATOM      8  C6  OXE d   1       3.976   5.926  -5.999  0.00  0.00     0.003 A 
ENDROOT
TORSDOF 0
ENDMDL
