MODEL 1
REMARK minimizedAffinity 1.31595433
REMARK minimizedRMSD -1
REMARK  0 active torsions:
REMARK  status: ('A' for Active; 'I' for Inactive)
ROOT
ATOM      1  C2' OXE d   1      -0.158   5.945  -4.867  0.00  0.00     0.078 C 
ATOM      2  C1' OXE d   1       0.075   5.974  -2.070  0.00  0.00     0.078 C 
ATOM      3  C1  OXE d   1      -1.313   5.964  -2.660  0.00  0.00    -0.078 A 
ATOM      4  C2  OXE d   1      -1.417   5.997  -4.030  0.00  0.00    -0.078 A 
ATOM      5  C3  OXE d   1      -2.673   5.934  -4.627  0.00  0.00     0.003 A 
ATOM      6  C4  OXE d   1      -3.833   5.993  -3.845  0.00  0.00    -0.002 A 
ATOM      7  C5  OXE d   1      -3.749   6.000  -2.449  0.00  0.00    -0.002 A 
ATOM      8  C6  OXE d   1      -2.500   5.943  -1.842  0.00  0.00     0.003 A 
ENDROOT
TORSDOF 0
ENDMDL
