MODEL 1
REMARK minimizedAffinity 3.50009823
REMARK minimizedRMSD -1
REMARK  0 active torsions:
REMARK  status: ('A' for Active; 'I' for Inactive)
ROOT
ATOM      1  C2' OXE d   1       5.251   3.413  -4.690  0.00  0.00     0.078 C 
ATOM      2  C1' OXE d   1       5.329   5.999  -5.779  0.00  0.00     0.078 C 
ATOM      3  C1  OXE d   1       3.981   5.339  -5.630  0.00  0.00    -0.078 A 
ATOM      4  C2  OXE d   1       3.956   4.056  -5.139  0.00  0.00    -0.078 A 
ATOM      5  C3  OXE d   1       2.735   3.421  -4.930  0.00  0.00     0.003 A 
ATOM      6  C4  OXE d   1       1.543   4.019  -5.357  0.00  0.00    -0.002 A 
ATOM      7  C5  OXE d   1       1.550   5.310  -5.896  0.00  0.00    -0.002 A 
ATOM      8  C6  OXE d   1       2.753   5.999  -5.999  0.00  0.00     0.003 A 
ENDROOT
TORSDOF 0
ENDMDL
