MODEL 1
REMARK minimizedAffinity 2.8736558
REMARK minimizedRMSD -1
REMARK  0 active torsions:
REMARK  status: ('A' for Active; 'I' for Inactive)
ROOT
ATOM      1  C2' OXE d   1      -2.142   5.885  -4.127  0.00  0.00     0.078 C 
ATOM      2  C1' OXE d   1      -0.341   5.892  -1.974  0.00  0.00     0.078 C 
ATOM      3  C1  OXE d   1       0.230   5.932  -3.369  0.00  0.00    -0.078 A 
ATOM      4  C2  OXE d   1      -0.657   5.881  -4.417  0.00  0.00    -0.078 A 
ATOM      5  C3  OXE d   1      -0.186   5.971  -5.724  0.00  0.00     0.003 A 
ATOM      6  C4  OXE d   1       1.190   5.957  -5.984  0.00  0.00    -0.002 A 
ATOM      7  C5  OXE d   1       2.111   5.969  -4.932  0.00  0.00    -0.002 A 
ATOM      8  C6  OXE d   1       1.648   5.999  -3.621  0.00  0.00     0.003 A 
ENDROOT
TORSDOF 0
ENDMDL
