MODEL 1
REMARK minimizedAffinity 0.368312329
REMARK minimizedRMSD -1
REMARK  0 active torsions:
REMARK  status: ('A' for Active; 'I' for Inactive)
ROOT
ATOM      1  C2' OXE d   1      -3.479   6.000  -2.935  0.00  0.00     0.078 C 
ATOM      2  C1' OXE d   1      -0.966   5.981  -1.683  0.00  0.00     0.078 C 
ATOM      3  C1  OXE d   1      -1.001   5.982  -3.191  0.00  0.00    -0.078 A 
ATOM      4  C2  OXE d   1      -2.235   5.944  -3.795  0.00  0.00    -0.078 A 
ATOM      5  C3  OXE d   1      -2.325   5.998  -5.183  0.00  0.00     0.003 A 
ATOM      6  C4  OXE d   1      -1.169   5.936  -5.971  0.00  0.00    -0.002 A 
ATOM      7  C5  OXE d   1       0.097   5.934  -5.376  0.00  0.00    -0.002 A 
ATOM      8  C6  OXE d   1       0.199   6.000  -3.991  0.00  0.00     0.003 A 
ENDROOT
TORSDOF 0
ENDMDL
