MODEL 1
REMARK minimizedAffinity 4.38731337
REMARK minimizedRMSD -1
REMARK  0 active torsions:
REMARK  status: ('A' for Active; 'I' for Inactive)
ROOT
ATOM      1  C2' OXE d   1      -1.254   5.951  -2.192  0.00  0.00     0.078 C 
ATOM      2  C1' OXE d   1      -2.734   5.960  -4.577  0.00  0.00     0.078 C 
ATOM      3  C1  OXE d   1      -1.229   5.957  -4.683  0.00  0.00    -0.078 A 
ATOM      4  C2  OXE d   1      -0.513   6.000  -3.511  0.00  0.00    -0.078 A 
ATOM      5  C3  OXE d   1       0.877   5.944  -3.550  0.00  0.00     0.003 A 
ATOM      6  C4  OXE d   1       1.555   5.999  -4.773  0.00  0.00    -0.002 A 
ATOM      7  C5  OXE d   1       0.845   5.996  -5.979  0.00  0.00    -0.002 A 
ATOM      8  C6  OXE d   1      -0.544   5.932  -5.952  0.00  0.00     0.003 A 
ENDROOT
TORSDOF 0
ENDMDL
