MODEL 1
REMARK minimizedAffinity 2.48469043
REMARK minimizedRMSD -1
REMARK  0 active torsions:
REMARK  status: ('A' for Active; 'I' for Inactive)
ROOT
ATOM      1  C2' OXE d   1       1.340   5.849  -4.228  0.00  0.00     0.078 C 
ATOM      2  C1' OXE d   1      -0.367   5.984  -2.004  0.00  0.00     0.078 C 
ATOM      3  C1  OXE d   1      -0.998   5.953  -3.374  0.00  0.00    -0.078 A 
ATOM      4  C2  OXE d   1      -0.153   5.934  -4.458  0.00  0.00    -0.078 A 
ATOM      5  C3  OXE d   1      -0.682   5.850  -5.742  0.00  0.00     0.003 A 
ATOM      6  C4  OXE d   1      -2.065   5.939  -5.947  0.00  0.00    -0.002 A 
ATOM      7  C5  OXE d   1      -2.941   5.999  -4.858  0.00  0.00    -0.002 A 
ATOM      8  C6  OXE d   1      -2.427   5.964  -3.567  0.00  0.00     0.003 A 
ENDROOT
TORSDOF 0
ENDMDL
