MODEL 1
REMARK minimizedAffinity -2.41702938
REMARK minimizedRMSD -1
REMARK  0 active torsions:
REMARK  status: ('A' for Active; 'I' for Inactive)
ROOT
ATOM      1  C2' OXE d   1       2.116   3.102  -3.741  0.00  0.00     0.078 C 
ATOM      2  C1' OXE d   1       1.345   5.036  -5.624  0.00  0.00     0.078 C 
ATOM      3  C1  OXE d   1       2.775   5.052  -5.144  0.00  0.00    -0.078 A 
ATOM      4  C2  OXE d   1       3.131   4.131  -4.188  0.00  0.00    -0.078 A 
ATOM      5  C3  OXE d   1       4.451   4.067  -3.750  0.00  0.00     0.003 A 
ATOM      6  C4  OXE d   1       5.382   5.029  -4.161  0.00  0.00    -0.002 A 
ATOM      7  C5  OXE d   1       5.029   6.000  -5.105  0.00  0.00    -0.002 A 
ATOM      8  C6  OXE d   1       3.745   5.999  -5.637  0.00  0.00     0.003 A 
ENDROOT
TORSDOF 0
ENDMDL
