MODEL 1
REMARK minimizedAffinity 15.7327204
REMARK minimizedRMSD -1
REMARK  0 active torsions:
REMARK  status: ('A' for Active; 'I' for Inactive)
ROOT
ATOM      1  C2' OXE d   1       0.414   5.701  -5.947  0.00  0.00     0.078 C 
ATOM      2  C1' OXE d   1      -2.379   5.948  -5.795  0.00  0.00     0.078 C 
ATOM      3  C1  OXE d   1      -1.606   5.891  -4.501  0.00  0.00    -0.078 A 
ATOM      4  C2  OXE d   1      -0.244   5.723  -4.585  0.00  0.00    -0.078 A 
ATOM      5  C3  OXE d   1       0.522   5.720  -3.423  0.00  0.00     0.003 A 
ATOM      6  C4  OXE d   1      -0.095   5.731  -2.166  0.00  0.00    -0.002 A 
ATOM      7  C5  OXE d   1      -1.484   5.862  -2.059  0.00  0.00    -0.002 A 
ATOM      8  C6  OXE d   1      -2.248   5.986  -3.214  0.00  0.00     0.003 A 
ENDROOT
TORSDOF 0
ENDMDL
