MODEL 1
REMARK minimizedAffinity 0.660606623
REMARK minimizedRMSD -1
REMARK  0 active torsions:
REMARK  status: ('A' for Active; 'I' for Inactive)
ROOT
ATOM      1  C2' OXE d   1      -3.854   5.999  -4.287  0.00  0.00     0.078 C 
ATOM      2  C1' OXE d   1      -3.048   5.999  -1.598  0.00  0.00     0.078 C 
ATOM      3  C1  OXE d   1      -1.972   5.983  -2.655  0.00  0.00    -0.078 A 
ATOM      4  C2  OXE d   1      -2.376   5.935  -3.968  0.00  0.00    -0.078 A 
ATOM      5  C3  OXE d   1      -1.425   5.974  -4.983  0.00  0.00     0.003 A 
ATOM      6  C4  OXE d   1      -0.060   5.904  -4.679  0.00  0.00    -0.002 A 
ATOM      7  C5  OXE d   1       0.372   5.912  -3.349  0.00  0.00    -0.002 A 
ATOM      8  C6  OXE d   1      -0.567   5.993  -2.328  0.00  0.00     0.003 A 
ENDROOT
TORSDOF 0
ENDMDL
