MODEL 1
REMARK minimizedAffinity -0.586348593
REMARK minimizedRMSD -1
REMARK  0 active torsions:
REMARK  status: ('A' for Active; 'I' for Inactive)
ROOT
ATOM      1  C2' OXE d   1       1.375   5.940  -4.630  0.00  0.00     0.078 C 
ATOM      2  C1' OXE d   1      -0.102   5.997  -2.244  0.00  0.00     0.078 C 
ATOM      3  C1  OXE d   1      -0.866   5.974  -3.544  0.00  0.00    -0.078 A 
ATOM      4  C2  OXE d   1      -0.135   5.993  -4.707  0.00  0.00    -0.078 A 
ATOM      5  C3  OXE d   1      -0.789   5.918  -5.934  0.00  0.00     0.003 A 
ATOM      6  C4  OXE d   1      -2.187   5.978  -5.996  0.00  0.00    -0.002 A 
ATOM      7  C5  OXE d   1      -2.950   5.999  -4.824  0.00  0.00    -0.002 A 
ATOM      8  C6  OXE d   1      -2.307   5.954  -3.592  0.00  0.00     0.003 A 
ENDROOT
TORSDOF 0
ENDMDL
