MODEL 1
REMARK minimizedAffinity 9.41277981
REMARK minimizedRMSD -1
REMARK  0 active torsions:
REMARK  status: ('A' for Active; 'I' for Inactive)
ROOT
ATOM      1  C2' OXE d   1      -1.800   5.998  -4.788  0.00  0.00     0.078 C 
ATOM      2  C1' OXE d   1      -4.594   6.000  -4.516  0.00  0.00     0.078 C 
ATOM      3  C1  OXE d   1      -3.764   5.986  -3.257  0.00  0.00    -0.078 A 
ATOM      4  C2  OXE d   1      -2.398   5.938  -3.400  0.00  0.00    -0.078 A 
ATOM      5  C3  OXE d   1      -1.585   5.979  -2.271  0.00  0.00     0.003 A 
ATOM      6  C4  OXE d   1      -2.147   5.912  -0.990  0.00  0.00    -0.002 A 
ATOM      7  C5  OXE d   1      -3.536   5.920  -0.823  0.00  0.00    -0.002 A 
ATOM      8  C6  OXE d   1      -4.357   5.999  -1.942  0.00  0.00     0.003 A 
ENDROOT
TORSDOF 0
ENDMDL
