MODEL 1
REMARK minimizedAffinity 5.48768091
REMARK minimizedRMSD -1
REMARK  0 active torsions:
REMARK  status: ('A' for Active; 'I' for Inactive)
ROOT
ATOM      1  C2' OXE d   1       2.026   2.792  -3.738  0.00  0.00     0.078 C 
ATOM      2  C1' OXE d   1       3.341   3.809  -6.000  0.00  0.00     0.078 C 
ATOM      3  C1  OXE d   1       4.058   3.886  -4.675  0.00  0.00    -0.078 A 
ATOM      4  C2  OXE d   1       3.388   3.429  -3.566  0.00  0.00    -0.078 A 
ATOM      5  C3  OXE d   1       4.025   3.426  -2.328  0.00  0.00     0.003 A 
ATOM      6  C4  OXE d   1       5.280   4.027  -2.176  0.00  0.00    -0.002 A 
ATOM      7  C5  OXE d   1       5.964   4.535  -3.286  0.00  0.00    -0.002 A 
ATOM      8  C6  OXE d   1       5.386   4.434  -4.546  0.00  0.00     0.003 A 
ENDROOT
TORSDOF 0
ENDMDL
