MODEL 1
REMARK minimizedAffinity 2.10882497
REMARK minimizedRMSD -1
REMARK  0 active torsions:
REMARK  status: ('A' for Active; 'I' for Inactive)
ROOT
ATOM      1  C2' OXE d   1      -0.739   5.962  -5.906  0.00  0.00     0.078 C 
ATOM      2  C1' OXE d   1       1.446   5.999  -4.144  0.00  0.00     0.078 C 
ATOM      3  C1  OXE d   1       0.062   5.971  -3.546  0.00  0.00    -0.078 A 
ATOM      4  C2  OXE d   1      -1.002   6.000  -4.416  0.00  0.00    -0.078 A 
ATOM      5  C3  OXE d   1      -2.300   5.920  -3.919  0.00  0.00     0.003 A 
ATOM      6  C4  OXE d   1      -2.536   5.965  -2.540  0.00  0.00    -0.002 A 
ATOM      7  C5  OXE d   1      -1.467   5.975  -1.637  0.00  0.00    -0.002 A 
ATOM      8  C6  OXE d   1      -0.165   5.935  -2.123  0.00  0.00     0.003 A 
ENDROOT
TORSDOF 0
ENDMDL
