MODEL 1
REMARK minimizedAffinity 0.950600266
REMARK minimizedRMSD -1
REMARK  0 active torsions:
REMARK  status: ('A' for Active; 'I' for Inactive)
ROOT
ATOM      1  C2' OXE d   1       1.191  -1.837  -3.304  0.00  0.00     0.078 C 
ATOM      2  C1' OXE d   1       0.059  -1.240  -0.805  0.00  0.00     0.078 C 
ATOM      3  C1  OXE d   1      -0.878  -1.551  -1.946  0.00  0.00    -0.078 A 
ATOM      4  C2  OXE d   1      -0.316  -1.796  -3.176  0.00  0.00    -0.078 A 
ATOM      5  C3  OXE d   1      -1.132  -2.142  -4.249  0.00  0.00     0.003 A 
ATOM      6  C4  OXE d   1      -2.526  -2.092  -4.125  0.00  0.00    -0.002 A 
ATOM      7  C5  OXE d   1      -3.119  -1.806  -2.891  0.00  0.00    -0.002 A 
ATOM      8  C6  OXE d   1      -2.310  -1.575  -1.783  0.00  0.00     0.003 A 
ENDROOT
TORSDOF 0
ENDMDL
