MODEL 1
REMARK minimizedAffinity 4.43912125
REMARK minimizedRMSD -1
REMARK  0 active torsions:
REMARK  status: ('A' for Active; 'I' for Inactive)
ROOT
ATOM      1  C1  BNZ d   1      -5.808   3.633   3.460  0.00  0.00     0.000 A 
ATOM      2  C2  BNZ d   1      -5.598   4.818   2.807  0.00  0.00     0.000 A 
ATOM      3  C3  BNZ d   1      -5.563   5.999   3.494  0.00  0.00     0.000 A 
ATOM      4  C4  BNZ d   1      -5.777   5.999   4.825  0.00  0.00     0.000 A 
ATOM      5  C5  BNZ d   1      -5.999   4.813   5.497  0.00  0.00     0.000 A 
ATOM      6  C6  BNZ d   1      -5.995   3.622   4.808  0.00  0.00     0.000 A 
ENDROOT
TORSDOF 0
ENDMDL
