MODEL 1
REMARK minimizedAffinity 2.64355636
REMARK minimizedRMSD -1
REMARK  0 active torsions:
REMARK  status: ('A' for Active; 'I' for Inactive)
ROOT
ATOM      1  C1  BNZ d   1       2.198  -1.357   0.120  0.00  0.00     0.000 A 
ATOM      2  C2  BNZ d   1       3.030  -0.956   1.130  0.00  0.00     0.000 A 
ATOM      3  C3  BNZ d   1       3.688   0.240   1.063  0.00  0.00     0.000 A 
ATOM      4  C4  BNZ d   1       3.544   1.014  -0.032  0.00  0.00     0.000 A 
ATOM      5  C5  BNZ d   1       2.716   0.620  -1.064  0.00  0.00     0.000 A 
ATOM      6  C6  BNZ d   1       2.025  -0.566  -0.975  0.00  0.00     0.000 A 
ENDROOT
TORSDOF 0
ENDMDL
