MODEL 1
REMARK minimizedAffinity 2.35365033
REMARK minimizedRMSD -1
REMARK  0 active torsions:
REMARK  status: ('A' for Active; 'I' for Inactive)
ROOT
ATOM      1  C1  BNZ d   1       3.551  -0.205   1.121  0.00  0.00     0.000 A 
ATOM      2  C2  BNZ d   1       2.699  -1.216   0.764  0.00  0.00     0.000 A 
ATOM      3  C3  BNZ d   1       1.886  -1.094  -0.328  0.00  0.00     0.000 A 
ATOM      4  C4  BNZ d   1       1.897   0.053  -1.038  0.00  0.00     0.000 A 
ATOM      5  C5  BNZ d   1       2.743   1.085  -0.685  0.00  0.00     0.000 A 
ATOM      6  C6  BNZ d   1       3.588   0.944   0.392  0.00  0.00     0.000 A 
ENDROOT
TORSDOF 0
ENDMDL
