MODEL 1
REMARK minimizedAffinity 0.122973055
REMARK minimizedRMSD -1
REMARK  0 active torsions:
REMARK  status: ('A' for Active; 'I' for Inactive)
ROOT
ATOM      1  C1  BNZ d   1       3.372  -0.610   1.037  0.00  0.00     0.000 A 
ATOM      2  C2  BNZ d   1       3.322   0.566   0.338  0.00  0.00     0.000 A 
ATOM      3  C3  BNZ d   1       2.764   0.616  -0.909  0.00  0.00     0.000 A 
ATOM      4  C4  BNZ d   1       2.293  -0.517  -1.470  0.00  0.00     0.000 A 
ATOM      5  C5  BNZ d   1       2.345  -1.712  -0.782  0.00  0.00     0.000 A 
ATOM      6  C6  BNZ d   1       2.873  -1.751   0.489  0.00  0.00     0.000 A 
ENDROOT
TORSDOF 0
ENDMDL
