MODEL 1
REMARK minimizedAffinity 2.38532567
REMARK minimizedRMSD -1
REMARK  0 active torsions:
REMARK  status: ('A' for Active; 'I' for Inactive)
ROOT
ATOM      1  C1  BNZ d   1      -3.878   5.999   4.696  0.00  0.00     0.000 A 
ATOM      2  C2  BNZ d   1      -3.919   5.201   3.583  0.00  0.00     0.000 A 
ATOM      3  C3  BNZ d   1      -4.990   4.387   3.344  0.00  0.00     0.000 A 
ATOM      4  C4  BNZ d   1      -6.000   4.340   4.238  0.00  0.00     0.000 A 
ATOM      5  C5  BNZ d   1      -5.969   5.131   5.369  0.00  0.00     0.000 A 
ATOM      6  C6  BNZ d   1      -4.907   5.979   5.586  0.00  0.00     0.000 A 
ENDROOT
TORSDOF 0
ENDMDL
