MODEL 1
REMARK minimizedAffinity -1.10183012
REMARK minimizedRMSD -1
REMARK  0 active torsions:
REMARK  status: ('A' for Active; 'I' for Inactive)
ROOT
ATOM      1  C1  BNZ d   1      -5.202   4.512   3.788  0.00  0.00     0.000 A 
ATOM      2  C2  BNZ d   1      -5.989   4.510   4.909  0.00  0.00     0.000 A 
ATOM      3  C3  BNZ d   1      -5.660   5.268   5.998  0.00  0.00     0.000 A 
ATOM      4  C4  BNZ d   1      -4.524   5.994   5.980  0.00  0.00     0.000 A 
ATOM      5  C5  BNZ d   1      -3.714   6.000   4.862  0.00  0.00     0.000 A 
ATOM      6  C6  BNZ d   1      -4.069   5.266   3.753  0.00  0.00     0.000 A 
ENDROOT
TORSDOF 0
ENDMDL
