MODEL 1
REMARK minimizedAffinity 6.88342047
REMARK minimizedRMSD -1
REMARK  0 active torsions:
REMARK  status: ('A' for Active; 'I' for Inactive)
ROOT
ATOM      1  C1  BNZ d   1       2.785  -0.162   0.865  0.00  0.00     0.000 A 
ATOM      2  C2  BNZ d   1       3.751   0.807   0.805  0.00  0.00     0.000 A 
ATOM      3  C3  BNZ d   1       3.974   1.503  -0.350  0.00  0.00     0.000 A 
ATOM      4  C4  BNZ d   1       3.259   1.203  -1.453  0.00  0.00     0.000 A 
ATOM      5  C5  BNZ d   1       2.288   0.222  -1.411  0.00  0.00     0.000 A 
ATOM      6  C6  BNZ d   1       2.040  -0.450  -0.237  0.00  0.00     0.000 A 
ENDROOT
TORSDOF 0
ENDMDL
