MODEL 1
REMARK minimizedAffinity -0.480320364
REMARK minimizedRMSD -1
REMARK  0 active torsions:
REMARK  status: ('A' for Active; 'I' for Inactive)
ROOT
ATOM      1  C   UNL d   1      -5.640   0.671  -4.140  0.00  0.00     0.172 C 
ATOM      2  N   UNL d   1      -5.199   1.824  -4.890  0.00  0.00    -0.070 N 
ATOM      3  C1  UNL d   1      -6.000   2.845  -5.328  0.00  0.00    -0.004 A 
ATOM      4  C2  UNL d   1      -5.203   3.747  -6.000  0.00  0.00    -0.047 A 
ATOM      5  C3  UNL d   1      -3.878   3.251  -5.965  0.00  0.00    -0.047 A 
ATOM      6  C4  UNL d   1      -3.905   2.059  -5.272  0.00  0.00    -0.004 A 
ENDROOT
TORSDOF 0
ENDMDL
