MODEL 1
REMARK minimizedAffinity 2.30502081
REMARK minimizedRMSD -1
REMARK  0 active torsions:
REMARK  status: ('A' for Active; 'I' for Inactive)
ROOT
ATOM      1  C   UNL d   1      -5.655  -0.356  -3.653  0.00  0.00     0.172 C 
ATOM      2  N   UNL d   1      -5.500   0.874  -4.393  0.00  0.00    -0.070 N 
ATOM      3  C1  UNL d   1      -6.000   1.121  -5.643  0.00  0.00    -0.004 A 
ATOM      4  C2  UNL d   1      -5.637   2.403  -5.997  0.00  0.00    -0.047 A 
ATOM      5  C3  UNL d   1      -4.893   2.944  -4.922  0.00  0.00    -0.047 A 
ATOM      6  C4  UNL d   1      -4.823   1.976  -3.942  0.00  0.00    -0.004 A 
ENDROOT
TORSDOF 0
ENDMDL
