MODEL 1
REMARK minimizedAffinity 2.48206306
REMARK minimizedRMSD -1
REMARK  0 active torsions:
REMARK  status: ('A' for Active; 'I' for Inactive)
ROOT
ATOM      1  C   UNL d   1       0.439   1.467  -1.922  0.00  0.00     0.172 C 
ATOM      2  N   UNL d   1       0.230   1.511  -0.494  0.00  0.00    -0.070 N 
ATOM      3  C1  UNL d   1       0.165   2.647   0.269  0.00  0.00    -0.004 A 
ATOM      4  C2  UNL d   1      -0.044   2.265   1.576  0.00  0.00    -0.047 A 
ATOM      5  C3  UNL d   1      -0.106   0.852   1.600  0.00  0.00    -0.047 A 
ATOM      6  C4  UNL d   1       0.067   0.411   0.305  0.00  0.00    -0.004 A 
ENDROOT
TORSDOF 0
ENDMDL
