MODEL 1
REMARK minimizedAffinity 2.0124805
REMARK minimizedRMSD -1
REMARK  0 active torsions:
REMARK  status: ('A' for Active; 'I' for Inactive)
ROOT
ATOM      1  C   UNL d   1      -6.000   4.153  -6.000  0.00  0.00     0.172 C 
ATOM      2  N   UNL d   1      -5.619   2.865  -5.470  0.00  0.00    -0.070 N 
ATOM      3  C1  UNL d   1      -4.830   2.655  -4.371  0.00  0.00    -0.004 A 
ATOM      4  C2  UNL d   1      -4.704   1.294  -4.195  0.00  0.00    -0.047 A 
ATOM      5  C3  UNL d   1      -5.443   0.664  -5.225  0.00  0.00    -0.047 A 
ATOM      6  C4  UNL d   1      -5.999   1.660  -6.000  0.00  0.00    -0.004 A 
ENDROOT
TORSDOF 0
ENDMDL
