MODEL 1
REMARK minimizedAffinity 3.78296018
REMARK minimizedRMSD -1
REMARK  0 active torsions:
REMARK  status: ('A' for Active; 'I' for Inactive)
ROOT
ATOM      1  C   UNL d   1      -2.330   3.800  -4.452  0.00  0.00     0.172 C 
ATOM      2  N   UNL d   1      -3.571   3.174  -4.844  0.00  0.00    -0.070 N 
ATOM      3  C1  UNL d   1      -4.261   3.425  -6.000  0.00  0.00    -0.004 A 
ATOM      4  C2  UNL d   1      -5.387   2.630  -6.000  0.00  0.00    -0.047 A 
ATOM      5  C3  UNL d   1      -5.373   1.876  -4.802  0.00  0.00    -0.047 A 
ATOM      6  C4  UNL d   1      -4.238   2.233  -4.105  0.00  0.00    -0.004 A 
ENDROOT
TORSDOF 0
ENDMDL
