MODEL 1
REMARK minimizedAffinity -0.296526998
REMARK minimizedRMSD -1
REMARK  0 active torsions:
REMARK  status: ('A' for Active; 'I' for Inactive)
ROOT
ATOM      1  C   UNL d   1      -5.448   3.163  -5.515  0.00  0.00     0.172 C 
ATOM      2  N   UNL d   1      -4.119   3.116  -4.952  0.00  0.00    -0.070 N 
ATOM      3  C1  UNL d   1      -3.632   2.130  -4.136  0.00  0.00    -0.004 A 
ATOM      4  C2  UNL d   1      -2.331   2.451  -3.817  0.00  0.00    -0.047 A 
ATOM      5  C3  UNL d   1      -2.025   3.672  -4.462  0.00  0.00    -0.047 A 
ATOM      6  C4  UNL d   1      -3.150   4.062  -5.158  0.00  0.00    -0.004 A 
ENDROOT
TORSDOF 0
ENDMDL
