MODEL 1
REMARK minimizedAffinity -2.36851215
REMARK minimizedRMSD -1
REMARK  0 active torsions:
REMARK  status: ('A' for Active; 'I' for Inactive)
ROOT
ATOM      1  C   UNL d   1      -3.700   4.056  -5.922  0.00  0.00     0.172 C 
ATOM      2  N   UNL d   1      -4.511   2.948  -5.477  0.00  0.00    -0.070 N 
ATOM      3  C1  UNL d   1      -5.444   2.993  -4.476  0.00  0.00    -0.004 A 
ATOM      4  C2  UNL d   1      -5.998   1.737  -4.358  0.00  0.00    -0.047 A 
ATOM      5  C3  UNL d   1      -5.376   0.907  -5.321  0.00  0.00    -0.047 A 
ATOM      6  C4  UNL d   1      -4.459   1.683  -6.000  0.00  0.00    -0.004 A 
ENDROOT
TORSDOF 0
ENDMDL
