MODEL 1
REMARK minimizedAffinity 2.65575266
REMARK minimizedRMSD -1
REMARK  0 active torsions:
REMARK  status: ('A' for Active; 'I' for Inactive)
ROOT
ATOM      1  C   UNL d   1       0.780   0.781  -2.719  0.00  0.00     0.172 C 
ATOM      2  N   UNL d   1       0.488   0.894  -1.309  0.00  0.00    -0.070 N 
ATOM      3  C1  UNL d   1       0.162   2.050  -0.652  0.00  0.00    -0.004 A 
ATOM      4  C2  UNL d   1      -0.041   1.738   0.675  0.00  0.00    -0.047 A 
ATOM      5  C3  UNL d   1       0.172   0.347   0.820  0.00  0.00    -0.047 A 
ATOM      6  C4  UNL d   1       0.498  -0.151  -0.424  0.00  0.00    -0.004 A 
ENDROOT
TORSDOF 0
ENDMDL
