MODEL 1
REMARK minimizedAffinity 0.0081302803
REMARK minimizedRMSD -1
REMARK  0 active torsions:
REMARK  status: ('A' for Active; 'I' for Inactive)
ROOT
ATOM      1  C   UNL d   1       0.886   3.413   2.390  0.00  0.00     0.172 C 
ATOM      2  N   UNL d   1       0.304   2.490   1.444  0.00  0.00    -0.070 N 
ATOM      3  C1  UNL d   1      -0.583   2.816   0.453  0.00  0.00    -0.004 A 
ATOM      4  C2  UNL d   1      -0.897   1.661  -0.229  0.00  0.00    -0.047 A 
ATOM      5  C3  UNL d   1      -0.175   0.603   0.373  0.00  0.00    -0.047 A 
ATOM      6  C4  UNL d   1       0.561   1.145   1.406  0.00  0.00    -0.004 A 
ENDROOT
TORSDOF 0
ENDMDL
