MODEL 1
REMARK minimizedAffinity -1.02774322
REMARK minimizedRMSD -1
REMARK  0 active torsions:
REMARK  status: ('A' for Active; 'I' for Inactive)
ROOT
ATOM      1  C   UNL d   1      -2.380   3.750  -4.876  0.00  0.00     0.172 C 
ATOM      2  N   UNL d   1      -3.755   3.379  -5.114  0.00  0.00    -0.070 N 
ATOM      3  C1  UNL d   1      -4.424   2.355  -4.498  0.00  0.00    -0.004 A 
ATOM      4  C2  UNL d   1      -5.708   2.329  -4.997  0.00  0.00    -0.047 A 
ATOM      5  C3  UNL d   1      -5.815   3.373  -5.947  0.00  0.00    -0.047 A 
ATOM      6  C4  UNL d   1      -4.591   4.007  -5.999  0.00  0.00    -0.004 A 
ENDROOT
TORSDOF 0
ENDMDL
