MODEL 1
REMARK minimizedAffinity 0.965779066
REMARK minimizedRMSD -1
REMARK  0 active torsions:
REMARK  status: ('A' for Active; 'I' for Inactive)
ROOT
ATOM      1  C   UNL d   1      -5.017   0.018  -4.513  0.00  0.00     0.172 C 
ATOM      2  N   UNL d   1      -5.268   1.392  -4.881  0.00  0.00    -0.070 N 
ATOM      3  C1  UNL d   1      -4.846   2.494  -4.186  0.00  0.00    -0.004 A 
ATOM      4  C2  UNL d   1      -5.287   3.612  -4.860  0.00  0.00    -0.047 A 
ATOM      5  C3  UNL d   1      -5.998   3.166  -6.000  0.00  0.00    -0.047 A 
ATOM      6  C4  UNL d   1      -5.971   1.788  -5.988  0.00  0.00    -0.004 A 
ENDROOT
TORSDOF 0
ENDMDL
