MODEL 1
REMARK minimizedAffinity 2.28714967
REMARK minimizedRMSD -1
REMARK  0 active torsions:
REMARK  status: ('A' for Active; 'I' for Inactive)
ROOT
ATOM      1  C   UNL d   1      -5.651   4.345  -5.999  0.00  0.00     0.172 C 
ATOM      2  N   UNL d   1      -5.497   3.017  -5.451  0.00  0.00    -0.070 N 
ATOM      3  C1  UNL d   1      -6.000   1.866  -5.996  0.00  0.00    -0.004 A 
ATOM      4  C2  UNL d   1      -5.637   0.818  -5.177  0.00  0.00    -0.047 A 
ATOM      5  C3  UNL d   1      -4.891   1.359  -4.103  0.00  0.00    -0.047 A 
ATOM      6  C4  UNL d   1      -4.820   2.723  -4.298  0.00  0.00    -0.004 A 
ENDROOT
TORSDOF 0
ENDMDL
