MODEL 1
REMARK minimizedAffinity 1.08286524
REMARK minimizedRMSD -1
REMARK  0 active torsions:
REMARK  status: ('A' for Active; 'I' for Inactive)
ROOT
ATOM      1  C   UNL d   1      -5.957   5.080  -5.999  0.00  0.00     0.172 C 
ATOM      2  N   UNL d   1      -5.512   3.801  -5.497  0.00  0.00    -0.070 N 
ATOM      3  C1  UNL d   1      -4.546   3.610  -4.545  0.00  0.00    -0.004 A 
ATOM      4  C2  UNL d   1      -4.415   2.253  -4.344  0.00  0.00    -0.047 A 
ATOM      5  C3  UNL d   1      -5.334   1.606  -5.205  0.00  0.00    -0.047 A 
ATOM      6  C4  UNL d   1      -6.000   2.588  -5.907  0.00  0.00    -0.004 A 
ENDROOT
TORSDOF 0
ENDMDL
