MODEL 1
REMARK minimizedAffinity 4.41752768
REMARK minimizedRMSD -1
REMARK  0 active torsions:
REMARK  status: ('A' for Active; 'I' for Inactive)
ROOT
ATOM      1  C   UNL d   1       1.136   3.536  -1.852  0.00  0.00     0.077 C 
ATOM      2  C1  UNL d   1       1.189   2.323  -0.972  0.00  0.00    -0.074 A 
ATOM      3  C2  UNL d   1       1.203   2.446   0.421  0.00  0.00    -0.005 A 
ATOM      4  C3  UNL d   1       1.242   1.308   1.227  0.00  0.00     0.006 A 
ATOM      5  C4  UNL d   1       1.268   0.038   0.649  0.00  0.00    -0.005 A 
ATOM      6  C5  UNL d   1       1.253  -0.104  -0.742  0.00  0.00    -0.074 A 
ATOM      7  C6  UNL d   1       1.271  -1.462  -1.379  0.00  0.00     0.077 C 
ATOM      8  C7  UNL d   1       1.207   1.044  -1.545  0.00  0.00    -0.001 A 
ENDROOT
TORSDOF 0
ENDMDL
