MODEL 1
REMARK minimizedAffinity 5.31287289
REMARK minimizedRMSD -1
REMARK  0 active torsions:
REMARK  status: ('A' for Active; 'I' for Inactive)
ROOT
ATOM      1  C   UNL d   1       0.879   3.514   1.559  0.00  0.00     0.077 C 
ATOM      2  C1  UNL d   1       1.027   2.748   0.278  0.00  0.00    -0.074 A 
ATOM      3  C2  UNL d   1       0.666   3.318  -0.947  0.00  0.00    -0.005 A 
ATOM      4  C3  UNL d   1       0.819   2.596  -2.130  0.00  0.00     0.006 A 
ATOM      5  C4  UNL d   1       1.333   1.299  -2.102  0.00  0.00    -0.005 A 
ATOM      6  C5  UNL d   1       1.700   0.713  -0.886  0.00  0.00    -0.074 A 
ATOM      7  C6  UNL d   1       2.264  -0.676  -0.838  0.00  0.00     0.077 C 
ATOM      8  C7  UNL d   1       1.550   1.447   0.298  0.00  0.00    -0.001 A 
ENDROOT
TORSDOF 0
ENDMDL
