MODEL 1
REMARK minimizedAffinity -2.43482828
REMARK minimizedRMSD -1
REMARK  0 active torsions:
REMARK  status: ('A' for Active; 'I' for Inactive)
ROOT
ATOM      1  C   UNL d   1       1.666  -1.349  -1.422  0.00  0.00     0.077 C 
ATOM      2  C1  UNL d   1       1.360  -0.004  -0.832  0.00  0.00    -0.074 A 
ATOM      3  C2  UNL d   1       1.049   0.132   0.525  0.00  0.00    -0.005 A 
ATOM      4  C3  UNL d   1       0.776   1.390   1.061  0.00  0.00     0.006 A 
ATOM      5  C4  UNL d   1       0.812   2.523   0.248  0.00  0.00    -0.005 A 
ATOM      6  C5  UNL d   1       1.123   2.407  -1.111  0.00  0.00    -0.074 A 
ATOM      7  C6  UNL d   1       1.175   3.616  -1.997  0.00  0.00     0.077 C 
ATOM      8  C7  UNL d   1       1.402   1.140  -1.641  0.00  0.00    -0.001 A 
ENDROOT
TORSDOF 0
ENDMDL
