MODEL 1
REMARK minimizedAffinity -0.341486096
REMARK minimizedRMSD -1
REMARK  0 active torsions:
REMARK  status: ('A' for Active; 'I' for Inactive)
ROOT
ATOM      1  C   UNL d   1       0.793  -2.467  -1.474  0.00  0.00     0.077 C 
ATOM      2  C1  UNL d   1       0.971  -1.089  -0.908  0.00  0.00    -0.074 A 
ATOM      3  C2  UNL d   1       1.366  -0.904   0.421  0.00  0.00    -0.005 A 
ATOM      4  C3  UNL d   1       1.536   0.383   0.931  0.00  0.00     0.006 A 
ATOM      5  C4  UNL d   1       1.313   1.496   0.119  0.00  0.00    -0.005 A 
ATOM      6  C5  UNL d   1       0.919   1.330  -1.212  0.00  0.00    -0.074 A 
ATOM      7  C6  UNL d   1       0.685   2.515  -2.101  0.00  0.00     0.077 C 
ATOM      8  C7  UNL d   1       0.757   0.034  -1.719  0.00  0.00    -0.001 A 
ENDROOT
TORSDOF 0
ENDMDL
