MODEL 1
REMARK minimizedAffinity -2.14826679
REMARK minimizedRMSD -1
REMARK  0 active torsions:
REMARK  status: ('A' for Active; 'I' for Inactive)
ROOT
ATOM      1  C   UNL d   1       1.741   4.820  -1.091  0.00  0.00     0.077 C 
ATOM      2  C1  UNL d   1       1.359   3.370  -1.057  0.00  0.00    -0.074 A 
ATOM      3  C2  UNL d   1       0.997   2.694  -2.227  0.00  0.00    -0.005 A 
ATOM      4  C3  UNL d   1       0.654   1.343  -2.181  0.00  0.00     0.006 A 
ATOM      5  C4  UNL d   1       0.668   0.655  -0.967  0.00  0.00    -0.005 A 
ATOM      6  C5  UNL d   1       1.027   1.314   0.213  0.00  0.00    -0.074 A 
ATOM      7  C6  UNL d   1       1.057   0.587   1.524  0.00  0.00     0.077 C 
ATOM      8  C7  UNL d   1       1.378   2.670   0.157  0.00  0.00    -0.001 A 
ENDROOT
TORSDOF 0
ENDMDL
