MODEL 1
REMARK minimizedAffinity -4.39600134
REMARK minimizedRMSD -1
REMARK  0 active torsions:
REMARK  status: ('A' for Active; 'I' for Inactive)
ROOT
ATOM      1  C   UNL d   1       0.749   3.528  -1.966  0.00  0.00     0.077 C 
ATOM      2  C1  UNL d   1       0.822   2.301  -1.106  0.00  0.00    -0.074 A 
ATOM      3  C2  UNL d   1       0.586   2.373   0.270  0.00  0.00    -0.005 A 
ATOM      4  C3  UNL d   1       0.647   1.222   1.055  0.00  0.00     0.006 A 
ATOM      5  C4  UNL d   1       0.945  -0.011   0.473  0.00  0.00    -0.005 A 
ATOM      6  C5  UNL d   1       1.183  -0.102  -0.902  0.00  0.00    -0.074 A 
ATOM      7  C6  UNL d   1       1.494  -1.421  -1.546  0.00  0.00     0.077 C 
ATOM      8  C7  UNL d   1       1.112   1.058  -1.685  0.00  0.00    -0.001 A 
ENDROOT
TORSDOF 0
ENDMDL
