MODEL 1
REMARK minimizedAffinity -4.09659529
REMARK minimizedRMSD -1
REMARK  0 active torsions:
REMARK  status: ('A' for Active; 'I' for Inactive)
ROOT
ATOM      1  C   UNL d   1       1.246  -1.427  -0.811  0.00  0.00     0.077 C 
ATOM      2  C1  UNL d   1       1.147  -0.000  -0.361  0.00  0.00    -0.074 A 
ATOM      3  C2  UNL d   1       1.142   0.326   0.999  0.00  0.00    -0.005 A 
ATOM      4  C3  UNL d   1       1.059   1.658   1.403  0.00  0.00     0.006 A 
ATOM      5  C4  UNL d   1       0.982   2.677   0.452  0.00  0.00    -0.005 A 
ATOM      6  C5  UNL d   1       0.987   2.370  -0.912  0.00  0.00    -0.074 A 
ATOM      7  C6  UNL d   1       0.914   3.454  -1.947  0.00  0.00     0.077 C 
ATOM      8  C7  UNL d   1       1.077   1.029  -1.310  0.00  0.00    -0.001 A 
ENDROOT
TORSDOF 0
ENDMDL
