MODEL 1
REMARK minimizedAffinity -2.3610661
REMARK minimizedRMSD -1
REMARK  0 active torsions:
REMARK  status: ('A' for Active; 'I' for Inactive)
ROOT
ATOM      1  C   UNL d   1      -3.963   1.541   2.039  0.00  0.00     0.077 C 
ATOM      2  C1  UNL d   1      -3.120   1.674   3.272  0.00  0.00    -0.074 A 
ATOM      3  C2  UNL d   1      -2.286   0.631   3.689  0.00  0.00    -0.005 A 
ATOM      4  C3  UNL d   1      -1.500   0.772   4.832  0.00  0.00     0.006 A 
ATOM      5  C4  UNL d   1      -1.540   1.956   5.569  0.00  0.00    -0.005 A 
ATOM      6  C5  UNL d   1      -2.366   3.010   5.168  0.00  0.00    -0.074 A 
ATOM      7  C6  UNL d   1      -2.413   4.293   5.943  0.00  0.00     0.077 C 
ATOM      8  C7  UNL d   1      -3.148   2.863   4.014  0.00  0.00    -0.001 A 
ENDROOT
TORSDOF 0
ENDMDL
