MODEL 1
REMARK minimizedAffinity -2.5845921
REMARK minimizedRMSD -1
REMARK  0 active torsions:
REMARK  status: ('A' for Active; 'I' for Inactive)
ROOT
ATOM      1  C   UNL d   1       1.788   2.767   2.280  0.00  0.00     0.077 C 
ATOM      2  C1  UNL d   1       1.580   1.811   1.143  0.00  0.00    -0.074 A 
ATOM      3  C2  UNL d   1       0.643   2.080   0.141  0.00  0.00    -0.005 A 
ATOM      4  C3  UNL d   1       0.468   1.186  -0.916  0.00  0.00     0.006 A 
ATOM      5  C4  UNL d   1       1.227   0.017  -0.981  0.00  0.00    -0.005 A 
ATOM      6  C5  UNL d   1       2.170  -0.268   0.012  0.00  0.00    -0.074 A 
ATOM      7  C6  UNL d   1       3.001  -1.515  -0.048  0.00  0.00     0.077 C 
ATOM      8  C7  UNL d   1       2.345   0.639   1.067  0.00  0.00    -0.001 A 
ENDROOT
TORSDOF 0
ENDMDL
