MODEL 1
REMARK minimizedAffinity 0.631608963
REMARK minimizedRMSD -1
REMARK  0 active torsions:
REMARK  status: ('A' for Active; 'I' for Inactive)
ROOT
ATOM      1  C   UNL d   1       0.756   3.092  -2.258  0.00  0.00     0.077 C 
ATOM      2  C1  UNL d   1       0.978   1.951  -1.310  0.00  0.00    -0.074 A 
ATOM      3  C2  UNL d   1       1.014   0.631  -1.769  0.00  0.00    -0.005 A 
ATOM      4  C3  UNL d   1       1.231  -0.419  -0.876  0.00  0.00     0.006 A 
ATOM      5  C4  UNL d   1       1.415  -0.159   0.483  0.00  0.00    -0.005 A 
ATOM      6  C5  UNL d   1       1.384   1.155   0.960  0.00  0.00    -0.074 A 
ATOM      7  C6  UNL d   1       1.590   1.453   2.415  0.00  0.00     0.077 C 
ATOM      8  C7  UNL d   1       1.172   2.205   0.056  0.00  0.00    -0.001 A 
ENDROOT
TORSDOF 0
ENDMDL
