MODEL 1
REMARK minimizedAffinity -2.94013262
REMARK minimizedRMSD -1
REMARK  0 active torsions:
REMARK  status: ('A' for Active; 'I' for Inactive)
ROOT
ATOM      1  C   UNL d   1       0.667   3.076   0.817  0.00  0.00     0.077 C 
ATOM      2  C1  UNL d   1       1.116   1.854   0.073  0.00  0.00    -0.074 A 
ATOM      3  C2  UNL d   1       1.831   0.840   0.719  0.00  0.00    -0.005 A 
ATOM      4  C3  UNL d   1       2.233  -0.295   0.016  0.00  0.00     0.006 A 
ATOM      5  C4  UNL d   1       1.926  -0.428  -1.338  0.00  0.00    -0.005 A 
ATOM      6  C5  UNL d   1       1.211   0.574  -2.002  0.00  0.00    -0.074 A 
ATOM      7  C6  UNL d   1       0.864   0.443  -3.455  0.00  0.00     0.077 C 
ATOM      8  C7  UNL d   1       0.804   1.709  -1.286  0.00  0.00    -0.001 A 
ENDROOT
TORSDOF 0
ENDMDL
