MODEL 1
REMARK minimizedAffinity -0.0129502853
REMARK minimizedRMSD -1
REMARK  0 active torsions:
REMARK  status: ('A' for Active; 'I' for Inactive)
ROOT
ATOM      1  C   UNL d   1       0.822   3.369   1.565  0.00  0.00     0.077 C 
ATOM      2  C1  UNL d   1       1.027   2.447   0.400  0.00  0.00    -0.074 A 
ATOM      3  C2  UNL d   1       1.362   2.947  -0.862  0.00  0.00    -0.005 A 
ATOM      4  C3  UNL d   1       1.558   2.076  -1.934  0.00  0.00     0.006 A 
ATOM      5  C4  UNL d   1       1.422   0.699  -1.754  0.00  0.00    -0.005 A 
ATOM      6  C5  UNL d   1       1.088   0.180  -0.499  0.00  0.00    -0.074 A 
ATOM      7  C6  UNL d   1       0.947  -1.298  -0.287  0.00  0.00     0.077 C 
ATOM      8  C7  UNL d   1       0.899   1.061   0.575  0.00  0.00    -0.001 A 
ENDROOT
TORSDOF 0
ENDMDL
