MODEL 1
REMARK minimizedAffinity -4.84538841
REMARK minimizedRMSD -1
REMARK  0 active torsions:
REMARK  status: ('A' for Active; 'I' for Inactive)
ROOT
ATOM      1  C   UNL d   1       0.693   4.020  -1.421  0.00  0.00     0.077 C 
ATOM      2  C1  UNL d   1       0.724   2.648  -0.815  0.00  0.00    -0.074 A 
ATOM      3  C2  UNL d   1       0.567   2.468   0.563  0.00  0.00    -0.005 A 
ATOM      4  C3  UNL d   1       0.589   1.185   1.112  0.00  0.00     0.006 A 
ATOM      5  C4  UNL d   1       0.768   0.073   0.289  0.00  0.00    -0.005 A 
ATOM      6  C5  UNL d   1       0.926   0.233  -1.091  0.00  0.00    -0.074 A 
ATOM      7  C6  UNL d   1       1.110  -0.953  -1.990  0.00  0.00     0.077 C 
ATOM      8  C7  UNL d   1       0.896   1.525  -1.635  0.00  0.00    -0.001 A 
ENDROOT
TORSDOF 0
ENDMDL
