MODEL 1
REMARK minimizedAffinity -3.952806
REMARK minimizedRMSD -1
REMARK  0 active torsions:
REMARK  status: ('A' for Active; 'I' for Inactive)
ROOT
ATOM      1  C   UNL d   1       1.128  -0.438  -2.124  0.00  0.00     0.077 C 
ATOM      2  C1  UNL d   1       1.078   0.671  -1.115  0.00  0.00    -0.074 A 
ATOM      3  C2  UNL d   1       0.825   0.404   0.234  0.00  0.00    -0.005 A 
ATOM      4  C3  UNL d   1       0.791   1.444   1.163  0.00  0.00     0.006 A 
ATOM      5  C4  UNL d   1       1.010   2.760   0.752  0.00  0.00    -0.005 A 
ATOM      6  C5  UNL d   1       1.266   3.046  -0.593  0.00  0.00    -0.074 A 
ATOM      7  C6  UNL d   1       1.513   4.453  -1.049  0.00  0.00     0.077 C 
ATOM      8  C7  UNL d   1       1.305   1.994  -1.518  0.00  0.00    -0.001 A 
ENDROOT
TORSDOF 0
ENDMDL
