MODEL 1
REMARK minimizedAffinity 5.12842941
REMARK minimizedRMSD -1
REMARK  0 active torsions:
REMARK  status: ('A' for Active; 'I' for Inactive)
ROOT
ATOM      1  C   UNL d   1       1.277   3.365  -2.279  0.00  0.00     0.077 C 
ATOM      2  C1  UNL d   1       1.156   2.233  -1.302  0.00  0.00    -0.074 A 
ATOM      3  C2  UNL d   1       1.355   2.441   0.067  0.00  0.00    -0.005 A 
ATOM      4  C3  UNL d   1       1.230   1.381   0.965  0.00  0.00     0.006 A 
ATOM      5  C4  UNL d   1       0.906   0.104   0.504  0.00  0.00    -0.005 A 
ATOM      6  C5  UNL d   1       0.702  -0.122  -0.861  0.00  0.00    -0.074 A 
ATOM      7  C6  UNL d   1       0.343  -1.486  -1.372  0.00  0.00     0.077 C 
ATOM      8  C7  UNL d   1       0.823   0.950  -1.756  0.00  0.00    -0.001 A 
ENDROOT
TORSDOF 0
ENDMDL
