MODEL 1
REMARK minimizedAffinity -1.90310049
REMARK minimizedRMSD -1
REMARK  0 active torsions:
REMARK  status: ('A' for Active; 'I' for Inactive)
ROOT
ATOM      1  C   UNL d   1       0.764   1.464  -1.387  0.00  0.00     0.077 C 
ATOM      2  C1  UNL d   1       1.018   0.053  -0.948  0.00  0.00    -0.074 A 
ATOM      3  C2  UNL d   1       2.003  -0.239   0.002  0.00  0.00    -0.005 A 
ATOM      4  C3  UNL d   1       2.221  -1.555   0.407  0.00  0.00     0.006 A 
ATOM      5  C4  UNL d   1       1.459  -2.592  -0.133  0.00  0.00    -0.005 A 
ATOM      6  C5  UNL d   1       0.470  -2.320  -1.083  0.00  0.00    -0.074 A 
ATOM      7  C6  UNL d   1      -0.365  -3.421  -1.666  0.00  0.00     0.077 C 
ATOM      8  C7  UNL d   1       0.251  -0.994  -1.480  0.00  0.00    -0.001 A 
ENDROOT
TORSDOF 0
ENDMDL
