MODEL 1
REMARK minimizedAffinity 2.3259778
REMARK minimizedRMSD -1
REMARK  0 active torsions:
REMARK  status: ('A' for Active; 'I' for Inactive)
ROOT
ATOM      1  C   UNL d   1       0.419   3.879   0.831  0.00  0.00     0.077 C 
ATOM      2  C1  UNL d   1       0.706   2.738  -0.099  0.00  0.00    -0.074 A 
ATOM      3  C2  UNL d   1       1.081   2.969  -1.426  0.00  0.00    -0.005 A 
ATOM      4  C3  UNL d   1       1.354   1.897  -2.277  0.00  0.00     0.006 A 
ATOM      5  C4  UNL d   1       1.255   0.586  -1.809  0.00  0.00    -0.005 A 
ATOM      6  C5  UNL d   1       0.882   0.336  -0.485  0.00  0.00    -0.074 A 
ATOM      7  C6  UNL d   1       0.780  -1.067   0.037  0.00  0.00     0.077 C 
ATOM      8  C7  UNL d   1       0.616   1.418   0.366  0.00  0.00    -0.001 A 
ENDROOT
TORSDOF 0
ENDMDL
