MODEL 1
REMARK minimizedAffinity -3.29568958
REMARK minimizedRMSD -1
REMARK  0 active torsions:
REMARK  status: ('A' for Active; 'I' for Inactive)
ROOT
ATOM      1  C2' OXE d   1      -1.343   0.593   0.358  0.00  0.00     0.078 C 
ATOM      2  C1' OXE d   1       0.624   1.983  -1.084  0.00  0.00     0.078 C 
ATOM      3  C1  OXE d   1       0.876   0.529  -0.772  0.00  0.00    -0.078 A 
ATOM      4  C2  OXE d   1      -0.070  -0.131  -0.026  0.00  0.00    -0.078 A 
ATOM      5  C3  OXE d   1       0.087  -1.487   0.243  0.00  0.00     0.003 A 
ATOM      6  C4  OXE d   1       1.272  -2.147  -0.107  0.00  0.00    -0.002 A 
ATOM      7  C5  OXE d   1       2.266  -1.482  -0.833  0.00  0.00    -0.002 A 
ATOM      8  C6  OXE d   1       2.066  -0.159  -1.209  0.00  0.00     0.003 A 
ENDROOT
TORSDOF 0
ENDMDL
