MODEL 1
REMARK minimizedAffinity -5.45619345
REMARK minimizedRMSD -1
REMARK  0 active torsions:
REMARK  status: ('A' for Active; 'I' for Inactive)
ROOT
ATOM      1  C2' OXE d   1       0.444  -1.326  -0.221  0.00  0.00     0.078 C 
ATOM      2  C1' OXE d   1      -0.596   1.254  -0.597  0.00  0.00     0.078 C 
ATOM      3  C1  OXE d   1       0.651   0.880  -1.359  0.00  0.00    -0.078 A 
ATOM      4  C2  OXE d   1       1.179  -0.368  -1.134  0.00  0.00    -0.078 A 
ATOM      5  C3  OXE d   1       2.296  -0.784  -1.852  0.00  0.00     0.003 A 
ATOM      6  C4  OXE d   1       2.976   0.111  -2.687  0.00  0.00    -0.002 A 
ATOM      7  C5  OXE d   1       2.477   1.401  -2.900  0.00  0.00    -0.002 A 
ATOM      8  C6  OXE d   1       1.295   1.786  -2.278  0.00  0.00     0.003 A 
ENDROOT
TORSDOF 0
ENDMDL
