MODEL 1
REMARK minimizedAffinity -4.77924776
REMARK minimizedRMSD -1
REMARK  0 active torsions:
REMARK  status: ('A' for Active; 'I' for Inactive)
ROOT
ATOM      1  C2' OXE d   1       3.258  -0.403  -1.484  0.00  0.00     0.078 C 
ATOM      2  C1' OXE d   1       1.961   1.950  -2.298  0.00  0.00     0.078 C 
ATOM      3  C1  OXE d   1       1.257   1.070  -1.296  0.00  0.00    -0.078 A 
ATOM      4  C2  OXE d   1       1.878  -0.103  -0.939  0.00  0.00    -0.078 A 
ATOM      5  C3  OXE d   1       1.298  -0.925   0.023  0.00  0.00     0.003 A 
ATOM      6  C4  OXE d   1       0.017  -0.646   0.515  0.00  0.00    -0.002 A 
ATOM      7  C5  OXE d   1      -0.650   0.524   0.134  0.00  0.00    -0.002 A 
ATOM      8  C6  OXE d   1      -0.027   1.411  -0.736  0.00  0.00     0.003 A 
ENDROOT
TORSDOF 0
ENDMDL
