MODEL 1
REMARK minimizedAffinity -2.29033661
REMARK minimizedRMSD -1
REMARK  0 active torsions:
REMARK  status: ('A' for Active; 'I' for Inactive)
ROOT
ATOM      1  C2' OXE d   1       0.334  -0.684   0.129  0.00  0.00     0.078 C 
ATOM      2  C1' OXE d   1      -0.360   1.755  -1.074  0.00  0.00     0.078 C 
ATOM      3  C1  OXE d   1       0.793   0.983  -1.664  0.00  0.00    -0.078 A 
ATOM      4  C2  OXE d   1       1.156  -0.186  -1.040  0.00  0.00    -0.078 A 
ATOM      5  C3  OXE d   1       2.178  -0.965  -1.576  0.00  0.00     0.003 A 
ATOM      6  C4  OXE d   1       2.940  -0.493  -2.651  0.00  0.00    -0.002 A 
ATOM      7  C5  OXE d   1       2.613   0.715  -3.277  0.00  0.00    -0.002 A 
ATOM      8  C6  OXE d   1       1.518   1.443  -2.823  0.00  0.00     0.003 A 
ENDROOT
TORSDOF 0
ENDMDL
