MODEL 1
REMARK minimizedAffinity -4.36052036
REMARK minimizedRMSD -1
REMARK  0 active torsions:
REMARK  status: ('A' for Active; 'I' for Inactive)
ROOT
ATOM      1  C2' OXE d   1       0.468   2.275  -1.606  0.00  0.00     0.078 C 
ATOM      2  C1' OXE d   1      -0.898   0.461   0.045  0.00  0.00     0.078 C 
ATOM      3  C1  OXE d   1       0.370  -0.011  -0.621  0.00  0.00    -0.078 A 
ATOM      4  C2  OXE d   1       1.007   0.868  -1.464  0.00  0.00    -0.078 A 
ATOM      5  C3  OXE d   1       2.210   0.502  -2.060  0.00  0.00     0.003 A 
ATOM      6  C4  OXE d   1       2.697  -0.805  -1.931  0.00  0.00    -0.002 A 
ATOM      7  C5  OXE d   1       2.043  -1.728  -1.109  0.00  0.00    -0.002 A 
ATOM      8  C6  OXE d   1       0.904  -1.335  -0.414  0.00  0.00     0.003 A 
ENDROOT
TORSDOF 0
ENDMDL
