MODEL 1
REMARK minimizedAffinity -3.30750728
REMARK minimizedRMSD -1
REMARK  0 active torsions:
REMARK  status: ('A' for Active; 'I' for Inactive)
ROOT
ATOM      1  C2' OXE d   1      -2.145   0.366   1.640  0.00  0.00     0.078 C 
ATOM      2  C1' OXE d   1      -2.096   1.740  -0.807  0.00  0.00     0.078 C 
ATOM      3  C1  OXE d   1      -0.861   0.971  -0.408  0.00  0.00    -0.078 A 
ATOM      4  C2  OXE d   1      -0.877   0.340   0.813  0.00  0.00    -0.078 A 
ATOM      5  C3  OXE d   1       0.214  -0.429   1.206  0.00  0.00     0.003 A 
ATOM      6  C4  OXE d   1       1.386  -0.439   0.440  0.00  0.00    -0.002 A 
ATOM      7  C5  OXE d   1       1.438   0.230  -0.788  0.00  0.00    -0.002 A 
ATOM      8  C6  OXE d   1       0.310   0.903  -1.245  0.00  0.00     0.003 A 
ENDROOT
TORSDOF 0
ENDMDL
