MODEL 1
REMARK minimizedAffinity -6.26283455
REMARK minimizedRMSD -1
REMARK  0 active torsions:
REMARK  status: ('A' for Active; 'I' for Inactive)
ROOT
ATOM      1  C2' OXE d   1      -0.239   2.404  -1.481  0.00  0.00     0.078 C 
ATOM      2  C1' OXE d   1      -0.666   0.444   0.483  0.00  0.00     0.078 C 
ATOM      3  C1  OXE d   1       0.502   0.259  -0.453  0.00  0.00    -0.078 A 
ATOM      4  C2  OXE d   1       0.675   1.199  -1.441  0.00  0.00    -0.078 A 
ATOM      5  C3  OXE d   1       1.769   1.105  -2.297  0.00  0.00     0.003 A 
ATOM      6  C4  OXE d   1       2.604  -0.018  -2.260  0.00  0.00    -0.002 A 
ATOM      7  C5  OXE d   1       2.422  -1.007  -1.287  0.00  0.00    -0.002 A 
ATOM      8  C6  OXE d   1       1.403  -0.862  -0.352  0.00  0.00     0.003 A 
ENDROOT
TORSDOF 0
ENDMDL
