MODEL 1
REMARK minimizedAffinity -5.3952322
REMARK minimizedRMSD -1
REMARK  0 active torsions:
REMARK  status: ('A' for Active; 'I' for Inactive)
ROOT
ATOM      1  C2' OXE d   1       3.145  -0.207  -1.336  0.00  0.00     0.078 C 
ATOM      2  C1' OXE d   1       1.653   1.749  -2.689  0.00  0.00     0.078 C 
ATOM      3  C1  OXE d   1       0.981   1.008  -1.560  0.00  0.00    -0.078 A 
ATOM      4  C2  OXE d   1       1.703   0.020  -0.935  0.00  0.00    -0.078 A 
ATOM      5  C3  OXE d   1       1.150  -0.657   0.149  0.00  0.00     0.003 A 
ATOM      6  C4  OXE d   1      -0.187  -0.448   0.508  0.00  0.00    -0.002 A 
ATOM      7  C5  OXE d   1      -0.952   0.525  -0.143  0.00  0.00    -0.002 A 
ATOM      8  C6  OXE d   1      -0.371   1.290  -1.148  0.00  0.00     0.003 A 
ENDROOT
TORSDOF 0
ENDMDL
