MODEL 1
REMARK minimizedAffinity -2.39876008
REMARK minimizedRMSD -1
REMARK  0 active torsions:
REMARK  status: ('A' for Active; 'I' for Inactive)
ROOT
ATOM      1  C2' OXE d   1       2.459  -1.539  -0.824  0.00  0.00     0.078 C 
ATOM      2  C1' OXE d   1       0.646  -2.979   0.763  0.00  0.00     0.078 C 
ATOM      3  C1  OXE d   1       0.245  -1.596   0.315  0.00  0.00    -0.078 A 
ATOM      4  C2  OXE d   1       1.157  -0.880  -0.422  0.00  0.00    -0.078 A 
ATOM      5  C3  OXE d   1       0.816   0.379  -0.908  0.00  0.00     0.003 A 
ATOM      6  C4  OXE d   1      -0.387   0.984  -0.523  0.00  0.00    -0.002 A 
ATOM      7  C5  OXE d   1      -1.313   0.289   0.260  0.00  0.00    -0.002 A 
ATOM      8  C6  OXE d   1      -1.032  -1.016   0.651  0.00  0.00     0.003 A 
ENDROOT
TORSDOF 0
ENDMDL
