MODEL 1
REMARK minimizedAffinity -2.90559411
REMARK minimizedRMSD -1
REMARK  0 active torsions:
REMARK  status: ('A' for Active; 'I' for Inactive)
ROOT
ATOM      1  C2' OXE d   1      -0.345  -2.180  -0.019  0.00  0.00     0.078 C 
ATOM      2  C1' OXE d   1      -0.668   0.517   0.690  0.00  0.00     0.078 C 
ATOM      3  C1  OXE d   1       0.644   0.104   0.072  0.00  0.00    -0.078 A 
ATOM      4  C2  OXE d   1       0.811  -1.226  -0.229  0.00  0.00    -0.078 A 
ATOM      5  C3  OXE d   1       1.981  -1.651  -0.851  0.00  0.00     0.003 A 
ATOM      6  C4  OXE d   1       3.050  -0.765  -1.033  0.00  0.00    -0.002 A 
ATOM      7  C5  OXE d   1       2.915   0.587  -0.697  0.00  0.00    -0.002 A 
ATOM      8  C6  OXE d   1       1.707   1.045  -0.184  0.00  0.00     0.003 A 
ENDROOT
TORSDOF 0
ENDMDL
