MODEL 1
REMARK minimizedAffinity -4.26839638
REMARK minimizedRMSD -1
REMARK  0 active torsions:
REMARK  status: ('A' for Active; 'I' for Inactive)
ROOT
ATOM      1  C2' OXE d   1      -1.084   1.621  -0.853  0.00  0.00     0.078 C 
ATOM      2  C1' OXE d   1       1.168   1.910  -2.505  0.00  0.00     0.078 C 
ATOM      3  C1  OXE d   1       1.097   0.691  -1.620  0.00  0.00    -0.078 A 
ATOM      4  C2  OXE d   1       0.014   0.581  -0.781  0.00  0.00    -0.078 A 
ATOM      5  C3  OXE d   1      -0.128  -0.551   0.017  0.00  0.00     0.003 A 
ATOM      6  C4  OXE d   1       0.896  -1.503   0.085  0.00  0.00    -0.002 A 
ATOM      7  C5  OXE d   1       2.026  -1.390  -0.731  0.00  0.00    -0.002 A 
ATOM      8  C6  OXE d   1       2.122  -0.324  -1.619  0.00  0.00     0.003 A 
ENDROOT
TORSDOF 0
ENDMDL
