MODEL 1
REMARK minimizedAffinity -4.33991957
REMARK minimizedRMSD -1
REMARK  0 active torsions:
REMARK  status: ('A' for Active; 'I' for Inactive)
ROOT
ATOM      1  C2' OXE d   1       0.782  -2.020   0.694  0.00  0.00     0.078 C 
ATOM      2  C1' OXE d   1      -0.874   0.232   0.436  0.00  0.00     0.078 C 
ATOM      3  C1  OXE d   1       0.336   0.143  -0.460  0.00  0.00    -0.078 A 
ATOM      4  C2  OXE d   1       1.166  -0.940  -0.294  0.00  0.00    -0.078 A 
ATOM      5  C3  OXE d   1       2.267  -1.099  -1.131  0.00  0.00     0.003 A 
ATOM      6  C4  OXE d   1       2.622  -0.091  -2.035  0.00  0.00    -0.002 A 
ATOM      7  C5  OXE d   1       1.812   1.039  -2.192  0.00  0.00    -0.002 A 
ATOM      8  C6  OXE d   1       0.645   1.150  -1.444  0.00  0.00     0.003 A 
ENDROOT
TORSDOF 0
ENDMDL
