MODEL 1
REMARK minimizedAffinity -6.88759565
REMARK minimizedRMSD -1
REMARK  0 active torsions:
REMARK  status: ('A' for Active; 'I' for Inactive)
ROOT
ATOM      1  C2' OXE d   1       0.402  -1.992   0.264  0.00  0.00     0.078 C 
ATOM      2  C1' OXE d   1      -0.794   0.512  -0.156  0.00  0.00     0.078 C 
ATOM      3  C1  OXE d   1       0.583   0.286  -0.728  0.00  0.00    -0.078 A 
ATOM      4  C2  OXE d   1       1.180  -0.927  -0.478  0.00  0.00    -0.078 A 
ATOM      5  C3  OXE d   1       2.426  -1.208  -1.030  0.00  0.00     0.003 A 
ATOM      6  C4  OXE d   1       3.143  -0.213  -1.706  0.00  0.00    -0.002 A 
ATOM      7  C5  OXE d   1       2.570   1.042  -1.938  0.00  0.00    -0.002 A 
ATOM      8  C6  OXE d   1       1.276   1.292  -1.493  0.00  0.00     0.003 A 
ENDROOT
TORSDOF 0
ENDMDL
