MODEL 1
REMARK minimizedAffinity -2.64362121
REMARK minimizedRMSD -1
REMARK  0 active torsions:
REMARK  status: ('A' for Active; 'I' for Inactive)
ROOT
ATOM      1  C2' OXE d   1       2.920  -0.782  -0.792  0.00  0.00     0.078 C 
ATOM      2  C1' OXE d   1       1.339  -2.969  -0.018  0.00  0.00     0.078 C 
ATOM      3  C1  OXE d   1       0.703  -1.601  -0.005  0.00  0.00    -0.078 A 
ATOM      4  C2  OXE d   1       1.498  -0.531  -0.340  0.00  0.00    -0.078 A 
ATOM      5  C3  OXE d   1       0.946   0.746  -0.398  0.00  0.00     0.003 A 
ATOM      6  C4  OXE d   1      -0.368   0.970   0.031  0.00  0.00    -0.002 A 
ATOM      7  C5  OXE d   1      -1.182  -0.101   0.414  0.00  0.00    -0.002 A 
ATOM      8  C6  OXE d   1      -0.676  -1.395   0.361  0.00  0.00     0.003 A 
ENDROOT
TORSDOF 0
ENDMDL
