MODEL 1
REMARK minimizedAffinity -4.77445126
REMARK minimizedRMSD -1
REMARK  0 active torsions:
REMARK  status: ('A' for Active; 'I' for Inactive)
ROOT
ATOM      1  C2' OXE d   1      -0.717   0.751   0.088  0.00  0.00     0.078 C 
ATOM      2  C1' OXE d   1       0.568   2.292  -1.875  0.00  0.00     0.078 C 
ATOM      3  C1  OXE d   1       1.178   0.960  -1.516  0.00  0.00    -0.078 A 
ATOM      4  C2  OXE d   1       0.569   0.234  -0.521  0.00  0.00    -0.078 A 
ATOM      5  C3  OXE d   1       1.059  -1.026  -0.189  0.00  0.00     0.003 A 
ATOM      6  C4  OXE d   1       2.254  -1.492  -0.750  0.00  0.00    -0.002 A 
ATOM      7  C5  OXE d   1       2.912  -0.750  -1.736  0.00  0.00    -0.002 A 
ATOM      8  C6  OXE d   1       2.366   0.456  -2.160  0.00  0.00     0.003 A 
ENDROOT
TORSDOF 0
ENDMDL
