MODEL 1
REMARK minimizedAffinity -5.92999458
REMARK minimizedRMSD -1
REMARK  0 active torsions:
REMARK  status: ('A' for Active; 'I' for Inactive)
ROOT
ATOM      1  C2' OXE d   1       0.698   2.498  -1.450  0.00  0.00     0.078 C 
ATOM      2  C1' OXE d   1      -0.715   0.556   0.005  0.00  0.00     0.078 C 
ATOM      3  C1  OXE d   1       0.520   0.116  -0.741  0.00  0.00    -0.078 A 
ATOM      4  C2  OXE d   1       1.178   1.063  -1.488  0.00  0.00    -0.078 A 
ATOM      5  C3  OXE d   1       2.354   0.722  -2.152  0.00  0.00     0.003 A 
ATOM      6  C4  OXE d   1       2.785  -0.609  -2.191  0.00  0.00    -0.002 A 
ATOM      7  C5  OXE d   1       2.107  -1.597  -1.469  0.00  0.00    -0.002 A 
ATOM      8  C6  OXE d   1       0.999  -1.244  -0.707  0.00  0.00     0.003 A 
ENDROOT
TORSDOF 0
ENDMDL
