MODEL 1
REMARK minimizedAffinity 15.0774393
REMARK minimizedRMSD -1
REMARK  1 active torsions:
REMARK  status: ('A' for Active; 'I' for Inactive)
REMARK    1  A    between atoms: N_2  and  C1_3 
ROOT
ATOM      1  C1  UNL d   1      -0.686   1.832  -0.800  0.00  0.00     0.143 A 
ATOM      2  C2  UNL d   1      -0.436   2.186   0.531  0.00  0.00    -0.057 A 
ATOM      3  C3  UNL d   1      -0.272   3.525   0.907  0.00  0.00     0.033 A 
ATOM      4  C4  UNL d   1      -0.325   4.534  -0.049  0.00  0.00    -0.042 A 
ATOM      5  C5  UNL d   1      -0.547   4.203  -1.381  0.00  0.00     0.033 A 
ATOM      6  C6  UNL d   1      -0.717   2.865  -1.750  0.00  0.00    -0.057 A 
ENDROOT
BRANCH   1   7
ATOM      7  N   UNL d   1      -0.760   0.512  -1.252  0.00  0.00    -0.732 N 
ATOM      8  C   UNL d   1       0.442  -0.222  -1.583  0.00  0.00     0.284 C 
ATOM      9  H3  UNL d   1      -1.455  -0.033  -0.747  0.00  0.00     0.395 HD
ENDBRANCH   1   7
TORSDOF 1
ENDMDL
