MODEL 1
REMARK minimizedAffinity 5.11949778
REMARK minimizedRMSD -1
REMARK  1 active torsions:
REMARK  status: ('A' for Active; 'I' for Inactive)
REMARK    1  A    between atoms: N_2  and  C1_3 
ROOT
ATOM      1  C1  UNL d   1      -1.277   0.437  -1.436  0.00  0.00     0.143 A 
ATOM      2  C2  UNL d   1      -2.056  -0.670  -1.792  0.00  0.00    -0.057 A 
ATOM      3  C3  UNL d   1      -1.466  -1.874  -2.193  0.00  0.00     0.033 A 
ATOM      4  C4  UNL d   1      -0.082  -1.984  -2.275  0.00  0.00    -0.042 A 
ATOM      5  C5  UNL d   1       0.712  -0.889  -1.950  0.00  0.00     0.033 A 
ATOM      6  C6  UNL d   1       0.116   0.309  -1.543  0.00  0.00    -0.057 A 
ENDROOT
BRANCH   1   7
ATOM      7  N   UNL d   1      -1.806   1.692  -1.124  0.00  0.00    -0.732 N 
ATOM      8  C   UNL d   1      -0.956   2.863  -1.093  0.00  0.00     0.284 C 
ATOM      9  H3  UNL d   1      -2.715   1.849  -1.554  0.00  0.00     0.395 HD
ENDBRANCH   1   7
TORSDOF 1
ENDMDL
