MODEL 1
REMARK minimizedAffinity 8.38051128
REMARK minimizedRMSD -1
REMARK  1 active torsions:
REMARK  status: ('A' for Active; 'I' for Inactive)
REMARK    1  A    between atoms: N_2  and  C1_3 
ROOT
ATOM      1  C1  UNL d   1      -0.423   2.163   1.786  0.00  0.00     0.143 A 
ATOM      2  C2  UNL d   1      -0.848   1.607   0.575  0.00  0.00    -0.057 A 
ATOM      3  C3  UNL d   1      -0.861   2.360  -0.606  0.00  0.00     0.033 A 
ATOM      4  C4  UNL d   1      -0.474   3.696  -0.590  0.00  0.00    -0.042 A 
ATOM      5  C5  UNL d   1      -0.071   4.277   0.607  0.00  0.00     0.033 A 
ATOM      6  C6  UNL d   1      -0.055   3.518   1.781  0.00  0.00    -0.057 A 
ENDROOT
BRANCH   1   7
ATOM      7  N   UNL d   1      -0.481   1.496   3.011  0.00  0.00    -0.732 N 
ATOM      8  C   UNL d   1       0.464   0.445   3.324  0.00  0.00     0.284 C 
ATOM      9  H3  UNL d   1      -0.675   2.124   3.787  0.00  0.00     0.395 HD
ENDBRANCH   1   7
TORSDOF 1
ENDMDL
