MODEL 1
REMARK minimizedAffinity 3.23686457
REMARK minimizedRMSD -1
REMARK  1 active torsions:
REMARK  status: ('A' for Active; 'I' for Inactive)
REMARK    1  A    between atoms: N_2  and  C1_3 
ROOT
ATOM      1  C1  UNL d   1      -3.682  -0.293  -0.664  0.00  0.00     0.143 A 
ATOM      2  C2  UNL d   1      -3.522  -0.469   0.715  0.00  0.00    -0.057 A 
ATOM      3  C3  UNL d   1      -4.425   0.089   1.627  0.00  0.00     0.033 A 
ATOM      4  C4  UNL d   1      -5.492   0.860   1.177  0.00  0.00    -0.042 A 
ATOM      5  C5  UNL d   1      -5.656   1.069  -0.188  0.00  0.00     0.033 A 
ATOM      6  C6  UNL d   1      -4.754   0.503  -1.095  0.00  0.00    -0.057 A 
ENDROOT
BRANCH   1   7
ATOM      7  N   UNL d   1      -2.763  -0.740  -1.616  0.00  0.00    -0.732 N 
ATOM      8  C   UNL d   1      -1.395  -0.269  -1.598  0.00  0.00     0.284 C 
ATOM      9  H3  UNL d   1      -2.858  -1.734  -1.811  0.00  0.00     0.395 HD
ENDBRANCH   1   7
TORSDOF 1
ENDMDL
