MODEL 1
REMARK minimizedAffinity 6.41075468
REMARK minimizedRMSD -1
REMARK  1 active torsions:
REMARK  status: ('A' for Active; 'I' for Inactive)
REMARK    1  A    between atoms: N_2  and  C1_3 
ROOT
ATOM      1  C1  UNL d   1      -0.657   2.182   1.204  0.00  0.00     0.143 A 
ATOM      2  C2  UNL d   1      -0.617   1.452   0.011  0.00  0.00    -0.057 A 
ATOM      3  C3  UNL d   1      -0.603   2.093  -1.233  0.00  0.00     0.033 A 
ATOM      4  C4  UNL d   1      -0.659   3.481  -1.308  0.00  0.00    -0.042 A 
ATOM      5  C5  UNL d   1      -0.725   4.227  -0.136  0.00  0.00     0.033 A 
ATOM      6  C6  UNL d   1      -0.731   3.581   1.104  0.00  0.00    -0.057 A 
ENDROOT
BRANCH   1   7
ATOM      7  N   UNL d   1      -0.772   1.601   2.469  0.00  0.00    -0.732 N 
ATOM      8  C   UNL d   1       0.392   1.073   3.146  0.00  0.00     0.284 C 
ATOM      9  H3  UNL d   1      -1.409   2.112   3.075  0.00  0.00     0.395 HD
ENDBRANCH   1   7
TORSDOF 1
ENDMDL
