MODEL 1
REMARK minimizedAffinity 8.39571857
REMARK minimizedRMSD -1
REMARK  1 active torsions:
REMARK  status: ('A' for Active; 'I' for Inactive)
REMARK    1  A    between atoms: N_2  and  C1_3 
ROOT
ATOM      1  C1  UNL d   1      -2.116  -1.129  -2.311  0.00  0.00     0.143 A 
ATOM      2  C2  UNL d   1      -2.027  -1.573  -3.635  0.00  0.00    -0.057 A 
ATOM      3  C3  UNL d   1      -0.787  -1.804  -4.242  0.00  0.00     0.033 A 
ATOM      4  C4  UNL d   1       0.392  -1.566  -3.543  0.00  0.00    -0.042 A 
ATOM      5  C5  UNL d   1       0.328  -1.101  -2.234  0.00  0.00     0.033 A 
ATOM      6  C6  UNL d   1      -0.914  -0.878  -1.631  0.00  0.00    -0.057 A 
ENDROOT
BRANCH   1   7
ATOM      7  N   UNL d   1      -3.316  -0.788  -1.684  0.00  0.00    -0.732 N 
ATOM      8  C   UNL d   1      -3.624   0.594  -1.383  0.00  0.00     0.284 C 
ATOM      9  H3  UNL d   1      -4.106  -1.321  -2.040  0.00  0.00     0.395 HD
ENDBRANCH   1   7
TORSDOF 1
ENDMDL
