MODEL 1
REMARK minimizedAffinity 5.90491199
REMARK minimizedRMSD -1
REMARK  1 active torsions:
REMARK  status: ('A' for Active; 'I' for Inactive)
REMARK    1  A    between atoms: N_2  and  C1_3 
ROOT
ATOM      1  C1  UNL d   1      -2.160  -0.568  -1.239  0.00  0.00     0.143 A 
ATOM      2  C2  UNL d   1      -1.560  -1.678  -1.842  0.00  0.00    -0.057 A 
ATOM      3  C3  UNL d   1      -0.170  -1.758  -1.995  0.00  0.00     0.033 A 
ATOM      4  C4  UNL d   1       0.644  -0.713  -1.571  0.00  0.00    -0.042 A 
ATOM      5  C5  UNL d   1       0.066   0.411  -0.991  0.00  0.00     0.033 A 
ATOM      6  C6  UNL d   1      -1.321   0.482  -0.836  0.00  0.00    -0.057 A 
ENDROOT
BRANCH   1   7
ATOM      7  N   UNL d   1      -3.542  -0.386  -1.147  0.00  0.00    -0.732 N 
ATOM      8  C   UNL d   1      -4.097   0.927  -0.895  0.00  0.00     0.284 C 
ATOM      9  H3  UNL d   1      -4.052  -0.927  -1.842  0.00  0.00     0.395 HD
ENDBRANCH   1   7
TORSDOF 1
ENDMDL
