MODEL 1
REMARK minimizedAffinity 5.07192993
REMARK minimizedRMSD -1
REMARK  1 active torsions:
REMARK  status: ('A' for Active; 'I' for Inactive)
REMARK    1  A    between atoms: N_2  and  C1_3 
ROOT
ATOM      1  C1  UNL d   1       0.168   3.162   2.188  0.00  0.00     0.143 A 
ATOM      2  C2  UNL d   1       0.172   4.434   1.605  0.00  0.00    -0.057 A 
ATOM      3  C3  UNL d   1      -0.095   4.609   0.242  0.00  0.00     0.033 A 
ATOM      4  C4  UNL d   1      -0.343   3.508  -0.571  0.00  0.00    -0.042 A 
ATOM      5  C5  UNL d   1      -0.327   2.232  -0.019  0.00  0.00     0.033 A 
ATOM      6  C6  UNL d   1      -0.066   2.064   1.345  0.00  0.00    -0.057 A 
ENDROOT
BRANCH   1   7
ATOM      7  N   UNL d   1       0.523   2.914   3.516  0.00  0.00    -0.732 N 
ATOM      8  C   UNL d   1       1.791   3.375   4.039  0.00  0.00     0.284 C 
ATOM      9  H3  UNL d   1      -0.259   3.034   4.156  0.00  0.00     0.395 HD
ENDBRANCH   1   7
TORSDOF 1
ENDMDL
