MODEL 1
REMARK minimizedAffinity 17.4754982
REMARK minimizedRMSD -1
REMARK  0 active torsions:
REMARK  status: ('A' for Active; 'I' for Inactive)
ROOT
ATOM      1  C1  DEN d   1       5.130   2.053   0.332  0.00  0.00     0.130 A 
ATOM      2  C2  DEN d   1       5.992   1.243   1.188  0.00  0.00    -0.031 A 
ATOM      3  C3  DEN d   1       6.000   1.851   2.534  0.00  0.00     0.027 A 
ATOM      4  C4  DEN d   1       4.761   3.952   3.373  0.00  0.00     0.027 A 
ATOM      5  C5  DEN d   1       3.919   4.979   3.008  0.00  0.00    -0.003 A 
ATOM      6  C6  DEN d   1       3.452   5.121   1.728  0.00  0.00     0.001 A 
ATOM      7  C7  DEN d   1       3.789   4.195   0.776  0.00  0.00     0.017 A 
ATOM      8  C8  DEN d   1       4.644   3.161   1.135  0.00  0.00    -0.094 A 
ATOM      9  C9  DEN d   1       5.095   3.028   2.437  0.00  0.00    -0.072 A 
ENDROOT
TORSDOF 0
ENDMDL
