MODEL 1
REMARK minimizedAffinity 15.9086609
REMARK minimizedRMSD -1
REMARK  0 active torsions:
REMARK  status: ('A' for Active; 'I' for Inactive)
ROOT
ATOM      1  C1  DEN d   1      -0.972   1.357   2.276  0.00  0.00     0.130 A 
ATOM      2  C2  DEN d   1      -2.043   0.487   1.798  0.00  0.00    -0.031 A 
ATOM      3  C3  DEN d   1      -1.575  -0.910   1.898  0.00  0.00     0.027 A 
ATOM      4  C4  DEN d   1       0.691  -1.806   2.746  0.00  0.00     0.027 A 
ATOM      5  C5  DEN d   1       1.923  -1.448   3.245  0.00  0.00    -0.003 A 
ATOM      6  C6  DEN d   1       2.287  -0.139   3.422  0.00  0.00     0.001 A 
ATOM      7  C7  DEN d   1       1.391   0.859   3.141  0.00  0.00     0.017 A 
ATOM      8  C8  DEN d   1       0.149   0.506   2.631  0.00  0.00    -0.094 A 
ATOM      9  C9  DEN d   1      -0.204  -0.823   2.470  0.00  0.00    -0.072 A 
ENDROOT
TORSDOF 0
ENDMDL
