MODEL 1
REMARK minimizedAffinity 12.2100391
REMARK minimizedRMSD -1
REMARK  0 active torsions:
REMARK  status: ('A' for Active; 'I' for Inactive)
ROOT
ATOM      1  C1  DEN d   1       5.635   4.498   4.502  0.00  0.00     0.130 A 
ATOM      2  C2  DEN d   1       5.755   3.047   4.620  0.00  0.00    -0.031 A 
ATOM      3  C3  DEN d   1       5.162   2.440   3.412  0.00  0.00     0.027 A 
ATOM      4  C4  DEN d   1       4.079   3.599   1.378  0.00  0.00     0.027 A 
ATOM      5  C5  DEN d   1       3.736   4.816   0.830  0.00  0.00    -0.003 A 
ATOM      6  C6  DEN d   1       3.969   6.000   1.478  0.00  0.00     0.001 A 
ATOM      7  C7  DEN d   1       4.603   5.996   2.692  0.00  0.00     0.017 A 
ATOM      8  C8  DEN d   1       4.945   4.773   3.254  0.00  0.00    -0.094 A 
ATOM      9  C9  DEN d   1       4.712   3.587   2.578  0.00  0.00    -0.072 A 
ENDROOT
TORSDOF 0
ENDMDL
