MODEL 1
REMARK minimizedAffinity 5.76077461
REMARK minimizedRMSD -1
REMARK  0 active torsions:
REMARK  status: ('A' for Active; 'I' for Inactive)
ROOT
ATOM      1  C1  DEN d   1      -0.733   1.611   2.846  0.00  0.00     0.130 A 
ATOM      2  C2  DEN d   1      -1.798   1.165   1.951  0.00  0.00    -0.031 A 
ATOM      3  C3  DEN d   1      -1.554  -0.254   1.624  0.00  0.00     0.027 A 
ATOM      4  C4  DEN d   1       0.356  -1.797   2.416  0.00  0.00     0.027 A 
ATOM      5  C5  DEN d   1       1.503  -1.864   3.175  0.00  0.00    -0.003 A 
ATOM      6  C6  DEN d   1       2.000  -0.778   3.845  0.00  0.00     0.001 A 
ATOM      7  C7  DEN d   1       1.322   0.412   3.805  0.00  0.00     0.017 A 
ATOM      8  C8  DEN d   1       0.169   0.490   3.036  0.00  0.00    -0.094 A 
ATOM      9  C9  DEN d   1      -0.324  -0.623   2.376  0.00  0.00    -0.072 A 
ENDROOT
TORSDOF 0
ENDMDL
