MODEL 1
REMARK minimizedAffinity 11.9288216
REMARK minimizedRMSD -1
REMARK  0 active torsions:
REMARK  status: ('A' for Active; 'I' for Inactive)
ROOT
ATOM      1  C1  DEN d   1       2.622  -2.319  -5.138  0.00  0.00     0.130 A 
ATOM      2  C2  DEN d   1       3.371  -1.146  -4.695  0.00  0.00    -0.031 A 
ATOM      3  C3  DEN d   1       2.400  -0.092  -4.341  0.00  0.00     0.027 A 
ATOM      4  C4  DEN d   1      -0.177  -0.162  -4.430  0.00  0.00     0.027 A 
ATOM      5  C5  DEN d   1      -1.268  -0.939  -4.751  0.00  0.00    -0.003 A 
ATOM      6  C6  DEN d   1      -1.139  -2.208  -5.251  0.00  0.00     0.001 A 
ATOM      7  C7  DEN d   1       0.108  -2.754  -5.403  0.00  0.00     0.017 A 
ATOM      8  C8  DEN d   1       1.213  -1.975  -5.089  0.00  0.00    -0.094 A 
ATOM      9  C9  DEN d   1       1.062  -0.699  -4.573  0.00  0.00    -0.072 A 
ENDROOT
TORSDOF 0
ENDMDL
