MODEL 1
REMARK minimizedAffinity 13.5687523
REMARK minimizedRMSD -1
REMARK  0 active torsions:
REMARK  status: ('A' for Active; 'I' for Inactive)
ROOT
ATOM      1  C1  DEN d   1       0.806  -2.001   3.007  0.00  0.00     0.130 A 
ATOM      2  C2  DEN d   1       1.936  -1.271   3.574  0.00  0.00    -0.031 A 
ATOM      3  C3  DEN d   1       1.587   0.163   3.598  0.00  0.00     0.027 A 
ATOM      4  C4  DEN d   1      -0.584   1.319   2.822  0.00  0.00     0.027 A 
ATOM      5  C5  DEN d   1      -1.825   1.115   2.259  0.00  0.00    -0.003 A 
ATOM      6  C6  DEN d   1      -2.259  -0.128   1.879  0.00  0.00     0.001 A 
ATOM      7  C7  DEN d   1      -1.463  -1.221   2.097  0.00  0.00     0.017 A 
ATOM      8  C8  DEN d   1      -0.208  -1.022   2.657  0.00  0.00    -0.094 A 
ATOM      9  C9  DEN d   1       0.208   0.240   3.046  0.00  0.00    -0.072 A 
ENDROOT
TORSDOF 0
ENDMDL
