MODEL 1
REMARK minimizedAffinity 22.3908443
REMARK minimizedRMSD -1
REMARK  0 active torsions:
REMARK  status: ('A' for Active; 'I' for Inactive)
ROOT
ATOM      1  C1  DEN d   1      -2.270  -1.877  -3.042  0.00  0.00     0.130 A 
ATOM      2  C2  DEN d   1      -1.909  -2.162  -1.656  0.00  0.00    -0.031 A 
ATOM      3  C3  DEN d   1      -0.467  -1.891  -1.495  0.00  0.00     0.027 A 
ATOM      4  C4  DEN d   1       1.233  -1.055  -3.246  0.00  0.00     0.027 A 
ATOM      5  C5  DEN d   1       1.398  -0.685  -4.562  0.00  0.00    -0.003 A 
ATOM      6  C6  DEN d   1       0.369  -0.718  -5.465  0.00  0.00     0.001 A 
ATOM      7  C7  DEN d   1      -0.884  -1.088  -5.052  0.00  0.00     0.017 A 
ATOM      8  C8  DEN d   1      -1.057  -1.470  -3.728  0.00  0.00    -0.094 A 
ATOM      9  C9  DEN d   1      -0.007  -1.417  -2.828  0.00  0.00    -0.072 A 
ENDROOT
TORSDOF 0
ENDMDL
