MODEL 1
REMARK minimizedAffinity 5.20491123
REMARK minimizedRMSD -1
REMARK  0 active torsions:
REMARK  status: ('A' for Active; 'I' for Inactive)
ROOT
ATOM      1  C1  DEN d   1       4.131  -5.903   6.000  0.00  0.00     0.130 A 
ATOM      2  C2  DEN d   1       5.194  -5.247   5.243  0.00  0.00    -0.031 A 
ATOM      3  C3  DEN d   1       4.572  -4.231   4.371  0.00  0.00     0.027 A 
ATOM      4  C4  DEN d   1       2.081  -3.611   4.122  0.00  0.00     0.027 A 
ATOM      5  C5  DEN d   1       0.803  -3.902   4.548  0.00  0.00    -0.003 A 
ATOM      6  C6  DEN d   1       0.545  -4.895   5.455  0.00  0.00     0.001 A 
ATOM      7  C7  DEN d   1       1.583  -5.604   6.000  0.00  0.00     0.017 A 
ATOM      8  C8  DEN d   1       2.872  -5.321   5.570  0.00  0.00    -0.094 A 
ATOM      9  C9  DEN d   1       3.115  -4.305   4.661  0.00  0.00    -0.072 A 
ENDROOT
TORSDOF 0
ENDMDL
