MODEL 1
REMARK minimizedAffinity 8.09088516
REMARK minimizedRMSD -1
REMARK  1 active torsions:
REMARK  status: ('A' for Active; 'I' for Inactive)
REMARK    1  A    between atoms: C1_2  and  C2_3 
ROOT
ATOM      1  C2  UNL d   1       1.954   1.480   1.655  0.00  0.00    -0.081 A 
ATOM      2  C3  UNL d   1       2.318   0.129   1.720  0.00  0.00     0.006 A 
ATOM      3  C4  UNL d   1       2.297  -0.666   0.571  0.00  0.00     0.002 A 
ATOM      4  C5  UNL d   1       1.919  -0.122  -0.661  0.00  0.00    -0.080 A 
ATOM      5  C6  UNL d   1       1.921  -0.957  -1.907  0.00  0.00     0.076 C 
ATOM      6  C7  UNL d   1       1.539   1.223  -0.722  0.00  0.00     0.002 A 
ATOM      7  C8  UNL d   1       1.559   2.018   0.426  0.00  0.00     0.006 A 
ENDROOT
BRANCH   1   8
ATOM      8  C1  UNL d   1       2.038   2.356   2.879  0.00  0.00     0.054 C 
ATOM      9  C   UNL d   1       2.114   3.828   2.502  0.00  0.00     0.018 C 
ENDBRANCH   1   8
TORSDOF 1
ENDMDL
