MODEL 1
REMARK minimizedAffinity 3.06747866
REMARK minimizedRMSD -1
REMARK  1 active torsions:
REMARK  status: ('A' for Active; 'I' for Inactive)
REMARK    1  A    between atoms: C1_2  and  C2_3 
ROOT
ATOM      1  C2  UNL d   1      -0.059   1.628   0.024  0.00  0.00    -0.081 A 
ATOM      2  C3  UNL d   1       0.561   0.842   1.003  0.00  0.00     0.006 A 
ATOM      3  C4  UNL d   1       1.490   1.407   1.881  0.00  0.00     0.002 A 
ATOM      4  C5  UNL d   1       1.807   2.767   1.800  0.00  0.00    -0.080 A 
ATOM      5  C6  UNL d   1       2.780   3.392   2.755  0.00  0.00     0.076 C 
ATOM      6  C7  UNL d   1       1.201   3.548   0.810  0.00  0.00     0.002 A 
ATOM      7  C8  UNL d   1       0.273   2.984  -0.068  0.00  0.00     0.006 A 
ENDROOT
BRANCH   1   8
ATOM      8  C1  UNL d   1      -1.109   1.036  -0.881  0.00  0.00     0.054 C 
ATOM      9  C   UNL d   1      -2.490   1.105  -0.246  0.00  0.00     0.018 C 
ENDBRANCH   1   8
TORSDOF 1
ENDMDL
