MODEL 1
REMARK minimizedAffinity 14.120307
REMARK minimizedRMSD -1
REMARK  1 active torsions:
REMARK  status: ('A' for Active; 'I' for Inactive)
REMARK    1  A    between atoms: C1_2  and  C2_3 
ROOT
ATOM      1  C2  UNL d   1       1.681   4.871   3.643  0.00  0.00    -0.081 A 
ATOM      2  C3  UNL d   1       2.428   3.751   3.257  0.00  0.00     0.006 A 
ATOM      3  C4  UNL d   1       3.820   3.755   3.371  0.00  0.00     0.002 A 
ATOM      4  C5  UNL d   1       4.488   4.874   3.879  0.00  0.00    -0.080 A 
ATOM      5  C6  UNL d   1       5.980   4.880   4.035  0.00  0.00     0.076 C 
ATOM      6  C7  UNL d   1       3.743   6.000   4.248  0.00  0.00     0.002 A 
ATOM      7  C8  UNL d   1       2.351   5.997   4.134  0.00  0.00     0.006 A 
ENDROOT
BRANCH   1   8
ATOM      8  C1  UNL d   1       0.175   4.847   3.582  0.00  0.00     0.054 C 
ATOM      9  C   UNL d   1      -0.364   5.999   2.747  0.00  0.00     0.018 C 
ENDBRANCH   1   8
TORSDOF 1
ENDMDL
