MODEL 1
REMARK minimizedAffinity 3.46647239
REMARK minimizedRMSD -1
REMARK  1 active torsions:
REMARK  status: ('A' for Active; 'I' for Inactive)
REMARK    1  A    between atoms: C1_2  and  C2_3 
ROOT
ATOM      1  C2  UNL d   1       0.881  -1.500  -1.027  0.00  0.00    -0.081 A 
ATOM      2  C3  UNL d   1       1.571  -0.325  -0.708  0.00  0.00     0.006 A 
ATOM      3  C4  UNL d   1       0.948   0.919  -0.837  0.00  0.00     0.002 A 
ATOM      4  C5  UNL d   1      -0.376   1.008  -1.279  0.00  0.00    -0.080 A 
ATOM      5  C6  UNL d   1      -1.066   2.335  -1.394  0.00  0.00     0.076 C 
ATOM      6  C7  UNL d   1      -1.060  -0.166  -1.615  0.00  0.00     0.002 A 
ATOM      7  C8  UNL d   1      -0.437  -1.410  -1.487  0.00  0.00     0.006 A 
ENDROOT
BRANCH   1   8
ATOM      8  C1  UNL d   1       1.528  -2.847  -0.827  0.00  0.00     0.054 C 
ATOM      9  C   UNL d   1       0.802  -3.657   0.237  0.00  0.00     0.018 C 
ENDBRANCH   1   8
TORSDOF 1
ENDMDL
