MODEL 1
REMARK minimizedAffinity 5.07850361
REMARK minimizedRMSD -1
REMARK  0 active torsions:
REMARK  status: ('A' for Active; 'I' for Inactive)
ROOT
ATOM      1  C   UNL d   1       0.740   1.562   5.465  0.00  0.00     0.078 C 
ATOM      2  C1  UNL d   1       0.760   0.678   4.253  0.00  0.00    -0.077 A 
ATOM      3  C2  UNL d   1       1.728  -0.322   4.106  0.00  0.00    -0.001 A 
ATOM      4  C3  UNL d   1       1.740  -1.131   2.969  0.00  0.00     0.003 A 
ATOM      5  C4  UNL d   1       0.787  -0.947   1.969  0.00  0.00    -0.005 A 
ATOM      6  C5  UNL d   1      -0.179   0.048   2.105  0.00  0.00     0.003 A 
ATOM      7  C6  UNL d   1      -0.193   0.858   3.242  0.00  0.00    -0.001 A 
ENDROOT
TORSDOF 0
ENDMDL
