MODEL 1
REMARK minimizedAffinity 5.36910295
REMARK minimizedRMSD -1
REMARK  0 active torsions:
REMARK  status: ('A' for Active; 'I' for Inactive)
ROOT
ATOM      1  C   UNL d   1       0.723  -1.506   0.386  0.00  0.00     0.078 C 
ATOM      2  C1  UNL d   1       0.706  -1.056   1.816  0.00  0.00    -0.077 A 
ATOM      3  C2  UNL d   1       0.508   0.290   2.146  0.00  0.00    -0.001 A 
ATOM      4  C3  UNL d   1       0.505   0.697   3.481  0.00  0.00     0.003 A 
ATOM      5  C4  UNL d   1       0.699  -0.237   4.497  0.00  0.00    -0.005 A 
ATOM      6  C5  UNL d   1       0.899  -1.579   4.179  0.00  0.00     0.003 A 
ATOM      7  C6  UNL d   1       0.903  -1.987   2.844  0.00  0.00    -0.001 A 
ENDROOT
TORSDOF 0
ENDMDL
