MODEL 1
REMARK minimizedAffinity 13.3863897
REMARK minimizedRMSD -1
REMARK  0 active torsions:
REMARK  status: ('A' for Active; 'I' for Inactive)
ROOT
ATOM      1  C   UNL d   1      -0.395  -1.455   1.318  0.00  0.00     0.078 C 
ATOM      2  C1  UNL d   1      -0.015  -0.363   2.273  0.00  0.00    -0.077 A 
ATOM      3  C2  UNL d   1      -0.694   0.862   2.275  0.00  0.00    -0.001 A 
ATOM      4  C3  UNL d   1      -0.322   1.873   3.163  0.00  0.00     0.003 A 
ATOM      5  C4  UNL d   1       0.730   1.670   4.054  0.00  0.00    -0.005 A 
ATOM      6  C5  UNL d   1       1.413   0.456   4.057  0.00  0.00     0.003 A 
ATOM      7  C6  UNL d   1       1.043  -0.556   3.170  0.00  0.00    -0.001 A 
ENDROOT
TORSDOF 0
ENDMDL
