MODEL 1
REMARK minimizedAffinity 8.95897484
REMARK minimizedRMSD -1
REMARK  0 active torsions:
REMARK  status: ('A' for Active; 'I' for Inactive)
ROOT
ATOM      1  C   UNL d   1      -0.797  -2.822  -1.860  0.00  0.00     0.078 C 
ATOM      2  C1  UNL d   1      -0.367  -2.029  -3.058  0.00  0.00    -0.077 A 
ATOM      3  C2  UNL d   1      -0.344  -2.606  -4.334  0.00  0.00    -0.001 A 
ATOM      4  C3  UNL d   1       0.068  -1.859  -5.439  0.00  0.00     0.003 A 
ATOM      5  C4  UNL d   1       0.461  -0.532  -5.279  0.00  0.00    -0.005 A 
ATOM      6  C5  UNL d   1       0.443   0.050  -4.013  0.00  0.00     0.003 A 
ATOM      7  C6  UNL d   1       0.031  -0.695  -2.907  0.00  0.00    -0.001 A 
ENDROOT
TORSDOF 0
ENDMDL
