MODEL 1
REMARK minimizedAffinity 8.8457489
REMARK minimizedRMSD -1
REMARK  0 active torsions:
REMARK  status: ('A' for Active; 'I' for Inactive)
ROOT
ATOM      1  C   UNL d   1      -2.578   0.031   2.721  0.00  0.00     0.078 C 
ATOM      2  C1  UNL d   1      -1.158  -0.433   2.855  0.00  0.00    -0.077 A 
ATOM      3  C2  UNL d   1      -0.849  -1.627   3.519  0.00  0.00    -0.001 A 
ATOM      4  C3  UNL d   1       0.478  -2.041   3.645  0.00  0.00     0.003 A 
ATOM      5  C4  UNL d   1       1.506  -1.268   3.111  0.00  0.00    -0.005 A 
ATOM      6  C5  UNL d   1       1.209  -0.077   2.451  0.00  0.00     0.003 A 
ATOM      7  C6  UNL d   1      -0.118   0.339   2.324  0.00  0.00    -0.001 A 
ENDROOT
TORSDOF 0
ENDMDL
