MODEL 1
REMARK minimizedAffinity 13.0018654
REMARK minimizedRMSD -1
REMARK  0 active torsions:
REMARK  status: ('A' for Active; 'I' for Inactive)
ROOT
ATOM      1  C   UNL d   1       0.023  -0.184   2.959  0.00  0.00     0.078 C 
ATOM      2  C1  UNL d   1      -0.338   1.002   3.803  0.00  0.00    -0.077 A 
ATOM      3  C2  UNL d   1       0.087   1.096   5.133  0.00  0.00    -0.001 A 
ATOM      4  C3  UNL d   1      -0.265   2.201   5.910  0.00  0.00     0.003 A 
ATOM      5  C4  UNL d   1      -1.045   3.219   5.366  0.00  0.00    -0.005 A 
ATOM      6  C5  UNL d   1      -1.475   3.133   4.044  0.00  0.00     0.003 A 
ATOM      7  C6  UNL d   1      -1.124   2.029   3.265  0.00  0.00    -0.001 A 
ENDROOT
TORSDOF 0
ENDMDL
