MODEL 1
REMARK minimizedAffinity 9.61968517
REMARK minimizedRMSD -1
REMARK  0 active torsions:
REMARK  status: ('A' for Active; 'I' for Inactive)
ROOT
ATOM      1  C   UNL d   1       3.021   0.372   4.214  0.00  0.00     0.078 C 
ATOM      2  C1  UNL d   1       1.754  -0.124   3.584  0.00  0.00    -0.077 A 
ATOM      3  C2  UNL d   1       1.517  -1.494   3.422  0.00  0.00    -0.001 A 
ATOM      4  C3  UNL d   1       0.338  -1.941   2.824  0.00  0.00     0.003 A 
ATOM      5  C4  UNL d   1      -0.614  -1.024   2.383  0.00  0.00    -0.005 A 
ATOM      6  C5  UNL d   1      -0.386   0.342   2.537  0.00  0.00     0.003 A 
ATOM      7  C6  UNL d   1       0.793   0.790   3.135  0.00  0.00    -0.001 A 
ENDROOT
TORSDOF 0
ENDMDL
