MODEL 1
REMARK minimizedAffinity 6.44197464
REMARK minimizedRMSD -1
REMARK  0 active torsions:
REMARK  status: ('A' for Active; 'I' for Inactive)
ROOT
ATOM      1  C   UNL d   1      -2.821  -2.033   1.124  0.00  0.00     0.078 C 
ATOM      2  C1  UNL d   1      -3.488  -0.898   0.407  0.00  0.00    -0.077 A 
ATOM      3  C2  UNL d   1      -3.928  -1.039  -0.915  0.00  0.00    -0.001 A 
ATOM      4  C3  UNL d   1      -4.538   0.029  -1.573  0.00  0.00     0.003 A 
ATOM      5  C4  UNL d   1      -4.714   1.247  -0.918  0.00  0.00    -0.005 A 
ATOM      6  C5  UNL d   1      -4.278   1.397   0.396  0.00  0.00     0.003 A 
ATOM      7  C6  UNL d   1      -3.667   0.330   1.056  0.00  0.00    -0.001 A 
ENDROOT
TORSDOF 0
ENDMDL
