MODEL 1
REMARK minimizedAffinity 10.4192114
REMARK minimizedRMSD -1
REMARK  0 active torsions:
REMARK  status: ('A' for Active; 'I' for Inactive)
ROOT
ATOM      1  C   UNL d   1      -2.656  -1.324   2.016  0.00  0.00     0.078 C 
ATOM      2  C1  UNL d   1      -1.243  -0.891   2.267  0.00  0.00    -0.077 A 
ATOM      3  C2  UNL d   1      -0.169  -1.536   1.642  0.00  0.00    -0.001 A 
ATOM      4  C3  UNL d   1       1.143  -1.128   1.892  0.00  0.00     0.003 A 
ATOM      5  C4  UNL d   1       1.392  -0.074   2.769  0.00  0.00    -0.005 A 
ATOM      6  C5  UNL d   1       0.330   0.573   3.397  0.00  0.00     0.003 A 
ATOM      7  C6  UNL d   1      -0.982   0.166   3.148  0.00  0.00    -0.001 A 
ENDROOT
TORSDOF 0
ENDMDL
