MODEL 1
REMARK minimizedAffinity -4.63671303
REMARK minimizedRMSD -1
REMARK  0 active torsions:
REMARK  status: ('A' for Active; 'I' for Inactive)
ROOT
ATOM      1  O1  BZF d   1       0.089   0.277  -0.664  0.00  0.00    -0.204 OA
ATOM      2  C2  BZF d   1      -0.367  -1.027  -0.634  0.00  0.00     0.174 A 
ATOM      3  C3  BZF d   1      -1.138  -1.239   0.452  0.00  0.00    -0.012 A 
ATOM      4  C3A BZF d   1      -1.240   0.035   1.095  0.00  0.00    -0.107 A 
ATOM      5  C4  BZF d   1      -1.888   0.472   2.216  0.00  0.00     0.055 A 
ATOM      6  C5  BZF d   1      -1.725   1.762   2.611  0.00  0.00    -0.016 A 
ATOM      7  C6  BZF d   1      -0.920   2.640   1.915  0.00  0.00     0.022 A 
ATOM      8  C7  BZF d   1      -0.262   2.254   0.795  0.00  0.00     0.029 A 
ATOM      9  C7A BZF d   1      -0.450   0.960   0.374  0.00  0.00     0.058 A 
ENDROOT
TORSDOF 0
ENDMDL
