MODEL 1
REMARK minimizedAffinity -4.29505014
REMARK minimizedRMSD -1
REMARK  0 active torsions:
REMARK  status: ('A' for Active; 'I' for Inactive)
ROOT
ATOM      1  O1  BZF d   1      -2.003   0.429   2.298  0.00  0.00    -0.204 OA
ATOM      2  C2  BZF d   1      -2.128   1.774   2.586  0.00  0.00     0.174 A 
ATOM      3  C3  BZF d   1      -1.279   2.505   1.836  0.00  0.00    -0.012 A 
ATOM      4  C3A BZF d   1      -0.645   1.567   0.962  0.00  0.00    -0.107 A 
ATOM      5  C4  BZF d   1       0.287   1.687  -0.029  0.00  0.00     0.055 A 
ATOM      6  C5  BZF d   1       0.750   0.566  -0.641  0.00  0.00    -0.016 A 
ATOM      7  C6  BZF d   1       0.306  -0.691  -0.285  0.00  0.00     0.022 A 
ATOM      8  C7  BZF d   1      -0.622  -0.861   0.688  0.00  0.00     0.029 A 
ATOM      9  C7A BZF d   1      -1.115   0.273   1.286  0.00  0.00     0.058 A 
ENDROOT
TORSDOF 0
ENDMDL
