MODEL 1
REMARK minimizedAffinity -2.07187963
REMARK minimizedRMSD -1
REMARK  0 active torsions:
REMARK  status: ('A' for Active; 'I' for Inactive)
ROOT
ATOM      1  O1  BZF d   1      -2.196   1.357   3.072  0.00  0.00    -0.204 OA
ATOM      2  C2  BZF d   1      -2.752   0.097   2.964  0.00  0.00     0.174 A 
ATOM      3  C3  BZF d   1      -2.331  -0.517   1.839  0.00  0.00    -0.012 A 
ATOM      4  C3A BZF d   1      -1.385   0.381   1.252  0.00  0.00    -0.107 A 
ATOM      5  C4  BZF d   1      -0.612   0.326   0.127  0.00  0.00     0.055 A 
ATOM      6  C5  BZF d   1       0.151   1.401  -0.203  0.00  0.00    -0.016 A 
ATOM      7  C6  BZF d   1       0.160   2.548   0.565  0.00  0.00     0.022 A 
ATOM      8  C7  BZF d   1      -0.586   2.647   1.691  0.00  0.00     0.029 A 
ATOM      9  C7A BZF d   1      -1.333   1.550   2.045  0.00  0.00     0.058 A 
ENDROOT
TORSDOF 0
ENDMDL
