MODEL 1
REMARK minimizedAffinity -4.90876865
REMARK minimizedRMSD -1
REMARK  0 active torsions:
REMARK  status: ('A' for Active; 'I' for Inactive)
ROOT
ATOM      1  O1  BZF d   1      -0.214   1.908  -1.012  0.00  0.00    -0.204 OA
ATOM      2  C2  BZF d   1      -0.709   1.200   0.067  0.00  0.00     0.174 A 
ATOM      3  C3  BZF d   1      -0.101   0.001   0.171  0.00  0.00    -0.012 A 
ATOM      4  C3A BZF d   1       0.897  -0.005  -0.854  0.00  0.00    -0.107 A 
ATOM      5  C4  BZF d   1       1.837  -0.916  -1.244  0.00  0.00     0.055 A 
ATOM      6  C5  BZF d   1       2.608  -0.646  -2.329  0.00  0.00    -0.016 A 
ATOM      7  C6  BZF d   1       2.464   0.521  -3.050  0.00  0.00     0.022 A 
ATOM      8  C7  BZF d   1       1.550   1.458  -2.699  0.00  0.00     0.029 A 
ATOM      9  C7A BZF d   1       0.791   1.202  -1.583  0.00  0.00     0.058 A 
ENDROOT
TORSDOF 0
ENDMDL
