MODEL 1
REMARK minimizedAffinity -1.17062163
REMARK minimizedRMSD -1
REMARK  0 active torsions:
REMARK  status: ('A' for Active; 'I' for Inactive)
ROOT
ATOM      1  O1  BZF d   1       0.394   0.996  -1.566  0.00  0.00    -0.204 OA
ATOM      2  C2  BZF d   1      -0.627   1.310  -0.689  0.00  0.00     0.174 A 
ATOM      3  C3  BZF d   1      -0.883   0.275   0.136  0.00  0.00    -0.012 A 
ATOM      4  C3A BZF d   1       0.096  -0.717  -0.188  0.00  0.00    -0.107 A 
ATOM      5  C4  BZF d   1       0.368  -1.963   0.299  0.00  0.00     0.055 A 
ATOM      6  C5  BZF d   1       1.347  -2.702  -0.286  0.00  0.00    -0.016 A 
ATOM      7  C6  BZF d   1       2.069  -2.229  -1.361  0.00  0.00     0.022 A 
ATOM      8  C7  BZF d   1       1.840  -0.997  -1.876  0.00  0.00     0.029 A 
ATOM      9  C7A BZF d   1       0.874  -0.235  -1.267  0.00  0.00     0.058 A 
ENDROOT
TORSDOF 0
ENDMDL
