MODEL 1
REMARK minimizedAffinity -3.70522571
REMARK minimizedRMSD -1
REMARK  0 active torsions:
REMARK  status: ('A' for Active; 'I' for Inactive)
ROOT
ATOM      1  O1  BZF d   1       0.415   1.881  -0.014  0.00  0.00    -0.204 OA
ATOM      2  C2  BZF d   1      -0.617   1.605   0.863  0.00  0.00     0.174 A 
ATOM      3  C3  BZF d   1      -0.899   0.286   0.869  0.00  0.00    -0.012 A 
ATOM      4  C3A BZF d   1       0.074  -0.311   0.008  0.00  0.00    -0.107 A 
ATOM      5  C4  BZF d   1       0.323  -1.597  -0.379  0.00  0.00     0.055 A 
ATOM      6  C5  BZF d   1       1.303  -1.836  -1.289  0.00  0.00    -0.016 A 
ATOM      7  C6  BZF d   1       2.049  -0.813  -1.837  0.00  0.00     0.022 A 
ATOM      8  C7  BZF d   1       1.843   0.478  -1.481  0.00  0.00     0.029 A 
ATOM      9  C7A BZF d   1       0.875   0.719  -0.537  0.00  0.00     0.058 A 
ENDROOT
TORSDOF 0
ENDMDL
