MODEL 1
REMARK minimizedAffinity -4.02731895
REMARK minimizedRMSD -1
REMARK  0 active torsions:
REMARK  status: ('A' for Active; 'I' for Inactive)
ROOT
ATOM      1  O1  BZF d   1      -0.524   1.301  -0.895  0.00  0.00    -0.204 OA
ATOM      2  C2  BZF d   1      -1.186   1.158   0.309  0.00  0.00     0.174 A 
ATOM      3  C3  BZF d   1      -0.848  -0.004   0.906  0.00  0.00    -0.012 A 
ATOM      4  C3A BZF d   1       0.153  -0.582   0.063  0.00  0.00    -0.107 A 
ATOM      5  C4  BZF d   1       0.889  -1.730   0.132  0.00  0.00     0.055 A 
ATOM      6  C5  BZF d   1       1.730  -2.038  -0.890  0.00  0.00    -0.016 A 
ATOM      7  C6  BZF d   1       1.855  -1.224  -1.997  0.00  0.00     0.022 A 
ATOM      8  C7  BZF d   1       1.150  -0.073  -2.108  0.00  0.00     0.029 A 
ATOM      9  C7A BZF d   1       0.324   0.258  -1.062  0.00  0.00     0.058 A 
ENDROOT
TORSDOF 0
ENDMDL
