MODEL 1
REMARK minimizedAffinity -5.21121454
REMARK minimizedRMSD -1
REMARK  0 active torsions:
REMARK  status: ('A' for Active; 'I' for Inactive)
ROOT
ATOM      1  O1  BZF d   1      -0.933   0.596   3.185  0.00  0.00    -0.204 OA
ATOM      2  C2  BZF d   1      -1.842   1.559   3.577  0.00  0.00     0.174 A 
ATOM      3  C3  BZF d   1      -2.244   2.296   2.521  0.00  0.00    -0.012 A 
ATOM      4  C3A BZF d   1      -1.611   1.701   1.385  0.00  0.00    -0.107 A 
ATOM      5  C4  BZF d   1      -1.633   1.975   0.047  0.00  0.00     0.055 A 
ATOM      6  C5  BZF d   1      -0.845   1.249  -0.789  0.00  0.00    -0.016 A 
ATOM      7  C6  BZF d   1      -0.021   0.246  -0.322  0.00  0.00     0.022 A 
ATOM      8  C7  BZF d   1       0.031  -0.066   0.995  0.00  0.00     0.029 A 
ATOM      9  C7A BZF d   1      -0.789   0.644   1.839  0.00  0.00     0.058 A 
ENDROOT
TORSDOF 0
ENDMDL
