MODEL 1
REMARK minimizedAffinity -2.93396425
REMARK minimizedRMSD -1
REMARK  0 active torsions:
REMARK  status: ('A' for Active; 'I' for Inactive)
ROOT
ATOM      1  O1  BZF d   1       4.814  -0.575   4.581  0.00  0.00    -0.204 OA
ATOM      2  C2  BZF d   1       5.491  -0.507   5.784  0.00  0.00     0.174 A 
ATOM      3  C3  BZF d   1       5.961   0.738   5.999  0.00  0.00    -0.012 A 
ATOM      4  C3A BZF d   1       5.474   1.519   4.904  0.00  0.00    -0.107 A 
ATOM      5  C4  BZF d   1       5.592   2.836   4.564  0.00  0.00     0.055 A 
ATOM      6  C5  BZF d   1       5.057   3.266   3.391  0.00  0.00    -0.016 A 
ATOM      7  C6  BZF d   1       4.404   2.406   2.532  0.00  0.00     0.022 A 
ATOM      8  C7  BZF d   1       4.257   1.092   2.829  0.00  0.00     0.029 A 
ATOM      9  C7A BZF d   1       4.767   0.661   4.029  0.00  0.00     0.058 A 
ENDROOT
TORSDOF 0
ENDMDL
