MODEL 1
REMARK minimizedAffinity -3.89666605
REMARK minimizedRMSD -1
REMARK  0 active torsions:
REMARK  status: ('A' for Active; 'I' for Inactive)
ROOT
ATOM      1  O1  BZF d   1       0.313   0.670  -0.574  0.00  0.00    -0.204 OA
ATOM      2  C2  BZF d   1       0.168  -0.702  -0.635  0.00  0.00     0.174 A 
ATOM      3  C3  BZF d   1      -0.641  -1.142   0.350  0.00  0.00    -0.012 A 
ATOM      4  C3A BZF d   1      -1.100   0.038   1.016  0.00  0.00    -0.107 A 
ATOM      5  C4  BZF d   1      -1.942   0.255   2.069  0.00  0.00     0.055 A 
ATOM      6  C5  BZF d   1      -2.122   1.524   2.520  0.00  0.00    -0.016 A 
ATOM      7  C6  BZF d   1      -1.474   2.598   1.946  0.00  0.00     0.022 A 
ATOM      8  C7  BZF d   1      -0.633   2.433   0.896  0.00  0.00     0.029 A 
ATOM      9  C7A BZF d   1      -0.474   1.156   0.417  0.00  0.00     0.058 A 
ENDROOT
TORSDOF 0
ENDMDL
