MODEL 1
REMARK minimizedAffinity -4.18836832
REMARK minimizedRMSD -1
REMARK  0 active torsions:
REMARK  status: ('A' for Active; 'I' for Inactive)
ROOT
ATOM      1  O1  BZF d   1      -2.739  -0.350   1.943  0.00  0.00    -0.204 OA
ATOM      2  C2  BZF d   1      -3.103   0.200   3.157  0.00  0.00     0.174 A 
ATOM      3  C3  BZF d   1      -2.383   1.310   3.415  0.00  0.00    -0.012 A 
ATOM      4  C3A BZF d   1      -1.578   1.516   2.250  0.00  0.00    -0.107 A 
ATOM      5  C4  BZF d   1      -0.664   2.467   1.896  0.00  0.00     0.055 A 
ATOM      6  C5  BZF d   1      -0.001   2.340   0.717  0.00  0.00    -0.016 A 
ATOM      7  C6  BZF d   1      -0.224   1.273  -0.130  0.00  0.00     0.022 A 
ATOM      8  C7  BZF d   1      -1.124   0.308   0.176  0.00  0.00     0.029 A 
ATOM      9  C7A BZF d   1      -1.820   0.451   1.351  0.00  0.00     0.058 A 
ENDROOT
TORSDOF 0
ENDMDL
