MODEL 1
REMARK minimizedAffinity -0.704565763
REMARK minimizedRMSD -1
REMARK  0 active torsions:
REMARK  status: ('A' for Active; 'I' for Inactive)
ROOT
ATOM      1  O1  BZF d   1      -0.757   0.089  -0.405  0.00  0.00    -0.204 OA
ATOM      2  C2  BZF d   1      -0.407  -1.237  -0.572  0.00  0.00     0.174 A 
ATOM      3  C3  BZF d   1       0.929  -1.395  -0.483  0.00  0.00    -0.012 A 
ATOM      4  C3A BZF d   1       1.440  -0.099  -0.153  0.00  0.00    -0.107 A 
ATOM      5  C4  BZF d   1       2.695   0.383   0.083  0.00  0.00     0.055 A 
ATOM      6  C5  BZF d   1       2.860   1.714   0.306  0.00  0.00    -0.016 A 
ATOM      7  C6  BZF d   1       1.795   2.589   0.296  0.00  0.00     0.022 A 
ATOM      8  C7  BZF d   1       0.530   2.157   0.071  0.00  0.00     0.029 A 
ATOM      9  C7A BZF d   1       0.356   0.808  -0.122  0.00  0.00     0.058 A 
ENDROOT
TORSDOF 0
ENDMDL
