MODEL 1
REMARK minimizedAffinity -1.80521297
REMARK minimizedRMSD -1
REMARK  0 active torsions:
REMARK  status: ('A' for Active; 'I' for Inactive)
ROOT
ATOM      1  O1  BZF d   1       0.496   1.040  -1.173  0.00  0.00    -0.204 OA
ATOM      2  C2  BZF d   1      -0.508   1.517  -0.352  0.00  0.00     0.174 A 
ATOM      3  C3  BZF d   1      -1.075   0.510   0.344  0.00  0.00    -0.012 A 
ATOM      4  C3A BZF d   1      -0.319  -0.656   0.002  0.00  0.00    -0.107 A 
ATOM      5  C4  BZF d   1      -0.389  -1.965   0.384  0.00  0.00     0.055 A 
ATOM      6  C5  BZF d   1       0.449  -2.867  -0.192  0.00  0.00    -0.016 A 
ATOM      7  C6  BZF d   1       1.364  -2.496  -1.155  0.00  0.00     0.022 A 
ATOM      8  C7  BZF d   1       1.473  -1.208  -1.563  0.00  0.00     0.029 A 
ATOM      9  C7A BZF d   1       0.651  -0.289  -0.959  0.00  0.00     0.058 A 
ENDROOT
TORSDOF 0
ENDMDL
