MODEL 1
REMARK minimizedAffinity -1.09183371
REMARK minimizedRMSD -1
REMARK  0 active torsions:
REMARK  status: ('A' for Active; 'I' for Inactive)
ROOT
ATOM      1  O1  BZF d   1      -0.703   1.999   3.118  0.00  0.00    -0.204 OA
ATOM      2  C2  BZF d   1      -1.340   0.989   3.813  0.00  0.00     0.174 A 
ATOM      3  C3  BZF d   1      -1.637  -0.041   2.995  0.00  0.00    -0.012 A 
ATOM      4  C3A BZF d   1      -1.073   0.310   1.728  0.00  0.00    -0.107 A 
ATOM      5  C4  BZF d   1      -1.023  -0.318   0.516  0.00  0.00     0.055 A 
ATOM      6  C5  BZF d   1      -0.461   0.328  -0.539  0.00  0.00    -0.016 A 
ATOM      7  C6  BZF d   1       0.056   1.601  -0.420  0.00  0.00     0.022 A 
ATOM      8  C7  BZF d   1       0.034   2.262   0.763  0.00  0.00     0.029 A 
ATOM      9  C7A BZF d   1      -0.504   1.600   1.839  0.00  0.00     0.058 A 
ENDROOT
TORSDOF 0
ENDMDL
