MODEL 1
REMARK minimizedAffinity 10.8656387
REMARK minimizedRMSD -1
REMARK  0 active torsions:
REMARK  status: ('A' for Active; 'I' for Inactive)
ROOT
ATOM      1  O1  BZF d   1      -5.869   1.905   4.093  0.00  0.00    -0.204 OA
ATOM      2  C2  BZF d   1      -4.873   2.618   4.731  0.00  0.00     0.174 A 
ATOM      3  C3  BZF d   1      -3.762   1.867   4.873  0.00  0.00    -0.012 A 
ATOM      4  C3A BZF d   1      -4.053   0.636   4.204  0.00  0.00    -0.107 A 
ATOM      5  C4  BZF d   1      -3.337  -0.507   3.987  0.00  0.00     0.055 A 
ATOM      6  C5  BZF d   1      -3.937  -1.553   3.361  0.00  0.00    -0.016 A 
ATOM      7  C6  BZF d   1      -5.251  -1.494   2.945  0.00  0.00     0.022 A 
ATOM      8  C7  BZF d   1      -6.000  -0.380   3.134  0.00  0.00     0.029 A 
ATOM      9  C7A BZF d   1      -5.386   0.691   3.736  0.00  0.00     0.058 A 
ENDROOT
TORSDOF 0
ENDMDL
