MODEL 1
REMARK minimizedAffinity 0.81071949
REMARK minimizedRMSD -1
REMARK  0 active torsions:
REMARK  status: ('A' for Active; 'I' for Inactive)
ROOT
ATOM      1  O1  BZF d   1      -4.258  -3.371  -6.000  0.00  0.00    -0.204 OA
ATOM      2  C2  BZF d   1      -5.537  -3.892  -6.000  0.00  0.00     0.174 A 
ATOM      3  C3  BZF d   1      -5.674  -4.825  -5.035  0.00  0.00    -0.012 A 
ATOM      4  C3A BZF d   1      -4.428  -4.825  -4.332  0.00  0.00    -0.107 A 
ATOM      5  C4  BZF d   1      -3.955  -5.525  -3.259  0.00  0.00     0.055 A 
ATOM      6  C5  BZF d   1      -2.667  -5.341  -2.866  0.00  0.00    -0.016 A 
ATOM      7  C6  BZF d   1      -1.824  -4.470  -3.525  0.00  0.00     0.022 A 
ATOM      8  C7  BZF d   1      -2.250  -3.749  -4.591  0.00  0.00     0.029 A 
ATOM      9  C7A BZF d   1      -3.560  -3.909  -4.971  0.00  0.00     0.058 A 
ENDROOT
TORSDOF 0
ENDMDL
