MODEL 1
REMARK minimizedAffinity 16.2097797
REMARK minimizedRMSD -1
REMARK  0 active torsions:
REMARK  status: ('A' for Active; 'I' for Inactive)
ROOT
ATOM      1  O1  BZF d   1      -3.413  -2.502  -5.839  0.00  0.00    -0.204 OA
ATOM      2  C2  BZF d   1      -4.711  -2.947  -6.000  0.00  0.00     0.174 A 
ATOM      3  C3  BZF d   1      -5.020  -3.869  -5.066  0.00  0.00    -0.012 A 
ATOM      4  C3A BZF d   1      -3.871  -3.942  -4.215  0.00  0.00    -0.107 A 
ATOM      5  C4  BZF d   1      -3.576  -4.669  -3.097  0.00  0.00     0.055 A 
ATOM      6  C5  BZF d   1      -2.338  -4.561  -2.547  0.00  0.00    -0.016 A 
ATOM      7  C6  BZF d   1      -1.371  -3.741  -3.091  0.00  0.00     0.022 A 
ATOM      8  C7  BZF d   1      -1.619  -2.997  -4.197  0.00  0.00     0.029 A 
ATOM      9  C7A BZF d   1      -2.880  -3.079  -4.735  0.00  0.00     0.058 A 
ENDROOT
TORSDOF 0
ENDMDL
