MODEL 1
REMARK minimizedAffinity 10.9231491
REMARK minimizedRMSD -1
REMARK  0 active torsions:
REMARK  status: ('A' for Active; 'I' for Inactive)
ROOT
ATOM      1  O1  BZF d   1      -0.240  -0.850   2.939  0.00  0.00    -0.204 OA
ATOM      2  C2  BZF d   1       0.432   0.340   2.741  0.00  0.00     0.174 A 
ATOM      3  C3  BZF d   1      -0.432   1.375   2.691  0.00  0.00    -0.012 A 
ATOM      4  C3A BZF d   1      -1.717   0.805   2.960  0.00  0.00    -0.107 A 
ATOM      5  C4  BZF d   1      -2.974   1.330   3.062  0.00  0.00     0.055 A 
ATOM      6  C5  BZF d   1      -4.025   0.492   3.262  0.00  0.00    -0.016 A 
ATOM      7  C6  BZF d   1      -3.856  -0.874   3.359  0.00  0.00     0.022 A 
ATOM      8  C7  BZF d   1      -2.628  -1.440   3.269  0.00  0.00     0.029 A 
ATOM      9  C7A BZF d   1      -1.560  -0.593   3.101  0.00  0.00     0.058 A 
ENDROOT
TORSDOF 0
ENDMDL
