MODEL 1
REMARK minimizedAffinity 14.6360846
REMARK minimizedRMSD -1
REMARK  0 active torsions:
REMARK  status: ('A' for Active; 'I' for Inactive)
ROOT
ATOM      1  O1  BZF d   1       3.361  -3.072  -0.338  0.00  0.00    -0.204 OA
ATOM      2  C2  BZF d   1       3.122  -1.808  -0.843  0.00  0.00     0.174 A 
ATOM      3  C3  BZF d   1       2.369  -1.874  -1.960  0.00  0.00    -0.012 A 
ATOM      4  C3A BZF d   1       2.045  -3.259  -2.115  0.00  0.00    -0.107 A 
ATOM      5  C4  BZF d   1       1.307  -3.954  -3.030  0.00  0.00     0.055 A 
ATOM      6  C5  BZF d   1       1.247  -5.308  -2.939  0.00  0.00    -0.016 A 
ATOM      7  C6  BZF d   1       1.916  -6.000  -1.949  0.00  0.00     0.022 A 
ATOM      8  C7  BZF d   1       2.656  -5.353  -1.016  0.00  0.00     0.029 A 
ATOM      9  C7A BZF d   1       2.691  -3.982  -1.086  0.00  0.00     0.058 A 
ENDROOT
TORSDOF 0
ENDMDL
