MODEL 1
REMARK minimizedAffinity 10.7930756
REMARK minimizedRMSD -1
REMARK  0 active torsions:
REMARK  status: ('A' for Active; 'I' for Inactive)
ROOT
ATOM      1  O1  BZF d   1      -2.625  -2.363  -3.558  0.00  0.00    -0.204 OA
ATOM      2  C2  BZF d   1      -1.499  -1.609  -3.821  0.00  0.00     0.174 A 
ATOM      3  C3  BZF d   1      -0.389  -2.233  -3.375  0.00  0.00    -0.012 A 
ATOM      4  C3A BZF d   1      -0.842  -3.496  -2.879  0.00  0.00    -0.107 A 
ATOM      5  C4  BZF d   1      -0.207  -4.568  -2.320  0.00  0.00     0.055 A 
ATOM      6  C5  BZF d   1      -0.947  -5.617  -1.875  0.00  0.00    -0.016 A 
ATOM      7  C6  BZF d   1      -2.324  -5.625  -1.968  0.00  0.00     0.022 A 
ATOM      8  C7  BZF d   1      -2.998  -4.587  -2.519  0.00  0.00     0.029 A 
ATOM      9  C7A BZF d   1      -2.250  -3.540  -3.000  0.00  0.00     0.058 A 
ENDROOT
TORSDOF 0
ENDMDL
