MODEL 1
REMARK minimizedAffinity 3.5767355
REMARK minimizedRMSD -1
REMARK  0 active torsions:
REMARK  status: ('A' for Active; 'I' for Inactive)
ROOT
ATOM      1  O1  BZF d   1      -2.837  -3.066  -5.728  0.00  0.00    -0.204 OA
ATOM      2  C2  BZF d   1      -4.198  -3.302  -5.680  0.00  0.00     0.174 A 
ATOM      3  C3  BZF d   1      -4.505  -4.129  -4.660  0.00  0.00    -0.012 A 
ATOM      4  C3A BZF d   1      -3.270  -4.356  -3.975  0.00  0.00    -0.107 A 
ATOM      5  C4  BZF d   1      -2.930  -5.081  -2.869  0.00  0.00     0.055 A 
ATOM      6  C5  BZF d   1      -1.623  -5.154  -2.503  0.00  0.00    -0.016 A 
ATOM      7  C6  BZF d   1      -0.631  -4.521  -3.223  0.00  0.00     0.022 A 
ATOM      8  C7  BZF d   1      -0.920  -3.786  -4.325  0.00  0.00     0.029 A 
ATOM      9  C7A BZF d   1      -2.244  -3.683  -4.677  0.00  0.00     0.058 A 
ENDROOT
TORSDOF 0
ENDMDL
