MODEL 1
REMARK minimizedAffinity 6.64540339
REMARK minimizedRMSD -1
REMARK  0 active torsions:
REMARK  status: ('A' for Active; 'I' for Inactive)
ROOT
ATOM      1  O1  BZF d   1      -4.875  -2.962  -5.987  0.00  0.00    -0.204 OA
ATOM      2  C2  BZF d   1      -5.991  -3.776  -5.998  0.00  0.00     0.174 A 
ATOM      3  C3  BZF d   1      -5.760  -4.913  -5.310  0.00  0.00    -0.012 A 
ATOM      4  C3A BZF d   1      -4.447  -4.762  -4.762  0.00  0.00    -0.107 A 
ATOM      5  C4  BZF d   1      -3.664  -5.552  -3.970  0.00  0.00     0.055 A 
ATOM      6  C5  BZF d   1      -2.402  -5.144  -3.673  0.00  0.00    -0.016 A 
ATOM      7  C6  BZF d   1      -1.890  -3.957  -4.155  0.00  0.00     0.022 A 
ATOM      8  C7  BZF d   1      -2.631  -3.138  -4.941  0.00  0.00     0.029 A 
ATOM      9  C7A BZF d   1      -3.918  -3.531  -5.215  0.00  0.00     0.058 A 
ENDROOT
TORSDOF 0
ENDMDL
