MODEL 1
REMARK minimizedAffinity 0.820510268
REMARK minimizedRMSD -1
REMARK  0 active torsions:
REMARK  status: ('A' for Active; 'I' for Inactive)
ROOT
ATOM      1  O1  BZF d   1      -1.327  -5.322  -2.528  0.00  0.00    -0.204 OA
ATOM      2  C2  BZF d   1      -0.111  -4.872  -3.004  0.00  0.00     0.174 A 
ATOM      3  C3  BZF d   1      -0.265  -4.237  -4.184  0.00  0.00    -0.012 A 
ATOM      4  C3A BZF d   1      -1.676  -4.213  -4.417  0.00  0.00    -0.107 A 
ATOM      5  C4  BZF d   1      -2.454  -3.704  -5.417  0.00  0.00     0.055 A 
ATOM      6  C5  BZF d   1      -3.796  -3.913  -5.382  0.00  0.00    -0.016 A 
ATOM      7  C6  BZF d   1      -4.393  -4.629  -4.365  0.00  0.00     0.022 A 
ATOM      8  C7  BZF d   1      -3.664  -5.149  -3.348  0.00  0.00     0.029 A 
ATOM      9  C7A BZF d   1      -2.311  -4.911  -3.364  0.00  0.00     0.058 A 
ENDROOT
TORSDOF 0
ENDMDL
