MODEL 1
REMARK minimizedAffinity 5.96682119
REMARK minimizedRMSD -1
REMARK  0 active torsions:
REMARK  status: ('A' for Active; 'I' for Inactive)
ROOT
ATOM      1  O1  BZF d   1      -3.347  -2.522  -5.643  0.00  0.00    -0.204 OA
ATOM      2  C2  BZF d   1      -4.707  -2.756  -5.710  0.00  0.00     0.174 A 
ATOM      3  C3  BZF d   1      -5.035  -3.870  -5.024  0.00  0.00    -0.012 A 
ATOM      4  C3A BZF d   1      -3.816  -4.312  -4.419  0.00  0.00    -0.107 A 
ATOM      5  C4  BZF d   1      -3.500  -5.359  -3.602  0.00  0.00     0.055 A 
ATOM      6  C5  BZF d   1      -2.202  -5.552  -3.247  0.00  0.00    -0.016 A 
ATOM      7  C6  BZF d   1      -1.196  -4.721  -3.695  0.00  0.00     0.022 A 
ATOM      8  C7  BZF d   1      -1.462  -3.666  -4.504  0.00  0.00     0.029 A 
ATOM      9  C7A BZF d   1      -2.776  -3.449  -4.837  0.00  0.00     0.058 A 
ENDROOT
TORSDOF 0
ENDMDL
