MODEL 1
REMARK minimizedAffinity 12.4623775
REMARK minimizedRMSD -1
REMARK  0 active torsions:
REMARK  status: ('A' for Active; 'I' for Inactive)
ROOT
ATOM      1  O1  BZF d   1      -3.688  -3.013  -4.482  0.00  0.00    -0.204 OA
ATOM      2  C2  BZF d   1      -4.999  -3.395  -4.691  0.00  0.00     0.174 A 
ATOM      3  C3  BZF d   1      -5.286  -4.518  -4.001  0.00  0.00    -0.012 A 
ATOM      4  C3A BZF d   1      -4.106  -4.807  -3.245  0.00  0.00    -0.107 A 
ATOM      5  C4  BZF d   1      -3.778  -5.789  -2.355  0.00  0.00     0.055 A 
ATOM      6  C5  BZF d   1      -2.517  -5.829  -1.850  0.00  0.00    -0.016 A 
ATOM      7  C6  BZF d   1      -1.558  -4.906  -2.217  0.00  0.00     0.022 A 
ATOM      8  C7  BZF d   1      -1.838  -3.911  -3.092  0.00  0.00     0.029 A 
ATOM      9  C7A BZF d   1      -3.121  -3.848  -3.579  0.00  0.00     0.058 A 
ENDROOT
TORSDOF 0
ENDMDL
