MODEL 1
REMARK minimizedAffinity 21.8196774
REMARK minimizedRMSD -1
REMARK  0 active torsions:
REMARK  status: ('A' for Active; 'I' for Inactive)
ROOT
ATOM      1  O1  BZF d   1      -3.267   0.534   1.481  0.00  0.00    -0.204 OA
ATOM      2  C2  BZF d   1      -2.560   0.835   2.630  0.00  0.00     0.174 A 
ATOM      3  C3  BZF d   1      -3.064   0.170   3.689  0.00  0.00    -0.012 A 
ATOM      4  C3A BZF d   1      -4.094  -0.666   3.153  0.00  0.00    -0.107 A 
ATOM      5  C4  BZF d   1      -4.949  -1.575   3.708  0.00  0.00     0.055 A 
ATOM      6  C5  BZF d   1      -5.886  -2.167   2.921  0.00  0.00    -0.016 A 
ATOM      7  C6  BZF d   1      -5.998  -1.870   1.579  0.00  0.00     0.022 A 
ATOM      8  C7  BZF d   1      -5.169  -0.980   0.982  0.00  0.00     0.029 A 
ATOM      9  C7A BZF d   1      -4.201  -0.404   1.768  0.00  0.00     0.058 A 
ENDROOT
TORSDOF 0
ENDMDL
