MODEL 1
REMARK minimizedAffinity 16.00103
REMARK minimizedRMSD -1
REMARK  0 active torsions:
REMARK  status: ('A' for Active; 'I' for Inactive)
ROOT
ATOM      1  O1  BZF d   1       0.413  -1.140   3.198  0.00  0.00    -0.204 OA
ATOM      2  C2  BZF d   1       0.233  -0.676   1.910  0.00  0.00     0.174 A 
ATOM      3  C3  BZF d   1       0.083   0.664   1.900  0.00  0.00    -0.012 A 
ATOM      4  C3A BZF d   1       0.268   1.073   3.259  0.00  0.00    -0.107 A 
ATOM      5  C4  BZF d   1       0.256   2.287   3.884  0.00  0.00     0.055 A 
ATOM      6  C5  BZF d   1       0.398   2.336   5.234  0.00  0.00    -0.016 A 
ATOM      7  C6  BZF d   1       0.550   1.192   5.990  0.00  0.00     0.022 A 
ATOM      8  C7  BZF d   1       0.574  -0.034   5.415  0.00  0.00     0.029 A 
ATOM      9  C7A BZF d   1       0.464  -0.085   4.046  0.00  0.00     0.058 A 
ENDROOT
TORSDOF 0
ENDMDL
