MODEL 1
REMARK minimizedAffinity 0.148480102
REMARK minimizedRMSD -1
REMARK  0 active torsions:
REMARK  status: ('A' for Active; 'I' for Inactive)
ROOT
ATOM      1  O1  BZF d   1      -3.006  -3.158  -5.999  0.00  0.00    -0.204 OA
ATOM      2  C2  BZF d   1      -4.348  -3.485  -6.000  0.00  0.00     0.174 A 
ATOM      3  C3  BZF d   1      -4.628  -4.363  -5.015  0.00  0.00    -0.012 A 
ATOM      4  C3A BZF d   1      -3.401  -4.529  -4.300  0.00  0.00    -0.107 A 
ATOM      5  C4  BZF d   1      -3.044  -5.265  -3.206  0.00  0.00     0.055 A 
ATOM      6  C5  BZF d   1      -1.746  -5.264  -2.803  0.00  0.00    -0.016 A 
ATOM      7  C6  BZF d   1      -0.779  -4.543  -3.473  0.00  0.00     0.022 A 
ATOM      8  C7  BZF d   1      -1.086  -3.794  -4.560  0.00  0.00     0.029 A 
ATOM      9  C7A BZF d   1      -2.403  -3.767  -4.950  0.00  0.00     0.058 A 
ENDROOT
TORSDOF 0
ENDMDL
