MODEL 1
REMARK minimizedAffinity 12.0154428
REMARK minimizedRMSD -1
REMARK  0 active torsions:
REMARK  status: ('A' for Active; 'I' for Inactive)
ROOT
ATOM      1  O1  BZF d   1      -2.719  -1.574   2.662  0.00  0.00    -0.204 OA
ATOM      2  C2  BZF d   1      -3.914  -0.951   2.358  0.00  0.00     0.174 A 
ATOM      3  C3  BZF d   1      -3.745   0.383   2.251  0.00  0.00    -0.012 A 
ATOM      4  C3A BZF d   1      -2.339   0.597   2.413  0.00  0.00    -0.107 A 
ATOM      5  C4  BZF d   1      -1.552   1.713   2.392  0.00  0.00     0.055 A 
ATOM      6  C5  BZF d   1      -0.224   1.589   2.657  0.00  0.00    -0.016 A 
ATOM      7  C6  BZF d   1       0.347   0.368   2.951  0.00  0.00     0.022 A 
ATOM      8  C7  BZF d   1      -0.393  -0.767   2.978  0.00  0.00     0.029 A 
ATOM      9  C7A BZF d   1      -1.729  -0.650   2.679  0.00  0.00     0.058 A 
ENDROOT
TORSDOF 0
ENDMDL
