MODEL 1
REMARK minimizedAffinity 7.57889748
REMARK minimizedRMSD -1
REMARK  0 active torsions:
REMARK  status: ('A' for Active; 'I' for Inactive)
ROOT
ATOM      1  O1  BZF d   1      -3.375  -2.450  -4.905  0.00  0.00    -0.204 OA
ATOM      2  C2  BZF d   1      -4.652  -2.938  -5.103  0.00  0.00     0.174 A 
ATOM      3  C3  BZF d   1      -4.833  -4.092  -4.428  0.00  0.00    -0.012 A 
ATOM      4  C3A BZF d   1      -3.622  -4.291  -3.692  0.00  0.00    -0.107 A 
ATOM      5  C4  BZF d   1      -3.201  -5.255  -2.822  0.00  0.00     0.055 A 
ATOM      6  C5  BZF d   1      -1.934  -5.196  -2.333  0.00  0.00    -0.016 A 
ATOM      7  C6  BZF d   1      -1.062  -4.191  -2.697  0.00  0.00     0.022 A 
ATOM      8  C7  BZF d   1      -1.437  -3.209  -3.553  0.00  0.00     0.029 A 
ATOM      9  C7A BZF d   1      -2.727  -3.248  -4.023  0.00  0.00     0.058 A 
ENDROOT
TORSDOF 0
ENDMDL
