MODEL 1
REMARK minimizedAffinity 0.815888882
REMARK minimizedRMSD -1
REMARK  0 active torsions:
REMARK  status: ('A' for Active; 'I' for Inactive)
ROOT
ATOM      1  O1  BZF d   1       3.671  -3.023  -0.587  0.00  0.00    -0.204 OA
ATOM      2  C2  BZF d   1       2.886  -1.886  -0.568  0.00  0.00     0.174 A 
ATOM      3  C3  BZF d   1       1.835  -2.016  -1.404  0.00  0.00    -0.012 A 
ATOM      4  C3A BZF d   1       1.922  -3.351  -1.912  0.00  0.00    -0.107 A 
ATOM      5  C4  BZF d   1       1.153  -4.079  -2.774  0.00  0.00     0.055 A 
ATOM      6  C5  BZF d   1       1.552  -5.331  -3.119  0.00  0.00    -0.016 A 
ATOM      7  C6  BZF d   1       2.715  -5.884  -2.624  0.00  0.00     0.022 A 
ATOM      8  C7  BZF d   1       3.508  -5.203  -1.762  0.00  0.00     0.029 A 
ATOM      9  C7A BZF d   1       3.090  -3.950  -1.386  0.00  0.00     0.058 A 
ENDROOT
TORSDOF 0
ENDMDL
