MODEL 1
REMARK minimizedAffinity 14.6491251
REMARK minimizedRMSD -1
REMARK  0 active torsions:
REMARK  status: ('A' for Active; 'I' for Inactive)
ROOT
ATOM      1  C   UNL d   1      -4.899   3.982  -3.879  0.00  0.00     0.078 C 
ATOM      2  C1  UNL d   1      -4.172   2.760  -4.355  0.00  0.00    -0.077 A 
ATOM      3  C2  UNL d   1      -4.531   1.485  -3.901  0.00  0.00    -0.001 A 
ATOM      4  C3  UNL d   1      -3.839   0.357  -4.345  0.00  0.00     0.003 A 
ATOM      5  C4  UNL d   1      -2.784   0.493  -5.244  0.00  0.00    -0.005 A 
ATOM      6  C5  UNL d   1      -2.418   1.758  -5.700  0.00  0.00     0.003 A 
ATOM      7  C6  UNL d   1      -3.109   2.887  -5.257  0.00  0.00    -0.001 A 
ENDROOT
TORSDOF 0
ENDMDL
