MODEL 1
REMARK minimizedAffinity 5.69568729
REMARK minimizedRMSD -1
REMARK  0 active torsions:
REMARK  status: ('A' for Active; 'I' for Inactive)
ROOT
ATOM      1  C   UNL d   1       6.000  -1.556   1.367  0.00  0.00     0.078 C 
ATOM      2  C1  UNL d   1       5.280  -0.630   0.432  0.00  0.00    -0.077 A 
ATOM      3  C2  UNL d   1       3.969  -0.898   0.020  0.00  0.00    -0.001 A 
ATOM      4  C3  UNL d   1       3.314  -0.033  -0.858  0.00  0.00     0.003 A 
ATOM      5  C4  UNL d   1       3.963   1.105  -1.333  0.00  0.00    -0.005 A 
ATOM      6  C5  UNL d   1       5.269   1.379  -0.930  0.00  0.00     0.003 A 
ATOM      7  C6  UNL d   1       5.925   0.515  -0.052  0.00  0.00    -0.001 A 
ENDROOT
TORSDOF 0
ENDMDL
