MODEL 1
REMARK minimizedAffinity 6.88043451
REMARK minimizedRMSD -1
REMARK  0 active torsions:
REMARK  status: ('A' for Active; 'I' for Inactive)
ROOT
ATOM      1  C   UNL d   1       3.000  -2.465  -1.118  0.00  0.00     0.078 C 
ATOM      2  C1  UNL d   1       3.832  -1.251  -0.827  0.00  0.00    -0.077 A 
ATOM      3  C2  UNL d   1       3.250   0.020  -0.753  0.00  0.00    -0.001 A 
ATOM      4  C3  UNL d   1       4.038   1.142  -0.491  0.00  0.00     0.003 A 
ATOM      5  C4  UNL d   1       5.412   1.005  -0.304  0.00  0.00    -0.005 A 
ATOM      6  C5  UNL d   1       6.000  -0.256  -0.379  0.00  0.00     0.003 A 
ATOM      7  C6  UNL d   1       5.214  -1.380  -0.640  0.00  0.00    -0.001 A 
ENDROOT
TORSDOF 0
ENDMDL
