MODEL 1
REMARK minimizedAffinity 9.931427
REMARK minimizedRMSD -1
REMARK  0 active torsions:
REMARK  status: ('A' for Active; 'I' for Inactive)
ROOT
ATOM      1  C   UNL d   1      -5.234   4.486  -4.469  0.00  0.00     0.078 C 
ATOM      2  C1  UNL d   1      -5.361   3.081  -3.961  0.00  0.00    -0.077 A 
ATOM      3  C2  UNL d   1      -5.110   1.986  -4.797  0.00  0.00    -0.001 A 
ATOM      4  C3  UNL d   1      -5.242   0.684  -4.313  0.00  0.00     0.003 A 
ATOM      5  C4  UNL d   1      -5.626   0.463  -2.992  0.00  0.00    -0.005 A 
ATOM      6  C5  UNL d   1      -5.881   1.547  -2.153  0.00  0.00     0.003 A 
ATOM      7  C6  UNL d   1      -5.749   2.850  -2.635  0.00  0.00    -0.001 A 
ENDROOT
TORSDOF 0
ENDMDL
