MODEL 1
REMARK minimizedAffinity 1.40892708
REMARK minimizedRMSD -1
REMARK  0 active torsions:
REMARK  status: ('A' for Active; 'I' for Inactive)
ROOT
ATOM      1  C   UNL d   1       5.636   2.160   5.056  0.00  0.00     0.078 C 
ATOM      2  C1  UNL d   1       4.947   3.493   5.053  0.00  0.00    -0.077 A 
ATOM      3  C2  UNL d   1       3.960   3.792   4.106  0.00  0.00    -0.001 A 
ATOM      4  C3  UNL d   1       3.334   5.039   4.108  0.00  0.00     0.003 A 
ATOM      5  C4  UNL d   1       3.690   5.998   5.055  0.00  0.00    -0.005 A 
ATOM      6  C5  UNL d   1       4.672   5.711   6.000  0.00  0.00     0.003 A 
ATOM      7  C6  UNL d   1       5.299   4.464   5.999  0.00  0.00    -0.001 A 
ENDROOT
TORSDOF 0
ENDMDL
