MODEL 1
REMARK minimizedAffinity -0.228559643
REMARK minimizedRMSD -1
REMARK  0 active torsions:
REMARK  status: ('A' for Active; 'I' for Inactive)
ROOT
ATOM      1  C   UNL d   1       2.951  -2.617  -1.068  0.00  0.00     0.078 C 
ATOM      2  C1  UNL d   1       3.741  -1.352  -1.229  0.00  0.00    -0.077 A 
ATOM      3  C2  UNL d   1       5.036  -1.373  -1.760  0.00  0.00    -0.001 A 
ATOM      4  C3  UNL d   1       5.763  -0.189  -1.895  0.00  0.00     0.003 A 
ATOM      5  C4  UNL d   1       5.204   1.024  -1.499  0.00  0.00    -0.005 A 
ATOM      6  C5  UNL d   1       3.917   1.055  -0.967  0.00  0.00     0.003 A 
ATOM      7  C6  UNL d   1       3.188  -0.128  -0.831  0.00  0.00    -0.001 A 
ENDROOT
TORSDOF 0
ENDMDL
