MODEL 1
REMARK minimizedAffinity 8.67108059
REMARK minimizedRMSD -1
REMARK  0 active torsions:
REMARK  status: ('A' for Active; 'I' for Inactive)
ROOT
ATOM      1  C   UNL d   1       2.604  -2.236  -1.503  0.00  0.00     0.078 C 
ATOM      2  C1  UNL d   1       3.239  -0.905  -1.234  0.00  0.00    -0.077 A 
ATOM      3  C2  UNL d   1       4.331  -0.460  -1.989  0.00  0.00    -0.001 A 
ATOM      4  C3  UNL d   1       4.918   0.778  -1.720  0.00  0.00     0.003 A 
ATOM      5  C4  UNL d   1       4.420   1.581  -0.696  0.00  0.00    -0.005 A 
ATOM      6  C5  UNL d   1       3.334   1.146   0.062  0.00  0.00     0.003 A 
ATOM      7  C6  UNL d   1       2.746  -0.092  -0.205  0.00  0.00    -0.001 A 
ENDROOT
TORSDOF 0
ENDMDL
