MODEL 1
REMARK minimizedAffinity -0.135490939
REMARK minimizedRMSD -1
REMARK  0 active torsions:
REMARK  status: ('A' for Active; 'I' for Inactive)
ROOT
ATOM      1  C   UNL d   1      -2.344  -3.334  -5.260  0.00  0.00     0.078 C 
ATOM      2  C1  UNL d   1      -1.690  -3.131  -3.925  0.00  0.00    -0.077 A 
ATOM      3  C2  UNL d   1      -1.545  -4.194  -3.025  0.00  0.00    -0.001 A 
ATOM      4  C3  UNL d   1      -0.943  -3.989  -1.782  0.00  0.00     0.003 A 
ATOM      5  C4  UNL d   1      -0.484  -2.722  -1.428  0.00  0.00    -0.005 A 
ATOM      6  C5  UNL d   1      -0.626  -1.658  -2.317  0.00  0.00     0.003 A 
ATOM      7  C6  UNL d   1      -1.227  -1.861  -3.560  0.00  0.00    -0.001 A 
ENDROOT
TORSDOF 0
ENDMDL
