MODEL 1
REMARK minimizedAffinity 11.9145918
REMARK minimizedRMSD -1
REMARK  0 active torsions:
REMARK  status: ('A' for Active; 'I' for Inactive)
ROOT
ATOM      1  C   UNL d   1       2.729  -2.583  -3.262  0.00  0.00     0.078 C 
ATOM      2  C1  UNL d   1       3.092  -1.555  -2.232  0.00  0.00    -0.077 A 
ATOM      3  C2  UNL d   1       3.841  -0.423  -2.576  0.00  0.00    -0.001 A 
ATOM      4  C3  UNL d   1       4.180   0.521  -1.605  0.00  0.00     0.003 A 
ATOM      5  C4  UNL d   1       3.776   0.341  -0.283  0.00  0.00    -0.005 A 
ATOM      6  C5  UNL d   1       3.033  -0.783   0.069  0.00  0.00     0.003 A 
ATOM      7  C6  UNL d   1       2.693  -1.728  -0.901  0.00  0.00    -0.001 A 
ENDROOT
TORSDOF 0
ENDMDL
