MODEL 1
REMARK minimizedAffinity -3.30688667
REMARK minimizedRMSD -1
REMARK  1 active torsions:
REMARK  status: ('A' for Active; 'I' for Inactive)
REMARK    1  A    between atoms: C3_4  and  O_7 
ROOT
ATOM      1  C   UNL d   1       4.573  -5.966  -2.098  0.00  0.00    -0.033 A 
ATOM      2  C1  UNL d   1       3.650  -5.302  -2.909  0.00  0.00     0.039 A 
ATOM      3  C2  UNL d   1       3.561  -3.909  -2.872  0.00  0.00    -0.080 A 
ATOM      4  C3  UNL d   1       4.400  -3.193  -2.022  0.00  0.00     0.150 A 
ATOM      5  C4  UNL d   1       5.325  -3.848  -1.215  0.00  0.00    -0.007 A 
ATOM      6  C5  UNL d   1       5.411  -5.239  -1.253  0.00  0.00     0.039 A 
ENDROOT
BRANCH   4   7
ATOM      7  O   UNL d   1       4.347  -1.833  -1.948  0.00  0.00    -0.526 OA
ATOM      8  H5  UNL d   1       3.643  -1.520  -2.540  0.00  0.00     0.418 HD
ENDBRANCH   4   7
TORSDOF 1
ENDMDL
