MODEL 1
REMARK minimizedAffinity 2.14830852
REMARK minimizedRMSD -1
REMARK  1 active torsions:
REMARK  status: ('A' for Active; 'I' for Inactive)
REMARK    1  A    between atoms: C3_4  and  O_7 
ROOT
ATOM      1  C   UNL d   1       4.097  -4.943  -2.986  0.00  0.00    -0.033 A 
ATOM      2  C1  UNL d   1       4.573  -5.165  -1.693  0.00  0.00     0.039 A 
ATOM      3  C2  UNL d   1       4.734  -4.094  -0.812  0.00  0.00    -0.080 A 
ATOM      4  C3  UNL d   1       4.414  -2.807  -1.236  0.00  0.00     0.150 A 
ATOM      5  C4  UNL d   1       3.935  -2.579  -2.522  0.00  0.00    -0.007 A 
ATOM      6  C5  UNL d   1       3.776  -3.650  -3.400  0.00  0.00     0.039 A 
ENDROOT
BRANCH   4   7
ATOM      7  O   UNL d   1       4.559  -1.729  -0.414  0.00  0.00    -0.526 OA
ATOM      8  H5  UNL d   1       4.926  -2.035   0.432  0.00  0.00     0.418 HD
ENDBRANCH   4   7
TORSDOF 1
ENDMDL
