MODEL 1
REMARK minimizedAffinity -0.0892076939
REMARK minimizedRMSD -1
REMARK  1 active torsions:
REMARK  status: ('A' for Active; 'I' for Inactive)
REMARK    1  A    between atoms: C3_4  and  O_7 
ROOT
ATOM      1  C   UNL d   1       0.143   5.998  -1.196  0.00  0.00    -0.033 A 
ATOM      2  C1  UNL d   1      -1.119   5.626  -0.729  0.00  0.00     0.039 A 
ATOM      3  C2  UNL d   1      -1.430   4.276  -0.553  0.00  0.00    -0.080 A 
ATOM      4  C3  UNL d   1      -0.472   3.310  -0.848  0.00  0.00     0.150 A 
ATOM      5  C4  UNL d   1       0.788   3.674  -1.310  0.00  0.00    -0.007 A 
ATOM      6  C5  UNL d   1       1.097   5.022  -1.486  0.00  0.00     0.039 A 
ENDROOT
BRANCH   4   7
ATOM      7  O   UNL d   1      -0.731   1.980  -0.697  0.00  0.00    -0.526 OA
ATOM      8  H5  UNL d   1      -1.650   1.878  -0.398  0.00  0.00     0.418 HD
ENDBRANCH   4   7
TORSDOF 1
ENDMDL
