MODEL 1
REMARK minimizedAffinity -4.66840219
REMARK minimizedRMSD -1
REMARK  1 active torsions:
REMARK  status: ('A' for Active; 'I' for Inactive)
REMARK    1  A    between atoms: C3_4  and  O_7 
ROOT
ATOM      1  C   UNL d   1       5.261  -4.919  -2.186  0.00  0.00    -0.033 A 
ATOM      2  C1  UNL d   1       4.205  -4.667  -3.063  0.00  0.00     0.039 A 
ATOM      3  C2  UNL d   1       3.610  -3.404  -3.097  0.00  0.00    -0.080 A 
ATOM      4  C3  UNL d   1       4.080  -2.404  -2.251  0.00  0.00     0.150 A 
ATOM      5  C4  UNL d   1       5.134  -2.647  -1.376  0.00  0.00    -0.007 A 
ATOM      6  C5  UNL d   1       5.727  -3.909  -1.343  0.00  0.00     0.039 A 
ENDROOT
BRANCH   4   7
ATOM      7  O   UNL d   1       3.527  -1.158  -2.244  0.00  0.00    -0.526 OA
ATOM      8  H5  UNL d   1       2.791  -1.144  -2.878  0.00  0.00     0.418 HD
ENDBRANCH   4   7
TORSDOF 1
ENDMDL
