MODEL 1
REMARK minimizedAffinity -2.26319551
REMARK minimizedRMSD -1
REMARK  1 active torsions:
REMARK  status: ('A' for Active; 'I' for Inactive)
REMARK    1  A    between atoms: C3_4  and  O_7 
ROOT
ATOM      1  C   UNL d   1       5.046  -4.993  -1.615  0.00  0.00    -0.033 A 
ATOM      2  C1  UNL d   1       5.302  -3.836  -0.877  0.00  0.00     0.039 A 
ATOM      3  C2  UNL d   1       4.706  -2.627  -1.242  0.00  0.00    -0.080 A 
ATOM      4  C3  UNL d   1       3.857  -2.589  -2.344  0.00  0.00     0.150 A 
ATOM      5  C4  UNL d   1       3.595  -3.739  -3.082  0.00  0.00    -0.007 A 
ATOM      6  C5  UNL d   1       4.191  -4.945  -2.716  0.00  0.00     0.039 A 
ENDROOT
BRANCH   4   7
ATOM      7  O   UNL d   1       3.257  -1.431  -2.742  0.00  0.00    -0.526 OA
ATOM      8  H5  UNL d   1       3.553  -0.714  -2.156  0.00  0.00     0.418 HD
ENDBRANCH   4   7
TORSDOF 1
ENDMDL
