MODEL 1
REMARK minimizedAffinity -0.156746671
REMARK minimizedRMSD -1
REMARK  1 active torsions:
REMARK  status: ('A' for Active; 'I' for Inactive)
REMARK    1  A    between atoms: C3_4  and  O_7 
ROOT
ATOM      1  C   UNL d   1      -0.378   2.113  -0.635  0.00  0.00    -0.033 A 
ATOM      2  C1  UNL d   1      -1.440   2.334  -1.515  0.00  0.00     0.039 A 
ATOM      3  C2  UNL d   1      -1.820   3.638  -1.839  0.00  0.00    -0.080 A 
ATOM      4  C3  UNL d   1      -1.131   4.710  -1.279  0.00  0.00     0.150 A 
ATOM      5  C4  UNL d   1      -0.069   4.497  -0.405  0.00  0.00    -0.007 A 
ATOM      6  C5  UNL d   1       0.308   3.194  -0.082  0.00  0.00     0.039 A 
ENDROOT
BRANCH   4   7
ATOM      7  O   UNL d   1      -1.468   6.000  -1.562  0.00  0.00    -0.526 OA
ATOM      8  H5  UNL d   1      -2.237   5.994  -2.156  0.00  0.00     0.418 HD
ENDBRANCH   4   7
TORSDOF 1
ENDMDL
