MODEL 1
REMARK minimizedAffinity -2.13656926
REMARK minimizedRMSD -1
REMARK  1 active torsions:
REMARK  status: ('A' for Active; 'I' for Inactive)
REMARK    1  A    between atoms: C3_4  and  O_7 
ROOT
ATOM      1  C   UNL d   1       5.050  -3.107  -1.993  0.00  0.00    -0.033 A 
ATOM      2  C1  UNL d   1       4.290  -2.599  -0.938  0.00  0.00     0.039 A 
ATOM      3  C2  UNL d   1       3.111  -3.240  -0.552  0.00  0.00    -0.080 A 
ATOM      4  C3  UNL d   1       2.704  -4.387  -1.229  0.00  0.00     0.150 A 
ATOM      5  C4  UNL d   1       3.459  -4.900  -2.279  0.00  0.00    -0.007 A 
ATOM      6  C5  UNL d   1       4.635  -4.258  -2.663  0.00  0.00     0.039 A 
ENDROOT
BRANCH   4   7
ATOM      7  O   UNL d   1       1.558  -5.044  -0.892  0.00  0.00    -0.526 OA
ATOM      8  H5  UNL d   1       1.127  -4.560  -0.169  0.00  0.00     0.418 HD
ENDBRANCH   4   7
TORSDOF 1
ENDMDL
