MODEL 1
REMARK minimizedAffinity 1.38704157
REMARK minimizedRMSD -1
REMARK  1 active torsions:
REMARK  status: ('A' for Active; 'I' for Inactive)
REMARK    1  A    between atoms: C3_4  and  O_7 
ROOT
ATOM      1  C   UNL d   1       4.624  -4.471  -0.972  0.00  0.00    -0.033 A 
ATOM      2  C1  UNL d   1       4.226  -4.739  -2.283  0.00  0.00     0.039 A 
ATOM      3  C2  UNL d   1       3.904  -3.690  -3.146  0.00  0.00    -0.080 A 
ATOM      4  C3  UNL d   1       3.985  -2.378  -2.686  0.00  0.00     0.150 A 
ATOM      5  C4  UNL d   1       4.385  -2.103  -1.382  0.00  0.00    -0.007 A 
ATOM      6  C5  UNL d   1       4.705  -3.153  -0.522  0.00  0.00     0.039 A 
ENDROOT
BRANCH   4   7
ATOM      7  O   UNL d   1       3.677  -1.321  -3.490  0.00  0.00    -0.526 OA
ATOM      8  H5  UNL d   1       3.390  -1.664  -4.352  0.00  0.00     0.418 HD
ENDBRANCH   4   7
TORSDOF 1
ENDMDL
