MODEL 1
REMARK minimizedAffinity 4.93852711
REMARK minimizedRMSD -1
REMARK  1 active torsions:
REMARK  status: ('A' for Active; 'I' for Inactive)
REMARK    1  A    between atoms: C3_4  and  O_7 
ROOT
ATOM      1  C   UNL d   1      -0.307   3.894  -2.128  0.00  0.00    -0.033 A 
ATOM      2  C1  UNL d   1      -0.655   2.542  -2.132  0.00  0.00     0.039 A 
ATOM      3  C2  UNL d   1      -0.578   1.796  -0.955  0.00  0.00    -0.080 A 
ATOM      4  C3  UNL d   1      -0.153   2.413   0.218  0.00  0.00     0.150 A 
ATOM      5  C4  UNL d   1       0.192   3.761   0.231  0.00  0.00    -0.007 A 
ATOM      6  C5  UNL d   1       0.115   4.504  -0.946  0.00  0.00     0.039 A 
ENDROOT
BRANCH   4   7
ATOM      7  O   UNL d   1      -0.058   1.725   1.391  0.00  0.00    -0.526 OA
ATOM      8  H5  UNL d   1      -0.300   0.799   1.225  0.00  0.00     0.418 HD
ENDBRANCH   4   7
TORSDOF 1
ENDMDL
