MODEL 1
REMARK minimizedAffinity 0.157492861
REMARK minimizedRMSD -1
REMARK  1 active torsions:
REMARK  status: ('A' for Active; 'I' for Inactive)
REMARK    1  A    between atoms: C3_4  and  O_7 
ROOT
ATOM      1  C   UNL d   1      -5.088   3.603  -2.429  0.00  0.00    -0.033 A 
ATOM      2  C1  UNL d   1      -3.730   3.302  -2.552  0.00  0.00     0.039 A 
ATOM      3  C2  UNL d   1      -3.272   2.013  -2.272  0.00  0.00    -0.080 A 
ATOM      4  C3  UNL d   1      -4.180   1.036  -1.873  0.00  0.00     0.150 A 
ATOM      5  C4  UNL d   1      -5.534   1.329  -1.752  0.00  0.00    -0.007 A 
ATOM      6  C5  UNL d   1      -5.990   2.617  -2.031  0.00  0.00     0.039 A 
ENDROOT
BRANCH   4   7
ATOM      7  O   UNL d   1      -3.779  -0.234  -1.584  0.00  0.00    -0.526 OA
ATOM      8  H5  UNL d   1      -2.813  -0.282  -1.683  0.00  0.00     0.418 HD
ENDBRANCH   4   7
TORSDOF 1
ENDMDL
