MODEL 1
REMARK minimizedAffinity 2.77582407
REMARK minimizedRMSD -1
REMARK  1 active torsions:
REMARK  status: ('A' for Active; 'I' for Inactive)
REMARK    1  A    between atoms: C3_4  and  O_7 
ROOT
ATOM      1  C   UNL d   1      -0.880   1.209   0.776  0.00  0.00    -0.033 A 
ATOM      2  C1  UNL d   1      -0.339   2.206   1.590  0.00  0.00     0.039 A 
ATOM      3  C2  UNL d   1       0.244   3.338   1.018  0.00  0.00    -0.080 A 
ATOM      4  C3  UNL d   1       0.279   3.462  -0.369  0.00  0.00     0.150 A 
ATOM      5  C4  UNL d   1      -0.261   2.474  -1.186  0.00  0.00    -0.007 A 
ATOM      6  C5  UNL d   1      -0.842   1.344  -0.612  0.00  0.00     0.039 A 
ENDROOT
BRANCH   4   7
ATOM      7  O   UNL d   1       0.842   4.546  -0.973  0.00  0.00    -0.526 OA
ATOM      8  H5  UNL d   1       1.199   5.132  -0.285  0.00  0.00     0.418 HD
ENDBRANCH   4   7
TORSDOF 1
ENDMDL
