MODEL 1
REMARK minimizedAffinity 5.76540041
REMARK minimizedRMSD -1
REMARK  1 active torsions:
REMARK  status: ('A' for Active; 'I' for Inactive)
REMARK    1  A    between atoms: C3_4  and  O_7 
ROOT
ATOM      1  C   UNL d   1       0.154   3.912  -1.701  0.00  0.00    -0.033 A 
ATOM      2  C1  UNL d   1       0.357   4.700  -0.567  0.00  0.00     0.039 A 
ATOM      3  C2  UNL d   1       0.206   4.148   0.706  0.00  0.00    -0.080 A 
ATOM      4  C3  UNL d   1      -0.148   2.807   0.832  0.00  0.00     0.150 A 
ATOM      5  C4  UNL d   1      -0.349   2.015  -0.294  0.00  0.00    -0.007 A 
ATOM      6  C5  UNL d   1      -0.198   2.568  -1.564  0.00  0.00     0.039 A 
ENDROOT
BRANCH   4   7
ATOM      7  O   UNL d   1      -0.313   2.225   2.053  0.00  0.00    -0.526 OA
ATOM      8  H5  UNL d   1      -0.170   2.900   2.738  0.00  0.00     0.418 HD
ENDBRANCH   4   7
TORSDOF 1
ENDMDL
