MODEL 1
REMARK minimizedAffinity -1.20803976
REMARK minimizedRMSD -1
REMARK  1 active torsions:
REMARK  status: ('A' for Active; 'I' for Inactive)
REMARK    1  A    between atoms: C3_4  and  O_7 
ROOT
ATOM      1  C   UNL d   1       4.525  -5.818  -1.957  0.00  0.00    -0.033 A 
ATOM      2  C1  UNL d   1       3.581  -4.948  -2.507  0.00  0.00     0.039 A 
ATOM      3  C2  UNL d   1       3.446  -3.653  -2.003  0.00  0.00    -0.080 A 
ATOM      4  C3  UNL d   1       4.261  -3.240  -0.952  0.00  0.00     0.150 A 
ATOM      5  C4  UNL d   1       5.206  -4.100  -0.403  0.00  0.00    -0.007 A 
ATOM      6  C5  UNL d   1       5.338  -5.394  -0.906  0.00  0.00     0.039 A 
ENDROOT
BRANCH   4   7
ATOM      7  O   UNL d   1       4.163  -1.987  -0.424  0.00  0.00    -0.526 OA
ATOM      8  H5  UNL d   1       3.449  -1.515  -0.883  0.00  0.00     0.418 HD
ENDBRANCH   4   7
TORSDOF 1
ENDMDL
