MODEL 1
REMARK minimizedAffinity 5.24655104
REMARK minimizedRMSD -1
REMARK  0 active torsions:
REMARK  status: ('A' for Active; 'I' for Inactive)
ROOT
ATOM      1  N1  IND d   1      -6.000   2.171   1.674  0.00  0.00    -0.196 N 
ATOM      2  C2  IND d   1      -5.430   3.395   1.461  0.00  0.00     0.054 A 
ATOM      3  C3  IND d   1      -4.726   3.392   0.306  0.00  0.00    -0.031 A 
ATOM      4  C4  IND d   1      -4.459   1.519  -1.440  0.00  0.00     0.051 A 
ATOM      5  C5  IND d   1      -4.765   0.207  -1.668  0.00  0.00    -0.031 A 
ATOM      6  C6  IND d   1      -5.515  -0.532  -0.776  0.00  0.00     0.015 A 
ATOM      7  C7  IND d   1      -5.999   0.020   0.376  0.00  0.00    -0.016 A 
ATOM      8  C8  IND d   1      -5.685   1.350   0.614  0.00  0.00    -0.047 A 
ATOM      9  C9  IND d   1      -4.888   2.093  -0.267  0.00  0.00    -0.096 A 
ATOM     10  HN1 IND d   1      -6.474   1.951   2.356  0.00  0.00     0.298 HD
ENDROOT
TORSDOF 0
ENDMDL
