MODEL 1
REMARK minimizedAffinity -2.01421118
REMARK minimizedRMSD -1
REMARK  0 active torsions:
REMARK  status: ('A' for Active; 'I' for Inactive)
ROOT
ATOM      1  N1  IND d   1      -2.991   3.166  -3.618  0.00  0.00    -0.196 N 
ATOM      2  C2  IND d   1      -3.554   3.921  -2.628  0.00  0.00     0.054 A 
ATOM      3  C3  IND d   1      -4.774   3.438  -2.304  0.00  0.00    -0.031 A 
ATOM      4  C4  IND d   1      -6.000   1.358  -3.199  0.00  0.00     0.051 A 
ATOM      5  C5  IND d   1      -5.901   0.370  -4.138  0.00  0.00    -0.031 A 
ATOM      6  C6  IND d   1      -4.803   0.260  -4.968  0.00  0.00     0.015 A 
ATOM      7  C7  IND d   1      -3.754   1.131  -4.880  0.00  0.00    -0.016 A 
ATOM      8  C8  IND d   1      -3.854   2.139  -3.932  0.00  0.00    -0.047 A 
ATOM      9  C9  IND d   1      -4.984   2.281  -3.116  0.00  0.00    -0.096 A 
ATOM     10  HN1 IND d   1      -2.225   3.308  -3.984  0.00  0.00     0.298 HD
ENDROOT
TORSDOF 0
ENDMDL
