MODEL 1
REMARK minimizedAffinity -0.859365284
REMARK minimizedRMSD -1
REMARK  0 active torsions:
REMARK  status: ('A' for Active; 'I' for Inactive)
ROOT
ATOM      1  N1  IND d   1       1.248   1.484   1.704  0.00  0.00    -0.196 N 
ATOM      2  C2  IND d   1       1.339   2.021   2.958  0.00  0.00     0.054 A 
ATOM      3  C3  IND d   1       2.589   2.484   3.182  0.00  0.00    -0.031 A 
ATOM      4  C4  IND d   1       4.615   2.557   1.595  0.00  0.00     0.051 A 
ATOM      5  C5  IND d   1       5.028   2.152   0.357  0.00  0.00    -0.031 A 
ATOM      6  C6  IND d   1       4.185   1.493  -0.514  0.00  0.00     0.015 A 
ATOM      7  C7  IND d   1       2.887   1.223  -0.182  0.00  0.00    -0.016 A 
ATOM      8  C8  IND d   1       2.466   1.626   1.077  0.00  0.00    -0.047 A 
ATOM      9  C9  IND d   1       3.330   2.258   1.981  0.00  0.00    -0.096 A 
ATOM     10  HN1 IND d   1       0.547   1.119   1.365  0.00  0.00     0.298 HD
ENDROOT
TORSDOF 0
ENDMDL
