MODEL 1
REMARK minimizedAffinity 7.36872578
REMARK minimizedRMSD -1
REMARK  0 active torsions:
REMARK  status: ('A' for Active; 'I' for Inactive)
ROOT
ATOM      1  N1  IND d   1      -4.229   2.897  -3.318  0.00  0.00    -0.196 N 
ATOM      2  C2  IND d   1      -3.779   2.204  -4.408  0.00  0.00     0.054 A 
ATOM      3  C3  IND d   1      -4.076   0.891  -4.285  0.00  0.00    -0.031 A 
ATOM      4  C4  IND d   1      -5.384  -0.325  -2.431  0.00  0.00     0.051 A 
ATOM      5  C5  IND d   1      -5.964  -0.120  -1.210  0.00  0.00    -0.031 A 
ATOM      6  C6  IND d   1      -5.998   1.127  -0.619  0.00  0.00     0.015 A 
ATOM      7  C7  IND d   1      -5.461   2.222  -1.235  0.00  0.00    -0.016 A 
ATOM      8  C8  IND d   1      -4.865   2.016  -2.471  0.00  0.00    -0.047 A 
ATOM      9  C9  IND d   1      -4.790   0.746  -3.056  0.00  0.00    -0.096 A 
ATOM     10  HN1 IND d   1      -4.131   3.740  -3.185  0.00  0.00     0.298 HD
ENDROOT
TORSDOF 0
ENDMDL
