MODEL 1
REMARK minimizedAffinity 3.05596399
REMARK minimizedRMSD -1
REMARK  0 active torsions:
REMARK  status: ('A' for Active; 'I' for Inactive)
ROOT
ATOM      1  N1  IND d   1      -2.715  -0.189  -3.002  0.00  0.00    -0.196 N 
ATOM      2  C2  IND d   1      -2.428   0.004  -4.324  0.00  0.00     0.054 A 
ATOM      3  C3  IND d   1      -3.336   0.833  -4.886  0.00  0.00    -0.031 A 
ATOM      4  C4  IND d   1      -5.315   2.070  -3.800  0.00  0.00     0.051 A 
ATOM      5  C5  IND d   1      -6.000   2.181  -2.622  0.00  0.00    -0.031 A 
ATOM      6  C6  IND d   1      -5.616   1.496  -1.488  0.00  0.00     0.015 A 
ATOM      7  C7  IND d   1      -4.520   0.680  -1.485  0.00  0.00    -0.016 A 
ATOM      8  C8  IND d   1      -3.826   0.559  -2.681  0.00  0.00    -0.047 A 
ATOM      9  C9  IND d   1      -4.237   1.218  -3.847  0.00  0.00    -0.096 A 
ATOM     10  HN1 IND d   1      -2.276  -0.693  -2.461  0.00  0.00     0.298 HD
ENDROOT
TORSDOF 0
ENDMDL
