MODEL 1
REMARK minimizedAffinity 5.03941727
REMARK minimizedRMSD -1
REMARK  1 active torsions:
REMARK  status: ('A' for Active; 'I' for Inactive)
REMARK    1  A    between atoms: C1_2  and  C2_3 
ROOT
ATOM      1  C2  UNL d   1      -1.335   1.441  -0.812  0.00  0.00    -0.081 A 
ATOM      2  C3  UNL d   1      -0.142   1.263  -1.523  0.00  0.00     0.006 A 
ATOM      3  C4  UNL d   1       1.080   1.196  -0.850  0.00  0.00     0.002 A 
ATOM      4  C5  UNL d   1       1.129   1.299   0.545  0.00  0.00    -0.080 A 
ATOM      5  C6  UNL d   1       2.431   1.199   1.282  0.00  0.00     0.076 C 
ATOM      6  C7  UNL d   1      -0.062   1.494   1.253  0.00  0.00     0.002 A 
ATOM      7  C8  UNL d   1      -1.284   1.561   0.581  0.00  0.00     0.006 A 
ENDROOT
BRANCH   1   8
ATOM      8  C1  UNL d   1      -2.661   1.448  -1.530  0.00  0.00     0.054 C 
ATOM      9  C   UNL d   1      -2.654   0.493  -2.715  0.00  0.00     0.018 C 
ENDBRANCH   1   8
TORSDOF 1
ENDMDL
