MODEL 1
REMARK minimizedAffinity -2.77906013
REMARK minimizedRMSD -1
REMARK  1 active torsions:
REMARK  status: ('A' for Active; 'I' for Inactive)
REMARK    1  A    between atoms: C1_2  and  C2_3 
ROOT
ATOM      1  C2  UNL d   1      -1.497   0.538  -0.625  0.00  0.00    -0.081 A 
ATOM      2  C3  UNL d   1      -0.896   1.797  -0.510  0.00  0.00     0.006 A 
ATOM      3  C4  UNL d   1       0.314   1.944   0.172  0.00  0.00     0.002 A 
ATOM      4  C5  UNL d   1       0.948   0.835   0.741  0.00  0.00    -0.080 A 
ATOM      5  C6  UNL d   1       2.263   0.974   1.449  0.00  0.00     0.076 C 
ATOM      6  C7  UNL d   1       0.339  -0.421   0.641  0.00  0.00     0.002 A 
ATOM      7  C8  UNL d   1      -0.872  -0.568  -0.039  0.00  0.00     0.006 A 
ENDROOT
BRANCH   1   8
ATOM      8  C1  UNL d   1      -2.770   0.365  -1.414  0.00  0.00     0.054 C 
ATOM      9  C   UNL d   1      -2.487  -0.177  -2.808  0.00  0.00     0.018 C 
ENDBRANCH   1   8
TORSDOF 1
ENDMDL
