MODEL 1
REMARK minimizedAffinity -2.89719701
REMARK minimizedRMSD -1
REMARK  1 active torsions:
REMARK  status: ('A' for Active; 'I' for Inactive)
REMARK    1  A    between atoms: C1_2  and  C2_3 
ROOT
ATOM      1  C2  UNL d   1      -1.413  -0.404  -1.219  0.00  0.00    -0.081 A 
ATOM      2  C3  UNL d   1      -0.364   0.395  -1.690  0.00  0.00     0.006 A 
ATOM      3  C4  UNL d   1       0.660   0.799  -0.830  0.00  0.00     0.002 A 
ATOM      4  C5  UNL d   1       0.658   0.403   0.512  0.00  0.00    -0.080 A 
ATOM      5  C6  UNL d   1       1.767   0.805   1.438  0.00  0.00     0.076 C 
ATOM      6  C7  UNL d   1      -0.399  -0.381   0.987  0.00  0.00     0.002 A 
ATOM      7  C8  UNL d   1      -1.424  -0.784   0.128  0.00  0.00     0.006 A 
ENDROOT
BRANCH   1   8
ATOM      8  C1  UNL d   1      -2.485  -0.895  -2.158  0.00  0.00     0.054 C 
ATOM      9  C   UNL d   1      -2.586  -0.009  -3.392  0.00  0.00     0.018 C 
ENDBRANCH   1   8
TORSDOF 1
ENDMDL
