MODEL 1
REMARK minimizedAffinity 9.68658447
REMARK minimizedRMSD -1
REMARK  0 active torsions:
REMARK  status: ('A' for Active; 'I' for Inactive)
ROOT
ATOM      1  C   UNL d   1       0.772   5.999  -2.142  0.00  0.00     0.077 C 
ATOM      2  C1  UNL d   1       0.436   5.272  -0.874  0.00  0.00    -0.074 A 
ATOM      3  C2  UNL d   1       0.096   5.972   0.288  0.00  0.00    -0.005 A 
ATOM      4  C3  UNL d   1      -0.223   5.282   1.457  0.00  0.00     0.006 A 
ATOM      5  C4  UNL d   1      -0.206   3.887   1.477  0.00  0.00    -0.005 A 
ATOM      6  C5  UNL d   1       0.130   3.169   0.324  0.00  0.00    -0.074 A 
ATOM      7  C6  UNL d   1       0.143   1.670   0.325  0.00  0.00     0.077 C 
ATOM      8  C7  UNL d   1       0.443   3.870  -0.849  0.00  0.00    -0.001 A 
ENDROOT
TORSDOF 0
ENDMDL
