MODEL 1
REMARK minimizedAffinity 8.23351002
REMARK minimizedRMSD -1
REMARK  0 active torsions:
REMARK  status: ('A' for Active; 'I' for Inactive)
ROOT
ATOM      1  C   UNL d   1       5.265  -2.980  -4.074  0.00  0.00     0.077 C 
ATOM      2  C1  UNL d   1       4.667  -4.027  -3.182  0.00  0.00    -0.074 A 
ATOM      3  C2  UNL d   1       3.397  -4.554  -3.443  0.00  0.00    -0.005 A 
ATOM      4  C3  UNL d   1       2.858  -5.534  -2.611  0.00  0.00     0.006 A 
ATOM      5  C4  UNL d   1       3.582  -5.998  -1.511  0.00  0.00    -0.005 A 
ATOM      6  C5  UNL d   1       4.853  -5.484  -1.235  0.00  0.00    -0.074 A 
ATOM      7  C6  UNL d   1       5.647  -5.978  -0.063  0.00  0.00     0.077 C 
ATOM      8  C7  UNL d   1       5.390  -4.504  -2.080  0.00  0.00    -0.001 A 
ENDROOT
TORSDOF 0
ENDMDL
