MODEL 1
REMARK minimizedAffinity 9.33031178
REMARK minimizedRMSD -1
REMARK  0 active torsions:
REMARK  status: ('A' for Active; 'I' for Inactive)
ROOT
ATOM      1  C   UNL d   1      -2.194   6.000   2.018  0.00  0.00     0.077 C 
ATOM      2  C1  UNL d   1      -1.238   5.194   1.190  0.00  0.00    -0.074 A 
ATOM      3  C2  UNL d   1      -0.883   3.893   1.564  0.00  0.00    -0.005 A 
ATOM      4  C3  UNL d   1       0.001   3.153   0.779  0.00  0.00     0.006 A 
ATOM      5  C4  UNL d   1       0.537   3.703  -0.385  0.00  0.00    -0.005 A 
ATOM      6  C5  UNL d   1       0.193   5.002  -0.775  0.00  0.00    -0.074 A 
ATOM      7  C6  UNL d   1       0.754   5.605  -2.029  0.00  0.00     0.077 C 
ATOM      8  C7  UNL d   1      -0.700   5.737   0.015  0.00  0.00    -0.001 A 
ENDROOT
TORSDOF 0
ENDMDL
