MODEL 1
REMARK minimizedAffinity 4.43592262
REMARK minimizedRMSD -1
REMARK  0 active torsions:
REMARK  status: ('A' for Active; 'I' for Inactive)
ROOT
ATOM      1  C   UNL d   1       3.183   3.712   3.018  0.00  0.00     0.077 C 
ATOM      2  C1  UNL d   1       1.935   3.592   2.195  0.00  0.00    -0.074 A 
ATOM      3  C2  UNL d   1       0.947   2.657   2.519  0.00  0.00    -0.005 A 
ATOM      4  C3  UNL d   1      -0.212   2.564   1.749  0.00  0.00     0.006 A 
ATOM      5  C4  UNL d   1      -0.396   3.405   0.651  0.00  0.00    -0.005 A 
ATOM      6  C5  UNL d   1       0.580   4.347   0.313  0.00  0.00    -0.074 A 
ATOM      7  C6  UNL d   1       0.394   5.265  -0.859  0.00  0.00     0.077 C 
ATOM      8  C7  UNL d   1       1.740   4.439   1.095  0.00  0.00    -0.001 A 
ENDROOT
TORSDOF 0
ENDMDL
