MODEL 1
REMARK minimizedAffinity 3.20961475
REMARK minimizedRMSD -1
REMARK  0 active torsions:
REMARK  status: ('A' for Active; 'I' for Inactive)
ROOT
ATOM      1  C   UNL d   1      -2.466   6.000   2.273  0.00  0.00     0.077 C 
ATOM      2  C1  UNL d   1      -1.420   5.308   1.449  0.00  0.00    -0.074 A 
ATOM      3  C2  UNL d   1      -0.963   4.032   1.792  0.00  0.00    -0.005 A 
ATOM      4  C3  UNL d   1       0.003   3.397   1.011  0.00  0.00     0.006 A 
ATOM      5  C4  UNL d   1       0.520   4.032  -0.119  0.00  0.00    -0.005 A 
ATOM      6  C5  UNL d   1       0.075   5.308  -0.478  0.00  0.00    -0.074 A 
ATOM      7  C6  UNL d   1       0.613   5.999  -1.695  0.00  0.00     0.077 C 
ATOM      8  C7  UNL d   1      -0.901   5.936   0.308  0.00  0.00    -0.001 A 
ENDROOT
TORSDOF 0
ENDMDL
