MODEL 1
REMARK minimizedAffinity 8.51834774
REMARK minimizedRMSD -1
REMARK  0 active torsions:
REMARK  status: ('A' for Active; 'I' for Inactive)
ROOT
ATOM      1  C   UNL d   1       0.404   1.807   0.214  0.00  0.00     0.077 C 
ATOM      2  C1  UNL d   1       0.148   3.270   0.007  0.00  0.00    -0.074 A 
ATOM      3  C2  UNL d   1       0.810   3.980  -1.000  0.00  0.00    -0.005 A 
ATOM      4  C3  UNL d   1       0.555   5.339  -1.186  0.00  0.00     0.006 A 
ATOM      5  C4  UNL d   1      -0.363   6.000  -0.369  0.00  0.00    -0.005 A 
ATOM      6  C5  UNL d   1      -1.035   5.306   0.642  0.00  0.00    -0.074 A 
ATOM      7  C6  UNL d   1      -2.032   5.999   1.522  0.00  0.00     0.077 C 
ATOM      8  C7  UNL d   1      -0.778   3.940   0.819  0.00  0.00    -0.001 A 
ENDROOT
TORSDOF 0
ENDMDL
