MODEL 1
REMARK minimizedAffinity 4.88789749
REMARK minimizedRMSD -1
REMARK  0 active torsions:
REMARK  status: ('A' for Active; 'I' for Inactive)
ROOT
ATOM      1  C   UNL d   1      -4.540   1.447   0.944  0.00  0.00     0.077 C 
ATOM      2  C1  UNL d   1      -3.119   1.827   0.654  0.00  0.00    -0.074 A 
ATOM      3  C2  UNL d   1      -2.700   2.100  -0.652  0.00  0.00    -0.005 A 
ATOM      4  C3  UNL d   1      -1.376   2.462  -0.905  0.00  0.00     0.006 A 
ATOM      5  C4  UNL d   1      -0.460   2.553   0.144  0.00  0.00    -0.005 A 
ATOM      6  C5  UNL d   1      -0.861   2.285   1.456  0.00  0.00    -0.074 A 
ATOM      7  C6  UNL d   1       0.109   2.388   2.596  0.00  0.00     0.077 C 
ATOM      8  C7  UNL d   1      -2.194   1.929   1.703  0.00  0.00    -0.001 A 
ENDROOT
TORSDOF 0
ENDMDL
