MODEL 1
REMARK minimizedAffinity 5.68487167
REMARK minimizedRMSD -1
REMARK  0 active torsions:
REMARK  status: ('A' for Active; 'I' for Inactive)
ROOT
ATOM      1  C   UNL d   1      -1.304  -5.822  -4.857  0.00  0.00     0.077 C 
ATOM      2  C1  UNL d   1      -2.802  -5.875  -4.819  0.00  0.00    -0.074 A 
ATOM      3  C2  UNL d   1      -3.551  -5.907  -6.000  0.00  0.00    -0.005 A 
ATOM      4  C3  UNL d   1      -4.943  -5.966  -5.948  0.00  0.00     0.006 A 
ATOM      5  C4  UNL d   1      -5.601  -5.992  -4.718  0.00  0.00    -0.005 A 
ATOM      6  C5  UNL d   1      -4.869  -5.961  -3.526  0.00  0.00    -0.074 A 
ATOM      7  C6  UNL d   1      -5.559  -5.999  -2.195  0.00  0.00     0.077 C 
ATOM      8  C7  UNL d   1      -3.470  -5.909  -3.586  0.00  0.00    -0.001 A 
ENDROOT
TORSDOF 0
ENDMDL
