MODEL 1
REMARK minimizedAffinity 1.61391711
REMARK minimizedRMSD -1
REMARK  0 active torsions:
REMARK  status: ('A' for Active; 'I' for Inactive)
ROOT
ATOM      1  C   UNL d   1      -4.876   1.621  -2.281  0.00  0.00     0.077 C 
ATOM      2  C1  UNL d   1      -5.258   2.260  -3.584  0.00  0.00    -0.074 A 
ATOM      3  C2  UNL d   1      -5.453   1.487  -4.733  0.00  0.00    -0.005 A 
ATOM      4  C3  UNL d   1      -5.817   2.095  -5.935  0.00  0.00     0.006 A 
ATOM      5  C4  UNL d   1      -5.990   3.478  -5.999  0.00  0.00    -0.005 A 
ATOM      6  C5  UNL d   1      -5.800   4.266  -4.860  0.00  0.00    -0.074 A 
ATOM      7  C6  UNL d   1      -5.991   5.753  -4.909  0.00  0.00     0.077 C 
ATOM      8  C7  UNL d   1      -5.441   3.648  -3.654  0.00  0.00    -0.001 A 
ENDROOT
TORSDOF 0
ENDMDL
