MODEL 1
REMARK minimizedAffinity 7.75591612
REMARK minimizedRMSD -1
REMARK  0 active torsions:
REMARK  status: ('A' for Active; 'I' for Inactive)
ROOT
ATOM      1  C   UNL d   1      -6.000  -3.021   4.873  0.00  0.00     0.077 C 
ATOM      2  C1  UNL d   1      -5.241  -1.902   4.224  0.00  0.00    -0.074 A 
ATOM      3  C2  UNL d   1      -3.851  -1.962   4.084  0.00  0.00    -0.005 A 
ATOM      4  C3  UNL d   1      -3.160  -0.918   3.470  0.00  0.00     0.006 A 
ATOM      5  C4  UNL d   1      -3.851   0.196   2.990  0.00  0.00    -0.005 A 
ATOM      6  C5  UNL d   1      -5.241   0.273   3.121  0.00  0.00    -0.074 A 
ATOM      7  C6  UNL d   1      -6.000   1.459   2.602  0.00  0.00     0.077 C 
ATOM      8  C7  UNL d   1      -5.929  -0.783   3.733  0.00  0.00    -0.001 A 
ENDROOT
TORSDOF 0
ENDMDL
