MODEL 1
REMARK minimizedAffinity 8.60960197
REMARK minimizedRMSD -1
REMARK  0 active torsions:
REMARK  status: ('A' for Active; 'I' for Inactive)
ROOT
ATOM      1  C1  DEN d   1      -0.464  -2.659  -0.250  0.00  0.00     0.130 A 
ATOM      2  C2  DEN d   1      -1.816  -3.176  -0.058  0.00  0.00    -0.031 A 
ATOM      3  C3  DEN d   1      -1.710  -4.582   0.380  0.00  0.00     0.027 A 
ATOM      4  C4  DEN d   1       0.406  -6.000   0.785  0.00  0.00     0.027 A 
ATOM      5  C5  DEN d   1       1.783  -5.999   0.743  0.00  0.00    -0.003 A 
ATOM      6  C6  DEN d   1       2.500  -4.905   0.338  0.00  0.00     0.001 A 
ATOM      7  C7  DEN d   1       1.845  -3.750   0.002  0.00  0.00     0.017 A 
ATOM      8  C8  DEN d   1       0.457  -3.745   0.034  0.00  0.00    -0.094 A 
ATOM      9  C9  DEN d   1      -0.250  -4.858   0.458  0.00  0.00    -0.072 A 
ENDROOT
TORSDOF 0
ENDMDL
