MODEL 1
REMARK minimizedAffinity 2.12464213
REMARK minimizedRMSD -1
REMARK  0 active torsions:
REMARK  status: ('A' for Active; 'I' for Inactive)
ROOT
ATOM      1  C1  DEN d   1      -1.866  -1.823   0.906  0.00  0.00     0.130 A 
ATOM      2  C2  DEN d   1      -2.893  -2.684   0.327  0.00  0.00    -0.031 A 
ATOM      3  C3  DEN d   1      -2.223  -3.855  -0.274  0.00  0.00     0.027 A 
ATOM      4  C4  DEN d   1       0.292  -4.418  -0.358  0.00  0.00     0.027 A 
ATOM      5  C5  DEN d   1       1.552  -3.983  -0.011  0.00  0.00    -0.003 A 
ATOM      6  C6  DEN d   1       1.762  -2.792   0.631  0.00  0.00     0.001 A 
ATOM      7  C7  DEN d   1       0.692  -2.014   0.986  0.00  0.00     0.017 A 
ATOM      8  C8  DEN d   1      -0.581  -2.442   0.633  0.00  0.00    -0.094 A 
ATOM      9  C9  DEN d   1      -0.774  -3.656  -0.005  0.00  0.00    -0.072 A 
ENDROOT
TORSDOF 0
ENDMDL
