MODEL 1
REMARK minimizedAffinity -4.21711731
REMARK minimizedRMSD -1
REMARK  0 active torsions:
REMARK  status: ('A' for Active; 'I' for Inactive)
ROOT
ATOM      1  C1  DEN d   1       0.782  -0.748  -0.455  0.00  0.00     0.130 A 
ATOM      2  C2  DEN d   1       1.100  -1.469   0.774  0.00  0.00    -0.031 A 
ATOM      3  C3  DEN d   1      -0.096  -2.237   1.176  0.00  0.00     0.027 A 
ATOM      4  C4  DEN d   1      -2.395  -2.384   0.016  0.00  0.00     0.027 A 
ATOM      5  C5  DEN d   1      -3.145  -1.939  -1.050  0.00  0.00    -0.003 A 
ATOM      6  C6  DEN d   1      -2.654  -1.047  -1.966  0.00  0.00     0.001 A 
ATOM      7  C7  DEN d   1      -1.361  -0.606  -1.859  0.00  0.00     0.017 A 
ATOM      8  C8  DEN d   1      -0.601  -1.044  -0.782  0.00  0.00    -0.094 A 
ATOM      9  C9  DEN d   1      -1.112  -1.955   0.126  0.00  0.00    -0.072 A 
ENDROOT
TORSDOF 0
ENDMDL
