MODEL 1
REMARK minimizedAffinity 11.0009899
REMARK minimizedRMSD -1
REMARK  0 active torsions:
REMARK  status: ('A' for Active; 'I' for Inactive)
ROOT
ATOM      1  C1  DEN d   1      -3.479  -3.747   0.513  0.00  0.00     0.130 A 
ATOM      2  C2  DEN d   1      -3.649  -2.418  -0.068  0.00  0.00    -0.031 A 
ATOM      3  C3  DEN d   1      -2.330  -1.955  -0.543  0.00  0.00     0.027 A 
ATOM      4  C4  DEN d   1      -0.053  -3.162  -0.441  0.00  0.00     0.027 A 
ATOM      5  C5  DEN d   1       0.593  -4.306  -0.027  0.00  0.00    -0.003 A 
ATOM      6  C6  DEN d   1      -0.060  -5.321   0.620  0.00  0.00     0.001 A 
ATOM      7  C7  DEN d   1      -1.411  -5.231   0.833  0.00  0.00     0.017 A 
ATOM      8  C8  DEN d   1      -2.068  -4.078   0.426  0.00  0.00    -0.094 A 
ATOM      9  C9  DEN d   1      -1.392  -3.068  -0.238  0.00  0.00    -0.072 A 
ENDROOT
TORSDOF 0
ENDMDL
