MODEL 1
REMARK minimizedAffinity 6.24250984
REMARK minimizedRMSD -1
REMARK  0 active torsions:
REMARK  status: ('A' for Active; 'I' for Inactive)
ROOT
ATOM      1  C1  DEN d   1      -2.743  -2.696  -0.161  0.00  0.00     0.130 A 
ATOM      2  C2  DEN d   1      -1.388  -2.169  -0.300  0.00  0.00    -0.031 A 
ATOM      3  C3  DEN d   1      -1.463  -0.920  -1.085  0.00  0.00     0.027 A 
ATOM      4  C4  DEN d   1      -3.535   0.245  -2.087  0.00  0.00     0.027 A 
ATOM      5  C5  DEN d   1      -4.902   0.167  -2.241  0.00  0.00    -0.003 A 
ATOM      6  C6  DEN d   1      -5.634  -0.879  -1.746  0.00  0.00     0.001 A 
ATOM      7  C7  DEN d   1      -5.009  -1.868  -1.034  0.00  0.00     0.017 A 
ATOM      8  C8  DEN d   1      -3.631  -1.800  -0.880  0.00  0.00    -0.094 A 
ATOM      9  C9  DEN d   1      -2.909  -0.728  -1.378  0.00  0.00    -0.072 A 
ENDROOT
TORSDOF 0
ENDMDL
