MODEL 1
REMARK minimizedAffinity 2.34566092
REMARK minimizedRMSD -1
REMARK  0 active torsions:
REMARK  status: ('A' for Active; 'I' for Inactive)
ROOT
ATOM      1  C1  DEN d   1      -6.000  -1.514   4.447  0.00  0.00     0.130 A 
ATOM      2  C2  DEN d   1      -5.975  -0.618   5.600  0.00  0.00    -0.031 A 
ATOM      3  C3  DEN d   1      -5.958   0.771   5.099  0.00  0.00     0.027 A 
ATOM      4  C4  DEN d   1      -5.971   1.618   2.663  0.00  0.00     0.027 A 
ATOM      5  C5  DEN d   1      -5.979   1.233   1.341  0.00  0.00    -0.003 A 
ATOM      6  C6  DEN d   1      -5.959  -0.084   0.964  0.00  0.00     0.001 A 
ATOM      7  C7  DEN d   1      -5.977  -1.064   1.921  0.00  0.00     0.017 A 
ATOM      8  C8  DEN d   1      -5.963  -0.684   3.256  0.00  0.00    -0.094 A 
ATOM      9  C9  DEN d   1      -5.995   0.652   3.617  0.00  0.00    -0.072 A 
ENDROOT
TORSDOF 0
ENDMDL
