MODEL 1
REMARK minimizedAffinity 9.0949049
REMARK minimizedRMSD -1
REMARK  0 active torsions:
REMARK  status: ('A' for Active; 'I' for Inactive)
ROOT
ATOM      1  C1  DEN d   1       0.210   3.096   0.385  0.00  0.00     0.130 A 
ATOM      2  C2  DEN d   1      -0.057   2.493  -0.918  0.00  0.00    -0.031 A 
ATOM      3  C3  DEN d   1       0.045   1.027  -0.773  0.00  0.00     0.027 A 
ATOM      4  C4  DEN d   1       0.583  -0.361   1.332  0.00  0.00     0.027 A 
ATOM      5  C5  DEN d   1       0.895  -0.293   2.672  0.00  0.00    -0.003 A 
ATOM      6  C6  DEN d   1       1.033   0.900   3.330  0.00  0.00     0.001 A 
ATOM      7  C7  DEN d   1       0.814   2.074   2.660  0.00  0.00     0.017 A 
ATOM      8  C8  DEN d   1       0.506   2.014   1.307  0.00  0.00    -0.094 A 
ATOM      9  C9  DEN d   1       0.359   0.797   0.662  0.00  0.00    -0.072 A 
ENDROOT
TORSDOF 0
ENDMDL
