MODEL 1
REMARK minimizedAffinity 4.34195232
REMARK minimizedRMSD -1
REMARK  0 active torsions:
REMARK  status: ('A' for Active; 'I' for Inactive)
ROOT
ATOM      1  C   UNL d   1       1.191  -0.124   1.376  0.00  0.00     0.124 A 
ATOM      2  C1  UNL d   1       1.164   0.972   0.524  0.00  0.00     0.062 A 
ATOM      3  C2  UNL d   1       0.060   1.195  -0.295  0.00  0.00     0.162 A 
ATOM      4  C3  UNL d   1      -1.027   0.321  -0.264  0.00  0.00    -0.034 A 
ATOM      5  C4  UNL d   1      -0.992  -0.778   0.596  0.00  0.00     0.162 A 
ATOM      6  C5  UNL d   1       0.113  -0.997   1.411  0.00  0.00     0.062 A 
ATOM      7  F   UNL d   1       0.137  -2.056   2.234  0.00  0.00    -0.097 F 
ATOM      8  F1  UNL d   1      -2.020  -1.638   0.651  0.00  0.00    -0.096 F 
ATOM      9  I   UNL d   1      -2.679   0.652  -1.485  0.00  0.00    -0.060 I 
ATOM     10  F2  UNL d   1       0.061   2.261  -1.108  0.00  0.00    -0.096 F 
ATOM     11  F3  UNL d   1       2.204   1.817   0.487  0.00  0.00    -0.097 F 
ATOM     12  F4  UNL d   1       2.254  -0.336   2.161  0.00  0.00    -0.092 F 
ENDROOT
TORSDOF 0
ENDMDL
