MODEL 1
REMARK minimizedAffinity -3.44381762
REMARK minimizedRMSD -1
REMARK  0 active torsions:
REMARK  status: ('A' for Active; 'I' for Inactive)
ROOT
ATOM      1  C   UNL d   1       2.026  -0.758   0.932  0.00  0.00     0.124 A 
ATOM      2  C1  UNL d   1       1.986   0.428   0.211  0.00  0.00     0.062 A 
ATOM      3  C2  UNL d   1       0.802   0.841  -0.392  0.00  0.00     0.162 A 
ATOM      4  C3  UNL d   1      -0.354   0.067  -0.278  0.00  0.00    -0.034 A 
ATOM      5  C4  UNL d   1      -0.305  -1.125   0.448  0.00  0.00     0.162 A 
ATOM      6  C5  UNL d   1       0.881  -1.533   1.049  0.00  0.00     0.062 A 
ATOM      7  F   UNL d   1       0.917  -2.679   1.745  0.00  0.00    -0.097 F 
ATOM      8  F1  UNL d   1      -1.398  -1.892   0.578  0.00  0.00    -0.096 F 
ATOM      9  I   UNL d   1      -2.126   0.681  -1.179  0.00  0.00    -0.060 I 
ATOM     10  F2  UNL d   1       0.792   1.991  -1.082  0.00  0.00    -0.096 F 
ATOM     11  F3  UNL d   1       3.091   1.178   0.096  0.00  0.00    -0.097 F 
ATOM     12  F4  UNL d   1       3.167  -1.153   1.511  0.00  0.00    -0.092 F 
ENDROOT
TORSDOF 0
ENDMDL
