MODEL 1
REMARK minimizedAffinity 0.300546706
REMARK minimizedRMSD -1
REMARK  0 active torsions:
REMARK  status: ('A' for Active; 'I' for Inactive)
ROOT
ATOM      1  C   UNL d   1      -1.922  -1.281  -0.124  0.00  0.00     0.124 A 
ATOM      2  C1  UNL d   1      -1.569  -0.013  -0.566  0.00  0.00     0.062 A 
ATOM      3  C2  UNL d   1      -0.320   0.515  -0.254  0.00  0.00     0.162 A 
ATOM      4  C3  UNL d   1       0.588  -0.225   0.504  0.00  0.00    -0.034 A 
ATOM      5  C4  UNL d   1       0.226  -1.499   0.946  0.00  0.00     0.162 A 
ATOM      6  C5  UNL d   1      -1.024  -2.022   0.631  0.00  0.00     0.062 A 
ATOM      7  F   UNL d   1      -1.363  -3.247   1.059  0.00  0.00    -0.097 F 
ATOM      8  F1  UNL d   1       1.074  -2.238   1.676  0.00  0.00    -0.096 F 
ATOM      9  I   UNL d   1       2.457   0.561   0.973  0.00  0.00    -0.060 I 
ATOM     10  F2  UNL d   1      -0.006   1.743  -0.694  0.00  0.00    -0.096 F 
ATOM     11  F3  UNL d   1      -2.435   0.706  -1.295  0.00  0.00    -0.097 F 
ATOM     12  F4  UNL d   1      -3.125  -1.786  -0.425  0.00  0.00    -0.092 F 
ENDROOT
TORSDOF 0
ENDMDL
