MODEL 1
REMARK minimizedAffinity -4.31331921
REMARK minimizedRMSD -1
REMARK  0 active torsions:
REMARK  status: ('A' for Active; 'I' for Inactive)
ROOT
ATOM      1  C   UNL d   1       2.095  -0.718   1.466  0.00  0.00     0.124 A 
ATOM      2  C1  UNL d   1       1.189  -1.668   1.016  0.00  0.00     0.062 A 
ATOM      3  C2  UNL d   1       0.043  -1.274   0.331  0.00  0.00     0.162 A 
ATOM      4  C3  UNL d   1      -0.202   0.078   0.090  0.00  0.00    -0.034 A 
ATOM      5  C4  UNL d   1       0.713   1.028   0.546  0.00  0.00     0.162 A 
ATOM      6  C5  UNL d   1       1.857   0.629   1.231  0.00  0.00     0.062 A 
ATOM      7  F   UNL d   1       2.731   1.548   1.665  0.00  0.00    -0.097 F 
ATOM      8  F1  UNL d   1       0.508   2.336   0.332  0.00  0.00    -0.096 F 
ATOM      9  I   UNL d   1      -1.914   0.672  -0.934  0.00  0.00    -0.060 I 
ATOM     10  F2  UNL d   1      -0.815  -2.214  -0.092  0.00  0.00    -0.096 F 
ATOM     11  F3  UNL d   1       1.416  -2.970   1.243  0.00  0.00    -0.097 F 
ATOM     12  F4  UNL d   1       3.196  -1.100   2.126  0.00  0.00    -0.092 F 
ENDROOT
TORSDOF 0
ENDMDL
