MODEL 1
REMARK minimizedAffinity -2.73983908
REMARK minimizedRMSD -1
REMARK  0 active torsions:
REMARK  status: ('A' for Active; 'I' for Inactive)
ROOT
ATOM      1  C   UNL d   1       2.434  -1.448   2.391  0.00  0.00     0.124 A 
ATOM      2  C1  UNL d   1       2.657  -0.877   1.146  0.00  0.00     0.062 A 
ATOM      3  C2  UNL d   1       1.647  -0.870   0.188  0.00  0.00     0.162 A 
ATOM      4  C3  UNL d   1       0.404  -1.436   0.472  0.00  0.00    -0.034 A 
ATOM      5  C4  UNL d   1       0.188  -2.009   1.726  0.00  0.00     0.162 A 
ATOM      6  C5  UNL d   1       1.200  -2.013   2.680  0.00  0.00     0.062 A 
ATOM      7  F   UNL d   1       0.982  -2.565   3.883  0.00  0.00    -0.097 F 
ATOM      8  F1  UNL d   1      -0.996  -2.561   2.032  0.00  0.00    -0.096 F 
ATOM      9  I   UNL d   1      -1.108  -1.428  -0.958  0.00  0.00    -0.060 I 
ATOM     10  F2  UNL d   1       1.891  -0.312  -1.007  0.00  0.00    -0.096 F 
ATOM     11  F3  UNL d   1       3.849  -0.331   0.864  0.00  0.00    -0.097 F 
ATOM     12  F4  UNL d   1       3.407  -1.454   3.311  0.00  0.00    -0.092 F 
ENDROOT
TORSDOF 0
ENDMDL
