MODEL 1
REMARK minimizedAffinity 0.24258025
REMARK minimizedRMSD -1
REMARK  0 active torsions:
REMARK  status: ('A' for Active; 'I' for Inactive)
ROOT
ATOM      1  C   UNL d   1       1.306  -0.305   1.371  0.00  0.00     0.124 A 
ATOM      2  C1  UNL d   1       1.331   0.818   0.556  0.00  0.00     0.062 A 
ATOM      3  C2  UNL d   1       0.277   1.074  -0.316  0.00  0.00     0.162 A 
ATOM      4  C3  UNL d   1      -0.813   0.205  -0.376  0.00  0.00    -0.034 A 
ATOM      5  C4  UNL d   1      -0.831  -0.923   0.446  0.00  0.00     0.162 A 
ATOM      6  C5  UNL d   1       0.226  -1.174   1.315  0.00  0.00     0.062 A 
ATOM      7  F   UNL d   1       0.200  -2.260   2.102  0.00  0.00    -0.097 F 
ATOM      8  F1  UNL d   1      -1.863  -1.779   0.413  0.00  0.00    -0.096 F 
ATOM      9  I   UNL d   1      -2.392   0.585  -1.678  0.00  0.00    -0.060 I 
ATOM     10  F2  UNL d   1       0.327   2.167  -1.092  0.00  0.00    -0.096 F 
ATOM     11  F3  UNL d   1       2.374   1.659   0.607  0.00  0.00    -0.097 F 
ATOM     12  F4  UNL d   1       2.323  -0.550   2.208  0.00  0.00    -0.092 F 
ENDROOT
TORSDOF 0
ENDMDL
