MODEL 1
REMARK minimizedAffinity 1.62612319
REMARK minimizedRMSD -1
REMARK  0 active torsions:
REMARK  status: ('A' for Active; 'I' for Inactive)
ROOT
ATOM      1  C   UNL d   1      -0.026  -0.055   0.330  0.00  0.00     0.124 A 
ATOM      2  C1  UNL d   1      -1.089  -0.922   0.545  0.00  0.00     0.062 A 
ATOM      3  C2  UNL d   1      -2.185  -0.912  -0.312  0.00  0.00     0.162 A 
ATOM      4  C3  UNL d   1      -2.225  -0.033  -1.393  0.00  0.00    -0.034 A 
ATOM      5  C4  UNL d   1      -1.154   0.837  -1.603  0.00  0.00     0.162 A 
ATOM      6  C5  UNL d   1      -0.060   0.823  -0.744  0.00  0.00     0.062 A 
ATOM      7  F   UNL d   1       0.965   1.662  -0.953  0.00  0.00    -0.097 F 
ATOM      8  F1  UNL d   1      -1.159   1.696  -2.633  0.00  0.00    -0.096 F 
ATOM      9  I   UNL d   1      -3.863  -0.015  -2.677  0.00  0.00    -0.060 I 
ATOM     10  F2  UNL d   1      -3.197  -1.761  -0.079  0.00  0.00    -0.096 F 
ATOM     11  F3  UNL d   1      -1.059  -1.772   1.582  0.00  0.00    -0.097 F 
ATOM     12  F4  UNL d   1       1.027  -0.066   1.157  0.00  0.00    -0.092 F 
ENDROOT
TORSDOF 0
ENDMDL
