MODEL 1
REMARK minimizedAffinity 3.08020854
REMARK minimizedRMSD -1
REMARK  1 active torsions:
REMARK  status: ('A' for Active; 'I' for Inactive)
REMARK    1  A    between atoms: C1_2  and  C2_3 
ROOT
ATOM      1  C2  UNL d   1       3.326   5.473  -2.484  0.00  0.00    -0.077 A 
ATOM      2  C3  UNL d   1       4.272   5.738  -1.483  0.00  0.00     0.002 A 
ATOM      3  C4  UNL d   1       5.602   5.998  -1.818  0.00  0.00     0.002 A 
ATOM      4  C5  UNL d   1       5.998   6.000  -3.154  0.00  0.00    -0.004 A 
ATOM      5  C6  UNL d   1       5.066   5.736  -4.157  0.00  0.00     0.002 A 
ATOM      6  C7  UNL d   1       3.736   5.474  -3.824  0.00  0.00     0.002 A 
ENDROOT
BRANCH   1   7
ATOM      7  C1  UNL d   1       1.881   5.241  -2.128  0.00  0.00     0.055 C 
ATOM      8  C   UNL d   1       1.750   4.469  -0.823  0.00  0.00     0.019 C 
ENDBRANCH   1   7
TORSDOF 1
ENDMDL
