MODEL 1
REMARK minimizedAffinity 3.47630215
REMARK minimizedRMSD -1
REMARK  1 active torsions:
REMARK  status: ('A' for Active; 'I' for Inactive)
REMARK    1  A    between atoms: C1_2  and  C2_3 
ROOT
ATOM      1  C2  UNL d   1       3.845   5.728  -2.594  0.00  0.00    -0.077 A 
ATOM      2  C3  UNL d   1       3.164   5.767  -3.819  0.00  0.00     0.002 A 
ATOM      3  C4  UNL d   1       3.872   5.882  -5.017  0.00  0.00     0.002 A 
ATOM      4  C5  UNL d   1       5.264   5.955  -5.001  0.00  0.00    -0.004 A 
ATOM      5  C6  UNL d   1       5.949   5.920  -3.788  0.00  0.00     0.002 A 
ATOM      6  C7  UNL d   1       5.243   5.806  -2.590  0.00  0.00     0.002 A 
ENDROOT
BRANCH   1   7
ATOM      7  C1  UNL d   1       3.086   5.555  -1.304  0.00  0.00     0.055 C 
ATOM      8  C   UNL d   1       1.598   5.812  -1.498  0.00  0.00     0.019 C 
ENDBRANCH   1   7
TORSDOF 1
ENDMDL
