MODEL 1
REMARK minimizedAffinity 7.48250818
REMARK minimizedRMSD -1
REMARK  1 active torsions:
REMARK  status: ('A' for Active; 'I' for Inactive)
REMARK    1  A    between atoms: C1_2  and  C2_3 
ROOT
ATOM      1  C2  UNL d   1      -4.330   0.606  -2.963  0.00  0.00    -0.077 A 
ATOM      2  C3  UNL d   1      -3.895  -0.322  -3.919  0.00  0.00     0.002 A 
ATOM      3  C4  UNL d   1      -4.406  -1.621  -3.926  0.00  0.00     0.002 A 
ATOM      4  C5  UNL d   1      -5.357  -2.003  -2.983  0.00  0.00    -0.004 A 
ATOM      5  C6  UNL d   1      -5.795  -1.087  -2.026  0.00  0.00     0.002 A 
ATOM      6  C7  UNL d   1      -5.285   0.212  -2.017  0.00  0.00     0.002 A 
ENDROOT
BRANCH   1   7
ATOM      7  C1  UNL d   1      -3.817   2.022  -2.985  0.00  0.00     0.055 C 
ATOM      8  C   UNL d   1      -3.134   2.384  -1.673  0.00  0.00     0.019 C 
ENDBRANCH   1   7
TORSDOF 1
ENDMDL
