MODEL 1
REMARK minimizedAffinity 2.55663776
REMARK minimizedRMSD -1
REMARK  1 active torsions:
REMARK  status: ('A' for Active; 'I' for Inactive)
REMARK    1  A    between atoms: C1_2  and  C2_3 
ROOT
ATOM      1  C2  UNL d   1       1.924   0.284   1.774  0.00  0.00    -0.077 A 
ATOM      2  C3  UNL d   1       1.081   1.204   1.135  0.00  0.00     0.002 A 
ATOM      3  C4  UNL d   1       1.615   2.199   0.313  0.00  0.00     0.002 A 
ATOM      4  C5  UNL d   1       2.992   2.280   0.119  0.00  0.00    -0.004 A 
ATOM      5  C6  UNL d   1       3.839   1.371   0.752  0.00  0.00     0.002 A 
ATOM      6  C7  UNL d   1       3.307   0.377   1.575  0.00  0.00     0.002 A 
ENDROOT
BRANCH   1   7
ATOM      7  C1  UNL d   1       1.347  -0.819   2.621  0.00  0.00     0.055 C 
ATOM      8  C   UNL d   1       2.431  -1.772   3.103  0.00  0.00     0.019 C 
ENDBRANCH   1   7
TORSDOF 1
ENDMDL
