MODEL 1
REMARK minimizedAffinity 7.63436985
REMARK minimizedRMSD -1
REMARK  1 active torsions:
REMARK  status: ('A' for Active; 'I' for Inactive)
REMARK    1  A    between atoms: C1_2  and  C2_3 
ROOT
ATOM      1  C2  UNL d   1       2.051  -1.528   2.630  0.00  0.00    -0.077 A 
ATOM      2  C3  UNL d   1       0.855  -2.108   2.183  0.00  0.00     0.002 A 
ATOM      3  C4  UNL d   1       0.010  -1.407   1.320  0.00  0.00     0.002 A 
ATOM      4  C5  UNL d   1       0.354  -0.125   0.895  0.00  0.00    -0.004 A 
ATOM      5  C6  UNL d   1       1.539   0.461   1.336  0.00  0.00     0.002 A 
ATOM      6  C7  UNL d   1       2.385  -0.238   2.199  0.00  0.00     0.002 A 
ENDROOT
BRANCH   1   7
ATOM      7  C1  UNL d   1       2.987  -2.301   3.521  0.00  0.00     0.055 C 
ATOM      8  C   UNL d   1       4.416  -2.252   2.998  0.00  0.00     0.019 C 
ENDBRANCH   1   7
TORSDOF 1
ENDMDL
