MODEL 1
REMARK minimizedAffinity 0.272070765
REMARK minimizedRMSD -1
REMARK  1 active torsions:
REMARK  status: ('A' for Active; 'I' for Inactive)
REMARK    1  A    between atoms: C1_2  and  C2_3 
ROOT
ATOM      1  C2  UNL d   1       3.461  -2.931   4.068  0.00  0.00    -0.077 A 
ATOM      2  C3  UNL d   1       4.540  -2.777   3.186  0.00  0.00     0.002 A 
ATOM      3  C4  UNL d   1       5.803  -3.265   3.524  0.00  0.00     0.002 A 
ATOM      4  C5  UNL d   1       6.000  -3.913   4.741  0.00  0.00    -0.004 A 
ATOM      5  C6  UNL d   1       4.934  -4.069   5.627  0.00  0.00     0.002 A 
ATOM      6  C7  UNL d   1       3.670  -3.581   5.291  0.00  0.00     0.002 A 
ENDROOT
BRANCH   1   7
ATOM      7  C1  UNL d   1       2.086  -2.449   3.685  0.00  0.00     0.055 C 
ATOM      8  C   UNL d   1       2.156  -1.375   2.609  0.00  0.00     0.019 C 
ENDBRANCH   1   7
TORSDOF 1
ENDMDL
