MODEL 1
REMARK minimizedAffinity 8.39367294
REMARK minimizedRMSD -1
REMARK  1 active torsions:
REMARK  status: ('A' for Active; 'I' for Inactive)
REMARK    1  A    between atoms: C1_2  and  C2_3 
ROOT
ATOM      1  C2  UNL d   1       4.453  -3.410   4.144  0.00  0.00    -0.077 A 
ATOM      2  C3  UNL d   1       4.145  -4.554   3.394  0.00  0.00     0.002 A 
ATOM      3  C4  UNL d   1       2.829  -4.812   3.007  0.00  0.00     0.002 A 
ATOM      4  C5  UNL d   1       1.811  -3.929   3.361  0.00  0.00    -0.004 A 
ATOM      5  C6  UNL d   1       2.106  -2.790   4.108  0.00  0.00     0.002 A 
ATOM      6  C7  UNL d   1       3.421  -2.531   4.497  0.00  0.00     0.002 A 
ENDROOT
BRANCH   1   7
ATOM      7  C1  UNL d   1       5.879  -3.104   4.520  0.00  0.00     0.055 C 
ATOM      8  C   UNL d   1       5.999  -2.757   5.997  0.00  0.00     0.019 C 
ENDBRANCH   1   7
TORSDOF 1
ENDMDL
