MODEL 1
REMARK minimizedAffinity 0.740555942
REMARK minimizedRMSD -1
REMARK  1 active torsions:
REMARK  status: ('A' for Active; 'I' for Inactive)
REMARK    1  A    between atoms: C1_2  and  C2_3 
ROOT
ATOM      1  C2  UNL d   1       2.958  -0.231   0.829  0.00  0.00    -0.077 A 
ATOM      2  C3  UNL d   1       3.248   0.588   1.929  0.00  0.00     0.002 A 
ATOM      3  C4  UNL d   1       2.591   0.395   3.145  0.00  0.00     0.002 A 
ATOM      4  C5  UNL d   1       1.643  -0.617   3.274  0.00  0.00    -0.004 A 
ATOM      5  C6  UNL d   1       1.345  -1.436   2.186  0.00  0.00     0.002 A 
ATOM      6  C7  UNL d   1       2.001  -1.244   0.968  0.00  0.00     0.002 A 
ENDROOT
BRANCH   1   7
ATOM      7  C1  UNL d   1       3.701  -0.057  -0.470  0.00  0.00     0.055 C 
ATOM      8  C   UNL d   1       3.255  -1.080  -1.505  0.00  0.00     0.019 C 
ENDBRANCH   1   7
TORSDOF 1
ENDMDL
