MODEL 1
REMARK minimizedAffinity 6.99227571
REMARK minimizedRMSD -1
REMARK  1 active torsions:
REMARK  status: ('A' for Active; 'I' for Inactive)
REMARK    1  A    between atoms: C1_2  and  C2_3 
ROOT
ATOM      1  C2  UNL d   1       3.499  -3.062   4.026  0.00  0.00    -0.077 A 
ATOM      2  C3  UNL d   1       2.396  -3.916   4.165  0.00  0.00     0.002 A 
ATOM      3  C4  UNL d   1       1.154  -3.558   3.635  0.00  0.00     0.002 A 
ATOM      4  C5  UNL d   1       1.005  -2.349   2.960  0.00  0.00    -0.004 A 
ATOM      5  C6  UNL d   1       2.096  -1.492   2.818  0.00  0.00     0.002 A 
ATOM      6  C7  UNL d   1       3.337  -1.847   3.347  0.00  0.00     0.002 A 
ENDROOT
BRANCH   1   7
ATOM      7  C1  UNL d   1       4.850  -3.468   4.553  0.00  0.00     0.055 C 
ATOM      8  C   UNL d   1       5.914  -3.388   3.468  0.00  0.00     0.019 C 
ENDBRANCH   1   7
TORSDOF 1
ENDMDL
