MODEL 1
REMARK minimizedAffinity 4.8581233
REMARK minimizedRMSD -1
REMARK  1 active torsions:
REMARK  status: ('A' for Active; 'I' for Inactive)
REMARK    1  A    between atoms: C1_2  and  C2_3 
ROOT
ATOM      1  C2  UNL d   1       3.443  -4.039   3.973  0.00  0.00    -0.077 A 
ATOM      2  C3  UNL d   1       4.559  -3.370   4.497  0.00  0.00     0.002 A 
ATOM      3  C4  UNL d   1       5.831  -3.600   3.971  0.00  0.00     0.002 A 
ATOM      4  C5  UNL d   1       6.000  -4.494   2.916  0.00  0.00    -0.004 A 
ATOM      5  C6  UNL d   1       4.897  -5.166   2.389  0.00  0.00     0.002 A 
ATOM      6  C7  UNL d   1       3.625  -4.938   2.915  0.00  0.00     0.002 A 
ENDROOT
BRANCH   1   7
ATOM      7  C1  UNL d   1       2.063  -3.756   4.507  0.00  0.00     0.055 C 
ATOM      8  C   UNL d   1       1.407  -2.604   3.760  0.00  0.00     0.019 C 
ENDBRANCH   1   7
TORSDOF 1
ENDMDL
