MODEL 1
REMARK minimizedAffinity 25.7521572
REMARK minimizedRMSD -1
REMARK  0 active torsions:
REMARK  status: ('A' for Active; 'I' for Inactive)
ROOT
ATOM      1  C   UNL d   1       0.789   2.490   2.729  0.00  0.00     0.124 A 
ATOM      2  C1  UNL d   1       2.135   2.286   2.997  0.00  0.00     0.062 A 
ATOM      3  C2  UNL d   1       2.584   1.038   3.421  0.00  0.00     0.162 A 
ATOM      4  C3  UNL d   1       1.684  -0.016   3.580  0.00  0.00    -0.034 A 
ATOM      5  C4  UNL d   1       0.331   0.197   3.310  0.00  0.00     0.162 A 
ATOM      6  C5  UNL d   1      -0.112   1.446   2.886  0.00  0.00     0.062 A 
ATOM      7  F   UNL d   1      -1.413   1.641   2.629  0.00  0.00    -0.097 F 
ATOM      8  F1  UNL d   1      -0.561  -0.795   3.453  0.00  0.00    -0.096 F 
ATOM      9  I   UNL d   1       2.351  -1.883   4.214  0.00  0.00    -0.060 I 
ATOM     10  F2  UNL d   1       3.890   0.870   3.672  0.00  0.00    -0.096 F 
ATOM     11  F3  UNL d   1       3.007   3.293   2.847  0.00  0.00    -0.097 F 
ATOM     12  F4  UNL d   1       0.360   3.691   2.322  0.00  0.00    -0.092 F 
ENDROOT
TORSDOF 0
ENDMDL
