MODEL 1
REMARK minimizedAffinity 23.7142773
REMARK minimizedRMSD -1
REMARK  0 active torsions:
REMARK  status: ('A' for Active; 'I' for Inactive)
ROOT
ATOM      1  C   UNL d   1       0.342   2.285   3.060  0.00  0.00     0.124 A 
ATOM      2  C1  UNL d   1      -0.827   2.591   2.378  0.00  0.00     0.062 A 
ATOM      3  C2  UNL d   1      -0.790   3.422   1.262  0.00  0.00     0.162 A 
ATOM      4  C3  UNL d   1       0.423   3.953   0.821  0.00  0.00    -0.034 A 
ATOM      5  C4  UNL d   1       1.594   3.641   1.513  0.00  0.00     0.162 A 
ATOM      6  C5  UNL d   1       1.551   2.810   2.627  0.00  0.00     0.062 A 
ATOM      7  F   UNL d   1       2.682   2.515   3.285  0.00  0.00    -0.097 F 
ATOM      8  F1  UNL d   1       2.777   4.134   1.115  0.00  0.00    -0.096 F 
ATOM      9  I   UNL d   1       0.483   5.197  -0.847  0.00  0.00    -0.060 I 
ATOM     10  F2  UNL d   1      -1.935   3.701   0.622  0.00  0.00    -0.096 F 
ATOM     11  F3  UNL d   1      -1.997   2.085   2.794  0.00  0.00    -0.097 F 
ATOM     12  F4  UNL d   1       0.302   1.485   4.134  0.00  0.00    -0.092 F 
ENDROOT
TORSDOF 0
ENDMDL
