MODEL 1
REMARK minimizedAffinity 21.0751133
REMARK minimizedRMSD -1
REMARK  0 active torsions:
REMARK  status: ('A' for Active; 'I' for Inactive)
ROOT
ATOM      1  C   UNL d   1       0.586   4.953  -0.001  0.00  0.00     0.124 A 
ATOM      2  C1  UNL d   1      -0.549   4.952  -0.800  0.00  0.00     0.062 A 
ATOM      3  C2  UNL d   1      -1.419   3.866  -0.779  0.00  0.00     0.162 A 
ATOM      4  C3  UNL d   1      -1.158   2.771   0.045  0.00  0.00    -0.034 A 
ATOM      5  C4  UNL d   1      -0.014   2.779   0.845  0.00  0.00     0.162 A 
ATOM      6  C5  UNL d   1       0.852   3.867   0.821  0.00  0.00     0.062 A 
ATOM      7  F   UNL d   1       1.948   3.867   1.594  0.00  0.00    -0.097 F 
ATOM      8  F1  UNL d   1       0.267   1.743   1.650  0.00  0.00    -0.096 F 
ATOM      9  I   UNL d   1      -2.456   1.144   0.079  0.00  0.00    -0.060 I 
ATOM     10  F2  UNL d   1      -2.507   3.891  -1.562  0.00  0.00    -0.096 F 
ATOM     11  F3  UNL d   1      -0.808   6.000  -1.596  0.00  0.00    -0.097 F 
ATOM     12  F4  UNL d   1       1.422   5.999  -0.023  0.00  0.00    -0.092 F 
ENDROOT
TORSDOF 0
ENDMDL
