MODEL 1
REMARK minimizedAffinity 13.0032291
REMARK minimizedRMSD -1
REMARK  0 active torsions:
REMARK  status: ('A' for Active; 'I' for Inactive)
ROOT
ATOM      1  C   UNL d   1       0.392   3.192  -0.088  0.00  0.00     0.124 A 
ATOM      2  C1  UNL d   1       0.396   2.969   1.282  0.00  0.00     0.062 A 
ATOM      3  C2  UNL d   1      -0.372   3.770   2.123  0.00  0.00     0.162 A 
ATOM      4  C3  UNL d   1      -1.151   4.800   1.596  0.00  0.00    -0.034 A 
ATOM      5  C4  UNL d   1      -1.148   5.018   0.217  0.00  0.00     0.162 A 
ATOM      6  C5  UNL d   1      -0.379   4.215  -0.619  0.00  0.00     0.062 A 
ATOM      7  F   UNL d   1      -0.384   4.432  -1.943  0.00  0.00    -0.097 F 
ATOM      8  F1  UNL d   1      -1.886   6.000  -0.323  0.00  0.00    -0.096 F 
ATOM      9  I   UNL d   1      -2.301   5.999   2.849  0.00  0.00    -0.060 I 
ATOM     10  F2  UNL d   1      -0.350   3.532   3.443  0.00  0.00    -0.096 F 
ATOM     11  F3  UNL d   1       1.141   1.981   1.798  0.00  0.00    -0.097 F 
ATOM     12  F4  UNL d   1       1.133   2.420  -0.895  0.00  0.00    -0.092 F 
ENDROOT
TORSDOF 0
ENDMDL
