MODEL 1
REMARK minimizedAffinity 24.6550198
REMARK minimizedRMSD -1
REMARK  0 active torsions:
REMARK  status: ('A' for Active; 'I' for Inactive)
ROOT
ATOM      1  C   UNL d   1      -0.551   5.181  -0.416  0.00  0.00     0.124 A 
ATOM      2  C1  UNL d   1       0.695   5.328  -1.009  0.00  0.00     0.062 A 
ATOM      3  C2  UNL d   1       0.796   5.562  -2.378  0.00  0.00     0.162 A 
ATOM      4  C3  UNL d   1      -0.354   5.651  -3.163  0.00  0.00    -0.034 A 
ATOM      5  C4  UNL d   1      -1.603   5.500  -2.559  0.00  0.00     0.162 A 
ATOM      6  C5  UNL d   1      -1.699   5.267  -1.191  0.00  0.00     0.062 A 
ATOM      7  F   UNL d   1      -2.903   5.125  -0.619  0.00  0.00    -0.097 F 
ATOM      8  F1  UNL d   1      -2.729   5.580  -3.284  0.00  0.00    -0.096 F 
ATOM      9  I   UNL d   1      -0.208   6.000  -5.209  0.00  0.00    -0.060 I 
ATOM     10  F2  UNL d   1       2.013   5.700  -2.924  0.00  0.00    -0.096 F 
ATOM     11  F3  UNL d   1       1.806   5.244  -0.263  0.00  0.00    -0.097 F 
ATOM     12  F4  UNL d   1      -0.645   4.955   0.901  0.00  0.00    -0.092 F 
ENDROOT
TORSDOF 0
ENDMDL
