MODEL 1
REMARK minimizedAffinity 21.488863
REMARK minimizedRMSD -1
REMARK  0 active torsions:
REMARK  status: ('A' for Active; 'I' for Inactive)
ROOT
ATOM      1  C   UNL d   1      -0.201   4.513  -0.863  0.00  0.00     0.124 A 
ATOM      2  C1  UNL d   1       1.060   5.060  -0.668  0.00  0.00     0.062 A 
ATOM      3  C2  UNL d   1       1.849   4.638   0.397  0.00  0.00     0.162 A 
ATOM      4  C3  UNL d   1       1.380   3.662   1.277  0.00  0.00    -0.034 A 
ATOM      5  C4  UNL d   1       0.111   3.117   1.075  0.00  0.00     0.162 A 
ATOM      6  C5  UNL d   1      -0.674   3.543   0.009  0.00  0.00     0.062 A 
ATOM      7  F   UNL d   1      -1.892   3.014  -0.177  0.00  0.00    -0.097 F 
ATOM      8  F1  UNL d   1      -0.371   2.177   1.902  0.00  0.00    -0.096 F 
ATOM      9  I   UNL d   1       2.558   3.027   2.872  0.00  0.00    -0.060 I 
ATOM     10  F2  UNL d   1       3.063   5.183   0.561  0.00  0.00    -0.096 F 
ATOM     11  F3  UNL d   1       1.519   5.999  -1.508  0.00  0.00    -0.097 F 
ATOM     12  F4  UNL d   1      -0.959   4.923  -1.888  0.00  0.00    -0.092 F 
ENDROOT
TORSDOF 0
ENDMDL
