MODEL 1
REMARK minimizedAffinity 22.9037914
REMARK minimizedRMSD -1
REMARK  0 active torsions:
REMARK  status: ('A' for Active; 'I' for Inactive)
ROOT
ATOM      1  C   UNL d   1      -0.340   0.608  -0.728  0.00  0.00     0.124 A 
ATOM      2  C1  UNL d   1      -1.293  -0.353  -1.037  0.00  0.00     0.062 A 
ATOM      3  C2  UNL d   1      -2.406  -0.523  -0.220  0.00  0.00     0.162 A 
ATOM      4  C3  UNL d   1      -2.574   0.271   0.915  0.00  0.00    -0.034 A 
ATOM      5  C4  UNL d   1      -1.611   1.235   1.220  0.00  0.00     0.162 A 
ATOM      6  C5  UNL d   1      -0.500   1.401   0.399  0.00  0.00     0.062 A 
ATOM      7  F   UNL d   1       0.420   2.330   0.699  0.00  0.00    -0.097 F 
ATOM      8  F1  UNL d   1      -1.741   2.015   2.303  0.00  0.00    -0.096 F 
ATOM      9  I   UNL d   1      -4.237   0.020   2.140  0.00  0.00    -0.060 I 
ATOM     10  F2  UNL d   1      -3.311  -1.459  -0.542  0.00  0.00    -0.096 F 
ATOM     11  F3  UNL d   1      -1.140  -1.121  -2.126  0.00  0.00    -0.097 F 
ATOM     12  F4  UNL d   1       0.731   0.769  -1.516  0.00  0.00    -0.092 F 
ENDROOT
TORSDOF 0
ENDMDL
