MODEL 1
REMARK minimizedAffinity 24.2794838
REMARK minimizedRMSD -1
REMARK  0 active torsions:
REMARK  status: ('A' for Active; 'I' for Inactive)
ROOT
ATOM      1  C   UNL d   1      -0.896  -0.755  -1.802  0.00  0.00     0.124 A 
ATOM      2  C1  UNL d   1      -0.515  -0.492  -3.110  0.00  0.00     0.062 A 
ATOM      3  C2  UNL d   1      -1.284   0.351  -3.908  0.00  0.00     0.162 A 
ATOM      4  C3  UNL d   1      -2.442   0.938  -3.398  0.00  0.00    -0.034 A 
ATOM      5  C4  UNL d   1      -2.820   0.668  -2.082  0.00  0.00     0.162 A 
ATOM      6  C5  UNL d   1      -2.048  -0.175  -1.289  0.00  0.00     0.062 A 
ATOM      7  F   UNL d   1      -2.418  -0.428  -0.025  0.00  0.00    -0.097 F 
ATOM      8  F1  UNL d   1      -3.927   1.216  -1.560  0.00  0.00    -0.096 F 
ATOM      9  I   UNL d   1      -3.594   2.199  -4.587  0.00  0.00    -0.060 I 
ATOM     10  F2  UNL d   1      -0.891   0.587  -5.168  0.00  0.00    -0.096 F 
ATOM     11  F3  UNL d   1       0.597  -1.052  -3.609  0.00  0.00    -0.097 F 
ATOM     12  F4  UNL d   1      -0.155  -1.568  -1.038  0.00  0.00    -0.092 F 
ENDROOT
TORSDOF 0
ENDMDL
