MODEL 1
REMARK minimizedAffinity 6.61567783
REMARK minimizedRMSD -1
REMARK  1 active torsions:
REMARK  status: ('A' for Active; 'I' for Inactive)
REMARK    1  A    between atoms: C3_4  and  O_7 
ROOT
ATOM      1  C   UNL d   1      -4.988   5.458  -5.946  0.00  0.00    -0.033 A 
ATOM      2  C1  UNL d   1      -3.597   5.575  -5.974  0.00  0.00     0.039 A 
ATOM      3  C2  UNL d   1      -2.797   4.431  -5.952  0.00  0.00    -0.080 A 
ATOM      4  C3  UNL d   1      -3.399   3.177  -5.902  0.00  0.00     0.150 A 
ATOM      5  C4  UNL d   1      -4.785   3.052  -5.878  0.00  0.00    -0.007 A 
ATOM      6  C5  UNL d   1      -5.582   4.196  -5.899  0.00  0.00     0.039 A 
ENDROOT
BRANCH   4   7
ATOM      7  O   UNL d   1      -2.660   2.032  -5.874  0.00  0.00    -0.526 OA
ATOM      8  H5  UNL d   1      -1.719   2.273  -5.867  0.00  0.00     0.418 HD
ENDBRANCH   4   7
TORSDOF 1
ENDMDL
