MODEL 1
REMARK minimizedAffinity 8.32172489
REMARK minimizedRMSD -1
REMARK  1 active torsions:
REMARK  status: ('A' for Active; 'I' for Inactive)
REMARK    1  A    between atoms: C3_4  and  O_7 
ROOT
ATOM      1  C   UNL d   1       0.537  -1.846  -1.957  0.00  0.00    -0.033 A 
ATOM      2  C1  UNL d   1       0.662  -3.228  -1.802  0.00  0.00     0.039 A 
ATOM      3  C2  UNL d   1       1.838  -3.770  -1.279  0.00  0.00    -0.080 A 
ATOM      4  C3  UNL d   1       2.879  -2.920  -0.914  0.00  0.00     0.150 A 
ATOM      5  C4  UNL d   1       2.759  -1.542  -1.062  0.00  0.00    -0.007 A 
ATOM      6  C5  UNL d   1       1.584  -1.003  -1.585  0.00  0.00     0.039 A 
ENDROOT
BRANCH   4   7
ATOM      7  O   UNL d   1       4.047  -3.403  -0.404  0.00  0.00    -0.526 OA
ATOM      8  H5  UNL d   1       3.997  -4.373  -0.386  0.00  0.00     0.418 HD
ENDBRANCH   4   7
TORSDOF 1
ENDMDL
