MODEL 1
REMARK minimizedAffinity 6.00897503
REMARK minimizedRMSD -1
REMARK  1 active torsions:
REMARK  status: ('A' for Active; 'I' for Inactive)
REMARK    1  A    between atoms: C3_4  and  O_7 
ROOT
ATOM      1  C   UNL d   1       2.610   1.130   3.994  0.00  0.00    -0.033 A 
ATOM      2  C1  UNL d   1       2.609   2.342   3.301  0.00  0.00     0.039 A 
ATOM      3  C2  UNL d   1       2.961   3.524   3.957  0.00  0.00    -0.080 A 
ATOM      4  C3  UNL d   1       3.312   3.479   5.304  0.00  0.00     0.150 A 
ATOM      5  C4  UNL d   1       3.318   2.275   5.999  0.00  0.00    -0.007 A 
ATOM      6  C5  UNL d   1       2.966   1.096   5.343  0.00  0.00     0.039 A 
ENDROOT
BRANCH   4   7
ATOM      7  O   UNL d   1       3.658   4.607   5.988  0.00  0.00    -0.526 OA
ATOM      8  H5  UNL d   1       3.580   5.367   5.387  0.00  0.00     0.418 HD
ENDBRANCH   4   7
TORSDOF 1
ENDMDL
