MODEL 1
REMARK minimizedAffinity 0.750264466
REMARK minimizedRMSD -1
REMARK  1 active torsions:
REMARK  status: ('A' for Active; 'I' for Inactive)
REMARK    1  A    between atoms: C3_4  and  O_7 
ROOT
ATOM      1  C   UNL d   1       1.545   0.656   2.713  0.00  0.00    -0.033 A 
ATOM      2  C1  UNL d   1       2.158   1.872   2.406  0.00  0.00     0.039 A 
ATOM      3  C2  UNL d   1       2.655   2.683   3.428  0.00  0.00    -0.080 A 
ATOM      4  C3  UNL d   1       2.533   2.266   4.751  0.00  0.00     0.150 A 
ATOM      5  C4  UNL d   1       1.927   1.054   5.064  0.00  0.00    -0.007 A 
ATOM      6  C5  UNL d   1       1.430   0.246   4.041  0.00  0.00     0.039 A 
ENDROOT
BRANCH   4   7
ATOM      7  O   UNL d   1       2.999   3.026   5.783  0.00  0.00    -0.526 OA
ATOM      8  H5  UNL d   1       3.366   3.848   5.418  0.00  0.00     0.418 HD
ENDBRANCH   4   7
TORSDOF 1
ENDMDL
