MODEL 1
REMARK minimizedAffinity 9.56145763
REMARK minimizedRMSD -1
REMARK  1 active torsions:
REMARK  status: ('A' for Active; 'I' for Inactive)
REMARK    1  A    between atoms: C3_4  and  O_7 
ROOT
ATOM      1  C   UNL d   1       3.099  -0.949  -0.369  0.00  0.00    -0.033 A 
ATOM      2  C1  UNL d   1       3.811   0.234  -0.158  0.00  0.00     0.039 A 
ATOM      3  C2  UNL d   1       3.383   1.423  -0.751  0.00  0.00    -0.080 A 
ATOM      4  C3  UNL d   1       2.244   1.417  -1.550  0.00  0.00     0.150 A 
ATOM      5  C4  UNL d   1       1.528   0.244  -1.762  0.00  0.00    -0.007 A 
ATOM      6  C5  UNL d   1       1.957  -0.944  -1.170  0.00  0.00     0.039 A 
ENDROOT
BRANCH   4   7
ATOM      7  O   UNL d   1       1.791   2.553  -2.154  0.00  0.00    -0.526 OA
ATOM      8  H5  UNL d   1       2.401   3.279  -1.941  0.00  0.00     0.418 HD
ENDBRANCH   4   7
TORSDOF 1
ENDMDL
