MODEL 1
REMARK minimizedAffinity 6.94151926
REMARK minimizedRMSD -1
REMARK  1 active torsions:
REMARK  status: ('A' for Active; 'I' for Inactive)
REMARK    1  A    between atoms: C3_4  and  O_7 
ROOT
ATOM      1  C   UNL d   1       2.596  -0.841  -1.107  0.00  0.00    -0.033 A 
ATOM      2  C1  UNL d   1       1.950   0.395  -1.179  0.00  0.00     0.039 A 
ATOM      3  C2  UNL d   1       2.223   1.384  -0.232  0.00  0.00    -0.080 A 
ATOM      4  C3  UNL d   1       3.144   1.126   0.779  0.00  0.00     0.150 A 
ATOM      5  C4  UNL d   1       3.794  -0.101   0.855  0.00  0.00    -0.007 A 
ATOM      6  C5  UNL d   1       3.519  -1.088  -0.091  0.00  0.00     0.039 A 
ENDROOT
BRANCH   4   7
ATOM      7  O   UNL d   1       3.440   2.058   1.729  0.00  0.00    -0.526 OA
ATOM      8  H5  UNL d   1       2.894   2.846   1.567  0.00  0.00     0.418 HD
ENDBRANCH   4   7
TORSDOF 1
ENDMDL
