MODEL 1
REMARK minimizedAffinity 0.230330348
REMARK minimizedRMSD -1
REMARK  1 active torsions:
REMARK  status: ('A' for Active; 'I' for Inactive)
REMARK    1  A    between atoms: C3_4  and  O_7 
ROOT
ATOM      1  C   UNL d   1       2.284  -1.505  -0.539  0.00  0.00    -0.033 A 
ATOM      2  C1  UNL d   1       1.197  -1.665  -1.401  0.00  0.00     0.039 A 
ATOM      3  C2  UNL d   1       0.841  -0.637  -2.276  0.00  0.00    -0.080 A 
ATOM      4  C3  UNL d   1       1.579   0.544  -2.279  0.00  0.00     0.150 A 
ATOM      5  C4  UNL d   1       2.666   0.708  -1.426  0.00  0.00    -0.007 A 
ATOM      6  C5  UNL d   1       3.019  -0.320  -0.552  0.00  0.00     0.039 A 
ENDROOT
BRANCH   4   7
ATOM      7  O   UNL d   1       1.267   1.577  -3.112  0.00  0.00    -0.526 OA
ATOM      8  H5  UNL d   1       0.477   1.332  -3.623  0.00  0.00     0.418 HD
ENDBRANCH   4   7
TORSDOF 1
ENDMDL
