MODEL 1
REMARK minimizedAffinity 5.50840759
REMARK minimizedRMSD -1
REMARK  1 active torsions:
REMARK  status: ('A' for Active; 'I' for Inactive)
REMARK    1  A    between atoms: C3_4  and  O_7 
ROOT
ATOM      1  C   UNL d   1       2.095  -0.783  -1.757  0.00  0.00    -0.033 A 
ATOM      2  C1  UNL d   1       2.090  -1.880  -0.894  0.00  0.00     0.039 A 
ATOM      3  C2  UNL d   1       1.263  -2.974  -1.157  0.00  0.00    -0.080 A 
ATOM      4  C3  UNL d   1       0.447  -2.958  -2.285  0.00  0.00     0.150 A 
ATOM      5  C4  UNL d   1       0.450  -1.870  -3.152  0.00  0.00    -0.007 A 
ATOM      6  C5  UNL d   1       1.276  -0.778  -2.887  0.00  0.00     0.039 A 
ENDROOT
BRANCH   4   7
ATOM      7  O   UNL d   1      -0.380  -4.000  -2.581  0.00  0.00    -0.526 OA
ATOM      8  H5  UNL d   1      -0.297  -4.668  -1.880  0.00  0.00     0.418 HD
ENDBRANCH   4   7
TORSDOF 1
ENDMDL
