MODEL 1
REMARK minimizedAffinity 1.88939667
REMARK minimizedRMSD -1
REMARK  1 active torsions:
REMARK  status: ('A' for Active; 'I' for Inactive)
REMARK    1  A    between atoms: C3_4  and  O_7 
ROOT
ATOM      1  C   UNL d   1       2.319  -1.201  -1.840  0.00  0.00    -0.033 A 
ATOM      2  C1  UNL d   1       1.912  -1.952  -0.735  0.00  0.00     0.039 A 
ATOM      3  C2  UNL d   1       0.796  -2.785  -0.828  0.00  0.00    -0.080 A 
ATOM      4  C3  UNL d   1       0.096  -2.859  -2.030  0.00  0.00     0.150 A 
ATOM      5  C4  UNL d   1       0.498  -2.117  -3.135  0.00  0.00    -0.007 A 
ATOM      6  C5  UNL d   1       1.613  -1.284  -3.040  0.00  0.00     0.039 A 
ENDROOT
BRANCH   4   7
ATOM      7  O   UNL d   1      -1.002  -3.655  -2.167  0.00  0.00    -0.526 OA
ATOM      8  H5  UNL d   1      -1.179  -4.085  -1.314  0.00  0.00     0.418 HD
ENDBRANCH   4   7
TORSDOF 1
ENDMDL
