MODEL 1
REMARK minimizedAffinity 11.2926035
REMARK minimizedRMSD -1
REMARK  1 active torsions:
REMARK  status: ('A' for Active; 'I' for Inactive)
REMARK    1  A    between atoms: C3_4  and  O_7 
ROOT
ATOM      1  C   UNL d   1      -0.298  -3.362  -1.293  0.00  0.00    -0.033 A 
ATOM      2  C1  UNL d   1      -0.423  -1.980  -1.442  0.00  0.00     0.039 A 
ATOM      3  C2  UNL d   1      -1.482  -1.448  -2.181  0.00  0.00    -0.080 A 
ATOM      4  C3  UNL d   1      -2.408  -2.309  -2.763  0.00  0.00     0.150 A 
ATOM      5  C4  UNL d   1      -2.292  -3.687  -2.615  0.00  0.00    -0.007 A 
ATOM      6  C5  UNL d   1      -1.233  -4.216  -1.878  0.00  0.00     0.039 A 
ENDROOT
BRANCH   4   7
ATOM      7  O   UNL d   1      -3.456  -1.838  -3.498  0.00  0.00    -0.526 OA
ATOM      8  H5  UNL d   1      -3.392  -0.869  -3.538  0.00  0.00     0.418 HD
ENDBRANCH   4   7
TORSDOF 1
ENDMDL
