MODEL 1
REMARK minimizedAffinity 8.98010159
REMARK minimizedRMSD -1
REMARK  1 active torsions:
REMARK  status: ('A' for Active; 'I' for Inactive)
REMARK    1  A    between atoms: C3_4  and  O_7 
ROOT
ATOM      1  C   UNL d   1       1.864  -1.051  -2.251  0.00  0.00    -0.033 A 
ATOM      2  C1  UNL d   1       0.996  -0.411  -3.139  0.00  0.00     0.039 A 
ATOM      3  C2  UNL d   1       0.939   0.983  -3.180  0.00  0.00    -0.080 A 
ATOM      4  C3  UNL d   1       1.754   1.725  -2.329  0.00  0.00     0.150 A 
ATOM      5  C4  UNL d   1       2.624   1.095  -1.445  0.00  0.00    -0.007 A 
ATOM      6  C5  UNL d   1       2.679  -0.298  -1.406  0.00  0.00     0.039 A 
ENDROOT
BRANCH   4   7
ATOM      7  O   UNL d   1       1.730   3.088  -2.329  0.00  0.00    -0.526 OA
ATOM      8  H5  UNL d   1       1.062   3.384  -2.970  0.00  0.00     0.418 HD
ENDBRANCH   4   7
TORSDOF 1
ENDMDL
