MODEL 1
REMARK minimizedAffinity 3.29147124
REMARK minimizedRMSD -1
REMARK  1 active torsions:
REMARK  status: ('A' for Active; 'I' for Inactive)
REMARK    1  A    between atoms: C3_4  and  O_7 
ROOT
ATOM      1  C   UNL d   1       1.819  -1.041  -1.402  0.00  0.00    -0.033 A 
ATOM      2  C1  UNL d   1       1.716  -2.002  -0.394  0.00  0.00     0.039 A 
ATOM      3  C2  UNL d   1       0.800  -3.049  -0.516  0.00  0.00    -0.080 A 
ATOM      4  C3  UNL d   1      -0.005  -3.123  -1.649  0.00  0.00     0.150 A 
ATOM      5  C4  UNL d   1       0.095  -2.172  -2.659  0.00  0.00    -0.007 A 
ATOM      6  C5  UNL d   1       1.010  -1.127  -2.535  0.00  0.00     0.039 A 
ENDROOT
BRANCH   4   7
ATOM      7  O   UNL d   1      -0.917  -4.124  -1.811  0.00  0.00    -0.526 OA
ATOM      8  H5  UNL d   1      -0.895  -4.690  -1.022  0.00  0.00     0.418 HD
ENDBRANCH   4   7
TORSDOF 1
ENDMDL
