MODEL 1
REMARK minimizedAffinity 0.088429369
REMARK minimizedRMSD -1
REMARK  1 active torsions:
REMARK  status: ('A' for Active; 'I' for Inactive)
REMARK    1  A    between atoms: C3_4  and  O_7 
ROOT
ATOM      1  C   UNL d   1      -1.453  -2.194  -2.269  0.00  0.00    -0.033 A 
ATOM      2  C1  UNL d   1      -2.499  -2.487  -3.146  0.00  0.00     0.039 A 
ATOM      3  C2  UNL d   1      -2.509  -3.696  -3.844  0.00  0.00    -0.080 A 
ATOM      4  C3  UNL d   1      -1.470  -4.603  -3.655  0.00  0.00     0.150 A 
ATOM      5  C4  UNL d   1      -0.427  -4.319  -2.780  0.00  0.00    -0.007 A 
ATOM      6  C5  UNL d   1      -0.418  -3.111  -2.085  0.00  0.00     0.039 A 
ENDROOT
BRANCH   4   7
ATOM      7  O   UNL d   1      -1.434  -5.794  -4.318  0.00  0.00    -0.526 OA
ATOM      8  H5  UNL d   1      -2.204  -5.841  -4.909  0.00  0.00     0.418 HD
ENDBRANCH   4   7
TORSDOF 1
ENDMDL
