MODEL 1
REMARK minimizedAffinity 7.71024275
REMARK minimizedRMSD -1
REMARK  1 active torsions:
REMARK  status: ('A' for Active; 'I' for Inactive)
REMARK    1  A    between atoms: C3_4  and  O_7 
ROOT
ATOM      1  C   UNL d   1      -0.335  -4.153  -1.837  0.00  0.00    -0.033 A 
ATOM      2  C1  UNL d   1      -0.212  -2.764  -1.914  0.00  0.00     0.039 A 
ATOM      3  C2  UNL d   1      -1.305  -1.985  -2.300  0.00  0.00    -0.080 A 
ATOM      4  C3  UNL d   1      -2.513  -2.606  -2.606  0.00  0.00     0.150 A 
ATOM      5  C4  UNL d   1      -2.643  -3.989  -2.527  0.00  0.00    -0.007 A 
ATOM      6  C5  UNL d   1      -1.551  -4.765  -2.143  0.00  0.00     0.039 A 
ENDROOT
BRANCH   4   7
ATOM      7  O   UNL d   1      -3.605  -1.888  -2.992  0.00  0.00    -0.526 OA
ATOM      8  H5  UNL d   1      -3.359  -0.949  -3.029  0.00  0.00     0.418 HD
ENDBRANCH   4   7
TORSDOF 1
ENDMDL
