MODEL 1
REMARK minimizedAffinity 12.068409
REMARK minimizedRMSD -1
REMARK  1 active torsions:
REMARK  status: ('A' for Active; 'I' for Inactive)
REMARK    1  A    between atoms: C3_4  and  O_7 
ROOT
ATOM      1  C   UNL d   1       1.464   1.262   1.650  0.00  0.00    -0.033 A 
ATOM      2  C1  UNL d   1       2.178   2.454   1.789  0.00  0.00     0.039 A 
ATOM      3  C2  UNL d   1       3.207   2.761   0.897  0.00  0.00    -0.080 A 
ATOM      4  C3  UNL d   1       3.511   1.871  -0.129  0.00  0.00     0.150 A 
ATOM      5  C4  UNL d   1       2.801   0.684  -0.276  0.00  0.00    -0.007 A 
ATOM      6  C5  UNL d   1       1.774   0.378   0.616  0.00  0.00     0.039 A 
ENDROOT
BRANCH   4   7
ATOM      7  O   UNL d   1       4.510   2.126  -1.021  0.00  0.00    -0.526 OA
ATOM      8  H5  UNL d   1       4.932   2.967  -0.779  0.00  0.00     0.418 HD
ENDBRANCH   4   7
TORSDOF 1
ENDMDL
