MODEL 1
REMARK minimizedAffinity 4.80114508
REMARK minimizedRMSD -1
REMARK  1 active torsions:
REMARK  status: ('A' for Active; 'I' for Inactive)
REMARK    1  A    between atoms: C3_4  and  O_7 
ROOT
ATOM      1  C   UNL d   1       1.748   2.903   2.394  0.00  0.00    -0.033 A 
ATOM      2  C1  UNL d   1       1.296   1.605   2.151  0.00  0.00     0.039 A 
ATOM      3  C2  UNL d   1       2.084   0.715   1.420  0.00  0.00    -0.080 A 
ATOM      4  C3  UNL d   1       3.321   1.134   0.938  0.00  0.00     0.150 A 
ATOM      5  C4  UNL d   1       3.780   2.425   1.180  0.00  0.00    -0.007 A 
ATOM      6  C5  UNL d   1       2.990   3.313   1.909  0.00  0.00     0.039 A 
ENDROOT
BRANCH   4   7
ATOM      7  O   UNL d   1       4.124   0.302   0.216  0.00  0.00    -0.526 OA
ATOM      8  H5  UNL d   1       3.665  -0.547   0.103  0.00  0.00     0.418 HD
ENDBRANCH   4   7
TORSDOF 1
ENDMDL
