MODEL 1
REMARK minimizedAffinity 13.4908371
REMARK minimizedRMSD -1
REMARK  1 active torsions:
REMARK  status: ('A' for Active; 'I' for Inactive)
REMARK    1  A    between atoms: C3_4  and  O_7 
ROOT
ATOM      1  C   UNL d   1       2.783   0.387  -1.086  0.00  0.00    -0.033 A 
ATOM      2  C1  UNL d   1       2.769   1.751  -1.386  0.00  0.00     0.039 A 
ATOM      3  C2  UNL d   1       2.018   2.223  -2.464  0.00  0.00    -0.080 A 
ATOM      4  C3  UNL d   1       1.286   1.323  -3.233  0.00  0.00     0.150 A 
ATOM      5  C4  UNL d   1       1.292  -0.036  -2.938  0.00  0.00    -0.007 A 
ATOM      6  C5  UNL d   1       2.043  -0.506  -1.862  0.00  0.00     0.039 A 
ENDROOT
BRANCH   4   7
ATOM      7  O   UNL d   1       0.542   1.736  -4.298  0.00  0.00    -0.526 OA
ATOM      8  H5  UNL d   1       0.656   2.696  -4.399  0.00  0.00     0.418 HD
ENDBRANCH   4   7
TORSDOF 1
ENDMDL
