MODEL 1
REMARK minimizedAffinity 5.66548967
REMARK minimizedRMSD -1
REMARK  1 active torsions:
REMARK  status: ('A' for Active; 'I' for Inactive)
REMARK    1  A    between atoms: C1_2  and  C2_3 
ROOT
ATOM      1  C2  UNL d   1       0.980   0.793   0.726  0.00  0.00    -0.073 A 
ATOM      2  C3  UNL d   1      -0.385   0.642   0.457  0.00  0.00    -0.002 A 
ATOM      3  C4  UNL d   1      -1.151   1.739   0.061  0.00  0.00     0.004 A 
ATOM      4  C5  UNL d   1      -0.560   2.995  -0.075  0.00  0.00    -0.004 A 
ATOM      5  C6  UNL d   1       0.805   3.164   0.178  0.00  0.00    -0.075 A 
ATOM      6  C7  UNL d   1       1.455   4.509   0.037  0.00  0.00     0.076 C 
ATOM      7  C8  UNL d   1       1.567   2.058   0.577  0.00  0.00     0.001 A 
ENDROOT
BRANCH   1   8
ATOM      8  C1  UNL d   1       1.813  -0.390   1.147  0.00  0.00     0.053 C 
ATOM      9  C   UNL d   1       0.953  -1.579   1.547  0.00  0.00     0.018 C 
ENDBRANCH   1   8
TORSDOF 1
ENDMDL
