MODEL 1
REMARK minimizedAffinity 11.4450865
REMARK minimizedRMSD -1
REMARK  1 active torsions:
REMARK  status: ('A' for Active; 'I' for Inactive)
REMARK    1  A    between atoms: C1_2  and  C2_3 
ROOT
ATOM      1  C2  UNL d   1      -4.973   2.940  -3.594  0.00  0.00    -0.073 A 
ATOM      2  C3  UNL d   1      -3.606   3.216  -3.718  0.00  0.00    -0.002 A 
ATOM      3  C4  UNL d   1      -2.658   2.319  -3.224  0.00  0.00     0.004 A 
ATOM      4  C5  UNL d   1      -3.066   1.136  -2.608  0.00  0.00    -0.004 A 
ATOM      5  C6  UNL d   1      -4.426   0.837  -2.485  0.00  0.00    -0.075 A 
ATOM      6  C7  UNL d   1      -4.881  -0.430  -1.822  0.00  0.00     0.076 C 
ATOM      7  C8  UNL d   1      -5.372   1.744  -2.981  0.00  0.00     0.001 A 
ENDROOT
BRANCH   1   8
ATOM      8  C1  UNL d   1      -6.000   3.903  -4.132  0.00  0.00     0.053 C 
ATOM      9  C   UNL d   1      -5.380   5.232  -4.534  0.00  0.00     0.018 C 
ENDBRANCH   1   8
TORSDOF 1
ENDMDL
