MODEL 1
REMARK minimizedAffinity 0.753732145
REMARK minimizedRMSD -1
REMARK  0 active torsions:
REMARK  status: ('A' for Active; 'I' for Inactive)
ROOT
ATOM      1  C1  DEN d   1       2.953   1.487   0.417  0.00  0.00     0.130 A 
ATOM      2  C2  DEN d   1       3.524   0.507  -0.503  0.00  0.00    -0.031 A 
ATOM      3  C3  DEN d   1       3.014  -0.826  -0.124  0.00  0.00     0.027 A 
ATOM      4  C4  DEN d   1       1.401  -1.464   1.784  0.00  0.00     0.027 A 
ATOM      5  C5  DEN d   1       0.661  -0.977   2.839  0.00  0.00    -0.003 A 
ATOM      6  C6  DEN d   1       0.659   0.350   3.178  0.00  0.00     0.001 A 
ATOM      7  C7  DEN d   1       1.378   1.244   2.428  0.00  0.00     0.017 A 
ATOM      8  C8  DEN d   1       2.132   0.759   1.368  0.00  0.00    -0.094 A 
ATOM      9  C9  DEN d   1       2.111  -0.585   1.033  0.00  0.00    -0.072 A 
ENDROOT
TORSDOF 0
ENDMDL
