MODEL 1
REMARK minimizedAffinity -0.127077818
REMARK minimizedRMSD -1
REMARK  0 active torsions:
REMARK  status: ('A' for Active; 'I' for Inactive)
ROOT
ATOM      1  C1  DEN d   1      -5.707   3.012  -2.738  0.00  0.00     0.130 A 
ATOM      2  C2  DEN d   1      -4.527   3.744  -2.287  0.00  0.00    -0.031 A 
ATOM      3  C3  DEN d   1      -3.353   3.201  -2.999  0.00  0.00     0.027 A 
ATOM      4  C4  DEN d   1      -3.248   1.310  -4.750  0.00  0.00     0.027 A 
ATOM      5  C5  DEN d   1      -3.991   0.382  -5.445  0.00  0.00    -0.003 A 
ATOM      6  C6  DEN d   1      -5.342   0.243  -5.263  0.00  0.00     0.001 A 
ATOM      7  C7  DEN d   1      -5.999   1.076  -4.397  0.00  0.00     0.017 A 
ATOM      8  C8  DEN d   1      -5.256   2.010  -3.687  0.00  0.00    -0.094 A 
ATOM      9  C9  DEN d   1      -3.893   2.143  -3.895  0.00  0.00    -0.072 A 
ENDROOT
TORSDOF 0
ENDMDL
