MODEL 1
REMARK minimizedAffinity -1.29790294
REMARK minimizedRMSD -1
REMARK  0 active torsions:
REMARK  status: ('A' for Active; 'I' for Inactive)
ROOT
ATOM      1  C1  DEN d   1       2.778   2.522   3.077  0.00  0.00     0.130 A 
ATOM      2  C2  DEN d   1       1.406   2.040   2.945  0.00  0.00    -0.031 A 
ATOM      3  C3  DEN d   1       1.261   1.437   1.604  0.00  0.00     0.027 A 
ATOM      4  C4  DEN d   1       3.019   1.200  -0.268  0.00  0.00     0.027 A 
ATOM      5  C5  DEN d   1       4.322   1.470  -0.625  0.00  0.00    -0.003 A 
ATOM      6  C6  DEN d   1       5.185   2.133   0.207  0.00  0.00     0.001 A 
ATOM      7  C7  DEN d   1       4.768   2.510   1.456  0.00  0.00     0.017 A 
ATOM      8  C8  DEN d   1       3.453   2.249   1.821  0.00  0.00    -0.094 A 
ATOM      9  C9  DEN d   1       2.600   1.566   0.970  0.00  0.00    -0.072 A 
ENDROOT
TORSDOF 0
ENDMDL
