MODEL 1
REMARK minimizedAffinity 11.9396114
REMARK minimizedRMSD -1
REMARK  0 active torsions:
REMARK  status: ('A' for Active; 'I' for Inactive)
ROOT
ATOM      1  C1  DEN d   1       0.640   0.153   2.296  0.00  0.00     0.130 A 
ATOM      2  C2  DEN d   1       0.528   1.517   2.806  0.00  0.00    -0.031 A 
ATOM      3  C3  DEN d   1       1.344   2.395   1.944  0.00  0.00     0.027 A 
ATOM      4  C4  DEN d   1       2.758   1.779  -0.123  0.00  0.00     0.027 A 
ATOM      5  C5  DEN d   1       3.172   0.744  -0.933  0.00  0.00    -0.003 A 
ATOM      6  C6  DEN d   1       2.801  -0.554  -0.704  0.00  0.00     0.001 A 
ATOM      7  C7  DEN d   1       1.955  -0.846   0.333  0.00  0.00     0.017 A 
ATOM      8  C8  DEN d   1       1.540   0.191   1.158  0.00  0.00    -0.094 A 
ATOM      9  C9  DEN d   1       1.916   1.499   0.903  0.00  0.00    -0.072 A 
ENDROOT
TORSDOF 0
ENDMDL
