MODEL 1
REMARK minimizedAffinity 0.096304521
REMARK minimizedRMSD -1
REMARK  0 active torsions:
REMARK  status: ('A' for Active; 'I' for Inactive)
ROOT
ATOM      1  C1  DEN d   1       4.261   0.941  -1.478  0.00  0.00     0.130 A 
ATOM      2  C2  DEN d   1       4.133   1.394  -0.096  0.00  0.00    -0.031 A 
ATOM      3  C3  DEN d   1       3.312   0.407   0.634  0.00  0.00     0.027 A 
ATOM      4  C4  DEN d   1       2.234  -1.769  -0.237  0.00  0.00     0.027 A 
ATOM      5  C5  DEN d   1       2.055  -2.567  -1.345  0.00  0.00    -0.003 A 
ATOM      6  C6  DEN d   1       2.566  -2.238  -2.573  0.00  0.00     0.001 A 
ATOM      7  C7  DEN d   1       3.320  -1.102  -2.712  0.00  0.00     0.017 A 
ATOM      8  C8  DEN d   1       3.498  -0.288  -1.601  0.00  0.00    -0.094 A 
ATOM      9  C9  DEN d   1       2.984  -0.645  -0.366  0.00  0.00    -0.072 A 
ENDROOT
TORSDOF 0
ENDMDL
