MODEL 1
REMARK minimizedAffinity 6.60755444
REMARK minimizedRMSD -1
REMARK  0 active torsions:
REMARK  status: ('A' for Active; 'I' for Inactive)
ROOT
ATOM      1  C1  DEN d   1      -6.000   2.928  -2.990  0.00  0.00     0.130 A 
ATOM      2  C2  DEN d   1      -4.923   3.760  -2.461  0.00  0.00    -0.031 A 
ATOM      3  C3  DEN d   1      -3.648   3.047  -2.676  0.00  0.00     0.027 A 
ATOM      4  C4  DEN d   1      -3.238   0.750  -3.773  0.00  0.00     0.027 A 
ATOM      5  C5  DEN d   1      -3.845  -0.337  -4.364  0.00  0.00    -0.003 A 
ATOM      6  C6  DEN d   1      -5.204  -0.425  -4.506  0.00  0.00     0.001 A 
ATOM      7  C7  DEN d   1      -5.999   0.611  -4.093  0.00  0.00     0.017 A 
ATOM      8  C8  DEN d   1      -5.395   1.706  -3.489  0.00  0.00    -0.094 A 
ATOM      9  C9  DEN d   1      -4.018   1.782  -3.366  0.00  0.00    -0.072 A 
ENDROOT
TORSDOF 0
ENDMDL
