MODEL 1
REMARK minimizedAffinity 3.82108784
REMARK minimizedRMSD -1
REMARK  0 active torsions:
REMARK  status: ('A' for Active; 'I' for Inactive)
ROOT
ATOM      1  C1  DEN d   1      -4.865  -0.769  -0.912  0.00  0.00     0.130 A 
ATOM      2  C2  DEN d   1      -5.451   0.071   0.128  0.00  0.00    -0.031 A 
ATOM      3  C3  DEN d   1      -5.999   1.281  -0.518  0.00  0.00     0.027 A 
ATOM      4  C4  DEN d   1      -6.000   1.928  -3.015  0.00  0.00     0.027 A 
ATOM      5  C5  DEN d   1      -5.607   1.537  -4.276  0.00  0.00    -0.003 A 
ATOM      6  C6  DEN d   1      -4.915   0.376  -4.498  0.00  0.00     0.001 A 
ATOM      7  C7  DEN d   1      -4.634  -0.458  -3.448  0.00  0.00     0.017 A 
ATOM      8  C8  DEN d   1      -5.020  -0.067  -2.173  0.00  0.00    -0.094 A 
ATOM      9  C9  DEN d   1      -5.730   1.105  -1.971  0.00  0.00    -0.072 A 
ENDROOT
TORSDOF 0
ENDMDL
