MODEL 1
REMARK minimizedAffinity 3.66702247
REMARK minimizedRMSD -1
REMARK  0 active torsions:
REMARK  status: ('A' for Active; 'I' for Inactive)
ROOT
ATOM      1  C1  DEN d   1      -0.544   0.595  -1.129  0.00  0.00     0.130 A 
ATOM      2  C2  DEN d   1       0.587   1.380  -0.643  0.00  0.00    -0.031 A 
ATOM      3  C3  DEN d   1       1.684   0.446  -0.318  0.00  0.00     0.027 A 
ATOM      4  C4  DEN d   1       1.742  -2.124  -0.524  0.00  0.00     0.027 A 
ATOM      5  C5  DEN d   1       1.014  -3.238  -0.877  0.00  0.00    -0.003 A 
ATOM      6  C6  DEN d   1      -0.285  -3.157  -1.304  0.00  0.00     0.001 A 
ATOM      7  C7  DEN d   1      -0.882  -1.930  -1.431  0.00  0.00     0.017 A 
ATOM      8  C8  DEN d   1      -0.157  -0.803  -1.069  0.00  0.00    -0.094 A 
ATOM      9  C9  DEN d   1       1.160  -0.905  -0.652  0.00  0.00    -0.072 A 
ENDROOT
TORSDOF 0
ENDMDL
