MODEL 1
REMARK minimizedAffinity -3.78192592
REMARK minimizedRMSD -1
REMARK  1 active torsions:
REMARK  status: ('A' for Active; 'I' for Inactive)
REMARK    1  A    between atoms: N_2  and  C1_3 
ROOT
ATOM      1  C1  UNL d   1       0.207  -0.011   0.326  0.00  0.00     0.143 A 
ATOM      2  C2  UNL d   1       0.845   0.211   1.551  0.00  0.00    -0.057 A 
ATOM      3  C3  UNL d   1       0.420   1.225   2.418  0.00  0.00     0.033 A 
ATOM      4  C4  UNL d   1      -0.635   2.057   2.060  0.00  0.00    -0.042 A 
ATOM      5  C5  UNL d   1      -1.268   1.872   0.836  0.00  0.00     0.033 A 
ATOM      6  C6  UNL d   1      -0.844   0.853  -0.022  0.00  0.00    -0.057 A 
ENDROOT
BRANCH   1   7
ATOM      7  N   UNL d   1       0.644  -0.938  -0.623  0.00  0.00    -0.732 N 
ATOM      8  C   UNL d   1       0.089  -2.274  -0.658  0.00  0.00     0.284 C 
ATOM      9  H3  UNL d   1       0.781  -0.521  -1.540  0.00  0.00     0.395 HD
ENDBRANCH   1   7
TORSDOF 1
ENDMDL
