MODEL 1
REMARK minimizedAffinity -5.17019892
REMARK minimizedRMSD -1
REMARK  1 active torsions:
REMARK  status: ('A' for Active; 'I' for Inactive)
REMARK    1  A    between atoms: N_2  and  C1_3 
ROOT
ATOM      1  C1  UNL d   1      -0.105   0.666  -0.207  0.00  0.00     0.143 A 
ATOM      2  C2  UNL d   1      -0.539   1.996  -0.174  0.00  0.00    -0.057 A 
ATOM      3  C3  UNL d   1      -0.851   2.628   1.036  0.00  0.00     0.033 A 
ATOM      4  C4  UNL d   1      -0.763   1.929   2.236  0.00  0.00    -0.042 A 
ATOM      5  C5  UNL d   1      -0.358   0.599   2.224  0.00  0.00     0.033 A 
ATOM      6  C6  UNL d   1      -0.041  -0.024   1.014  0.00  0.00    -0.057 A 
ENDROOT
BRANCH   1   7
ATOM      7  N   UNL d   1       0.126  -0.048  -1.385  0.00  0.00    -0.732 N 
ATOM      8  C   UNL d   1      -0.137  -1.470  -1.449  0.00  0.00     0.284 C 
ATOM      9  H3  UNL d   1      -0.164   0.466  -2.214  0.00  0.00     0.395 HD
ENDBRANCH   1   7
TORSDOF 1
ENDMDL
