MODEL 1
REMARK minimizedAffinity -4.44173193
REMARK minimizedRMSD -1
REMARK  1 active torsions:
REMARK  status: ('A' for Active; 'I' for Inactive)
REMARK    1  A    between atoms: N_2  and  C1_3 
ROOT
ATOM      1  C1  UNL d   1      -0.068   0.251   0.350  0.00  0.00     0.143 A 
ATOM      2  C2  UNL d   1       0.194   0.237   1.724  0.00  0.00    -0.057 A 
ATOM      3  C3  UNL d   1      -0.171   1.311   2.544  0.00  0.00     0.033 A 
ATOM      4  C4  UNL d   1      -0.781   2.436   1.996  0.00  0.00    -0.042 A 
ATOM      5  C5  UNL d   1      -1.028   2.482   0.629  0.00  0.00     0.033 A 
ATOM      6  C6  UNL d   1      -0.667   1.403  -0.183  0.00  0.00    -0.057 A 
ENDROOT
BRANCH   1   7
ATOM      7  N   UNL d   1       0.360  -0.744  -0.534  0.00  0.00    -0.732 N 
ATOM      8  C   UNL d   1      -0.519  -1.836  -0.895  0.00  0.00     0.284 C 
ATOM      9  H3  UNL d   1       0.897  -0.368  -1.311  0.00  0.00     0.395 HD
ENDBRANCH   1   7
TORSDOF 1
ENDMDL
