MODEL 1
REMARK minimizedAffinity -2.77691984
REMARK minimizedRMSD -1
REMARK  1 active torsions:
REMARK  status: ('A' for Active; 'I' for Inactive)
REMARK    1  A    between atoms: N_2  and  C1_3 
ROOT
ATOM      1  C1  UNL d   1       0.303   0.142  -0.082  0.00  0.00     0.143 A 
ATOM      2  C2  UNL d   1       0.634  -0.115   1.253  0.00  0.00    -0.057 A 
ATOM      3  C3  UNL d   1       0.453   0.856   2.245  0.00  0.00     0.033 A 
ATOM      4  C4  UNL d   1      -0.037   2.115   1.914  0.00  0.00    -0.042 A 
ATOM      5  C5  UNL d   1      -0.348   2.401   0.589  0.00  0.00     0.033 A 
ATOM      6  C6  UNL d   1      -0.171   1.425  -0.396  0.00  0.00    -0.057 A 
ENDROOT
BRANCH   1   7
ATOM      7  N   UNL d   1       0.553  -0.748  -1.130  0.00  0.00    -0.732 N 
ATOM      8  C   UNL d   1      -0.023  -2.076  -1.122  0.00  0.00     0.284 C 
ATOM      9  H3  UNL d   1       0.534  -0.293  -2.039  0.00  0.00     0.395 HD
ENDBRANCH   1   7
TORSDOF 1
ENDMDL
