MODEL 1
REMARK minimizedAffinity -4.92459249
REMARK minimizedRMSD -1
REMARK  1 active torsions:
REMARK  status: ('A' for Active; 'I' for Inactive)
REMARK    1  A    between atoms: N_2  and  C1_3 
ROOT
ATOM      1  C1  UNL d   1       0.731   2.047   2.291  0.00  0.00     0.143 A 
ATOM      2  C2  UNL d   1      -0.168   2.887   1.625  0.00  0.00    -0.057 A 
ATOM      3  C3  UNL d   1      -0.922   2.427   0.538  0.00  0.00     0.033 A 
ATOM      4  C4  UNL d   1      -0.769   1.122   0.080  0.00  0.00    -0.042 A 
ATOM      5  C5  UNL d   1       0.137   0.277   0.712  0.00  0.00     0.033 A 
ATOM      6  C6  UNL d   1       0.882   0.741   1.800  0.00  0.00    -0.057 A 
ENDROOT
BRANCH   1   7
ATOM      7  N   UNL d   1       1.581   2.473   3.315  0.00  0.00    -0.732 N 
ATOM      8  C   UNL d   1       2.580   3.491   3.067  0.00  0.00     0.284 C 
ATOM      9  H3  UNL d   1       1.098   2.573   4.205  0.00  0.00     0.395 HD
ENDBRANCH   1   7
TORSDOF 1
ENDMDL
