MODEL 1
REMARK minimizedAffinity -5.41549397
REMARK minimizedRMSD -1
REMARK  1 active torsions:
REMARK  status: ('A' for Active; 'I' for Inactive)
REMARK    1  A    between atoms: N_2  and  C1_3 
ROOT
ATOM      1  C1  UNL d   1      -0.160   0.265   0.727  0.00  0.00     0.143 A 
ATOM      2  C2  UNL d   1      -1.364   0.829   0.290  0.00  0.00    -0.057 A 
ATOM      3  C3  UNL d   1      -1.769   2.098   0.720  0.00  0.00     0.033 A 
ATOM      4  C4  UNL d   1      -0.989   2.815   1.621  0.00  0.00    -0.042 A 
ATOM      5  C5  UNL d   1       0.198   2.263   2.089  0.00  0.00     0.033 A 
ATOM      6  C6  UNL d   1       0.601   0.998   1.650  0.00  0.00    -0.057 A 
ENDROOT
BRANCH   1   7
ATOM      7  N   UNL d   1       0.249  -1.033   0.413  0.00  0.00    -0.732 N 
ATOM      8  C   UNL d   1       0.238  -1.499  -0.958  0.00  0.00     0.284 C 
ATOM      9  H3  UNL d   1       1.069  -1.321   0.942  0.00  0.00     0.395 HD
ENDBRANCH   1   7
TORSDOF 1
ENDMDL
