MODEL 1
REMARK minimizedAffinity -3.02952194
REMARK minimizedRMSD -1
REMARK  1 active torsions:
REMARK  status: ('A' for Active; 'I' for Inactive)
REMARK    1  A    between atoms: N_2  and  C1_3 
ROOT
ATOM      1  C1  UNL d   1      -0.080  -0.359   0.101  0.00  0.00     0.143 A 
ATOM      2  C2  UNL d   1       0.667  -0.616   1.255  0.00  0.00    -0.057 A 
ATOM      3  C3  UNL d   1       0.676   0.282   2.329  0.00  0.00     0.033 A 
ATOM      4  C4  UNL d   1      -0.042   1.471   2.256  0.00  0.00    -0.042 A 
ATOM      5  C5  UNL d   1      -0.773   1.759   1.108  0.00  0.00     0.033 A 
ATOM      6  C6  UNL d   1      -0.783   0.855   0.042  0.00  0.00    -0.057 A 
ENDROOT
BRANCH   1   7
ATOM      7  N   UNL d   1      -0.052  -1.165  -1.039  0.00  0.00    -0.732 N 
ATOM      8  C   UNL d   1       0.059  -2.604  -0.923  0.00  0.00     0.284 C 
ATOM      9  H3  UNL d   1      -0.710  -0.856  -1.751  0.00  0.00     0.395 HD
ENDBRANCH   1   7
TORSDOF 1
ENDMDL
