MODEL 1
REMARK minimizedAffinity -4.41046143
REMARK minimizedRMSD -1
REMARK  1 active torsions:
REMARK  status: ('A' for Active; 'I' for Inactive)
REMARK    1  A    between atoms: N_2  and  C1_3 
ROOT
ATOM      1  C1  UNL d   1       0.318   0.753  -0.014  0.00  0.00     0.143 A 
ATOM      2  C2  UNL d   1      -0.839   1.457  -0.367  0.00  0.00    -0.057 A 
ATOM      3  C3  UNL d   1      -1.429   2.371   0.513  0.00  0.00     0.033 A 
ATOM      4  C4  UNL d   1      -0.888   2.578   1.777  0.00  0.00    -0.042 A 
ATOM      5  C5  UNL d   1       0.247   1.871   2.159  0.00  0.00     0.033 A 
ATOM      6  C6  UNL d   1       0.836   0.964   1.273  0.00  0.00    -0.057 A 
ENDROOT
BRANCH   1   7
ATOM      7  N   UNL d   1       0.895  -0.242  -0.807  0.00  0.00    -0.732 N 
ATOM      8  C   UNL d   1       0.201  -1.489  -1.047  0.00  0.00     0.284 C 
ATOM      9  H3  UNL d   1       1.364   0.137  -1.626  0.00  0.00     0.395 HD
ENDBRANCH   1   7
TORSDOF 1
ENDMDL
