MODEL 1
REMARK minimizedAffinity -4.90241337
REMARK minimizedRMSD -1
REMARK  0 active torsions:
REMARK  status: ('A' for Active; 'I' for Inactive)
ROOT
ATOM      1  C4' PXY d   1      -1.865   0.048  -0.344  0.00  0.00     0.077 C 
ATOM      2  C1' PXY d   1       3.747  -0.409   0.965  0.00  0.00     0.077 C 
ATOM      3  C1  PXY d   1       2.275  -0.277   0.627  0.00  0.00    -0.082 A 
ATOM      4  C2  PXY d   1       1.533  -1.365   0.497  0.00  0.00     0.003 A 
ATOM      5  C3  PXY d   1       0.208  -1.266   0.160  0.00  0.00     0.003 A 
ATOM      6  C4  PXY d   1      -0.377  -0.037   0.006  0.00  0.00    -0.082 A 
ATOM      7  C5  PXY d   1       0.370   1.078   0.147  0.00  0.00     0.003 A 
ATOM      8  C6  PXY d   1       1.723   0.954   0.449  0.00  0.00     0.003 A 
ENDROOT
TORSDOF 0
ENDMDL
