MODEL 1
REMARK minimizedAffinity -3.65631032
REMARK minimizedRMSD -1
REMARK  0 active torsions:
REMARK  status: ('A' for Active; 'I' for Inactive)
ROOT
ATOM      1  C4' PXY d   1      -1.745   0.545  -0.793  0.00  0.00     0.077 C 
ATOM      2  C1' PXY d   1       3.574  -0.580   1.171  0.00  0.00     0.077 C 
ATOM      3  C1  PXY d   1       2.178  -0.298   0.652  0.00  0.00    -0.082 A 
ATOM      4  C2  PXY d   1       1.862   0.925   0.256  0.00  0.00     0.003 A 
ATOM      5  C3  PXY d   1       0.594   1.205  -0.185  0.00  0.00     0.003 A 
ATOM      6  C4  PXY d   1      -0.344   0.212  -0.272  0.00  0.00    -0.082 A 
ATOM      7  C5  PXY d   1      -0.026  -1.040   0.120  0.00  0.00     0.003 A 
ATOM      8  C6  PXY d   1       1.254  -1.295   0.604  0.00  0.00     0.003 A 
ENDROOT
TORSDOF 0
ENDMDL
