MODEL 1
REMARK minimizedAffinity -5.41698217
REMARK minimizedRMSD -1
REMARK  0 active torsions:
REMARK  status: ('A' for Active; 'I' for Inactive)
ROOT
ATOM      1  C4' PXY d   1      -1.855   0.644  -0.654  0.00  0.00     0.077 C 
ATOM      2  C1' PXY d   1       3.470  -0.858   1.019  0.00  0.00     0.077 C 
ATOM      3  C1  PXY d   1       2.076  -0.452   0.584  0.00  0.00    -0.082 A 
ATOM      4  C2  PXY d   1       1.118  -1.363   0.522  0.00  0.00     0.003 A 
ATOM      5  C3  PXY d   1      -0.140  -1.019   0.100  0.00  0.00     0.003 A 
ATOM      6  C4  PXY d   1      -0.435   0.281  -0.211  0.00  0.00    -0.082 A 
ATOM      7  C5  PXY d   1       0.534   1.218  -0.140  0.00  0.00     0.003 A 
ATOM      8  C6  PXY d   1       1.815   0.841   0.251  0.00  0.00     0.003 A 
ENDROOT
TORSDOF 0
ENDMDL
