MODEL 1
REMARK minimizedAffinity -5.74322081
REMARK minimizedRMSD -1
REMARK  0 active torsions:
REMARK  status: ('A' for Active; 'I' for Inactive)
ROOT
ATOM      1  C4' PXY d   1      -1.690  -0.140  -0.432  0.00  0.00     0.077 C 
ATOM      2  C1' PXY d   1       3.786  -0.544   1.375  0.00  0.00     0.077 C 
ATOM      3  C1  PXY d   1       2.350  -0.425   0.903  0.00  0.00    -0.082 A 
ATOM      4  C2  PXY d   1       1.565  -1.490   0.923  0.00  0.00     0.003 A 
ATOM      5  C3  PXY d   1       0.273  -1.408   0.470  0.00  0.00     0.003 A 
ATOM      6  C4  PXY d   1      -0.236  -0.211   0.043  0.00  0.00    -0.082 A 
ATOM      7  C5  PXY d   1       0.555   0.882   0.030  0.00  0.00     0.003 A 
ATOM      8  C6  PXY d   1       1.876   0.768   0.455  0.00  0.00     0.003 A 
ENDROOT
TORSDOF 0
ENDMDL
