MODEL 1
REMARK minimizedAffinity -3.57462049
REMARK minimizedRMSD -1
REMARK  0 active torsions:
REMARK  status: ('A' for Active; 'I' for Inactive)
ROOT
ATOM      1  C4' PXY d   1       1.887  -2.512   2.091  0.00  0.00     0.077 C 
ATOM      2  C1' PXY d   1       1.958   2.204  -1.251  0.00  0.00     0.077 C 
ATOM      3  C1  PXY d   1       1.951   0.964  -0.379  0.00  0.00    -0.082 A 
ATOM      4  C2  PXY d   1       0.800   0.477   0.056  0.00  0.00     0.003 A 
ATOM      5  C3  PXY d   1       0.778  -0.625   0.871  0.00  0.00     0.003 A 
ATOM      6  C4  PXY d   1       1.941  -1.267   1.201  0.00  0.00    -0.082 A 
ATOM      7  C5  PXY d   1       3.119  -0.783   0.752  0.00  0.00     0.003 A 
ATOM      8  C6  PXY d   1       3.123   0.362  -0.040  0.00  0.00     0.003 A 
ENDROOT
TORSDOF 0
ENDMDL
