MODEL 1
REMARK minimizedAffinity -4.75406742
REMARK minimizedRMSD -1
REMARK  0 active torsions:
REMARK  status: ('A' for Active; 'I' for Inactive)
ROOT
ATOM      1  C4' PXY d   1      -1.394  -0.037  -0.152  0.00  0.00     0.077 C 
ATOM      2  C1' PXY d   1       4.100  -0.755   1.496  0.00  0.00     0.077 C 
ATOM      3  C1  PXY d   1       2.660  -0.555   1.068  0.00  0.00    -0.082 A 
ATOM      4  C2  PXY d   1       1.856  -1.601   0.964  0.00  0.00     0.003 A 
ATOM      5  C3  PXY d   1       0.560  -1.441   0.547  0.00  0.00     0.003 A 
ATOM      6  C4  PXY d   1       0.066  -0.191   0.285  0.00  0.00    -0.082 A 
ATOM      7  C5  PXY d   1       0.876   0.882   0.399  0.00  0.00     0.003 A 
ATOM      8  C6  PXY d   1       2.200   0.694   0.784  0.00  0.00     0.003 A 
ENDROOT
TORSDOF 0
ENDMDL
