MODEL 1
REMARK minimizedAffinity -5.43059254
REMARK minimizedRMSD -1
REMARK  0 active torsions:
REMARK  status: ('A' for Active; 'I' for Inactive)
ROOT
ATOM      1  C4' PXY d   1      -2.180   0.062  -0.906  0.00  0.00     0.077 C 
ATOM      2  C1' PXY d   1       3.264  -0.357   0.992  0.00  0.00     0.077 C 
ATOM      3  C1  PXY d   1       1.835  -0.235   0.499  0.00  0.00    -0.082 A 
ATOM      4  C2  PXY d   1       1.125  -1.329   0.274  0.00  0.00     0.003 A 
ATOM      5  C3  PXY d   1      -0.157  -1.237  -0.202  0.00  0.00     0.003 A 
ATOM      6  C4  PXY d   1      -0.737  -0.013  -0.399  0.00  0.00    -0.082 A 
ATOM      7  C5  PXY d   1      -0.023   1.108  -0.162  0.00  0.00     0.003 A 
ATOM      8  C6  PXY d   1       1.291   0.993   0.282  0.00  0.00     0.003 A 
ENDROOT
TORSDOF 0
ENDMDL
