MODEL 1
REMARK minimizedAffinity -4.01503658
REMARK minimizedRMSD -1
REMARK  0 active torsions:
REMARK  status: ('A' for Active; 'I' for Inactive)
ROOT
ATOM      1  C4' PXY d   1      -2.266   0.301   1.031  0.00  0.00     0.077 C 
ATOM      2  C1' PXY d   1       2.912  -0.404  -1.441  0.00  0.00     0.077 C 
ATOM      3  C1  PXY d   1       1.552  -0.231  -0.795  0.00  0.00    -0.082 A 
ATOM      4  C2  PXY d   1       0.997   0.969  -0.748  0.00  0.00     0.003 A 
ATOM      5  C3  PXY d   1      -0.218   1.148  -0.139  0.00  0.00     0.003 A 
ATOM      6  C4  PXY d   1      -0.898   0.079   0.380  0.00  0.00    -0.082 A 
ATOM      7  C5  PXY d   1      -0.343  -1.151   0.326  0.00  0.00     0.003 A 
ATOM      8  C6  PXY d   1       0.910  -1.305  -0.259  0.00  0.00     0.003 A 
ENDROOT
TORSDOF 0
ENDMDL
