MODEL 1
REMARK minimizedAffinity -4.62768459
REMARK minimizedRMSD -1
REMARK  0 active torsions:
REMARK  status: ('A' for Active; 'I' for Inactive)
ROOT
ATOM      1  C4' PXY d   1      -1.634   0.160   0.927  0.00  0.00     0.077 C 
ATOM      2  C1' PXY d   1       3.379  -0.456  -1.884  0.00  0.00     0.077 C 
ATOM      3  C1  PXY d   1       2.063  -0.308  -1.146  0.00  0.00    -0.082 A 
ATOM      4  C2  PXY d   1       1.353   0.799  -1.291  0.00  0.00     0.003 A 
ATOM      5  C3  PXY d   1       0.177   0.963  -0.607  0.00  0.00     0.003 A 
ATOM      6  C4  PXY d   1      -0.304  -0.038   0.194  0.00  0.00    -0.082 A 
ATOM      7  C5  PXY d   1       0.409  -1.174   0.339  0.00  0.00     0.003 A 
ATOM      8  C6  PXY d   1       1.621  -1.305  -0.332  0.00  0.00     0.003 A 
ENDROOT
TORSDOF 0
ENDMDL
