MODEL 1
REMARK minimizedAffinity -3.89695787
REMARK minimizedRMSD -1
REMARK  0 active torsions:
REMARK  status: ('A' for Active; 'I' for Inactive)
ROOT
ATOM      1  C4' PXY d   1       2.343   0.756  -2.091  0.00  0.00     0.077 C 
ATOM      2  C1' PXY d   1      -2.166   0.462   1.514  0.00  0.00     0.077 C 
ATOM      3  C1  PXY d   1      -0.991   0.546   0.560  0.00  0.00    -0.082 A 
ATOM      4  C2  PXY d   1      -0.030  -0.361   0.625  0.00  0.00     0.003 A 
ATOM      5  C3  PXY d   1       1.056  -0.282  -0.209  0.00  0.00     0.003 A 
ATOM      6  C4  PXY d   1       1.133   0.705  -1.154  0.00  0.00    -0.082 A 
ATOM      7  C5  PXY d   1       0.151   1.628  -1.234  0.00  0.00     0.003 A 
ATOM      8  C6  PXY d   1      -0.922   1.554  -0.351  0.00  0.00     0.003 A 
ENDROOT
TORSDOF 0
ENDMDL
