MODEL 1
REMARK minimizedAffinity -4.04909468
REMARK minimizedRMSD -1
REMARK  0 active torsions:
REMARK  status: ('A' for Active; 'I' for Inactive)
ROOT
ATOM      1  C4' PXY d   1       3.177  -0.424  -2.238  0.00  0.00     0.077 C 
ATOM      2  C1' PXY d   1      -1.519  -0.232   1.127  0.00  0.00     0.077 C 
ATOM      3  C1  PXY d   1      -0.282  -0.291   0.252  0.00  0.00    -0.082 A 
ATOM      4  C2  PXY d   1       0.067   0.768  -0.460  0.00  0.00     0.003 A 
ATOM      5  C3  PXY d   1       1.164   0.720  -1.282  0.00  0.00     0.003 A 
ATOM      6  C4  PXY d   1       1.942  -0.405  -1.334  0.00  0.00    -0.082 A 
ATOM      7  C5  PXY d   1       1.598  -1.486  -0.602  0.00  0.00     0.003 A 
ATOM      8  C6  PXY d   1       0.458  -1.432   0.194  0.00  0.00     0.003 A 
ENDROOT
TORSDOF 0
ENDMDL
