MODEL 1
REMARK minimizedAffinity -5.38680172
REMARK minimizedRMSD -1
REMARK  0 active torsions:
REMARK  status: ('A' for Active; 'I' for Inactive)
ROOT
ATOM      1  C4' PXY d   1      -1.543   0.510   0.823  0.00  0.00     0.077 C 
ATOM      2  C1' PXY d   1       3.353  -0.631  -2.030  0.00  0.00     0.077 C 
ATOM      3  C1  PXY d   1       2.072  -0.319  -1.283  0.00  0.00    -0.082 A 
ATOM      4  C2  PXY d   1       1.537  -1.234  -0.491  0.00  0.00     0.003 A 
ATOM      5  C3  PXY d   1       0.362  -0.980   0.168  0.00  0.00     0.003 A 
ATOM      6  C4  PXY d   1      -0.245   0.242   0.056  0.00  0.00    -0.082 A 
ATOM      7  C5  PXY d   1       0.300   1.185  -0.742  0.00  0.00     0.003 A 
ATOM      8  C6  PXY d   1       1.471   0.893  -1.434  0.00  0.00     0.003 A 
ENDROOT
TORSDOF 0
ENDMDL
