MODEL 1
REMARK minimizedAffinity -3.98245621
REMARK minimizedRMSD -1
REMARK  0 active torsions:
REMARK  status: ('A' for Active; 'I' for Inactive)
ROOT
ATOM      1  C4' PXY d   1       3.508  -0.521  -1.814  0.00  0.00     0.077 C 
ATOM      2  C1' PXY d   1      -1.603  -0.119   0.857  0.00  0.00     0.077 C 
ATOM      3  C1  PXY d   1      -0.260  -0.236   0.163  0.00  0.00    -0.082 A 
ATOM      4  C2  PXY d   1       0.301   0.842  -0.361  0.00  0.00     0.003 A 
ATOM      5  C3  PXY d   1       1.500   0.749  -1.019  0.00  0.00     0.003 A 
ATOM      6  C4  PXY d   1       2.157  -0.449  -1.096  0.00  0.00    -0.082 A 
ATOM      7  C5  PXY d   1       1.596  -1.552  -0.555  0.00  0.00     0.003 A 
ATOM      8  C6  PXY d   1       0.359  -1.444   0.073  0.00  0.00     0.003 A 
ENDROOT
TORSDOF 0
ENDMDL
