MODEL 1
REMARK minimizedAffinity -5.55488777
REMARK minimizedRMSD -1
REMARK  0 active torsions:
REMARK  status: ('A' for Active; 'I' for Inactive)
ROOT
ATOM      1  C4' PXY d   1      -1.174   0.389   1.405  0.00  0.00     0.077 C 
ATOM      2  C1' PXY d   1       3.429  -0.407  -2.001  0.00  0.00     0.077 C 
ATOM      3  C1  PXY d   1       2.221  -0.211  -1.105  0.00  0.00    -0.082 A 
ATOM      4  C2  PXY d   1       1.446   0.848  -1.275  0.00  0.00     0.003 A 
ATOM      5  C3  PXY d   1       0.368   1.057  -0.453  0.00  0.00     0.003 A 
ATOM      6  C4  PXY d   1       0.050   0.146   0.518  0.00  0.00    -0.082 A 
ATOM      7  C5  PXY d   1       0.831  -0.943   0.691  0.00  0.00     0.003 A 
ATOM      8  C6  PXY d   1       1.944  -1.115  -0.127  0.00  0.00     0.003 A 
ENDROOT
TORSDOF 0
ENDMDL
