MODEL 1
REMARK minimizedAffinity -2.87556362
REMARK minimizedRMSD -1
REMARK  0 active torsions:
REMARK  status: ('A' for Active; 'I' for Inactive)
ROOT
ATOM      1  C4' PXY d   1      -2.219   0.767   2.094  0.00  0.00     0.077 C 
ATOM      2  C1' PXY d   1       2.435  -0.778  -0.967  0.00  0.00     0.077 C 
ATOM      3  C1  PXY d   1       1.210  -0.367  -0.175  0.00  0.00    -0.082 A 
ATOM      4  C2  PXY d   1       1.287  -0.261   1.142  0.00  0.00     0.003 A 
ATOM      5  C3  PXY d   1       0.180   0.078   1.877  0.00  0.00     0.003 A 
ATOM      6  C4  PXY d   1      -1.004   0.364   1.253  0.00  0.00    -0.082 A 
ATOM      7  C5  PXY d   1      -1.089   0.269  -0.091  0.00  0.00     0.003 A 
ATOM      8  C6  PXY d   1       0.035  -0.117  -0.815  0.00  0.00     0.003 A 
ENDROOT
TORSDOF 0
ENDMDL
