MODEL 1
REMARK minimizedAffinity -4.25152683
REMARK minimizedRMSD -1
REMARK  0 active torsions:
REMARK  status: ('A' for Active; 'I' for Inactive)
ROOT
ATOM      1  C4' PXY d   1      -2.526  -0.036   0.811  0.00  0.00     0.077 C 
ATOM      2  C1' PXY d   1       2.998  -0.673  -0.770  0.00  0.00     0.077 C 
ATOM      3  C1  PXY d   1       1.552  -0.494  -0.350  0.00  0.00    -0.082 A 
ATOM      4  C2  PXY d   1       0.787  -1.559  -0.169  0.00  0.00     0.003 A 
ATOM      5  C3  PXY d   1      -0.531  -1.414   0.179  0.00  0.00     0.003 A 
ATOM      6  C4  PXY d   1      -1.058  -0.169   0.396  0.00  0.00    -0.082 A 
ATOM      7  C5  PXY d   1      -0.281   0.921   0.224  0.00  0.00     0.003 A 
ATOM      8  C6  PXY d   1       1.044   0.755  -0.170  0.00  0.00     0.003 A 
ENDROOT
TORSDOF 0
ENDMDL
