MODEL 1
REMARK minimizedAffinity -0.398626506
REMARK minimizedRMSD -1
REMARK  0 active torsions:
REMARK  status: ('A' for Active; 'I' for Inactive)
ROOT
ATOM      1  C4' PXY d   1      -1.389   0.826   0.474  0.00  0.00     0.077 C 
ATOM      2  C1' PXY d   1       3.218  -0.564  -2.729  0.00  0.00     0.077 C 
ATOM      3  C1  PXY d   1       2.013  -0.187  -1.890  0.00  0.00    -0.082 A 
ATOM      4  C2  PXY d   1       1.504  -1.067  -1.044  0.00  0.00     0.003 A 
ATOM      5  C3  PXY d   1       0.395  -0.754  -0.301  0.00  0.00     0.003 A 
ATOM      6  C4  PXY d   1      -0.167   0.492  -0.386  0.00  0.00    -0.082 A 
ATOM      7  C5  PXY d   1       0.353   1.399  -1.240  0.00  0.00     0.003 A 
ATOM      8  C6  PXY d   1       1.454   1.047  -2.015  0.00  0.00     0.003 A 
ENDROOT
TORSDOF 0
ENDMDL
