MODEL 1
REMARK minimizedAffinity -2.79171944
REMARK minimizedRMSD -1
REMARK  0 active torsions:
REMARK  status: ('A' for Active; 'I' for Inactive)
ROOT
ATOM      1  C4' PXY d   1      -1.991   0.377   1.955  0.00  0.00     0.077 C 
ATOM      2  C1' PXY d   1       1.782  -0.984  -2.208  0.00  0.00     0.077 C 
ATOM      3  C1  PXY d   1       0.795  -0.614  -1.118  0.00  0.00    -0.082 A 
ATOM      4  C2  PXY d   1       0.535  -1.478  -0.150  0.00  0.00     0.003 A 
ATOM      5  C3  PXY d   1      -0.379  -1.173   0.825  0.00  0.00     0.003 A 
ATOM      6  C4  PXY d   1      -0.994   0.050   0.839  0.00  0.00    -0.082 A 
ATOM      7  C5  PXY d   1      -0.727   0.941  -0.139  0.00  0.00     0.003 A 
ATOM      8  C6  PXY d   1       0.173   0.596  -1.143  0.00  0.00     0.003 A 
ENDROOT
TORSDOF 0
ENDMDL
