MODEL 1
REMARK minimizedAffinity -4.70282507
REMARK minimizedRMSD -1
REMARK  0 active torsions:
REMARK  status: ('A' for Active; 'I' for Inactive)
ROOT
ATOM      1  C4' PXY d   1       2.490   2.211  -2.562  0.00  0.00     0.077 C 
ATOM      2  C1' PXY d   1      -0.104  -1.950   0.500  0.00  0.00     0.077 C 
ATOM      3  C1  PXY d   1       0.588  -0.865  -0.302  0.00  0.00    -0.082 A 
ATOM      4  C2  PXY d   1       0.057   0.346  -0.358  0.00  0.00     0.003 A 
ATOM      5  C3  PXY d   1       0.652   1.330  -1.104  0.00  0.00     0.003 A 
ATOM      6  C4  PXY d   1       1.831   1.087  -1.757  0.00  0.00    -0.082 A 
ATOM      7  C5  PXY d   1       2.385  -0.143  -1.696  0.00  0.00     0.003 A 
ATOM      8  C6  PXY d   1       1.743  -1.139  -0.966  0.00  0.00     0.003 A 
ENDROOT
TORSDOF 0
ENDMDL
