MODEL 1
REMARK minimizedAffinity -5.34216022
REMARK minimizedRMSD -1
REMARK  0 active torsions:
REMARK  status: ('A' for Active; 'I' for Inactive)
ROOT
ATOM      1  C4' PXY d   1       2.936   2.229  -2.753  0.00  0.00     0.077 C 
ATOM      2  C1' PXY d   1       0.683  -1.922   0.581  0.00  0.00     0.077 C 
ATOM      3  C1  PXY d   1       1.285  -0.840  -0.294  0.00  0.00    -0.082 A 
ATOM      4  C2  PXY d   1       0.776   0.381  -0.267  0.00  0.00     0.003 A 
ATOM      5  C3  PXY d   1       1.288   1.364  -1.075  0.00  0.00     0.003 A 
ATOM      6  C4  PXY d   1       2.366   1.107  -1.880  0.00  0.00    -0.082 A 
ATOM      7  C5  PXY d   1       2.897  -0.133  -1.905  0.00  0.00     0.003 A 
ATOM      8  C6  PXY d   1       2.337  -1.127  -1.108  0.00  0.00     0.003 A 
ENDROOT
TORSDOF 0
ENDMDL
