MODEL 1
REMARK minimizedAffinity -3.33430409
REMARK minimizedRMSD -1
REMARK  0 active torsions:
REMARK  status: ('A' for Active; 'I' for Inactive)
ROOT
ATOM      1  C4' PXY d   1      -1.731   0.165   0.972  0.00  0.00     0.077 C 
ATOM      2  C1' PXY d   1       3.415  -0.585  -1.552  0.00  0.00     0.077 C 
ATOM      3  C1  PXY d   1       2.062  -0.400  -0.893  0.00  0.00    -0.082 A 
ATOM      4  C2  PXY d   1       1.580   0.820  -0.719  0.00  0.00     0.003 A 
ATOM      5  C3  PXY d   1       0.372   1.006  -0.097  0.00  0.00     0.003 A 
ATOM      6  C4  PXY d   1      -0.374  -0.069   0.304  0.00  0.00    -0.082 A 
ATOM      7  C5  PXY d   1       0.106  -1.318   0.120  0.00  0.00     0.003 A 
ATOM      8  C6  PXY d   1       1.352  -1.484  -0.477  0.00  0.00     0.003 A 
ENDROOT
TORSDOF 0
ENDMDL
