MODEL 1
REMARK minimizedAffinity -3.50672579
REMARK minimizedRMSD -1
REMARK  0 active torsions:
REMARK  status: ('A' for Active; 'I' for Inactive)
ROOT
ATOM      1  C4' PXY d   1      -1.999   0.016   1.470  0.00  0.00     0.077 C 
ATOM      2  C1' PXY d   1       2.316  -0.160  -2.372  0.00  0.00     0.077 C 
ATOM      3  C1  PXY d   1       1.186  -0.101  -1.364  0.00  0.00    -0.082 A 
ATOM      4  C2  PXY d   1       0.886  -1.177  -0.654  0.00  0.00     0.003 A 
ATOM      5  C3  PXY d   1      -0.154  -1.150   0.240  0.00  0.00     0.003 A 
ATOM      6  C4  PXY d   1      -0.860   0.005   0.447  0.00  0.00    -0.082 A 
ATOM      7  C5  PXY d   1      -0.553   1.109  -0.266  0.00  0.00     0.003 A 
ATOM      8  C6  PXY d   1       0.479   1.050  -1.198  0.00  0.00     0.003 A 
ENDROOT
TORSDOF 0
ENDMDL
