MODEL 1
REMARK minimizedAffinity -2.87825632
REMARK minimizedRMSD -1
REMARK  0 active torsions:
REMARK  status: ('A' for Active; 'I' for Inactive)
ROOT
ATOM      1  C4' PXY d   1       3.262  -0.308  -1.469  0.00  0.00     0.077 C 
ATOM      2  C1' PXY d   1      -2.098   1.049   0.216  0.00  0.00     0.077 C 
ATOM      3  C1  PXY d   1      -0.694   0.701  -0.236  0.00  0.00    -0.082 A 
ATOM      4  C2  PXY d   1      -0.161  -0.457   0.117  0.00  0.00     0.003 A 
ATOM      5  C3  PXY d   1       1.120  -0.774  -0.256  0.00  0.00     0.003 A 
ATOM      6  C4  PXY d   1       1.844   0.081  -1.043  0.00  0.00    -0.082 A 
ATOM      7  C5  PXY d   1       1.303   1.260  -1.417  0.00  0.00     0.003 A 
ATOM      8  C6  PXY d   1       0.017   1.581  -0.993  0.00  0.00     0.003 A 
ENDROOT
TORSDOF 0
ENDMDL
