MODEL 1
REMARK minimizedAffinity -4.73922205
REMARK minimizedRMSD -1
REMARK  0 active torsions:
REMARK  status: ('A' for Active; 'I' for Inactive)
ROOT
ATOM      1  C4' PXY d   1      -1.752   0.335   0.867  0.00  0.00     0.077 C 
ATOM      2  C1' PXY d   1       3.107   0.081  -2.253  0.00  0.00     0.077 C 
ATOM      3  C1  PXY d   1       1.831   0.135  -1.438  0.00  0.00    -0.082 A 
ATOM      4  C2  PXY d   1       1.212   1.292  -1.266  0.00  0.00     0.003 A 
ATOM      5  C3  PXY d   1       0.075   1.365  -0.505  0.00  0.00     0.003 A 
ATOM      6  C4  PXY d   1      -0.465   0.232   0.043  0.00  0.00    -0.082 A 
ATOM      7  C5  PXY d   1       0.154  -0.954  -0.136  0.00  0.00     0.003 A 
ATOM      8  C6  PXY d   1       1.330  -1.000  -0.878  0.00  0.00     0.003 A 
ENDROOT
TORSDOF 0
ENDMDL
