MODEL 1
REMARK minimizedAffinity -4.94864035
REMARK minimizedRMSD -1
REMARK  0 active torsions:
REMARK  status: ('A' for Active; 'I' for Inactive)
ROOT
ATOM      1  C4' PXY d   1      -2.149   0.308   0.981  0.00  0.00     0.077 C 
ATOM      2  C1' PXY d   1       2.990  -0.885  -1.384  0.00  0.00     0.077 C 
ATOM      3  C1  PXY d   1       1.639  -0.585  -0.765  0.00  0.00    -0.082 A 
ATOM      4  C2  PXY d   1       1.179   0.656  -0.769  0.00  0.00     0.003 A 
ATOM      5  C3  PXY d   1      -0.027   0.951  -0.186  0.00  0.00     0.003 A 
ATOM      6  C4  PXY d   1      -0.794  -0.044   0.360  0.00  0.00    -0.082 A 
ATOM      7  C5  PXY d   1      -0.337  -1.314   0.358  0.00  0.00     0.003 A 
ATOM      8  C6  PXY d   1       0.908  -1.585  -0.203  0.00  0.00     0.003 A 
ENDROOT
TORSDOF 0
ENDMDL
