MODEL 1
REMARK minimizedAffinity -2.21673369
REMARK minimizedRMSD -1
REMARK  0 active torsions:
REMARK  status: ('A' for Active; 'I' for Inactive)
ROOT
ATOM      1  C4' PXY d   1      -2.072   0.932   1.787  0.00  0.00     0.077 C 
ATOM      2  C1' PXY d   1       2.069  -1.665  -1.298  0.00  0.00     0.077 C 
ATOM      3  C1  PXY d   1       0.989  -0.972  -0.491  0.00  0.00    -0.082 A 
ATOM      4  C2  PXY d   1       0.303  -1.659   0.408  0.00  0.00     0.003 A 
ATOM      5  C3  PXY d   1      -0.699  -1.056   1.124  0.00  0.00     0.003 A 
ATOM      6  C4  PXY d   1      -0.966   0.276   0.956  0.00  0.00    -0.082 A 
ATOM      7  C5  PXY d   1      -0.264   0.986   0.048  0.00  0.00     0.003 A 
ATOM      8  C6  PXY d   1       0.722   0.346  -0.698  0.00  0.00     0.003 A 
ENDROOT
TORSDOF 0
ENDMDL
