MODEL 1
REMARK minimizedAffinity -4.1737113
REMARK minimizedRMSD -1
REMARK  0 active torsions:
REMARK  status: ('A' for Active; 'I' for Inactive)
ROOT
ATOM      1  C4' PXY d   1      -0.800  -0.422   0.871  0.00  0.00     0.077 C 
ATOM      2  C1' PXY d   1       4.006  -0.375  -2.339  0.00  0.00     0.077 C 
ATOM      3  C1  PXY d   1       2.745  -0.400  -1.499  0.00  0.00    -0.082 A 
ATOM      4  C2  PXY d   1       2.044   0.711  -1.338  0.00  0.00     0.003 A 
ATOM      5  C3  PXY d   1       0.918   0.713  -0.556  0.00  0.00     0.003 A 
ATOM      6  C4  PXY d   1       0.475  -0.445   0.024  0.00  0.00    -0.082 A 
ATOM      7  C5  PXY d   1       1.178  -1.585  -0.144  0.00  0.00     0.003 A 
ATOM      8  C6  PXY d   1       2.342  -1.557  -0.908  0.00  0.00     0.003 A 
ENDROOT
TORSDOF 0
ENDMDL
