MODEL 1
REMARK minimizedAffinity -3.74087811
REMARK minimizedRMSD -1
REMARK  2 active torsions:
REMARK  status: ('A' for Active; 'I' for Inactive)
REMARK    1  A    between atoms: C1_2  and  C2_3 
REMARK    2  A    between atoms: C2_3  and  C3_4 
ROOT
ATOM      1  C3  UNL d   1       0.040  -0.072  -0.117  0.00  0.00    -0.075 A 
ATOM      2  C4  UNL d   1       0.297  -1.098  -1.038  0.00  0.00     0.002 A 
ATOM      3  C5  UNL d   1       1.036  -0.844  -2.193  0.00  0.00     0.002 A 
ATOM      4  C6  UNL d   1       1.518   0.438  -2.448  0.00  0.00    -0.004 A 
ATOM      5  C7  UNL d   1       1.255   1.469  -1.548  0.00  0.00     0.002 A 
ATOM      6  C8  UNL d   1       0.519   1.217  -0.389  0.00  0.00     0.002 A 
ENDROOT
BRANCH   1   7
ATOM      7  C2  UNL d   1      -0.734  -0.347   1.150  0.00  0.00     0.056 C 
BRANCH   7   8
ATOM      8  C1  UNL d   1      -1.875   0.642   1.411  0.00  0.00     0.007 C 
ATOM      9  C   UNL d   1      -3.234  -0.033   1.543  0.00  0.00     0.009 C 
ENDBRANCH   7   8
ENDBRANCH   1   7
TORSDOF 2
ENDMDL
