MODEL 1
REMARK minimizedAffinity -1.92109656
REMARK minimizedRMSD -1
REMARK  2 active torsions:
REMARK  status: ('A' for Active; 'I' for Inactive)
REMARK    1  A    between atoms: C1_2  and  C2_3 
REMARK    2  A    between atoms: C2_3  and  C3_4 
ROOT
ATOM      1  C3  UNL d   1      -2.914   2.233   2.354  0.00  0.00    -0.075 A 
ATOM      2  C4  UNL d   1      -1.757   1.634   1.835  0.00  0.00     0.002 A 
ATOM      3  C5  UNL d   1      -1.768   0.296   1.439  0.00  0.00     0.002 A 
ATOM      4  C6  UNL d   1      -2.930  -0.461   1.567  0.00  0.00    -0.004 A 
ATOM      5  C7  UNL d   1      -4.081   0.118   2.097  0.00  0.00     0.002 A 
ATOM      6  C8  UNL d   1      -4.074   1.458   2.490  0.00  0.00     0.002 A 
ENDROOT
BRANCH   1   7
ATOM      7  C2  UNL d   1      -2.917   3.688   2.757  0.00  0.00     0.056 C 
BRANCH   7   8
ATOM      8  C1  UNL d   1      -3.738   3.986   4.016  0.00  0.00     0.007 C 
ATOM      9  C   UNL d   1      -2.888   4.093   5.275  0.00  0.00     0.009 C 
ENDBRANCH   7   8
ENDBRANCH   1   7
TORSDOF 2
ENDMDL
