MODEL 1
REMARK minimizedAffinity -4.97573614
REMARK minimizedRMSD -1
REMARK  2 active torsions:
REMARK  status: ('A' for Active; 'I' for Inactive)
REMARK    1  A    between atoms: C1_2  and  C2_3 
REMARK    2  A    between atoms: C2_3  and  C3_4 
ROOT
ATOM      1  C3  UNL d   1      -1.451   0.529   1.481  0.00  0.00    -0.075 A 
ATOM      2  C4  UNL d   1      -2.726   0.025   1.189  0.00  0.00     0.002 A 
ATOM      3  C5  UNL d   1      -3.870   0.691   1.631  0.00  0.00     0.002 A 
ATOM      4  C6  UNL d   1      -3.753   1.861   2.377  0.00  0.00    -0.004 A 
ATOM      5  C7  UNL d   1      -2.490   2.363   2.687  0.00  0.00     0.002 A 
ATOM      6  C8  UNL d   1      -1.345   1.701   2.243  0.00  0.00     0.002 A 
ENDROOT
BRANCH   1   7
ATOM      7  C2  UNL d   1      -0.210  -0.171   0.981  0.00  0.00     0.056 C 
BRANCH   7   8
ATOM      8  C1  UNL d   1       0.947   0.775   0.643  0.00  0.00     0.007 C 
ATOM      9  C   UNL d   1       1.263   0.830  -0.846  0.00  0.00     0.009 C 
ENDBRANCH   7   8
ENDBRANCH   1   7
TORSDOF 2
ENDMDL
