MODEL 1
REMARK minimizedAffinity -5.12117672
REMARK minimizedRMSD -1
REMARK  2 active torsions:
REMARK  status: ('A' for Active; 'I' for Inactive)
REMARK    1  A    between atoms: C1_2  and  C2_3 
REMARK    2  A    between atoms: C2_3  and  C3_4 
ROOT
ATOM      1  C3  UNL d   1       0.457  -0.222  -0.027  0.00  0.00    -0.075 A 
ATOM      2  C4  UNL d   1       1.130   0.975  -0.316  0.00  0.00     0.002 A 
ATOM      3  C5  UNL d   1       1.892   1.096  -1.479  0.00  0.00     0.002 A 
ATOM      4  C6  UNL d   1       1.999   0.022  -2.360  0.00  0.00    -0.004 A 
ATOM      5  C7  UNL d   1       1.349  -1.176  -2.075  0.00  0.00     0.002 A 
ATOM      6  C8  UNL d   1       0.582  -1.299  -0.914  0.00  0.00     0.002 A 
ENDROOT
BRANCH   1   7
ATOM      7  C2  UNL d   1      -0.393  -0.349   1.214  0.00  0.00     0.056 C 
BRANCH   7   8
ATOM      8  C1  UNL d   1      -1.880  -0.060   0.985  0.00  0.00     0.007 C 
ATOM      9  C   UNL d   1      -2.561   0.576   2.189  0.00  0.00     0.009 C 
ENDBRANCH   7   8
ENDBRANCH   1   7
TORSDOF 2
ENDMDL
