MODEL 1
REMARK minimizedAffinity -3.74982953
REMARK minimizedRMSD -1
REMARK  2 active torsions:
REMARK  status: ('A' for Active; 'I' for Inactive)
REMARK    1  A    between atoms: C1_2  and  C2_3 
REMARK    2  A    between atoms: C2_3  and  C3_4 
ROOT
ATOM      1  C3  UNL d   1       0.678  -0.399  -1.178  0.00  0.00    -0.075 A 
ATOM      2  C4  UNL d   1       0.574  -1.757  -0.844  0.00  0.00     0.002 A 
ATOM      3  C5  UNL d   1       0.265  -2.144   0.460  0.00  0.00     0.002 A 
ATOM      4  C6  UNL d   1       0.067  -1.181   1.447  0.00  0.00    -0.004 A 
ATOM      5  C7  UNL d   1       0.184   0.171   1.131  0.00  0.00     0.002 A 
ATOM      6  C8  UNL d   1       0.489   0.561  -0.175  0.00  0.00     0.002 A 
ENDROOT
BRANCH   1   7
ATOM      7  C2  UNL d   1       0.984   0.027  -2.594  0.00  0.00     0.056 C 
BRANCH   7   8
ATOM      8  C1  UNL d   1       2.423  -0.259  -3.035  0.00  0.00     0.007 C 
ATOM      9  C   UNL d   1       3.447  -0.025  -1.933  0.00  0.00     0.009 C 
ENDBRANCH   7   8
ENDBRANCH   1   7
TORSDOF 2
ENDMDL
