MODEL 1
REMARK minimizedAffinity -4.53106642
REMARK minimizedRMSD -1
REMARK  2 active torsions:
REMARK  status: ('A' for Active; 'I' for Inactive)
REMARK    1  A    between atoms: C1_2  and  C2_3 
REMARK    2  A    between atoms: C2_3  and  C3_4 
ROOT
ATOM      1  C3  UNL d   1       0.574   0.029  -0.083  0.00  0.00    -0.075 A 
ATOM      2  C4  UNL d   1       0.400  -0.884  -1.133  0.00  0.00     0.002 A 
ATOM      3  C5  UNL d   1       1.227  -0.839  -2.256  0.00  0.00     0.002 A 
ATOM      4  C6  UNL d   1       2.230   0.123  -2.348  0.00  0.00    -0.004 A 
ATOM      5  C7  UNL d   1       2.401   1.046  -1.318  0.00  0.00     0.002 A 
ATOM      6  C8  UNL d   1       1.578   1.000  -0.192  0.00  0.00     0.002 A 
ENDROOT
BRANCH   1   7
ATOM      7  C2  UNL d   1      -0.299  -0.033   1.148  0.00  0.00     0.056 C 
BRANCH   7   8
ATOM      8  C1  UNL d   1      -1.790  -0.214   0.846  0.00  0.00     0.007 C 
ATOM      9  C   UNL d   1      -2.688   0.653   1.719  0.00  0.00     0.009 C 
ENDBRANCH   7   8
ENDBRANCH   1   7
TORSDOF 2
ENDMDL
