MODEL 1
REMARK minimizedAffinity -5.50733519
REMARK minimizedRMSD -1
REMARK  2 active torsions:
REMARK  status: ('A' for Active; 'I' for Inactive)
REMARK    1  A    between atoms: C1_2  and  C2_3 
REMARK    2  A    between atoms: C2_3  and  C3_4 
ROOT
ATOM      1  C3  UNL d   1       0.043   0.058   0.196  0.00  0.00    -0.075 A 
ATOM      2  C4  UNL d   1      -0.689  -0.222  -0.967  0.00  0.00     0.002 A 
ATOM      3  C5  UNL d   1      -0.126  -0.011  -2.226  0.00  0.00     0.002 A 
ATOM      4  C6  UNL d   1       1.168   0.492  -2.338  0.00  0.00    -0.004 A 
ATOM      5  C7  UNL d   1       1.898   0.789  -1.190  0.00  0.00     0.002 A 
ATOM      6  C8  UNL d   1       1.339   0.575   0.071  0.00  0.00     0.002 A 
ENDROOT
BRANCH   1   7
ATOM      7  C2  UNL d   1      -0.549  -0.196   1.562  0.00  0.00     0.056 C 
BRANCH   7   8
ATOM      8  C1  UNL d   1      -1.791   0.648   1.870  0.00  0.00     0.007 C 
ATOM      9  C   UNL d   1      -3.083  -0.159   1.860  0.00  0.00     0.009 C 
ENDBRANCH   7   8
ENDBRANCH   1   7
TORSDOF 2
ENDMDL
