MODEL 1
REMARK minimizedAffinity -3.58859921
REMARK minimizedRMSD -1
REMARK  2 active torsions:
REMARK  status: ('A' for Active; 'I' for Inactive)
REMARK    1  A    between atoms: C1_2  and  C2_3 
REMARK    2  A    between atoms: C2_3  and  C3_4 
ROOT
ATOM      1  C3  UNL d   1       0.504  -0.090  -0.226  0.00  0.00    -0.075 A 
ATOM      2  C4  UNL d   1      -0.337  -0.379  -1.311  0.00  0.00     0.002 A 
ATOM      3  C5  UNL d   1       0.147  -0.318  -2.618  0.00  0.00     0.002 A 
ATOM      4  C6  UNL d   1       1.471   0.041  -2.858  0.00  0.00    -0.004 A 
ATOM      5  C7  UNL d   1       2.311   0.346  -1.788  0.00  0.00     0.002 A 
ATOM      6  C8  UNL d   1       1.831   0.282  -0.479  0.00  0.00     0.002 A 
ENDROOT
BRANCH   1   7
ATOM      7  C2  UNL d   1      -0.006  -0.183   1.192  0.00  0.00     0.056 C 
BRANCH   7   8
ATOM      8  C1  UNL d   1      -1.526  -0.039   1.319  0.00  0.00     0.007 C 
ATOM      9  C   UNL d   1      -1.947   1.025   2.324  0.00  0.00     0.009 C 
ENDBRANCH   7   8
ENDBRANCH   1   7
TORSDOF 2
ENDMDL
