MODEL 1
REMARK minimizedAffinity -4.10897779
REMARK minimizedRMSD -1
REMARK  2 active torsions:
REMARK  status: ('A' for Active; 'I' for Inactive)
REMARK    1  A    between atoms: C1_2  and  C2_3 
REMARK    2  A    between atoms: C2_3  and  C3_4 
ROOT
ATOM      1  C3  UNL d   1       0.259   0.002   0.164  0.00  0.00    -0.075 A 
ATOM      2  C4  UNL d   1       1.239   0.992   0.006  0.00  0.00     0.002 A 
ATOM      3  C5  UNL d   1       1.887   1.159  -1.218  0.00  0.00     0.002 A 
ATOM      4  C6  UNL d   1       1.573   0.333  -2.294  0.00  0.00    -0.004 A 
ATOM      5  C7  UNL d   1       0.613  -0.665  -2.145  0.00  0.00     0.002 A 
ATOM      6  C8  UNL d   1      -0.041  -0.831  -0.922  0.00  0.00     0.002 A 
ENDROOT
BRANCH   1   7
ATOM      7  C2  UNL d   1      -0.467  -0.165   1.477  0.00  0.00     0.056 C 
BRANCH   7   8
ATOM      8  C1  UNL d   1      -1.985   0.019   1.378  0.00  0.00     0.007 C 
ATOM      9  C   UNL d   1      -2.520   1.108   2.298  0.00  0.00     0.009 C 
ENDBRANCH   7   8
ENDBRANCH   1   7
TORSDOF 2
ENDMDL
