MODEL 1
REMARK minimizedAffinity -4.14095354
REMARK minimizedRMSD -1
REMARK  2 active torsions:
REMARK  status: ('A' for Active; 'I' for Inactive)
REMARK    1  A    between atoms: C1_2  and  C2_3 
REMARK    2  A    between atoms: C2_3  and  C3_4 
ROOT
ATOM      1  C3  UNL d   1       0.629  -0.447   0.099  0.00  0.00    -0.075 A 
ATOM      2  C4  UNL d   1       0.899  -1.784  -0.227  0.00  0.00     0.002 A 
ATOM      3  C5  UNL d   1       1.872  -2.099  -1.176  0.00  0.00     0.002 A 
ATOM      4  C6  UNL d   1       2.578  -1.083  -1.817  0.00  0.00    -0.004 A 
ATOM      5  C7  UNL d   1       2.307   0.249  -1.512  0.00  0.00     0.002 A 
ATOM      6  C8  UNL d   1       1.337   0.566  -0.560  0.00  0.00     0.002 A 
ENDROOT
BRANCH   1   7
ATOM      7  C2  UNL d   1      -0.402  -0.101   1.147  0.00  0.00     0.056 C 
BRANCH   7   8
ATOM      8  C1  UNL d   1      -1.839  -0.053   0.616  0.00  0.00     0.007 C 
ATOM      9  C   UNL d   1      -2.823   0.564   1.601  0.00  0.00     0.009 C 
ENDBRANCH   7   8
ENDBRANCH   1   7
TORSDOF 2
ENDMDL
