MODEL 1
REMARK minimizedAffinity -4.32767105
REMARK minimizedRMSD -1
REMARK  2 active torsions:
REMARK  status: ('A' for Active; 'I' for Inactive)
REMARK    1  A    between atoms: C1_2  and  C2_3 
REMARK    2  A    between atoms: C2_3  and  C3_4 
ROOT
ATOM      1  C3  UNL d   1       0.168   0.156  -0.062  0.00  0.00    -0.075 A 
ATOM      2  C4  UNL d   1      -0.680   0.007  -1.169  0.00  0.00     0.002 A 
ATOM      3  C5  UNL d   1      -0.198   0.210  -2.462  0.00  0.00     0.002 A 
ATOM      4  C6  UNL d   1       1.131   0.575  -2.665  0.00  0.00    -0.004 A 
ATOM      5  C7  UNL d   1       1.978   0.742  -1.571  0.00  0.00     0.002 A 
ATOM      6  C8  UNL d   1       1.500   0.535  -0.276  0.00  0.00     0.002 A 
ENDROOT
BRANCH   1   7
ATOM      7  C2  UNL d   1      -0.340  -0.092   1.339  0.00  0.00     0.056 C 
BRANCH   7   8
ATOM      8  C1  UNL d   1      -1.867  -0.086   1.459  0.00  0.00     0.007 C 
ATOM      9  C   UNL d   1      -2.378   0.803   2.585  0.00  0.00     0.009 C 
ENDBRANCH   7   8
ENDBRANCH   1   7
TORSDOF 2
ENDMDL
