MODEL 1
REMARK minimizedAffinity -4.29756498
REMARK minimizedRMSD -1
REMARK  2 active torsions:
REMARK  status: ('A' for Active; 'I' for Inactive)
REMARK    1  A    between atoms: C1_2  and  C2_3 
REMARK    2  A    between atoms: C2_3  and  C3_4 
ROOT
ATOM      1  C3  UNL d   1       0.080  -0.287  -0.556  0.00  0.00    -0.075 A 
ATOM      2  C4  UNL d   1       0.274  -1.194  -1.608  0.00  0.00     0.002 A 
ATOM      3  C5  UNL d   1       1.300  -0.996  -2.534  0.00  0.00     0.002 A 
ATOM      4  C6  UNL d   1       2.135   0.114  -2.426  0.00  0.00    -0.004 A 
ATOM      5  C7  UNL d   1       1.940   1.030  -1.394  0.00  0.00     0.002 A 
ATOM      6  C8  UNL d   1       0.918   0.832  -0.464  0.00  0.00     0.002 A 
ENDROOT
BRANCH   1   7
ATOM      7  C2  UNL d   1      -1.009  -0.511   0.465  0.00  0.00     0.056 C 
BRANCH   7   8
ATOM      8  C1  UNL d   1      -0.862   0.340   1.731  0.00  0.00     0.007 C 
ATOM      9  C   UNL d   1      -2.179   0.933   2.212  0.00  0.00     0.009 C 
ENDBRANCH   7   8
ENDBRANCH   1   7
TORSDOF 2
ENDMDL
