MODEL 1
REMARK minimizedAffinity -4.93951845
REMARK minimizedRMSD -1
REMARK  2 active torsions:
REMARK  status: ('A' for Active; 'I' for Inactive)
REMARK    1  A    between atoms: C1_2  and  C2_3 
REMARK    2  A    between atoms: C2_3  and  C3_4 
ROOT
ATOM      1  C3  UNL d   1      -2.837   2.225   2.907  0.00  0.00    -0.075 A 
ATOM      2  C4  UNL d   1      -4.065   2.228   2.229  0.00  0.00     0.002 A 
ATOM      3  C5  UNL d   1      -4.573   1.051   1.678  0.00  0.00     0.002 A 
ATOM      4  C6  UNL d   1      -3.857  -0.139   1.789  0.00  0.00    -0.004 A 
ATOM      5  C7  UNL d   1      -2.628  -0.150   2.446  0.00  0.00     0.002 A 
ATOM      6  C8  UNL d   1      -2.120   1.025   3.002  0.00  0.00     0.002 A 
ENDROOT
BRANCH   1   7
ATOM      7  C2  UNL d   1      -2.296   3.489   3.530  0.00  0.00     0.056 C 
BRANCH   7   8
ATOM      8  C1  UNL d   1      -2.109   3.405   5.049  0.00  0.00     0.007 C 
ATOM      9  C   UNL d   1      -1.451   4.644   5.642  0.00  0.00     0.009 C 
ENDBRANCH   7   8
ENDBRANCH   1   7
TORSDOF 2
ENDMDL
