MODEL 1
REMARK minimizedAffinity -3.63223243
REMARK minimizedRMSD -1
REMARK  2 active torsions:
REMARK  status: ('A' for Active; 'I' for Inactive)
REMARK    1  A    between atoms: C1_2  and  C2_3 
REMARK    2  A    between atoms: C2_3  and  C3_4 
ROOT
ATOM      1  C3  UNL d   1       1.733  -1.082  -2.095  0.00  0.00    -0.075 A 
ATOM      2  C4  UNL d   1       0.534  -0.832  -1.412  0.00  0.00     0.002 A 
ATOM      3  C5  UNL d   1      -0.224  -1.887  -0.902  0.00  0.00     0.002 A 
ATOM      4  C6  UNL d   1       0.200  -3.202  -1.077  0.00  0.00    -0.004 A 
ATOM      5  C7  UNL d   1       1.381  -3.463  -1.769  0.00  0.00     0.002 A 
ATOM      6  C8  UNL d   1       2.144  -2.410  -2.276  0.00  0.00     0.002 A 
ENDROOT
BRANCH   1   7
ATOM      7  C2  UNL d   1       2.572   0.056  -2.624  0.00  0.00     0.056 C 
BRANCH   7   8
ATOM      8  C1  UNL d   1       3.068   1.021  -1.541  0.00  0.00     0.007 C 
ATOM      9  C   UNL d   1       4.544   0.844  -1.209  0.00  0.00     0.009 C 
ENDBRANCH   7   8
ENDBRANCH   1   7
TORSDOF 2
ENDMDL
