MODEL 1
REMARK minimizedAffinity -5.17774534
REMARK minimizedRMSD -1
REMARK  2 active torsions:
REMARK  status: ('A' for Active; 'I' for Inactive)
REMARK    1  A    between atoms: C1_2  and  C2_3 
REMARK    2  A    between atoms: C2_3  and  C3_4 
ROOT
ATOM      1  C3  UNL d   1       0.202  -0.346  -0.617  0.00  0.00    -0.075 A 
ATOM      2  C4  UNL d   1       0.191  -1.748  -0.591  0.00  0.00     0.002 A 
ATOM      3  C5  UNL d   1       1.060  -2.478  -1.402  0.00  0.00     0.002 A 
ATOM      4  C6  UNL d   1       1.942  -1.818  -2.254  0.00  0.00    -0.004 A 
ATOM      5  C7  UNL d   1       1.950  -0.426  -2.300  0.00  0.00     0.002 A 
ATOM      6  C8  UNL d   1       1.085   0.307  -1.487  0.00  0.00     0.002 A 
ENDROOT
BRANCH   1   7
ATOM      7  C2  UNL d   1      -0.716   0.450   0.280  0.00  0.00     0.056 C 
BRANCH   7   8
ATOM      8  C1  UNL d   1      -0.969  -0.197   1.646  0.00  0.00     0.007 C 
ATOM      9  C   UNL d   1      -2.179   0.380   2.368  0.00  0.00     0.009 C 
ENDBRANCH   7   8
ENDBRANCH   1   7
TORSDOF 2
ENDMDL
