MODEL 1
REMARK minimizedAffinity 23.2080059
REMARK minimizedRMSD -1
REMARK  0 active torsions:
REMARK  status: ('A' for Active; 'I' for Inactive)
ROOT
ATOM      1  C   UNL d   1      -1.502  -5.993  -4.495  0.00  0.00    -0.002 A 
ATOM      2  C1  UNL d   1      -0.724  -5.992  -5.643  0.00  0.00     0.010 A 
ATOM      3  C2  UNL d   1       0.670  -5.991  -5.557  0.00  0.00     0.041 A 
ATOM      4  C3  UNL d   1       1.274  -5.995  -4.284  0.00  0.00    -0.075 A 
ATOM      5  S   UNL d   1       2.962  -5.996  -3.935  0.00  0.00     0.015 SA
ATOM      6  C4  UNL d   1       2.690  -5.999  -2.252  0.00  0.00     0.022 A 
ATOM      7  C5  UNL d   1       1.349  -5.999  -1.947  0.00  0.00     0.026 A 
ATOM      8  C6  UNL d   1       0.511  -5.997  -3.113  0.00  0.00    -0.082 A 
ATOM      9  C7  UNL d   1      -0.899  -5.996  -3.234  0.00  0.00     0.045 A 
ENDROOT
TORSDOF 0
ENDMDL
