MODEL 1
REMARK minimizedAffinity 17.6192131
REMARK minimizedRMSD -1
REMARK  0 active torsions:
REMARK  status: ('A' for Active; 'I' for Inactive)
ROOT
ATOM      1  C   UNL d   1      -0.166   5.615  -0.900  0.00  0.00    -0.002 A 
ATOM      2  C1  UNL d   1       1.136   6.000  -0.612  0.00  0.00     0.010 A 
ATOM      3  C2  UNL d   1       1.875   5.329   0.364  0.00  0.00     0.041 A 
ATOM      4  C3  UNL d   1       1.279   4.254   1.052  0.00  0.00    -0.075 A 
ATOM      5  S   UNL d   1       1.994   3.286   2.286  0.00  0.00     0.015 SA
ATOM      6  C4  UNL d   1       0.588   2.338   2.460  0.00  0.00     0.022 A 
ATOM      7  C5  UNL d   1      -0.412   2.737   1.605  0.00  0.00     0.026 A 
ATOM      8  C6  UNL d   1      -0.030   3.847   0.779  0.00  0.00    -0.082 A 
ATOM      9  C7  UNL d   1      -0.754   4.548  -0.216  0.00  0.00     0.045 A 
ENDROOT
TORSDOF 0
ENDMDL
