MODEL 1
REMARK minimizedAffinity 12.5104294
REMARK minimizedRMSD -1
REMARK  0 active torsions:
REMARK  status: ('A' for Active; 'I' for Inactive)
ROOT
ATOM      1  C   UNL d   1       0.671   3.919  -0.356  0.00  0.00    -0.002 A 
ATOM      2  C1  UNL d   1       0.467   5.280  -0.539  0.00  0.00     0.010 A 
ATOM      3  C2  UNL d   1      -0.350   6.000   0.334  0.00  0.00     0.041 A 
ATOM      4  C3  UNL d   1      -0.963   5.323   1.407  0.00  0.00    -0.075 A 
ATOM      5  S   UNL d   1      -2.003   6.000   2.604  0.00  0.00     0.015 SA
ATOM      6  C4  UNL d   1      -2.201   4.499   3.388  0.00  0.00     0.022 A 
ATOM      7  C5  UNL d   1      -1.498   3.496   2.765  0.00  0.00     0.026 A 
ATOM      8  C6  UNL d   1      -0.773   3.954   1.613  0.00  0.00    -0.082 A 
ATOM      9  C7  UNL d   1       0.060   3.252   0.709  0.00  0.00     0.045 A 
ENDROOT
TORSDOF 0
ENDMDL
