MODEL 1
REMARK minimizedAffinity 12.5152378
REMARK minimizedRMSD -1
REMARK  0 active torsions:
REMARK  status: ('A' for Active; 'I' for Inactive)
ROOT
ATOM      1  C   UNL d   1       0.955   4.892  -0.122  0.00  0.00    -0.002 A 
ATOM      2  C1  UNL d   1      -0.099   4.018   0.107  0.00  0.00     0.010 A 
ATOM      3  C2  UNL d   1      -0.128   3.227   1.257  0.00  0.00     0.041 A 
ATOM      4  C3  UNL d   1       0.928   3.332   2.184  0.00  0.00    -0.075 A 
ATOM      5  S   UNL d   1       1.103   2.463   3.663  0.00  0.00     0.015 SA
ATOM      6  C4  UNL d   1       2.580   3.233   4.026  0.00  0.00     0.022 A 
ATOM      7  C5  UNL d   1       2.945   4.133   3.054  0.00  0.00     0.026 A 
ATOM      8  C6  UNL d   1       1.999   4.205   1.976  0.00  0.00    -0.082 A 
ATOM      9  C7  UNL d   1       2.000   4.993   0.800  0.00  0.00     0.045 A 
ENDROOT
TORSDOF 0
ENDMDL
