MODEL 1
REMARK minimizedAffinity 17.4403095
REMARK minimizedRMSD -1
REMARK  0 active torsions:
REMARK  status: ('A' for Active; 'I' for Inactive)
ROOT
ATOM      1  C   UNL d   1      -0.185   5.415   0.118  0.00  0.00    -0.002 A 
ATOM      2  C1  UNL d   1       1.138   5.104  -0.162  0.00  0.00     0.010 A 
ATOM      3  C2  UNL d   1       1.780   4.061   0.509  0.00  0.00     0.041 A 
ATOM      4  C3  UNL d   1       1.062   3.329   1.475  0.00  0.00    -0.075 A 
ATOM      5  S   UNL d   1       1.642   2.009   2.421  0.00  0.00     0.015 SA
ATOM      6  C4  UNL d   1       0.147   1.828   3.220  0.00  0.00     0.022 A 
ATOM      7  C5  UNL d   1      -0.783   2.743   2.787  0.00  0.00     0.026 A 
ATOM      8  C6  UNL d   1      -0.271   3.623   1.774  0.00  0.00    -0.082 A 
ATOM      9  C7  UNL d   1      -0.893   4.686   1.077  0.00  0.00     0.045 A 
ENDROOT
TORSDOF 0
ENDMDL
