MODEL 1
REMARK minimizedAffinity 14.8455133
REMARK minimizedRMSD -1
REMARK  1 active torsions:
REMARK  status: ('A' for Active; 'I' for Inactive)
REMARK    1  A    between atoms: C1_2  and  C2_3 
ROOT
ATOM      1  C2  UNL d   1      -1.132  -4.384  -2.105  0.00  0.00    -0.081 A 
ATOM      2  C3  UNL d   1      -0.714  -5.116  -0.987  0.00  0.00     0.006 A 
ATOM      3  C4  UNL d   1       0.493  -4.812  -0.352  0.00  0.00     0.002 A 
ATOM      4  C5  UNL d   1       1.298  -3.768  -0.820  0.00  0.00    -0.080 A 
ATOM      5  C6  UNL d   1       2.581  -3.413  -0.130  0.00  0.00     0.076 C 
ATOM      6  C7  UNL d   1       0.889  -3.049  -1.948  0.00  0.00     0.002 A 
ATOM      7  C8  UNL d   1      -0.317  -3.352  -2.583  0.00  0.00     0.006 A 
ENDROOT
BRANCH   1   8
ATOM      8  C1  UNL d   1      -2.463  -4.667  -2.752  0.00  0.00     0.054 C 
ATOM      9  C   UNL d   1      -2.315  -5.616  -3.932  0.00  0.00     0.018 C 
ENDBRANCH   1   8
TORSDOF 1
ENDMDL
