MODEL 1
REMARK minimizedAffinity 2.99445367
REMARK minimizedRMSD -1
REMARK  1 active torsions:
REMARK  status: ('A' for Active; 'I' for Inactive)
REMARK    1  A    between atoms: C1_2  and  C2_3 
ROOT
ATOM      1  C2  UNL d   1       2.660  -1.892  -0.439  0.00  0.00    -0.081 A 
ATOM      2  C3  UNL d   1       2.258  -2.748   0.593  0.00  0.00     0.006 A 
ATOM      3  C4  UNL d   1       1.172  -3.609   0.417  0.00  0.00     0.002 A 
ATOM      4  C5  UNL d   1       0.476  -3.634  -0.796  0.00  0.00    -0.080 A 
ATOM      5  C6  UNL d   1      -0.672  -4.575  -1.009  0.00  0.00     0.076 C 
ATOM      6  C7  UNL d   1       0.867  -2.766  -1.822  0.00  0.00     0.002 A 
ATOM      7  C8  UNL d   1       1.952  -1.905  -1.646  0.00  0.00     0.006 A 
ENDROOT
BRANCH   1   8
ATOM      8  C1  UNL d   1       3.871  -1.008  -0.275  0.00  0.00     0.054 C 
ATOM      9  C   UNL d   1       3.498   0.464  -0.368  0.00  0.00     0.018 C 
ENDBRANCH   1   8
TORSDOF 1
ENDMDL
