MODEL 1
REMARK minimizedAffinity 6.97625542
REMARK minimizedRMSD -1
REMARK  1 active torsions:
REMARK  status: ('A' for Active; 'I' for Inactive)
REMARK    1  A    between atoms: C1_2  and  C2_3 
ROOT
ATOM      1  C2  UNL d   1       5.218   1.728  -0.641  0.00  0.00    -0.081 A 
ATOM      2  C3  UNL d   1       5.201   1.147  -1.916  0.00  0.00     0.006 A 
ATOM      3  C4  UNL d   1       4.428   0.011  -2.166  0.00  0.00     0.002 A 
ATOM      4  C5  UNL d   1       3.654  -0.559  -1.150  0.00  0.00    -0.080 A 
ATOM      5  C6  UNL d   1       2.796  -1.761  -1.414  0.00  0.00     0.076 C 
ATOM      6  C7  UNL d   1       3.684   0.010   0.127  0.00  0.00     0.002 A 
ATOM      7  C8  UNL d   1       4.457   1.146   0.379  0.00  0.00     0.006 A 
ENDROOT
BRANCH   1   8
ATOM      8  C1  UNL d   1       5.999   2.991  -0.385  0.00  0.00     0.054 C 
ATOM      9  C   UNL d   1       5.989   3.357   1.093  0.00  0.00     0.018 C 
ENDBRANCH   1   8
TORSDOF 1
ENDMDL
