MODEL 1
REMARK minimizedAffinity 6.8192749
REMARK minimizedRMSD -1
REMARK  1 active torsions:
REMARK  status: ('A' for Active; 'I' for Inactive)
REMARK    1  A    between atoms: C1_2  and  C2_3 
ROOT
ATOM      1  C2  UNL d   1      -3.825   0.885  -0.108  0.00  0.00    -0.081 A 
ATOM      2  C3  UNL d   1      -3.073   1.518   0.889  0.00  0.00     0.006 A 
ATOM      3  C4  UNL d   1      -1.688   1.648   0.757  0.00  0.00     0.002 A 
ATOM      4  C5  UNL d   1      -1.034   1.153  -0.377  0.00  0.00    -0.080 A 
ATOM      5  C6  UNL d   1       0.448   1.313  -0.545  0.00  0.00     0.076 C 
ATOM      6  C7  UNL d   1      -1.783   0.505  -1.365  0.00  0.00     0.002 A 
ATOM      7  C8  UNL d   1      -3.167   0.374  -1.233  0.00  0.00     0.006 A 
ENDROOT
BRANCH   1   8
ATOM      8  C1  UNL d   1      -5.326   0.801   0.001  0.00  0.00     0.054 C 
ATOM      9  C   UNL d   1      -5.999   1.955  -0.728  0.00  0.00     0.018 C 
ENDBRANCH   1   8
TORSDOF 1
ENDMDL
