MODEL 1
REMARK minimizedAffinity 1.15489018
REMARK minimizedRMSD -1
REMARK  1 active torsions:
REMARK  status: ('A' for Active; 'I' for Inactive)
REMARK    1  A    between atoms: C1_2  and  C2_3 
ROOT
ATOM      1  C2  UNL d   1      -0.055  -0.514  -1.635  0.00  0.00    -0.076 A 
ATOM      2  C3  UNL d   1      -0.250  -0.039  -0.327  0.00  0.00     0.004 A 
ATOM      3  C4  UNL d   1       0.679   0.808   0.276  0.00  0.00    -0.003 A 
ATOM      4  C5  UNL d   1       1.818   1.194  -0.422  0.00  0.00     0.000 A 
ATOM      5  C6  UNL d   1       2.019   0.747  -1.727  0.00  0.00     0.000 A 
ATOM      6  C7  UNL d   1       1.084  -0.094  -2.355  0.00  0.00    -0.073 A 
ATOM      7  C8  UNL d   1       1.354  -0.550  -3.762  0.00  0.00     0.078 C 
ENDROOT
BRANCH   1   8
ATOM      8  C1  UNL d   1      -1.084  -1.451  -2.227  0.00  0.00     0.053 C 
ATOM      9  C   UNL d   1      -1.906  -2.160  -1.162  0.00  0.00     0.018 C 
ENDBRANCH   1   8
TORSDOF 1
ENDMDL
