MODEL 1
REMARK minimizedAffinity 0.436039865
REMARK minimizedRMSD -1
REMARK  1 active torsions:
REMARK  status: ('A' for Active; 'I' for Inactive)
REMARK    1  A    between atoms: C1_2  and  C2_3 
ROOT
ATOM      1  C2  UNL d   1      -3.964   0.742  -5.979  0.00  0.00    -0.076 A 
ATOM      2  C3  UNL d   1      -5.256   1.294  -5.997  0.00  0.00     0.004 A 
ATOM      3  C4  UNL d   1      -5.447   2.674  -5.955  0.00  0.00    -0.003 A 
ATOM      4  C5  UNL d   1      -4.348   3.525  -5.893  0.00  0.00     0.000 A 
ATOM      5  C6  UNL d   1      -3.058   2.994  -5.892  0.00  0.00     0.000 A 
ATOM      6  C7  UNL d   1      -2.848   1.606  -5.951  0.00  0.00    -0.073 A 
ATOM      7  C8  UNL d   1      -1.436   1.089  -5.941  0.00  0.00     0.078 C 
ENDROOT
BRANCH   1   8
ATOM      8  C1  UNL d   1      -3.819  -0.763  -6.000  0.00  0.00     0.053 C 
ATOM      9  C   UNL d   1      -5.161  -1.478  -5.989  0.00  0.00     0.018 C 
ENDBRANCH   1   8
TORSDOF 1
ENDMDL
