MODEL 1
REMARK minimizedAffinity -1.15222883
REMARK minimizedRMSD -1
REMARK  1 active torsions:
REMARK  status: ('A' for Active; 'I' for Inactive)
REMARK    1  A    between atoms: C1_2  and  C2_3 
ROOT
ATOM      1  C2  UNL d   1      -4.002   0.459  -5.982  0.00  0.00    -0.076 A 
ATOM      2  C3  UNL d   1      -2.647   0.084  -5.965  0.00  0.00     0.004 A 
ATOM      3  C4  UNL d   1      -1.637   1.045  -5.974  0.00  0.00    -0.003 A 
ATOM      4  C5  UNL d   1      -1.965   2.396  -5.999  0.00  0.00     0.000 A 
ATOM      5  C6  UNL d   1      -3.304   2.786  -5.997  0.00  0.00     0.000 A 
ATOM      6  C7  UNL d   1      -4.335   1.831  -5.972  0.00  0.00    -0.073 A 
ATOM      7  C8  UNL d   1      -5.761   2.307  -5.978  0.00  0.00     0.078 C 
ENDROOT
BRANCH   1   8
ATOM      8  C1  UNL d   1      -5.054  -0.627  -5.999  0.00  0.00     0.053 C 
ATOM      9  C   UNL d   1      -4.450  -2.023  -5.991  0.00  0.00     0.018 C 
ENDBRANCH   1   8
TORSDOF 1
ENDMDL
