MODEL 1
REMARK minimizedAffinity -0.185562059
REMARK minimizedRMSD -1
REMARK  1 active torsions:
REMARK  status: ('A' for Active; 'I' for Inactive)
REMARK    1  A    between atoms: C1_2  and  C2_3 
ROOT
ATOM      1  C2  UNL d   1      -3.565   2.512  -5.979  0.00  0.00    -0.076 A 
ATOM      2  C3  UNL d   1      -3.010   3.803  -5.949  0.00  0.00     0.004 A 
ATOM      3  C4  UNL d   1      -3.824   4.934  -5.954  0.00  0.00    -0.003 A 
ATOM      4  C5  UNL d   1      -5.207   4.792  -5.988  0.00  0.00     0.000 A 
ATOM      5  C6  UNL d   1      -5.775   3.519  -6.000  0.00  0.00     0.000 A 
ATOM      6  C7  UNL d   1      -4.969   2.368  -5.979  0.00  0.00    -0.073 A 
ATOM      7  C8  UNL d   1      -5.634   1.019  -5.999  0.00  0.00     0.078 C 
ENDROOT
BRANCH   1   8
ATOM      8  C1  UNL d   1      -2.631   1.323  -5.999  0.00  0.00     0.053 C 
ATOM      9  C   UNL d   1      -1.353   1.571  -5.212  0.00  0.00     0.018 C 
ENDBRANCH   1   8
TORSDOF 1
ENDMDL
