MODEL 1
REMARK minimizedAffinity 0.130070791
REMARK minimizedRMSD -1
REMARK  1 active torsions:
REMARK  status: ('A' for Active; 'I' for Inactive)
REMARK    1  A    between atoms: C1_2  and  C2_3 
ROOT
ATOM      1  C2  UNL d   1       0.256  -0.558  -0.883  0.00  0.00    -0.076 A 
ATOM      2  C3  UNL d   1       0.806  -0.700  -2.169  0.00  0.00     0.004 A 
ATOM      3  C4  UNL d   1       1.896   0.070  -2.572  0.00  0.00    -0.003 A 
ATOM      4  C5  UNL d   1       2.453   0.994  -1.695  0.00  0.00     0.000 A 
ATOM      5  C6  UNL d   1       1.932   1.135  -0.409  0.00  0.00     0.000 A 
ATOM      6  C7  UNL d   1       0.843   0.355   0.018  0.00  0.00    -0.073 A 
ATOM      7  C8  UNL d   1       0.317   0.553   1.413  0.00  0.00     0.078 C 
ENDROOT
BRANCH   1   8
ATOM      8  C1  UNL d   1      -0.943  -1.401  -0.511  0.00  0.00     0.053 C 
ATOM      9  C   UNL d   1      -0.612  -2.459   0.530  0.00  0.00     0.018 C 
ENDBRANCH   1   8
TORSDOF 1
ENDMDL
