MODEL 1
REMARK minimizedAffinity 3.23863053
REMARK minimizedRMSD -1
REMARK  1 active torsions:
REMARK  status: ('A' for Active; 'I' for Inactive)
REMARK    1  A    between atoms: C1_2  and  C2_3 
ROOT
ATOM      1  C2  UNL d   1       1.357   0.987  -0.411  0.00  0.00    -0.076 A 
ATOM      2  C3  UNL d   1       0.695   0.543   0.747  0.00  0.00     0.004 A 
ATOM      3  C4  UNL d   1       0.188  -0.753   0.831  0.00  0.00    -0.003 A 
ATOM      4  C5  UNL d   1       0.336  -1.626  -0.241  0.00  0.00     0.000 A 
ATOM      5  C6  UNL d   1       1.005  -1.207  -1.391  0.00  0.00     0.000 A 
ATOM      6  C7  UNL d   1       1.536   0.090  -1.485  0.00  0.00    -0.073 A 
ATOM      7  C8  UNL d   1       2.244   0.491  -2.751  0.00  0.00     0.078 C 
ENDROOT
BRANCH   1   8
ATOM      8  C1  UNL d   1       1.861   2.412  -0.454  0.00  0.00     0.053 C 
ATOM      9  C   UNL d   1       2.331   2.906   0.905  0.00  0.00     0.018 C 
ENDBRANCH   1   8
TORSDOF 1
ENDMDL
