MODEL 1
REMARK minimizedAffinity -2.38958454
REMARK minimizedRMSD -1
REMARK  1 active torsions:
REMARK  status: ('A' for Active; 'I' for Inactive)
REMARK    1  A    between atoms: C1_2  and  C2_3 
ROOT
ATOM      1  C2  UNL d   1       0.954   0.167  -0.600  0.00  0.00    -0.076 A 
ATOM      2  C3  UNL d   1       1.830   0.507  -1.645  0.00  0.00     0.004 A 
ATOM      3  C4  UNL d   1       1.698  -0.068  -2.908  0.00  0.00    -0.003 A 
ATOM      4  C5  UNL d   1       0.687  -0.992  -3.146  0.00  0.00     0.000 A 
ATOM      5  C6  UNL d   1      -0.202  -1.328  -2.125  0.00  0.00     0.000 A 
ATOM      6  C7  UNL d   1      -0.093  -0.745  -0.851  0.00  0.00    -0.073 A 
ATOM      7  C8  UNL d   1      -1.075  -1.148   0.214  0.00  0.00     0.078 C 
ENDROOT
BRANCH   1   8
ATOM      8  C1  UNL d   1       1.164   0.803   0.756  0.00  0.00     0.053 C 
ATOM      9  C   UNL d   1       1.902   2.130   0.669  0.00  0.00     0.018 C 
ENDBRANCH   1   8
TORSDOF 1
ENDMDL
