MODEL 1
REMARK minimizedAffinity 0.790310085
REMARK minimizedRMSD -1
REMARK  1 active torsions:
REMARK  status: ('A' for Active; 'I' for Inactive)
REMARK    1  A    between atoms: C1_2  and  C2_3 
ROOT
ATOM      1  C2  UNL d   1      -4.959   1.033  -5.939  0.00  0.00    -0.076 A 
ATOM      2  C3  UNL d   1      -5.864  -0.043  -5.922  0.00  0.00     0.004 A 
ATOM      3  C4  UNL d   1      -5.412  -1.361  -5.952  0.00  0.00    -0.003 A 
ATOM      4  C5  UNL d   1      -4.047  -1.625  -5.999  0.00  0.00     0.000 A 
ATOM      5  C6  UNL d   1      -3.135  -0.570  -5.999  0.00  0.00     0.000 A 
ATOM      6  C7  UNL d   1      -3.574   0.764  -5.953  0.00  0.00    -0.073 A 
ATOM      7  C8  UNL d   1      -2.546   1.863  -5.961  0.00  0.00     0.078 C 
ENDROOT
BRANCH   1   8
ATOM      8  C1  UNL d   1      -5.509   2.441  -5.932  0.00  0.00     0.053 C 
ATOM      9  C   UNL d   1      -4.413   3.495  -5.992  0.00  0.00     0.018 C 
ENDBRANCH   1   8
TORSDOF 1
ENDMDL
