MODEL 1
REMARK minimizedAffinity -0.387151688
REMARK minimizedRMSD -1
REMARK  1 active torsions:
REMARK  status: ('A' for Active; 'I' for Inactive)
REMARK    1  A    between atoms: C1_2  and  C2_3 
ROOT
ATOM      1  C2  UNL d   1      -3.560   2.308  -5.981  0.00  0.00    -0.076 A 
ATOM      2  C3  UNL d   1      -3.072   3.626  -5.956  0.00  0.00     0.004 A 
ATOM      3  C4  UNL d   1      -3.943   4.714  -5.962  0.00  0.00    -0.003 A 
ATOM      4  C5  UNL d   1      -5.317   4.501  -5.993  0.00  0.00     0.000 A 
ATOM      5  C6  UNL d   1      -5.819   3.201  -6.000  0.00  0.00     0.000 A 
ATOM      6  C7  UNL d   1      -4.955   2.092  -5.977  0.00  0.00    -0.073 A 
ATOM      7  C8  UNL d   1      -5.552   0.712  -5.992  0.00  0.00     0.078 C 
ENDROOT
BRANCH   1   8
ATOM      8  C1  UNL d   1      -2.567   1.168  -6.000  0.00  0.00     0.053 C 
ATOM      9  C   UNL d   1      -1.526   1.283  -4.897  0.00  0.00     0.018 C 
ENDBRANCH   1   8
TORSDOF 1
ENDMDL
