MODEL 1
REMARK minimizedAffinity 0.412167519
REMARK minimizedRMSD -1
REMARK  1 active torsions:
REMARK  status: ('A' for Active; 'I' for Inactive)
REMARK    1  A    between atoms: C1_2  and  C2_3 
ROOT
ATOM      1  C2  UNL d   1       1.121   0.512  -0.026  0.00  0.00    -0.076 A 
ATOM      2  C3  UNL d   1      -0.065  -0.236   0.072  0.00  0.00     0.004 A 
ATOM      3  C4  UNL d   1      -0.487  -1.052  -0.977  0.00  0.00    -0.003 A 
ATOM      4  C5  UNL d   1       0.270  -1.132  -2.141  0.00  0.00     0.000 A 
ATOM      5  C6  UNL d   1       1.458  -0.410  -2.248  0.00  0.00     0.000 A 
ATOM      6  C7  UNL d   1       1.907   0.404  -1.193  0.00  0.00    -0.073 A 
ATOM      7  C8  UNL d   1       3.192   1.165  -1.365  0.00  0.00     0.078 C 
ENDROOT
BRANCH   1   8
ATOM      8  C1  UNL d   1       1.514   1.400   1.133  0.00  0.00     0.053 C 
ATOM      9  C   UNL d   1       1.740   2.844   0.710  0.00  0.00     0.018 C 
ENDBRANCH   1   8
TORSDOF 1
ENDMDL
