MODEL 1
REMARK minimizedAffinity -2.69860363
REMARK minimizedRMSD -1
REMARK  1 active torsions:
REMARK  status: ('A' for Active; 'I' for Inactive)
REMARK    1  A    between atoms: C1_2  and  C2_3 
ROOT
ATOM      1  C2  UNL d   1      -3.976   3.385  -5.960  0.00  0.00    -0.076 A 
ATOM      2  C3  UNL d   1      -4.918   2.342  -5.989  0.00  0.00     0.004 A 
ATOM      3  C4  UNL d   1      -4.512   1.008  -6.000  0.00  0.00    -0.003 A 
ATOM      4  C5  UNL d   1      -3.157   0.696  -5.982  0.00  0.00     0.000 A 
ATOM      5  C6  UNL d   1      -2.209   1.718  -5.936  0.00  0.00     0.000 A 
ATOM      6  C7  UNL d   1      -2.602   3.067  -5.907  0.00  0.00    -0.073 A 
ATOM      7  C8  UNL d   1      -1.537   4.128  -5.864  0.00  0.00     0.078 C 
ENDROOT
BRANCH   1   8
ATOM      8  C1  UNL d   1      -4.475   4.812  -5.977  0.00  0.00     0.053 C 
ATOM      9  C   UNL d   1      -5.993   4.898  -5.999  0.00  0.00     0.018 C 
ENDBRANCH   1   8
TORSDOF 1
ENDMDL
