MODEL 1
REMARK minimizedAffinity -2.93401599
REMARK minimizedRMSD -1
REMARK  0 active torsions:
REMARK  status: ('A' for Active; 'I' for Inactive)
ROOT
ATOM      1  C   UNL d   1       3.046  -0.375  -1.124  0.00  0.00     0.172 C 
ATOM      2  N   UNL d   1       1.748   0.140  -0.759  0.00  0.00    -0.070 N 
ATOM      3  C1  UNL d   1       0.814  -0.513   0.000  0.00  0.00    -0.004 A 
ATOM      4  C2  UNL d   1      -0.284   0.311   0.121  0.00  0.00    -0.047 A 
ATOM      5  C3  UNL d   1      -0.000   1.501  -0.590  0.00  0.00    -0.047 A 
ATOM      6  C4  UNL d   1       1.264   1.369  -1.125  0.00  0.00    -0.004 A 
ENDROOT
TORSDOF 0
ENDMDL
