MODEL 1
REMARK minimizedAffinity -2.35820317
REMARK minimizedRMSD -1
REMARK  0 active torsions:
REMARK  status: ('A' for Active; 'I' for Inactive)
ROOT
ATOM      1  C   UNL d   1      -2.902  -1.677  -0.797  0.00  0.00     0.172 C 
ATOM      2  N   UNL d   1      -1.549  -1.249  -0.529  0.00  0.00    -0.070 N 
ATOM      3  C1  UNL d   1      -0.432  -2.036  -0.610  0.00  0.00    -0.004 A 
ATOM      4  C2  UNL d   1       0.657  -1.259  -0.279  0.00  0.00    -0.047 A 
ATOM      5  C3  UNL d   1       0.177   0.040   0.012  0.00  0.00    -0.047 A 
ATOM      6  C4  UNL d   1      -1.192   0.018  -0.150  0.00  0.00    -0.004 A 
ENDROOT
TORSDOF 0
ENDMDL
