MODEL 1
REMARK minimizedAffinity -2.20103335
REMARK minimizedRMSD -1
REMARK  0 active torsions:
REMARK  status: ('A' for Active; 'I' for Inactive)
ROOT
ATOM      1  C   UNL d   1      -0.064   0.352   1.384  0.00  0.00     0.172 C 
ATOM      2  N   UNL d   1      -0.820   0.868   2.501  0.00  0.00    -0.070 N 
ATOM      3  C1  UNL d   1      -0.812   0.362   3.773  0.00  0.00    -0.004 A 
ATOM      4  C2  UNL d   1      -1.660   1.131   4.539  0.00  0.00    -0.047 A 
ATOM      5  C3  UNL d   1      -2.198   2.134   3.698  0.00  0.00    -0.047 A 
ATOM      6  C4  UNL d   1      -1.661   1.948   2.442  0.00  0.00    -0.004 A 
ENDROOT
TORSDOF 0
ENDMDL
