MODEL 1
REMARK minimizedAffinity -2.25996757
REMARK minimizedRMSD -1
REMARK  0 active torsions:
REMARK  status: ('A' for Active; 'I' for Inactive)
ROOT
ATOM      1  C   UNL d   1      -2.774  -2.327  -0.458  0.00  0.00     0.172 C 
ATOM      2  N   UNL d   1      -1.563  -1.601  -0.155  0.00  0.00    -0.070 N 
ATOM      3  C1  UNL d   1      -1.472  -0.250   0.048  0.00  0.00    -0.004 A 
ATOM      4  C2  UNL d   1      -0.152   0.050   0.310  0.00  0.00    -0.047 A 
ATOM      5  C3  UNL d   1       0.575  -1.163   0.263  0.00  0.00    -0.047 A 
ATOM      6  C4  UNL d   1      -0.323  -2.169  -0.027  0.00  0.00    -0.004 A 
ENDROOT
TORSDOF 0
ENDMDL
