MODEL 1
REMARK minimizedAffinity -3.0565834
REMARK minimizedRMSD -1
REMARK  0 active torsions:
REMARK  status: ('A' for Active; 'I' for Inactive)
ROOT
ATOM      1  C   UNL d   1      -1.083  -0.131   0.568  0.00  0.00     0.172 C 
ATOM      2  N   UNL d   1      -1.872   0.133   1.748  0.00  0.00    -0.070 N 
ATOM      3  C1  UNL d   1      -3.085  -0.431   2.040  0.00  0.00    -0.004 A 
ATOM      4  C2  UNL d   1      -3.508   0.078   3.249  0.00  0.00    -0.047 A 
ATOM      5  C3  UNL d   1      -2.514   0.980   3.699  0.00  0.00    -0.047 A 
ATOM      6  C4  UNL d   1      -1.513   0.995   2.751  0.00  0.00    -0.004 A 
ENDROOT
TORSDOF 0
ENDMDL
