MODEL 1
REMARK minimizedAffinity -2.13480473
REMARK minimizedRMSD -1
REMARK  0 active torsions:
REMARK  status: ('A' for Active; 'I' for Inactive)
ROOT
ATOM      1  C   UNL d   1      -0.254   0.208   0.782  0.00  0.00     0.172 C 
ATOM      2  N   UNL d   1       0.645  -0.594  -0.015  0.00  0.00    -0.070 N 
ATOM      3  C1  UNL d   1       1.086  -0.286  -1.274  0.00  0.00    -0.004 A 
ATOM      4  C2  UNL d   1       1.923  -1.299  -1.688  0.00  0.00    -0.047 A 
ATOM      5  C3  UNL d   1       1.987  -2.249  -0.641  0.00  0.00    -0.047 A 
ATOM      6  C4  UNL d   1       1.186  -1.788   0.382  0.00  0.00    -0.004 A 
ENDROOT
TORSDOF 0
ENDMDL
