MODEL 1
REMARK minimizedAffinity -2.47380805
REMARK minimizedRMSD -1
REMARK  0 active torsions:
REMARK  status: ('A' for Active; 'I' for Inactive)
ROOT
ATOM      1  C   UNL d   1       1.762  -3.011  -2.713  0.00  0.00     0.172 C 
ATOM      2  N   UNL d   1       1.888  -2.006  -1.684  0.00  0.00    -0.070 N 
ATOM      3  C1  UNL d   1       1.043  -1.844  -0.618  0.00  0.00    -0.004 A 
ATOM      4  C2  UNL d   1       1.505  -0.782   0.129  0.00  0.00    -0.047 A 
ATOM      5  C3  UNL d   1       2.667  -0.288  -0.511  0.00  0.00    -0.047 A 
ATOM      6  C4  UNL d   1       2.881  -1.064  -1.630  0.00  0.00    -0.004 A 
ENDROOT
TORSDOF 0
ENDMDL
