MODEL 1
REMARK minimizedAffinity -1.84265113
REMARK minimizedRMSD -1
REMARK  0 active torsions:
REMARK  status: ('A' for Active; 'I' for Inactive)
ROOT
ATOM      1  C   UNL d   1      -0.641   0.468   0.449  0.00  0.00     0.172 C 
ATOM      2  N   UNL d   1      -1.326   0.671   1.705  0.00  0.00    -0.070 N 
ATOM      3  C1  UNL d   1      -0.951   1.550   2.685  0.00  0.00    -0.004 A 
ATOM      4  C2  UNL d   1      -1.859   1.444   3.717  0.00  0.00    -0.047 A 
ATOM      5  C3  UNL d   1      -2.812   0.468   3.343  0.00  0.00    -0.047 A 
ATOM      6  C4  UNL d   1      -2.459   0.006   2.093  0.00  0.00    -0.004 A 
ENDROOT
TORSDOF 0
ENDMDL
