MODEL 1
REMARK minimizedAffinity -3.08874655
REMARK minimizedRMSD -1
REMARK  0 active torsions:
REMARK  status: ('A' for Active; 'I' for Inactive)
ROOT
ATOM      1  C   UNL d   1      -0.483  -2.704  -0.116  0.00  0.00     0.172 C 
ATOM      2  N   UNL d   1       0.661  -1.937  -0.549  0.00  0.00    -0.070 N 
ATOM      3  C1  UNL d   1       1.596  -2.343  -1.463  0.00  0.00    -0.004 A 
ATOM      4  C2  UNL d   1       2.520  -1.330  -1.601  0.00  0.00    -0.047 A 
ATOM      5  C3  UNL d   1       2.128  -0.279  -0.738  0.00  0.00    -0.047 A 
ATOM      6  C4  UNL d   1       0.975  -0.681  -0.099  0.00  0.00    -0.004 A 
ENDROOT
TORSDOF 0
ENDMDL
