MODEL 1
REMARK minimizedAffinity -3.28964543
REMARK minimizedRMSD -1
REMARK  0 active torsions:
REMARK  status: ('A' for Active; 'I' for Inactive)
ROOT
ATOM      1  C   UNL d   1       0.354  -1.654  -0.067  0.00  0.00     0.172 C 
ATOM      2  N   UNL d   1       1.205  -0.756  -0.812  0.00  0.00    -0.070 N 
ATOM      3  C1  UNL d   1       2.336  -1.113  -1.496  0.00  0.00    -0.004 A 
ATOM      4  C2  UNL d   1       2.859   0.026  -2.070  0.00  0.00    -0.047 A 
ATOM      5  C3  UNL d   1       2.013   1.104  -1.718  0.00  0.00    -0.047 A 
ATOM      6  C4  UNL d   1       0.997   0.592  -0.939  0.00  0.00    -0.004 A 
ENDROOT
TORSDOF 0
ENDMDL
