MODEL 1
REMARK minimizedAffinity -3.80886698
REMARK minimizedRMSD -1
REMARK  0 active torsions:
REMARK  status: ('A' for Active; 'I' for Inactive)
ROOT
ATOM      1  C   UNL d   1      -0.603   0.242   0.418  0.00  0.00     0.172 C 
ATOM      2  N   UNL d   1       0.628  -0.008  -0.295  0.00  0.00    -0.070 N 
ATOM      3  C1  UNL d   1       1.128  -1.242  -0.616  0.00  0.00    -0.004 A 
ATOM      4  C2  UNL d   1       2.314  -1.053  -1.293  0.00  0.00    -0.047 A 
ATOM      5  C3  UNL d   1       2.534   0.342  -1.381  0.00  0.00    -0.047 A 
ATOM      6  C4  UNL d   1       1.475   0.965  -0.755  0.00  0.00    -0.004 A 
ENDROOT
TORSDOF 0
ENDMDL
