MODEL 1
REMARK minimizedAffinity -1.11437392
REMARK minimizedRMSD -1
REMARK  0 active torsions:
REMARK  status: ('A' for Active; 'I' for Inactive)
ROOT
ATOM      1  C   UNL d   1       2.189   6.000  -5.146  0.00  0.00     0.172 C 
ATOM      2  N   UNL d   1       3.047   5.998  -3.984  0.00  0.00    -0.070 N 
ATOM      3  C1  UNL d   1       4.416   6.000  -4.003  0.00  0.00    -0.004 A 
ATOM      4  C2  UNL d   1       4.856   5.998  -2.697  0.00  0.00    -0.047 A 
ATOM      5  C3  UNL d   1       3.712   5.995  -1.865  0.00  0.00    -0.047 A 
ATOM      6  C4  UNL d   1       2.605   5.995  -2.687  0.00  0.00    -0.004 A 
ENDROOT
TORSDOF 0
ENDMDL
