MODEL 1
REMARK minimizedAffinity -2.14197421
REMARK minimizedRMSD -1
REMARK  0 active torsions:
REMARK  status: ('A' for Active; 'I' for Inactive)
ROOT
ATOM      1  C   UNL d   1       4.789   2.660   4.502  0.00  0.00     0.172 C 
ATOM      2  N   UNL d   1       5.082   3.975   3.981  0.00  0.00    -0.070 N 
ATOM      3  C1  UNL d   1       4.493   4.550   2.886  0.00  0.00    -0.004 A 
ATOM      4  C2  UNL d   1       5.043   5.802   2.719  0.00  0.00    -0.047 A 
ATOM      5  C3  UNL d   1       5.997   5.986   3.749  0.00  0.00    -0.047 A 
ATOM      6  C4  UNL d   1       6.000   4.840   4.515  0.00  0.00    -0.004 A 
ENDROOT
TORSDOF 0
ENDMDL
