MODEL 1
REMARK minimizedAffinity -3.31770372
REMARK minimizedRMSD -1
REMARK  0 active torsions:
REMARK  status: ('A' for Active; 'I' for Inactive)
ROOT
ATOM      1  C   UNL d   1       4.923   1.104   5.826  0.00  0.00     0.172 C 
ATOM      2  N   UNL d   1       4.945   2.089   4.770  0.00  0.00    -0.070 N 
ATOM      3  C1  UNL d   1       4.634   3.415   4.909  0.00  0.00    -0.004 A 
ATOM      4  C2  UNL d   1       4.777   4.014   3.676  0.00  0.00    -0.047 A 
ATOM      5  C3  UNL d   1       5.187   3.012   2.764  0.00  0.00    -0.047 A 
ATOM      6  C4  UNL d   1       5.283   1.830   3.468  0.00  0.00    -0.004 A 
ENDROOT
TORSDOF 0
ENDMDL
