MODEL 1
REMARK minimizedAffinity 0.0711207315
REMARK minimizedRMSD -1
REMARK  0 active torsions:
REMARK  status: ('A' for Active; 'I' for Inactive)
ROOT
ATOM      1  C   UNL d   1      -3.144  -1.488   1.038  0.00  0.00     0.172 C 
ATOM      2  N   UNL d   1      -2.738  -1.245   2.403  0.00  0.00    -0.070 N 
ATOM      3  C1  UNL d   1      -3.172  -1.939   3.501  0.00  0.00    -0.004 A 
ATOM      4  C2  UNL d   1      -2.552  -1.405   4.610  0.00  0.00    -0.047 A 
ATOM      5  C3  UNL d   1      -1.718  -0.353   4.163  0.00  0.00    -0.047 A 
ATOM      6  C4  UNL d   1      -1.852  -0.276   2.793  0.00  0.00    -0.004 A 
ENDROOT
TORSDOF 0
ENDMDL
