MODEL 1
REMARK minimizedAffinity -2.73667121
REMARK minimizedRMSD -1
REMARK  0 active torsions:
REMARK  status: ('A' for Active; 'I' for Inactive)
ROOT
ATOM      1  C   UNL d   1       5.520   2.705   4.362  0.00  0.00     0.172 C 
ATOM      2  N   UNL d   1       5.555   1.322   4.778  0.00  0.00    -0.070 N 
ATOM      3  C1  UNL d   1       5.154   0.845   5.997  0.00  0.00    -0.004 A 
ATOM      4  C2  UNL d   1       5.345  -0.520   5.999  0.00  0.00    -0.047 A 
ATOM      5  C3  UNL d   1       5.880  -0.875   4.738  0.00  0.00    -0.047 A 
ATOM      6  C4  UNL d   1       6.000   0.285   4.002  0.00  0.00    -0.004 A 
ENDROOT
TORSDOF 0
ENDMDL
