MODEL 1
REMARK minimizedAffinity -1.84802723
REMARK minimizedRMSD -1
REMARK  0 active torsions:
REMARK  status: ('A' for Active; 'I' for Inactive)
ROOT
ATOM      1  C   UNL d   1       5.725   6.000   3.635  0.00  0.00     0.172 C 
ATOM      2  N   UNL d   1       5.207   5.065   2.664  0.00  0.00    -0.070 N 
ATOM      3  C1  UNL d   1       5.657   3.787   2.467  0.00  0.00    -0.004 A 
ATOM      4  C2  UNL d   1       4.906   3.226   1.457  0.00  0.00    -0.047 A 
ATOM      5  C3  UNL d   1       3.973   4.201   1.031  0.00  0.00    -0.047 A 
ATOM      6  C4  UNL d   1       4.181   5.330   1.796  0.00  0.00    -0.004 A 
ENDROOT
TORSDOF 0
ENDMDL
