MODEL 1
REMARK minimizedAffinity -2.97156477
REMARK minimizedRMSD -1
REMARK  0 active torsions:
REMARK  status: ('A' for Active; 'I' for Inactive)
ROOT
ATOM      1  C   UNL d   1       5.735   1.098   4.143  0.00  0.00     0.172 C 
ATOM      2  N   UNL d   1       5.612  -0.319   3.896  0.00  0.00    -0.070 N 
ATOM      3  C1  UNL d   1       5.096  -0.890   2.763  0.00  0.00    -0.004 A 
ATOM      4  C2  UNL d   1       5.154  -2.259   2.917  0.00  0.00    -0.047 A 
ATOM      5  C3  UNL d   1       5.722  -2.519   4.186  0.00  0.00    -0.047 A 
ATOM      6  C4  UNL d   1       5.996  -1.300   4.771  0.00  0.00    -0.004 A 
ENDROOT
TORSDOF 0
ENDMDL
