MODEL 1
REMARK minimizedAffinity -2.21002412
REMARK minimizedRMSD -1
REMARK  0 active torsions:
REMARK  status: ('A' for Active; 'I' for Inactive)
ROOT
ATOM      1  C   UNL d   1       5.690   1.216   5.027  0.00  0.00     0.172 C 
ATOM      2  N   UNL d   1       5.769  -0.223   4.947  0.00  0.00    -0.070 N 
ATOM      3  C1  UNL d   1       6.000  -1.070   5.998  0.00  0.00    -0.004 A 
ATOM      4  C2  UNL d   1       6.000  -2.359   5.510  0.00  0.00    -0.047 A 
ATOM      5  C3  UNL d   1       5.762  -2.284   4.117  0.00  0.00    -0.047 A 
ATOM      6  C4  UNL d   1       5.622  -0.950   3.795  0.00  0.00    -0.004 A 
ENDROOT
TORSDOF 0
ENDMDL
