MODEL 1
REMARK minimizedAffinity -0.0757092908
REMARK minimizedRMSD -1
REMARK  0 active torsions:
REMARK  status: ('A' for Active; 'I' for Inactive)
ROOT
ATOM      1  C   UNL d   1      -2.359   2.969  -5.966  0.00  0.00     0.078 C 
ATOM      2  C1  UNL d   1      -0.932   3.429  -5.985  0.00  0.00    -0.077 A 
ATOM      3  C2  UNL d   1       0.123   2.508  -5.986  0.00  0.00    -0.001 A 
ATOM      4  C3  UNL d   1       1.446   2.951  -5.994  0.00  0.00     0.003 A 
ATOM      5  C4  UNL d   1       1.728   4.315  -6.000  0.00  0.00    -0.005 A 
ATOM      6  C5  UNL d   1       0.685   5.239  -5.997  0.00  0.00     0.003 A 
ATOM      7  C6  UNL d   1      -0.639   4.799  -5.989  0.00  0.00    -0.001 A 
ENDROOT
TORSDOF 0
ENDMDL
