MODEL 1
REMARK minimizedAffinity -1.72944951
REMARK minimizedRMSD -1
REMARK  0 active torsions:
REMARK  status: ('A' for Active; 'I' for Inactive)
ROOT
ATOM      1  C   UNL d   1      -3.103   3.008  -5.994  0.00  0.00     0.078 C 
ATOM      2  C1  UNL d   1      -1.750   3.654  -5.987  0.00  0.00    -0.077 A 
ATOM      3  C2  UNL d   1      -1.616   5.048  -5.990  0.00  0.00    -0.001 A 
ATOM      4  C3  UNL d   1      -0.350   5.635  -5.994  0.00  0.00     0.003 A 
ATOM      5  C4  UNL d   1       0.792   4.837  -5.996  0.00  0.00    -0.005 A 
ATOM      6  C5  UNL d   1       0.669   3.449  -5.995  0.00  0.00     0.003 A 
ATOM      7  C6  UNL d   1      -0.597   2.859  -5.992  0.00  0.00    -0.001 A 
ENDROOT
TORSDOF 0
ENDMDL
