MODEL 1
REMARK minimizedAffinity -1.12320399
REMARK minimizedRMSD -1
REMARK  0 active torsions:
REMARK  status: ('A' for Active; 'I' for Inactive)
ROOT
ATOM      1  C   UNL d   1       0.908   3.169  -6.000  0.00  0.00     0.078 C 
ATOM      2  C1  UNL d   1       0.021   4.147  -5.288  0.00  0.00    -0.077 A 
ATOM      3  C2  UNL d   1      -0.731   5.089  -6.000  0.00  0.00    -0.001 A 
ATOM      4  C3  UNL d   1      -1.545   6.000  -5.324  0.00  0.00     0.003 A 
ATOM      5  C4  UNL d   1      -1.612   5.978  -3.932  0.00  0.00    -0.005 A 
ATOM      6  C5  UNL d   1      -0.865   5.046  -3.215  0.00  0.00     0.003 A 
ATOM      7  C6  UNL d   1      -0.051   4.135  -3.889  0.00  0.00    -0.001 A 
ENDROOT
TORSDOF 0
ENDMDL
