MODEL 1
REMARK minimizedAffinity -1.12734246
REMARK minimizedRMSD -1
REMARK  0 active torsions:
REMARK  status: ('A' for Active; 'I' for Inactive)
ROOT
ATOM      1  C   UNL d   1      -3.390   6.000  -5.988  0.00  0.00     0.078 C 
ATOM      2  C1  UNL d   1      -2.309   4.960  -5.966  0.00  0.00    -0.077 A 
ATOM      3  C2  UNL d   1      -0.958   5.325  -5.926  0.00  0.00    -0.001 A 
ATOM      4  C3  UNL d   1       0.037   4.347  -5.916  0.00  0.00     0.003 A 
ATOM      5  C4  UNL d   1      -0.308   2.997  -5.946  0.00  0.00    -0.005 A 
ATOM      6  C5  UNL d   1      -1.650   2.624  -5.988  0.00  0.00     0.003 A 
ATOM      7  C6  UNL d   1      -2.647   3.601  -5.999  0.00  0.00    -0.001 A 
ENDROOT
TORSDOF 0
ENDMDL
