MODEL 1
REMARK minimizedAffinity -2.44013524
REMARK minimizedRMSD -1
REMARK  0 active torsions:
REMARK  status: ('A' for Active; 'I' for Inactive)
ROOT
ATOM      1  C   UNL d   1      -2.892   2.969  -6.000  0.00  0.00     0.078 C 
ATOM      2  C1  UNL d   1      -1.651   3.810  -5.992  0.00  0.00    -0.077 A 
ATOM      3  C2  UNL d   1      -0.381   3.221  -5.999  0.00  0.00    -0.001 A 
ATOM      4  C3  UNL d   1       0.766   4.016  -5.982  0.00  0.00     0.003 A 
ATOM      5  C4  UNL d   1       0.655   5.404  -5.956  0.00  0.00    -0.005 A 
ATOM      6  C5  UNL d   1      -0.605   6.000  -5.946  0.00  0.00     0.003 A 
ATOM      7  C6  UNL d   1      -1.753   5.206  -5.963  0.00  0.00    -0.001 A 
ENDROOT
TORSDOF 0
ENDMDL
