MODEL 1
REMARK minimizedAffinity -2.56243014
REMARK minimizedRMSD -1
REMARK  0 active torsions:
REMARK  status: ('A' for Active; 'I' for Inactive)
ROOT
ATOM      1  C   UNL d   1       0.146   3.140  -5.998  0.00  0.00     0.078 C 
ATOM      2  C1  UNL d   1      -1.166   3.865  -5.992  0.00  0.00    -0.077 A 
ATOM      3  C2  UNL d   1      -2.378   3.163  -5.994  0.00  0.00    -0.001 A 
ATOM      4  C3  UNL d   1      -3.592   3.851  -5.997  0.00  0.00     0.003 A 
ATOM      5  C4  UNL d   1      -3.607   5.244  -6.000  0.00  0.00    -0.005 A 
ATOM      6  C5  UNL d   1      -2.407   5.951  -6.000  0.00  0.00     0.003 A 
ATOM      7  C6  UNL d   1      -1.191   5.265  -5.997  0.00  0.00    -0.001 A 
ENDROOT
TORSDOF 0
ENDMDL
