MODEL 1
REMARK minimizedAffinity -1.93941331
REMARK minimizedRMSD -1
REMARK  0 active torsions:
REMARK  status: ('A' for Active; 'I' for Inactive)
ROOT
ATOM      1  C   UNL d   1      -3.023   5.983  -5.919  0.00  0.00     0.078 C 
ATOM      2  C1  UNL d   1      -1.930   4.956  -5.938  0.00  0.00    -0.077 A 
ATOM      3  C2  UNL d   1      -2.227   3.588  -5.983  0.00  0.00    -0.001 A 
ATOM      4  C3  UNL d   1      -1.200   2.643  -5.991  0.00  0.00     0.003 A 
ATOM      5  C4  UNL d   1       0.131   3.055  -5.951  0.00  0.00    -0.005 A 
ATOM      6  C5  UNL d   1       0.436   4.414  -5.903  0.00  0.00     0.003 A 
ATOM      7  C6  UNL d   1      -0.590   5.360  -5.896  0.00  0.00    -0.001 A 
ENDROOT
TORSDOF 0
ENDMDL
