MODEL 1
REMARK minimizedAffinity 0.878780425
REMARK minimizedRMSD -1
REMARK  0 active torsions:
REMARK  status: ('A' for Active; 'I' for Inactive)
ROOT
ATOM      1  C   UNL d   1       1.598   4.466  -5.853  0.00  0.00     0.078 C 
ATOM      2  C1  UNL d   1       0.146   4.374  -5.489  0.00  0.00    -0.077 A 
ATOM      3  C2  UNL d   1      -0.660   3.346  -5.992  0.00  0.00    -0.001 A 
ATOM      4  C3  UNL d   1      -2.012   3.278  -5.653  0.00  0.00     0.003 A 
ATOM      5  C4  UNL d   1      -2.571   4.237  -4.811  0.00  0.00    -0.005 A 
ATOM      6  C5  UNL d   1      -1.777   5.266  -4.307  0.00  0.00     0.003 A 
ATOM      7  C6  UNL d   1      -0.425   5.335  -4.645  0.00  0.00    -0.001 A 
ENDROOT
TORSDOF 0
ENDMDL
