MODEL 1
REMARK minimizedAffinity 2.47550631
REMARK minimizedRMSD -1
REMARK  0 active torsions:
REMARK  status: ('A' for Active; 'I' for Inactive)
ROOT
ATOM      1  C   UNL d   1       1.178   2.765  -5.988  0.00  0.00     0.078 C 
ATOM      2  C1  UNL d   1      -0.080   3.581  -5.999  0.00  0.00    -0.077 A 
ATOM      3  C2  UNL d   1      -0.032   4.981  -5.998  0.00  0.00    -0.001 A 
ATOM      4  C3  UNL d   1      -1.211   5.728  -5.998  0.00  0.00     0.003 A 
ATOM      5  C4  UNL d   1      -2.447   5.084  -5.999  0.00  0.00    -0.005 A 
ATOM      6  C5  UNL d   1      -2.505   3.692  -5.998  0.00  0.00     0.003 A 
ATOM      7  C6  UNL d   1      -1.327   2.943  -5.998  0.00  0.00    -0.001 A 
ENDROOT
TORSDOF 0
ENDMDL
