MODEL 1
REMARK minimizedAffinity -0.824418485
REMARK minimizedRMSD -1
REMARK  0 active torsions:
REMARK  status: ('A' for Active; 'I' for Inactive)
ROOT
ATOM      1  C   UNL d   1      -2.715   2.722  -5.954  0.00  0.00     0.078 C 
ATOM      2  C1  UNL d   1      -1.388   3.419  -5.977  0.00  0.00    -0.077 A 
ATOM      3  C2  UNL d   1      -0.191   2.692  -5.985  0.00  0.00    -0.001 A 
ATOM      4  C3  UNL d   1       1.037   3.355  -5.996  0.00  0.00     0.003 A 
ATOM      5  C4  UNL d   1       1.081   4.748  -5.999  0.00  0.00    -0.005 A 
ATOM      6  C5  UNL d   1      -0.105   5.480  -5.989  0.00  0.00     0.003 A 
ATOM      7  C6  UNL d   1      -1.334   4.819  -5.977  0.00  0.00    -0.001 A 
ENDROOT
TORSDOF 0
ENDMDL
