MODEL 1
REMARK minimizedAffinity -3.44405198
REMARK minimizedRMSD -1
REMARK  0 active torsions:
REMARK  status: ('A' for Active; 'I' for Inactive)
ROOT
ATOM      1  C   UNL d   1       3.318   3.011  -5.990  0.00  0.00     0.078 C 
ATOM      2  C1  UNL d   1       1.846   3.299  -5.999  0.00  0.00    -0.077 A 
ATOM      3  C2  UNL d   1       1.368   4.615  -6.000  0.00  0.00    -0.001 A 
ATOM      4  C3  UNL d   1      -0.005   4.868  -5.999  0.00  0.00     0.003 A 
ATOM      5  C4  UNL d   1      -0.911   3.809  -5.995  0.00  0.00    -0.005 A 
ATOM      6  C5  UNL d   1      -0.445   2.496  -5.992  0.00  0.00     0.003 A 
ATOM      7  C6  UNL d   1       0.927   2.241  -5.994  0.00  0.00    -0.001 A 
ENDROOT
TORSDOF 0
ENDMDL
