MODEL 1
REMARK minimizedAffinity -2.76773238
REMARK minimizedRMSD -1
REMARK  0 active torsions:
REMARK  status: ('A' for Active; 'I' for Inactive)
ROOT
ATOM      1  C   UNL d   1      -0.580   2.268  -5.988  0.00  0.00     0.078 C 
ATOM      2  C1  UNL d   1      -1.376   3.539  -5.998  0.00  0.00    -0.077 A 
ATOM      3  C2  UNL d   1      -0.741   4.787  -5.998  0.00  0.00    -0.001 A 
ATOM      4  C3  UNL d   1      -1.495   5.962  -5.998  0.00  0.00     0.003 A 
ATOM      5  C4  UNL d   1      -2.887   5.901  -5.997  0.00  0.00    -0.005 A 
ATOM      6  C5  UNL d   1      -3.527   4.663  -5.995  0.00  0.00     0.003 A 
ATOM      7  C6  UNL d   1      -2.775   3.487  -5.995  0.00  0.00    -0.001 A 
ENDROOT
TORSDOF 0
ENDMDL
