MODEL 1
REMARK minimizedAffinity 1.365628
REMARK minimizedRMSD -1
REMARK  0 active torsions:
REMARK  status: ('A' for Active; 'I' for Inactive)
ROOT
ATOM      1  C   UNL d   1      -3.681   3.410  -5.988  0.00  0.00     0.078 C 
ATOM      2  C1  UNL d   1      -2.206   3.679  -6.000  0.00  0.00    -0.077 A 
ATOM      3  C2  UNL d   1      -1.281   2.628  -5.998  0.00  0.00    -0.001 A 
ATOM      4  C3  UNL d   1       0.089   2.894  -5.998  0.00  0.00     0.003 A 
ATOM      5  C4  UNL d   1       0.547   4.210  -6.000  0.00  0.00    -0.005 A 
ATOM      6  C5  UNL d   1      -0.366   5.263  -5.999  0.00  0.00     0.003 A 
ATOM      7  C6  UNL d   1      -1.737   4.999  -5.999  0.00  0.00    -0.001 A 
ENDROOT
TORSDOF 0
ENDMDL
