MODEL 1
REMARK minimizedAffinity -3.04170752
REMARK minimizedRMSD -1
REMARK  0 active torsions:
REMARK  status: ('A' for Active; 'I' for Inactive)
ROOT
ATOM      1  C   UNL d   1      -3.785   3.417  -5.964  0.00  0.00     0.078 C 
ATOM      2  C1  UNL d   1      -2.309   3.680  -5.984  0.00  0.00    -0.077 A 
ATOM      3  C2  UNL d   1      -1.388   2.625  -5.986  0.00  0.00    -0.001 A 
ATOM      4  C3  UNL d   1      -0.017   2.885  -5.994  0.00  0.00     0.003 A 
ATOM      5  C4  UNL d   1       0.446   4.199  -6.000  0.00  0.00    -0.005 A 
ATOM      6  C5  UNL d   1      -0.462   5.256  -5.996  0.00  0.00     0.003 A 
ATOM      7  C6  UNL d   1      -1.834   4.998  -5.987  0.00  0.00    -0.001 A 
ENDROOT
TORSDOF 0
ENDMDL
