MODEL 1
REMARK minimizedAffinity 7.09742832
REMARK minimizedRMSD -1
REMARK  1 active torsions:
REMARK  status: ('A' for Active; 'I' for Inactive)
REMARK    1  A    between atoms: C1_2  and  C2_3 
ROOT
ATOM      1  C2  UNL d   1       1.878   0.388   5.088  0.00  0.00    -0.077 A 
ATOM      2  C3  UNL d   1       2.951   1.161   4.624  0.00  0.00     0.002 A 
ATOM      3  C4  UNL d   1       2.718   2.349   3.930  0.00  0.00     0.002 A 
ATOM      4  C5  UNL d   1       1.412   2.777   3.697  0.00  0.00    -0.004 A 
ATOM      5  C6  UNL d   1       0.338   2.015   4.153  0.00  0.00     0.002 A 
ATOM      6  C7  UNL d   1       0.569   0.826   4.846  0.00  0.00     0.002 A 
ENDROOT
BRANCH   1   7
ATOM      7  C1  UNL d   1       2.128  -0.869   5.880  0.00  0.00     0.055 C 
ATOM      8  C   UNL d   1       0.880  -1.736   5.952  0.00  0.00     0.019 C 
ENDBRANCH   1   7
TORSDOF 1
ENDMDL
