MODEL 1
REMARK minimizedAffinity 0.981894553
REMARK minimizedRMSD -1
REMARK  1 active torsions:
REMARK  status: ('A' for Active; 'I' for Inactive)
REMARK    1  A    between atoms: C1_2  and  C2_3 
ROOT
ATOM      1  C2  UNL d   1      -2.391  -0.471   2.080  0.00  0.00    -0.077 A 
ATOM      2  C3  UNL d   1      -1.753  -1.260   1.112  0.00  0.00     0.002 A 
ATOM      3  C4  UNL d   1      -2.389  -1.548  -0.096  0.00  0.00     0.002 A 
ATOM      4  C5  UNL d   1      -3.665  -1.049  -0.351  0.00  0.00    -0.004 A 
ATOM      5  C6  UNL d   1      -4.309  -0.265   0.606  0.00  0.00     0.002 A 
ATOM      6  C7  UNL d   1      -3.675   0.023   1.815  0.00  0.00     0.002 A 
ENDROOT
BRANCH   1   7
ATOM      7  C1  UNL d   1      -1.687  -0.118   3.364  0.00  0.00     0.055 C 
ATOM      8  C   UNL d   1      -0.998   1.235   3.263  0.00  0.00     0.019 C 
ENDBRANCH   1   7
TORSDOF 1
ENDMDL
