MODEL 1
REMARK minimizedAffinity 10.6014605
REMARK minimizedRMSD -1
REMARK  1 active torsions:
REMARK  status: ('A' for Active; 'I' for Inactive)
REMARK    1  A    between atoms: C1_2  and  C2_3 
ROOT
ATOM      1  C2  UNL d   1      -0.925  -4.491  -1.666  0.00  0.00    -0.077 A 
ATOM      2  C3  UNL d   1       0.245  -5.250  -1.807  0.00  0.00     0.002 A 
ATOM      3  C4  UNL d   1       0.735  -5.999  -0.736  0.00  0.00     0.002 A 
ATOM      4  C5  UNL d   1       0.059  -6.000   0.483  0.00  0.00    -0.004 A 
ATOM      5  C6  UNL d   1      -1.104  -5.246   0.634  0.00  0.00     0.002 A 
ATOM      6  C7  UNL d   1      -1.594  -4.496  -0.436  0.00  0.00     0.002 A 
ENDROOT
BRANCH   1   7
ATOM      7  C1  UNL d   1      -1.481  -3.721  -2.835  0.00  0.00     0.055 C 
ATOM      8  C   UNL d   1      -1.160  -2.238  -2.725  0.00  0.00     0.019 C 
ENDBRANCH   1   7
TORSDOF 1
ENDMDL
