MODEL 1
REMARK minimizedAffinity 3.33483839
REMARK minimizedRMSD -1
REMARK  1 active torsions:
REMARK  status: ('A' for Active; 'I' for Inactive)
REMARK    1  A    between atoms: C1_2  and  C2_3 
ROOT
ATOM      1  C2  UNL d   1      -1.369  -3.687  -0.485  0.00  0.00    -0.077 A 
ATOM      2  C3  UNL d   1      -1.209  -3.321  -1.829  0.00  0.00     0.002 A 
ATOM      3  C4  UNL d   1      -1.315  -1.984  -2.215  0.00  0.00     0.002 A 
ATOM      4  C5  UNL d   1      -1.577  -1.001  -1.263  0.00  0.00    -0.004 A 
ATOM      5  C6  UNL d   1      -1.740  -1.354   0.076  0.00  0.00     0.002 A 
ATOM      6  C7  UNL d   1      -1.635  -2.691   0.464  0.00  0.00     0.002 A 
ENDROOT
BRANCH   1   7
ATOM      7  C1  UNL d   1      -1.207  -5.123  -0.060  0.00  0.00     0.055 C 
ATOM      8  C   UNL d   1      -0.773  -5.999  -1.225  0.00  0.00     0.019 C 
ENDBRANCH   1   7
TORSDOF 1
ENDMDL
