MODEL 1
REMARK minimizedAffinity -3.6438849
REMARK minimizedRMSD -1
REMARK  1 active torsions:
REMARK  status: ('A' for Active; 'I' for Inactive)
REMARK    1  A    between atoms: C1_2  and  C2_3 
ROOT
ATOM      1  C2  UNL d   1      -0.732  -3.723   5.332  0.00  0.00    -0.077 A 
ATOM      2  C3  UNL d   1      -1.719  -4.462   6.000  0.00  0.00     0.002 A 
ATOM      3  C4  UNL d   1      -2.290  -5.585   5.397  0.00  0.00     0.002 A 
ATOM      4  C5  UNL d   1      -1.876  -5.982   4.128  0.00  0.00    -0.004 A 
ATOM      5  C6  UNL d   1      -0.897  -5.253   3.455  0.00  0.00     0.002 A 
ATOM      6  C7  UNL d   1      -0.326  -4.130   4.054  0.00  0.00     0.002 A 
ENDROOT
BRANCH   1   7
ATOM      7  C1  UNL d   1      -0.081  -2.541   6.000  0.00  0.00     0.055 C 
ATOM      8  C   UNL d   1       1.435  -2.670   5.999  0.00  0.00     0.019 C 
ENDBRANCH   1   7
TORSDOF 1
ENDMDL
