MODEL 1
REMARK minimizedAffinity -1.05566752
REMARK minimizedRMSD -1
REMARK  1 active torsions:
REMARK  status: ('A' for Active; 'I' for Inactive)
REMARK    1  A    between atoms: C1_2  and  C2_3 
ROOT
ATOM      1  C2  UNL d   1      -0.798  -3.633  -1.034  0.00  0.00    -0.077 A 
ATOM      2  C3  UNL d   1      -1.732  -4.372  -0.294  0.00  0.00     0.002 A 
ATOM      3  C4  UNL d   1      -1.350  -5.549   0.351  0.00  0.00     0.002 A 
ATOM      4  C5  UNL d   1      -0.033  -5.996   0.267  0.00  0.00    -0.004 A 
ATOM      5  C6  UNL d   1       0.903  -5.269  -0.468  0.00  0.00     0.002 A 
ATOM      6  C7  UNL d   1       0.522  -4.093  -1.114  0.00  0.00     0.002 A 
ENDROOT
BRANCH   1   7
ATOM      7  C1  UNL d   1      -1.197  -2.337  -1.689  0.00  0.00     0.055 C 
ATOM      8  C   UNL d   1      -1.155  -1.180  -0.701  0.00  0.00     0.019 C 
ENDBRANCH   1   7
TORSDOF 1
ENDMDL
