MODEL 1
REMARK minimizedAffinity 5.38293552
REMARK minimizedRMSD -1
REMARK  1 active torsions:
REMARK  status: ('A' for Active; 'I' for Inactive)
REMARK    1  A    between atoms: C1_2  and  C2_3 
ROOT
ATOM      1  C2  UNL d   1       1.420   1.846   0.756  0.00  0.00    -0.077 A 
ATOM      2  C3  UNL d   1       1.489   0.467   0.510  0.00  0.00     0.002 A 
ATOM      3  C4  UNL d   1       2.640  -0.095  -0.045  0.00  0.00     0.002 A 
ATOM      4  C5  UNL d   1       3.733   0.713  -0.353  0.00  0.00    -0.004 A 
ATOM      5  C6  UNL d   1       3.673   2.085  -0.114  0.00  0.00     0.002 A 
ATOM      6  C7  UNL d   1       2.523   2.649   0.439  0.00  0.00     0.002 A 
ENDROOT
BRANCH   1   7
ATOM      7  C1  UNL d   1       0.198   2.446   1.399  0.00  0.00     0.055 C 
ATOM      8  C   UNL d   1       0.274   2.365   2.917  0.00  0.00     0.019 C 
ENDBRANCH   1   7
TORSDOF 1
ENDMDL
