MODEL 1
REMARK minimizedAffinity -0.353142947
REMARK minimizedRMSD -1
REMARK  1 active torsions:
REMARK  status: ('A' for Active; 'I' for Inactive)
REMARK    1  A    between atoms: C1_2  and  C2_3 
ROOT
ATOM      1  C2  UNL d   1      -1.666   0.043  -1.702  0.00  0.00    -0.076 A 
ATOM      2  C3  UNL d   1      -0.604  -0.105  -2.611  0.00  0.00     0.004 A 
ATOM      3  C4  UNL d   1      -0.839  -0.181  -3.983  0.00  0.00    -0.003 A 
ATOM      4  C5  UNL d   1      -2.140  -0.111  -4.468  0.00  0.00     0.000 A 
ATOM      5  C6  UNL d   1      -3.204   0.053  -3.582  0.00  0.00     0.000 A 
ATOM      6  C7  UNL d   1      -2.983   0.148  -2.197  0.00  0.00    -0.073 A 
ATOM      7  C8  UNL d   1      -4.168   0.318  -1.287  0.00  0.00     0.078 C 
ENDROOT
BRANCH   1   8
ATOM      8  C1  UNL d   1      -1.352   0.093  -0.224  0.00  0.00     0.053 C 
ATOM      9  C   UNL d   1       0.003   0.722   0.063  0.00  0.00     0.018 C 
ENDBRANCH   1   8
TORSDOF 1
ENDMDL
