MODEL 1
REMARK minimizedAffinity -5.56789207
REMARK minimizedRMSD -1
REMARK  1 active torsions:
REMARK  status: ('A' for Active; 'I' for Inactive)
REMARK    1  A    between atoms: C1_2  and  C2_3 
ROOT
ATOM      1  C2  UNL d   1       0.326  -0.452   0.682  0.00  0.00    -0.076 A 
ATOM      2  C3  UNL d   1       0.641  -1.740   1.149  0.00  0.00     0.004 A 
ATOM      3  C4  UNL d   1       1.955  -2.091   1.454  0.00  0.00    -0.003 A 
ATOM      4  C5  UNL d   1       2.975  -1.159   1.298  0.00  0.00     0.000 A 
ATOM      5  C6  UNL d   1       2.678   0.129   0.853  0.00  0.00     0.000 A 
ATOM      6  C7  UNL d   1       1.357   0.504   0.557  0.00  0.00    -0.073 A 
ATOM      7  C8  UNL d   1       1.094   1.904   0.075  0.00  0.00     0.078 C 
ENDROOT
BRANCH   1   8
ATOM      8  C1  UNL d   1      -1.113  -0.138   0.341  0.00  0.00     0.053 C 
ATOM      9  C   UNL d   1      -1.386  -0.207  -1.153  0.00  0.00     0.018 C 
ENDBRANCH   1   8
TORSDOF 1
ENDMDL
