MODEL 1
REMARK minimizedAffinity -3.59305191
REMARK minimizedRMSD -1
REMARK  1 active torsions:
REMARK  status: ('A' for Active; 'I' for Inactive)
REMARK    1  A    between atoms: C1_2  and  C2_3 
ROOT
ATOM      1  C2  UNL d   1      -0.081   0.177   0.084  0.00  0.00    -0.076 A 
ATOM      2  C3  UNL d   1       0.260   1.387  -0.544  0.00  0.00     0.004 A 
ATOM      3  C4  UNL d   1       1.540   1.924  -0.420  0.00  0.00    -0.003 A 
ATOM      4  C5  UNL d   1       2.500   1.260   0.335  0.00  0.00     0.000 A 
ATOM      5  C6  UNL d   1       2.185   0.049   0.951  0.00  0.00     0.000 A 
ATOM      6  C7  UNL d   1       0.904  -0.515   0.822  0.00  0.00    -0.073 A 
ATOM      7  C8  UNL d   1       0.617  -1.820   1.513  0.00  0.00     0.078 C 
ENDROOT
BRANCH   1   8
ATOM      8  C1  UNL d   1      -1.493  -0.344  -0.064  0.00  0.00     0.053 C 
ATOM      9  C   UNL d   1      -2.131   0.069  -1.381  0.00  0.00     0.018 C 
ENDBRANCH   1   8
TORSDOF 1
ENDMDL
