MODEL 1
REMARK minimizedAffinity -3.78548241
REMARK minimizedRMSD -1
REMARK  0 active torsions:
REMARK  status: ('A' for Active; 'I' for Inactive)
ROOT
ATOM      1  C   UNL d   1      -1.540  -1.794  -1.156  0.00  0.00     0.078 C 
ATOM      2  C1  UNL d   1      -0.941  -0.799  -0.208  0.00  0.00    -0.077 A 
ATOM      3  C2  UNL d   1       0.431  -0.521  -0.225  0.00  0.00    -0.001 A 
ATOM      4  C3  UNL d   1       0.976   0.400   0.671  0.00  0.00     0.003 A 
ATOM      5  C4  UNL d   1       0.157   1.050   1.591  0.00  0.00    -0.005 A 
ATOM      6  C5  UNL d   1      -1.210   0.779   1.618  0.00  0.00     0.003 A 
ATOM      7  C6  UNL d   1      -1.757  -0.142   0.723  0.00  0.00    -0.001 A 
ENDROOT
TORSDOF 0
ENDMDL
