MODEL 1
REMARK minimizedAffinity -3.05210853
REMARK minimizedRMSD -1
REMARK  0 active torsions:
REMARK  status: ('A' for Active; 'I' for Inactive)
ROOT
ATOM      1  C   UNL d   1       0.348   2.271   2.277  0.00  0.00     0.078 C 
ATOM      2  C1  UNL d   1       0.309   1.138   1.296  0.00  0.00    -0.077 A 
ATOM      3  C2  UNL d   1      -0.878   0.438   1.049  0.00  0.00    -0.001 A 
ATOM      4  C3  UNL d   1      -0.898  -0.621   0.140  0.00  0.00     0.003 A 
ATOM      5  C4  UNL d   1       0.268  -0.990  -0.529  0.00  0.00    -0.005 A 
ATOM      6  C5  UNL d   1       1.455  -0.302  -0.288  0.00  0.00     0.003 A 
ATOM      7  C6  UNL d   1       1.476   0.758   0.621  0.00  0.00    -0.001 A 
ENDROOT
TORSDOF 0
ENDMDL
