MODEL 1
REMARK minimizedAffinity -2.78263521
REMARK minimizedRMSD -1
REMARK  0 active torsions:
REMARK  status: ('A' for Active; 'I' for Inactive)
ROOT
ATOM      1  C   UNL d   1      -0.251  -0.364  -0.188  0.00  0.00     0.078 C 
ATOM      2  C1  UNL d   1      -1.027  -1.034  -1.282  0.00  0.00    -0.077 A 
ATOM      3  C2  UNL d   1      -0.616  -2.265  -1.809  0.00  0.00    -0.001 A 
ATOM      4  C3  UNL d   1      -1.343  -2.872  -2.834  0.00  0.00     0.003 A 
ATOM      5  C4  UNL d   1      -2.485  -2.256  -3.341  0.00  0.00    -0.005 A 
ATOM      6  C5  UNL d   1      -2.901  -1.030  -2.825  0.00  0.00     0.003 A 
ATOM      7  C6  UNL d   1      -2.175  -0.421  -1.800  0.00  0.00    -0.001 A 
ENDROOT
TORSDOF 0
ENDMDL
