MODEL 1
REMARK minimizedAffinity -3.05818033
REMARK minimizedRMSD -1
REMARK  0 active torsions:
REMARK  status: ('A' for Active; 'I' for Inactive)
ROOT
ATOM      1  C   UNL d   1       0.525   1.636   1.825  0.00  0.00     0.078 C 
ATOM      2  C1  UNL d   1       0.063   0.665   0.780  0.00  0.00    -0.077 A 
ATOM      3  C2  UNL d   1       0.774  -0.515   0.528  0.00  0.00    -0.001 A 
ATOM      4  C3  UNL d   1       0.338  -1.405  -0.454  0.00  0.00     0.003 A 
ATOM      5  C4  UNL d   1      -0.810  -1.125  -1.193  0.00  0.00    -0.005 A 
ATOM      6  C5  UNL d   1      -1.523   0.048  -0.950  0.00  0.00     0.003 A 
ATOM      7  C6  UNL d   1      -1.088   0.939   0.032  0.00  0.00    -0.001 A 
ENDROOT
TORSDOF 0
ENDMDL
