MODEL 1
REMARK minimizedAffinity -4.54485273
REMARK minimizedRMSD -1
REMARK  0 active torsions:
REMARK  status: ('A' for Active; 'I' for Inactive)
ROOT
ATOM      1  C   UNL d   1      -0.672  -1.388  -0.660  0.00  0.00     0.078 C 
ATOM      2  C1  UNL d   1      -0.011  -0.282   0.107  0.00  0.00    -0.077 A 
ATOM      3  C2  UNL d   1      -0.713   0.439   1.081  0.00  0.00    -0.001 A 
ATOM      4  C3  UNL d   1      -0.088   1.473   1.780  0.00  0.00     0.003 A 
ATOM      5  C4  UNL d   1       1.241   1.795   1.513  0.00  0.00    -0.005 A 
ATOM      6  C5  UNL d   1       1.947   1.084   0.545  0.00  0.00     0.003 A 
ATOM      7  C6  UNL d   1       1.323   0.050  -0.156  0.00  0.00    -0.001 A 
ENDROOT
TORSDOF 0
ENDMDL
