MODEL 1
REMARK minimizedAffinity -3.81534195
REMARK minimizedRMSD -1
REMARK  0 active torsions:
REMARK  status: ('A' for Active; 'I' for Inactive)
ROOT
ATOM      1  C   UNL d   1       0.256   0.006  -0.149  0.00  0.00     0.078 C 
ATOM      2  C1  UNL d   1      -0.720  -0.514  -1.161  0.00  0.00    -0.077 A 
ATOM      3  C2  UNL d   1      -1.079   0.253  -2.276  0.00  0.00    -0.001 A 
ATOM      4  C3  UNL d   1      -1.997  -0.239  -3.206  0.00  0.00     0.003 A 
ATOM      5  C4  UNL d   1      -2.565  -1.499  -3.028  0.00  0.00    -0.005 A 
ATOM      6  C5  UNL d   1      -2.215  -2.269  -1.921  0.00  0.00     0.003 A 
ATOM      7  C6  UNL d   1      -1.298  -1.778  -0.990  0.00  0.00    -0.001 A 
ENDROOT
TORSDOF 0
ENDMDL
