MODEL 1
REMARK minimizedAffinity -0.630378485
REMARK minimizedRMSD -1
REMARK  0 active torsions:
REMARK  status: ('A' for Active; 'I' for Inactive)
ROOT
ATOM      1  C   UNL d   1      -0.318  -0.458   0.388  0.00  0.00     0.078 C 
ATOM      2  C1  UNL d   1      -0.986  -0.986  -0.846  0.00  0.00    -0.077 A 
ATOM      3  C2  UNL d   1      -0.493  -0.681  -2.121  0.00  0.00    -0.001 A 
ATOM      4  C3  UNL d   1      -1.131  -1.172  -3.261  0.00  0.00     0.003 A 
ATOM      5  C4  UNL d   1      -2.267  -1.970  -3.138  0.00  0.00    -0.005 A 
ATOM      6  C5  UNL d   1      -2.767  -2.277  -1.874  0.00  0.00     0.003 A 
ATOM      7  C6  UNL d   1      -2.130  -1.787  -0.733  0.00  0.00    -0.001 A 
ENDROOT
TORSDOF 0
ENDMDL
