MODEL 1
REMARK minimizedAffinity -1.58506751
REMARK minimizedRMSD -1
REMARK  0 active torsions:
REMARK  status: ('A' for Active; 'I' for Inactive)
ROOT
ATOM      1  C   UNL d   1      -1.788  -1.396  -1.772  0.00  0.00     0.078 C 
ATOM      2  C1  UNL d   1      -1.205  -0.567  -0.667  0.00  0.00    -0.077 A 
ATOM      3  C2  UNL d   1      -0.107  -1.021   0.073  0.00  0.00    -0.001 A 
ATOM      4  C3  UNL d   1       0.420  -0.243   1.105  0.00  0.00     0.003 A 
ATOM      5  C4  UNL d   1      -0.147   0.994   1.408  0.00  0.00    -0.005 A 
ATOM      6  C5  UNL d   1      -1.242   1.453   0.679  0.00  0.00     0.003 A 
ATOM      7  C6  UNL d   1      -1.769   0.676  -0.354  0.00  0.00    -0.001 A 
ENDROOT
TORSDOF 0
ENDMDL
