MODEL 1
REMARK minimizedAffinity -3.10689187
REMARK minimizedRMSD -1
REMARK  0 active torsions:
REMARK  status: ('A' for Active; 'I' for Inactive)
ROOT
ATOM      1  C   UNL d   1       0.672  -0.437  -0.678  0.00  0.00     0.078 C 
ATOM      2  C1  UNL d   1      -0.443  -0.860  -1.586  0.00  0.00    -0.077 A 
ATOM      3  C2  UNL d   1      -0.373  -0.638  -2.967  0.00  0.00    -0.001 A 
ATOM      4  C3  UNL d   1      -1.424  -1.028  -3.799  0.00  0.00     0.003 A 
ATOM      5  C4  UNL d   1      -2.552  -1.642  -3.260  0.00  0.00    -0.005 A 
ATOM      6  C5  UNL d   1      -2.632  -1.865  -1.887  0.00  0.00     0.003 A 
ATOM      7  C6  UNL d   1      -1.583  -1.476  -1.053  0.00  0.00    -0.001 A 
ENDROOT
TORSDOF 0
ENDMDL
