MODEL 1
REMARK minimizedAffinity -2.88016534
REMARK minimizedRMSD -1
REMARK  0 active torsions:
REMARK  status: ('A' for Active; 'I' for Inactive)
ROOT
ATOM      1  C   UNL d   1      -4.838  -2.613  -1.188  0.00  0.00     0.078 C 
ATOM      2  C1  UNL d   1      -3.467  -2.192  -1.624  0.00  0.00    -0.077 A 
ATOM      3  C2  UNL d   1      -3.239  -1.705  -2.917  0.00  0.00    -0.001 A 
ATOM      4  C3  UNL d   1      -1.955  -1.326  -3.312  0.00  0.00     0.003 A 
ATOM      5  C4  UNL d   1      -0.889  -1.431  -2.421  0.00  0.00    -0.005 A 
ATOM      6  C5  UNL d   1      -1.106  -1.916  -1.133  0.00  0.00     0.003 A 
ATOM      7  C6  UNL d   1      -2.389  -2.296  -0.736  0.00  0.00    -0.001 A 
ENDROOT
TORSDOF 0
ENDMDL
