MODEL 1
REMARK minimizedAffinity -5.10710907
REMARK minimizedRMSD -1
REMARK  0 active torsions:
REMARK  status: ('A' for Active; 'I' for Inactive)
ROOT
ATOM      1  C   UNL d   1      -0.616  -0.740  -0.643  0.00  0.00     0.078 C 
ATOM      2  C1  UNL d   1       0.448  -0.031   0.141  0.00  0.00    -0.077 A 
ATOM      3  C2  UNL d   1       0.115   0.845   1.181  0.00  0.00    -0.001 A 
ATOM      4  C3  UNL d   1       1.116   1.506   1.895  0.00  0.00     0.003 A 
ATOM      5  C4  UNL d   1       2.456   1.299   1.576  0.00  0.00    -0.005 A 
ATOM      6  C5  UNL d   1       2.797   0.431   0.541  0.00  0.00     0.003 A 
ATOM      7  C6  UNL d   1       1.798  -0.231  -0.174  0.00  0.00    -0.001 A 
ENDROOT
TORSDOF 0
ENDMDL
