MODEL 1
REMARK minimizedAffinity -2.20610189
REMARK minimizedRMSD -1
REMARK  0 active torsions:
REMARK  status: ('A' for Active; 'I' for Inactive)
ROOT
ATOM      1  C   UNL d   1      -0.505  -1.145  -0.789  0.00  0.00     0.078 C 
ATOM      2  C1  UNL d   1       0.045  -0.098   0.135  0.00  0.00    -0.077 A 
ATOM      3  C2  UNL d   1       1.379   0.317   0.041  0.00  0.00    -0.001 A 
ATOM      4  C3  UNL d   1       1.879   1.285   0.914  0.00  0.00     0.003 A 
ATOM      5  C4  UNL d   1       1.053   1.845   1.886  0.00  0.00    -0.005 A 
ATOM      6  C5  UNL d   1      -0.275   1.436   1.988  0.00  0.00     0.003 A 
ATOM      7  C6  UNL d   1      -0.778   0.468   1.117  0.00  0.00    -0.001 A 
ENDROOT
TORSDOF 0
ENDMDL
