MODEL 1
REMARK minimizedAffinity -4.27266788
REMARK minimizedRMSD -1
REMARK  0 active torsions:
REMARK  status: ('A' for Active; 'I' for Inactive)
ROOT
ATOM      1  C   UNL d   1      -1.340  -1.494  -0.425  0.00  0.00     0.078 C 
ATOM      2  C1  UNL d   1      -0.565  -0.396   0.241  0.00  0.00    -0.077 A 
ATOM      3  C2  UNL d   1      -1.188   0.490   1.129  0.00  0.00    -0.001 A 
ATOM      4  C3  UNL d   1      -0.457   1.513   1.734  0.00  0.00     0.003 A 
ATOM      5  C4  UNL d   1       0.901   1.660   1.458  0.00  0.00    -0.005 A 
ATOM      6  C5  UNL d   1       1.529   0.785   0.575  0.00  0.00     0.003 A 
ATOM      7  C6  UNL d   1       0.799  -0.239  -0.032  0.00  0.00    -0.001 A 
ENDROOT
TORSDOF 0
ENDMDL
