MODEL 1
REMARK minimizedAffinity 10.0608225
REMARK minimizedRMSD -1
REMARK  0 active torsions:
REMARK  status: ('A' for Active; 'I' for Inactive)
ROOT
ATOM      1  C2' OXE d   1       4.487   1.028   2.134  0.00  0.00     0.078 C 
ATOM      2  C1' OXE d   1       4.215   1.028   4.928  0.00  0.00     0.078 C 
ATOM      3  C1  OXE d   1       2.973   0.812   4.101  0.00  0.00    -0.078 A 
ATOM      4  C2  OXE d   1       3.107   0.860   2.734  0.00  0.00    -0.078 A 
ATOM      5  C3  OXE d   1       2.003   0.613   1.924  0.00  0.00     0.003 A 
ATOM      6  C4  OXE d   1       0.729   0.469   2.486  0.00  0.00    -0.002 A 
ATOM      7  C5  OXE d   1       0.564   0.456   3.875  0.00  0.00    -0.002 A 
ATOM      8  C6  OXE d   1       1.679   0.584   4.695  0.00  0.00     0.003 A 
ENDROOT
TORSDOF 0
ENDMDL
