MODEL 1
REMARK minimizedAffinity 6.61698103
REMARK minimizedRMSD -1
REMARK  0 active torsions:
REMARK  status: ('A' for Active; 'I' for Inactive)
ROOT
ATOM      1  C2' OXE d   1       4.506   1.689   1.511  0.00  0.00     0.078 C 
ATOM      2  C1' OXE d   1       5.254   2.837   3.960  0.00  0.00     0.078 C 
ATOM      3  C1  OXE d   1       4.940   3.767   2.815  0.00  0.00    -0.078 A 
ATOM      4  C2  OXE d   1       4.621   3.195   1.606  0.00  0.00    -0.078 A 
ATOM      5  C3  OXE d   1       4.269   4.006   0.531  0.00  0.00     0.003 A 
ATOM      6  C4  OXE d   1       4.388   5.398   0.625  0.00  0.00    -0.002 A 
ATOM      7  C5  OXE d   1       4.750   6.000   1.835  0.00  0.00    -0.002 A 
ATOM      8  C6  OXE d   1       4.988   5.202   2.949  0.00  0.00     0.003 A 
ENDROOT
TORSDOF 0
ENDMDL
