MODEL 1
REMARK minimizedAffinity 6.03909683
REMARK minimizedRMSD -1
REMARK  0 active torsions:
REMARK  status: ('A' for Active; 'I' for Inactive)
ROOT
ATOM      1  C2' OXE d   1       0.731   1.255   5.906  0.00  0.00     0.078 C 
ATOM      2  C1' OXE d   1      -0.501   2.390   3.653  0.00  0.00     0.078 C 
ATOM      3  C1  OXE d   1       0.093   1.012   3.510  0.00  0.00    -0.078 A 
ATOM      4  C2  OXE d   1       0.735   0.483   4.604  0.00  0.00    -0.078 A 
ATOM      5  C3  OXE d   1       1.253  -0.808   4.543  0.00  0.00     0.003 A 
ATOM      6  C4  OXE d   1       1.262  -1.511   3.332  0.00  0.00    -0.002 A 
ATOM      7  C5  OXE d   1       0.649  -0.975   2.195  0.00  0.00    -0.002 A 
ATOM      8  C6  OXE d   1       0.024   0.265   2.278  0.00  0.00     0.003 A 
ENDROOT
TORSDOF 0
ENDMDL
