MODEL 1
REMARK minimizedAffinity 19.5658627
REMARK minimizedRMSD -1
REMARK  0 active torsions:
REMARK  status: ('A' for Active; 'I' for Inactive)
ROOT
ATOM      1  C2' OXE d   1       2.070   0.585   4.158  0.00  0.00     0.078 C 
ATOM      2  C1' OXE d   1      -0.184   1.974   3.226  0.00  0.00     0.078 C 
ATOM      3  C1  OXE d   1       0.095   0.612   2.641  0.00  0.00    -0.078 A 
ATOM      4  C2  OXE d   1       1.226  -0.040   3.069  0.00  0.00    -0.078 A 
ATOM      5  C3  OXE d   1       1.500  -1.323   2.602  0.00  0.00     0.003 A 
ATOM      6  C4  OXE d   1       0.720  -1.890   1.587  0.00  0.00    -0.002 A 
ATOM      7  C5  OXE d   1      -0.414  -1.225   1.109  0.00  0.00    -0.002 A 
ATOM      8  C6  OXE d   1      -0.764   0.006   1.654  0.00  0.00     0.003 A 
ENDROOT
TORSDOF 0
ENDMDL
