MODEL 1
REMARK minimizedAffinity 10.0668201
REMARK minimizedRMSD -1
REMARK  0 active torsions:
REMARK  status: ('A' for Active; 'I' for Inactive)
ROOT
ATOM      1  C2' OXE d   1      -2.225  -1.635  -3.660  0.00  0.00     0.078 C 
ATOM      2  C1' OXE d   1      -0.363  -1.495  -1.563  0.00  0.00     0.078 C 
ATOM      3  C1  OXE d   1       0.117  -1.163  -2.954  0.00  0.00    -0.078 A 
ATOM      4  C2  OXE d   1      -0.789  -1.280  -3.981  0.00  0.00    -0.078 A 
ATOM      5  C3  OXE d   1      -0.412  -0.933  -5.275  0.00  0.00     0.003 A 
ATOM      6  C4  OXE d   1       0.920  -0.615  -5.564  0.00  0.00    -0.002 A 
ATOM      7  C5  OXE d   1       1.868  -0.529  -4.539  0.00  0.00    -0.002 A 
ATOM      8  C6  OXE d   1       1.474  -0.758  -3.226  0.00  0.00     0.003 A 
ENDROOT
TORSDOF 0
ENDMDL
