MODEL 1
REMARK minimizedAffinity 21.71591
REMARK minimizedRMSD -1
REMARK  0 active torsions:
REMARK  status: ('A' for Active; 'I' for Inactive)
ROOT
ATOM      1  C2' OXE d   1      -1.396   2.975   2.836  0.00  0.00     0.078 C 
ATOM      2  C1' OXE d   1       0.012   2.801   5.258  0.00  0.00     0.078 C 
ATOM      3  C1  OXE d   1       0.275   1.744   4.214  0.00  0.00    -0.078 A 
ATOM      4  C2  OXE d   1      -0.453   1.811   3.051  0.00  0.00    -0.078 A 
ATOM      5  C3  OXE d   1      -0.211   0.893   2.033  0.00  0.00     0.003 A 
ATOM      6  C4  OXE d   1       0.655  -0.187   2.243  0.00  0.00    -0.002 A 
ATOM      7  C5  OXE d   1       1.377  -0.296   3.437  0.00  0.00    -0.002 A 
ATOM      8  C6  OXE d   1       1.230   0.683   4.414  0.00  0.00     0.003 A 
ENDROOT
TORSDOF 0
ENDMDL
