MODEL 1
REMARK minimizedAffinity 18.8498726
REMARK minimizedRMSD -1
REMARK  0 active torsions:
REMARK  status: ('A' for Active; 'I' for Inactive)
ROOT
ATOM      1  C2' OXE d   1       2.522  -2.471   4.837  0.00  0.00     0.078 C 
ATOM      2  C1' OXE d   1       4.940  -1.601   5.966  0.00  0.00     0.078 C 
ATOM      3  C1  OXE d   1       4.137  -0.604   5.169  0.00  0.00    -0.078 A 
ATOM      4  C2  OXE d   1       2.978  -1.051   4.581  0.00  0.00    -0.078 A 
ATOM      5  C3  OXE d   1       2.171  -0.158   3.881  0.00  0.00     0.003 A 
ATOM      6  C4  OXE d   1       2.605   1.151   3.641  0.00  0.00    -0.002 A 
ATOM      7  C5  OXE d   1       3.802   1.615   4.197  0.00  0.00    -0.002 A 
ATOM      8  C6  OXE d   1       4.557   0.765   4.997  0.00  0.00     0.003 A 
ENDROOT
TORSDOF 0
ENDMDL
