MODEL 1
REMARK minimizedAffinity 20.6176147
REMARK minimizedRMSD -1
REMARK  0 active torsions:
REMARK  status: ('A' for Active; 'I' for Inactive)
ROOT
ATOM      1  C2' OXE d   1      -5.258   2.794  -0.466  0.00  0.00     0.078 C 
ATOM      2  C1' OXE d   1      -5.076   0.281  -1.704  0.00  0.00     0.078 C 
ATOM      3  C1  OXE d   1      -4.379   0.464  -0.380  0.00  0.00    -0.078 A 
ATOM      4  C2  OXE d   1      -4.434   1.711   0.196  0.00  0.00    -0.078 A 
ATOM      5  C3  OXE d   1      -3.854   1.919   1.444  0.00  0.00     0.003 A 
ATOM      6  C4  OXE d   1      -3.085   0.915   2.045  0.00  0.00    -0.002 A 
ATOM      7  C5  OXE d   1      -2.983  -0.349   1.456  0.00  0.00    -0.002 A 
ATOM      8  C6  OXE d   1      -3.657  -0.604   0.267  0.00  0.00     0.003 A 
ENDROOT
TORSDOF 0
ENDMDL
