MODEL 1
REMARK minimizedAffinity 19.8576641
REMARK minimizedRMSD -1
REMARK  0 active torsions:
REMARK  status: ('A' for Active; 'I' for Inactive)
ROOT
ATOM      1  C2' OXE d   1       1.876  -4.689  -5.990  0.00  0.00     0.078 C 
ATOM      2  C1' OXE d   1       3.615  -2.931  -4.660  0.00  0.00     0.078 C 
ATOM      3  C1  OXE d   1       2.236  -2.428  -5.009  0.00  0.00    -0.078 A 
ATOM      4  C2  OXE d   1       1.409  -3.279  -5.701  0.00  0.00    -0.078 A 
ATOM      5  C3  OXE d   1       0.108  -2.884  -5.999  0.00  0.00     0.003 A 
ATOM      6  C4  OXE d   1      -0.314  -1.575  -5.737  0.00  0.00    -0.002 A 
ATOM      7  C5  OXE d   1       0.527  -0.679  -5.069  0.00  0.00    -0.002 A 
ATOM      8  C6  OXE d   1       1.787  -1.102  -4.660  0.00  0.00     0.003 A 
ENDROOT
TORSDOF 0
ENDMDL
