MODEL 1
REMARK minimizedAffinity 8.61961555
REMARK minimizedRMSD -1
REMARK  0 active torsions:
REMARK  status: ('A' for Active; 'I' for Inactive)
ROOT
ATOM      1  C2' OXE d   1       3.125   0.622  -5.732  0.00  0.00     0.078 C 
ATOM      2  C1' OXE d   1       5.056   0.099  -3.762  0.00  0.00     0.078 C 
ATOM      3  C1  OXE d   1       5.063   1.461  -4.410  0.00  0.00    -0.078 A 
ATOM      4  C2  OXE d   1       4.145   1.692  -5.406  0.00  0.00    -0.078 A 
ATOM      5  C3  OXE d   1       4.072   2.949  -5.998  0.00  0.00     0.003 A 
ATOM      6  C4  OXE d   1       5.025   3.930  -5.698  0.00  0.00    -0.002 A 
ATOM      7  C5  OXE d   1       5.994   3.702  -4.715  0.00  0.00    -0.002 A 
ATOM      8  C6  OXE d   1       6.000   2.490  -4.033  0.00  0.00     0.003 A 
ENDROOT
TORSDOF 0
ENDMDL
