MODEL 1
REMARK minimizedAffinity 15.8174219
REMARK minimizedRMSD -1
REMARK  0 active torsions:
REMARK  status: ('A' for Active; 'I' for Inactive)
ROOT
ATOM      1  C2' OXE d   1      -1.847  -3.890  -4.553  0.00  0.00     0.078 C 
ATOM      2  C1' OXE d   1      -1.898  -2.183  -2.325  0.00  0.00     0.078 C 
ATOM      3  C1  OXE d   1      -0.898  -1.887  -3.415  0.00  0.00    -0.078 A 
ATOM      4  C2  OXE d   1      -0.849  -2.754  -4.480  0.00  0.00    -0.078 A 
ATOM      5  C3  OXE d   1       0.017  -2.497  -5.539  0.00  0.00     0.003 A 
ATOM      6  C4  OXE d   1       0.944  -1.450  -5.458  0.00  0.00    -0.002 A 
ATOM      7  C5  OXE d   1       0.937  -0.579  -4.364  0.00  0.00    -0.002 A 
ATOM      8  C6  OXE d   1      -0.004  -0.757  -3.356  0.00  0.00     0.003 A 
ENDROOT
TORSDOF 0
ENDMDL
