MODEL 1
REMARK minimizedAffinity 1.65480447
REMARK minimizedRMSD -1
REMARK  0 active torsions:
REMARK  status: ('A' for Active; 'I' for Inactive)
ROOT
ATOM      1  C2' OXE d   1       2.138  -2.072   5.747  0.00  0.00     0.078 C 
ATOM      2  C1' OXE d   1       3.504   0.348   5.347  0.00  0.00     0.078 C 
ATOM      3  C1  OXE d   1       2.387   0.004   4.393  0.00  0.00    -0.078 A 
ATOM      4  C2  OXE d   1       1.755  -1.203   4.568  0.00  0.00    -0.078 A 
ATOM      5  C3  OXE d   1       0.682  -1.545   3.750  0.00  0.00     0.003 A 
ATOM      6  C4  OXE d   1       0.341  -0.741   2.656  0.00  0.00    -0.002 A 
ATOM      7  C5  OXE d   1       0.998   0.475   2.436  0.00  0.00    -0.002 A 
ATOM      8  C6  OXE d   1       1.992   0.881   3.318  0.00  0.00     0.003 A 
ENDROOT
TORSDOF 0
ENDMDL
