MODEL 1
REMARK minimizedAffinity 9.42693043
REMARK minimizedRMSD -1
REMARK  0 active torsions:
REMARK  status: ('A' for Active; 'I' for Inactive)
ROOT
ATOM      1  C   UNL d   1       1.276  -3.268   4.905  0.00  0.00     0.077 C 
ATOM      2  C1  UNL d   1       0.945  -2.095   4.030  0.00  0.00    -0.074 A 
ATOM      3  C2  UNL d   1       1.445  -0.821   4.316  0.00  0.00    -0.005 A 
ATOM      4  C3  UNL d   1       1.137   0.258   3.488  0.00  0.00     0.006 A 
ATOM      5  C4  UNL d   1       0.328   0.074   2.366  0.00  0.00    -0.005 A 
ATOM      6  C5  UNL d   1      -0.180  -1.193   2.063  0.00  0.00    -0.074 A 
ATOM      7  C6  UNL d   1      -1.044  -1.411   0.856  0.00  0.00     0.077 C 
ATOM      8  C7  UNL d   1       0.139  -2.274   2.897  0.00  0.00    -0.001 A 
ENDROOT
TORSDOF 0
ENDMDL
