MODEL 1
REMARK minimizedAffinity 15.8885698
REMARK minimizedRMSD -1
REMARK  0 active torsions:
REMARK  status: ('A' for Active; 'I' for Inactive)
ROOT
ATOM      1  C   UNL d   1      -1.764  -2.500  -2.058  0.00  0.00     0.077 C 
ATOM      2  C1  UNL d   1      -1.443  -3.000  -3.435  0.00  0.00    -0.074 A 
ATOM      3  C2  UNL d   1      -0.302  -2.556  -4.112  0.00  0.00    -0.005 A 
ATOM      4  C3  UNL d   1      -0.011  -3.036  -5.389  0.00  0.00     0.006 A 
ATOM      5  C4  UNL d   1      -0.856  -3.964  -6.000  0.00  0.00    -0.005 A 
ATOM      6  C5  UNL d   1      -2.000  -4.420  -5.338  0.00  0.00    -0.074 A 
ATOM      7  C6  UNL d   1      -2.913  -5.424  -5.976  0.00  0.00     0.077 C 
ATOM      8  C7  UNL d   1      -2.282  -3.938  -4.052  0.00  0.00    -0.001 A 
ENDROOT
TORSDOF 0
ENDMDL
