MODEL 1
REMARK minimizedAffinity 1.39388633
REMARK minimizedRMSD -1
REMARK  0 active torsions:
REMARK  status: ('A' for Active; 'I' for Inactive)
ROOT
ATOM      1  C   UNL d   1      -2.223  -4.762  -5.370  0.00  0.00     0.077 C 
ATOM      2  C1  UNL d   1      -1.452  -3.603  -4.812  0.00  0.00    -0.074 A 
ATOM      3  C2  UNL d   1      -0.556  -2.884  -5.611  0.00  0.00    -0.005 A 
ATOM      4  C3  UNL d   1       0.147  -1.803  -5.080  0.00  0.00     0.006 A 
ATOM      5  C4  UNL d   1      -0.039  -1.428  -3.749  0.00  0.00    -0.005 A 
ATOM      6  C5  UNL d   1      -0.931  -2.134  -2.936  0.00  0.00    -0.074 A 
ATOM      7  C6  UNL d   1      -1.150  -1.739  -1.506  0.00  0.00     0.077 C 
ATOM      8  C7  UNL d   1      -1.639  -3.216  -3.478  0.00  0.00    -0.001 A 
ENDROOT
TORSDOF 0
ENDMDL
