MODEL 1
REMARK minimizedAffinity 11.9021826
REMARK minimizedRMSD -1
REMARK  0 active torsions:
REMARK  status: ('A' for Active; 'I' for Inactive)
ROOT
ATOM      1  C   UNL d   1       4.655   1.547  -5.150  0.00  0.00     0.077 C 
ATOM      2  C1  UNL d   1       3.769   0.392  -4.787  0.00  0.00    -0.074 A 
ATOM      3  C2  UNL d   1       4.308  -0.869  -4.512  0.00  0.00    -0.005 A 
ATOM      4  C3  UNL d   1       3.472  -1.931  -4.167  0.00  0.00     0.006 A 
ATOM      5  C4  UNL d   1       2.092  -1.743  -4.094  0.00  0.00    -0.005 A 
ATOM      6  C5  UNL d   1       1.535  -0.490  -4.365  0.00  0.00    -0.074 A 
ATOM      7  C6  UNL d   1       0.054  -0.269  -4.281  0.00  0.00     0.077 C 
ATOM      8  C7  UNL d   1       2.382   0.574  -4.704  0.00  0.00    -0.001 A 
ENDROOT
TORSDOF 0
ENDMDL
