MODEL 1
REMARK minimizedAffinity 5.87270117
REMARK minimizedRMSD -1
REMARK  0 active torsions:
REMARK  status: ('A' for Active; 'I' for Inactive)
ROOT
ATOM      1  C   UNL d   1       1.341  -3.121   4.502  0.00  0.00     0.077 C 
ATOM      2  C1  UNL d   1       0.926  -1.912   3.716  0.00  0.00    -0.074 A 
ATOM      3  C2  UNL d   1       1.035  -0.629   4.260  0.00  0.00    -0.005 A 
ATOM      4  C3  UNL d   1       0.654   0.486   3.514  0.00  0.00     0.006 A 
ATOM      5  C4  UNL d   1       0.160   0.329   2.218  0.00  0.00    -0.005 A 
ATOM      6  C5  UNL d   1       0.045  -0.947   1.657  0.00  0.00    -0.074 A 
ATOM      7  C6  UNL d   1      -0.475  -1.133   0.262  0.00  0.00     0.077 C 
ATOM      8  C7  UNL d   1       0.436  -2.062   2.411  0.00  0.00    -0.001 A 
ENDROOT
TORSDOF 0
ENDMDL
