MODEL 1
REMARK minimizedAffinity 10.8037167
REMARK minimizedRMSD -1
REMARK  0 active torsions:
REMARK  status: ('A' for Active; 'I' for Inactive)
ROOT
ATOM      1  C   UNL d   1       4.055   0.479  -6.000  0.00  0.00     0.077 C 
ATOM      2  C1  UNL d   1       2.981  -0.441  -5.499  0.00  0.00    -0.074 A 
ATOM      3  C2  UNL d   1       3.222  -1.810  -5.342  0.00  0.00    -0.005 A 
ATOM      4  C3  UNL d   1       2.217  -2.651  -4.866  0.00  0.00     0.006 A 
ATOM      5  C4  UNL d   1       0.962  -2.133  -4.542  0.00  0.00    -0.005 A 
ATOM      6  C5  UNL d   1       0.703  -0.767  -4.692  0.00  0.00    -0.074 A 
ATOM      7  C6  UNL d   1      -0.637  -0.192  -4.340  0.00  0.00     0.077 C 
ATOM      8  C7  UNL d   1       1.720   0.073  -5.164  0.00  0.00    -0.001 A 
ENDROOT
TORSDOF 0
ENDMDL
