MODEL 1
REMARK minimizedAffinity 7.65139818
REMARK minimizedRMSD -1
REMARK  0 active torsions:
REMARK  status: ('A' for Active; 'I' for Inactive)
ROOT
ATOM      1  C   UNL d   1       4.241   1.958   3.526  0.00  0.00     0.077 C 
ATOM      2  C1  UNL d   1       2.752   1.943   3.708  0.00  0.00    -0.074 A 
ATOM      3  C2  UNL d   1       2.130   2.807   4.614  0.00  0.00    -0.005 A 
ATOM      4  C3  UNL d   1       0.744   2.789   4.766  0.00  0.00     0.006 A 
ATOM      5  C4  UNL d   1      -0.033   1.907   4.013  0.00  0.00    -0.005 A 
ATOM      6  C5  UNL d   1       0.571   1.036   3.102  0.00  0.00    -0.074 A 
ATOM      7  C6  UNL d   1      -0.250   0.089   2.278  0.00  0.00     0.077 C 
ATOM      8  C7  UNL d   1       1.964   1.065   2.950  0.00  0.00    -0.001 A 
ENDROOT
TORSDOF 0
ENDMDL
