MODEL 1
REMARK minimizedAffinity 14.2816534
REMARK minimizedRMSD -1
REMARK  0 active torsions:
REMARK  status: ('A' for Active; 'I' for Inactive)
ROOT
ATOM      1  C   UNL d   1      -2.062  -1.136   1.901  0.00  0.00     0.077 C 
ATOM      2  C1  UNL d   1      -0.663  -1.104   2.442  0.00  0.00    -0.074 A 
ATOM      3  C2  UNL d   1       0.185  -0.024   2.177  0.00  0.00    -0.005 A 
ATOM      4  C3  UNL d   1       1.480  -0.003   2.695  0.00  0.00     0.006 A 
ATOM      5  C4  UNL d   1       1.939  -1.059   3.482  0.00  0.00    -0.005 A 
ATOM      6  C5  UNL d   1       1.105  -2.147   3.759  0.00  0.00    -0.074 A 
ATOM      7  C6  UNL d   1       1.579  -3.286   4.612  0.00  0.00     0.077 C 
ATOM      8  C7  UNL d   1      -0.198  -2.158   3.241  0.00  0.00    -0.001 A 
ENDROOT
TORSDOF 0
ENDMDL
