MODEL 1
REMARK minimizedAffinity -1.49175417
REMARK minimizedRMSD -1
REMARK  0 active torsions:
REMARK  status: ('A' for Active; 'I' for Inactive)
ROOT
ATOM      1  C4' PXY d   1      -1.242   0.726  -1.822  0.00  0.00     0.077 C 
ATOM      2  C1' PXY d   1       1.305  -1.270   2.968  0.00  0.00     0.077 C 
ATOM      3  C1  PXY d   1       0.648  -0.743   1.707  0.00  0.00    -0.082 A 
ATOM      4  C2  PXY d   1      -0.615  -0.353   1.741  0.00  0.00     0.003 A 
ATOM      5  C3  PXY d   1      -1.234   0.096   0.603  0.00  0.00     0.003 A 
ATOM      6  C4  PXY d   1      -0.536   0.197  -0.571  0.00  0.00    -0.082 A 
ATOM      7  C5  PXY d   1       0.757  -0.189  -0.612  0.00  0.00     0.003 A 
ATOM      8  C6  PXY d   1       1.354  -0.681   0.545  0.00  0.00     0.003 A 
ENDROOT
TORSDOF 0
ENDMDL
