MODEL 1
REMARK minimizedAffinity -5.21763325
REMARK minimizedRMSD -1
REMARK  0 active torsions:
REMARK  status: ('A' for Active; 'I' for Inactive)
ROOT
ATOM      1  C4' PXY d   1       2.176  -1.521   2.808  0.00  0.00     0.077 C 
ATOM      2  C1' PXY d   1      -1.206   0.613  -1.366  0.00  0.00     0.077 C 
ATOM      3  C1  PXY d   1      -0.312   0.047  -0.281  0.00  0.00    -0.082 A 
ATOM      4  C2  PXY d   1      -0.778  -0.079   0.951  0.00  0.00     0.003 A 
ATOM      5  C3  PXY d   1       0.027  -0.559   1.952  0.00  0.00     0.003 A 
ATOM      6  C4  PXY d   1       1.306  -0.964   1.678  0.00  0.00    -0.082 A 
ATOM      7  C5  PXY d   1       1.786  -0.848   0.422  0.00  0.00     0.003 A 
ATOM      8  C6  PXY d   1       0.966  -0.320  -0.571  0.00  0.00     0.003 A 
ENDROOT
TORSDOF 0
ENDMDL
