MODEL 1
REMARK minimizedAffinity -4.09572792
REMARK minimizedRMSD -1
REMARK  0 active torsions:
REMARK  status: ('A' for Active; 'I' for Inactive)
ROOT
ATOM      1  C4' PXY d   1       3.398  -1.766   0.267  0.00  0.00     0.077 C 
ATOM      2  C1' PXY d   1      -1.931  -0.046   1.704  0.00  0.00     0.077 C 
ATOM      3  C1  PXY d   1      -0.530  -0.497   1.340  0.00  0.00    -0.082 A 
ATOM      4  C2  PXY d   1      -0.059  -0.254   0.128  0.00  0.00     0.003 A 
ATOM      5  C3  PXY d   1       1.194  -0.683  -0.229  0.00  0.00     0.003 A 
ATOM      6  C4  PXY d   1       1.993  -1.321   0.682  0.00  0.00    -0.082 A 
ATOM      7  C5  PXY d   1       1.524  -1.563   1.924  0.00  0.00     0.003 A 
ATOM      8  C6  PXY d   1       0.234  -1.156   2.253  0.00  0.00     0.003 A 
ENDROOT
TORSDOF 0
ENDMDL
