MODEL 1
REMARK minimizedAffinity -4.63525581
REMARK minimizedRMSD -1
REMARK  0 active torsions:
REMARK  status: ('A' for Active; 'I' for Inactive)
ROOT
ATOM      1  C4' PXY d   1       3.751  -2.233   1.122  0.00  0.00     0.077 C 
ATOM      2  C1' PXY d   1      -1.329   0.521   1.267  0.00  0.00     0.077 C 
ATOM      3  C1  PXY d   1       0.005  -0.199   1.241  0.00  0.00    -0.082 A 
ATOM      4  C2  PXY d   1       0.666  -0.312   0.101  0.00  0.00     0.003 A 
ATOM      5  C3  PXY d   1       1.858  -0.987   0.054  0.00  0.00     0.003 A 
ATOM      6  C4  PXY d   1       2.406  -1.507   1.196  0.00  0.00    -0.082 A 
ATOM      7  C5  PXY d   1       1.743  -1.386   2.366  0.00  0.00     0.003 A 
ATOM      8  C6  PXY d   1       0.514  -0.732   2.385  0.00  0.00     0.003 A 
ENDROOT
TORSDOF 0
ENDMDL
