MODEL 1
REMARK minimizedAffinity -3.16613555
REMARK minimizedRMSD -1
REMARK  0 active torsions:
REMARK  status: ('A' for Active; 'I' for Inactive)
ROOT
ATOM      1  C4' PXY d   1       2.190  -1.709   3.021  0.00  0.00     0.077 C 
ATOM      2  C1' PXY d   1      -0.893   0.694  -1.238  0.00  0.00     0.077 C 
ATOM      3  C1  PXY d   1      -0.092   0.071  -0.112  0.00  0.00    -0.082 A 
ATOM      4  C2  PXY d   1       1.119  -0.405  -0.357  0.00  0.00     0.003 A 
ATOM      5  C3  PXY d   1       1.845  -1.000   0.642  0.00  0.00     0.003 A 
ATOM      6  C4  PXY d   1       1.348  -1.062   1.917  0.00  0.00    -0.082 A 
ATOM      7  C5  PXY d   1       0.119  -0.570   2.177  0.00  0.00     0.003 A 
ATOM      8  C6  PXY d   1      -0.619  -0.006   1.140  0.00  0.00     0.003 A 
ENDROOT
TORSDOF 0
ENDMDL
