MODEL 1
REMARK minimizedAffinity -5.13827896
REMARK minimizedRMSD -1
REMARK  0 active torsions:
REMARK  status: ('A' for Active; 'I' for Inactive)
ROOT
ATOM      1  C4' PXY d   1      -1.146   0.310  -1.818  0.00  0.00     0.077 C 
ATOM      2  C1' PXY d   1       2.026  -1.356   2.719  0.00  0.00     0.077 C 
ATOM      3  C1  PXY d   1       1.183  -0.923   1.535  0.00  0.00    -0.082 A 
ATOM      4  C2  PXY d   1       1.721  -0.888   0.327  0.00  0.00     0.003 A 
ATOM      5  C3  PXY d   1       0.983  -0.467  -0.749  0.00  0.00     0.003 A 
ATOM      6  C4  PXY d   1      -0.335  -0.130  -0.596  0.00  0.00    -0.082 A 
ATOM      7  C5  PXY d   1      -0.895  -0.174   0.632  0.00  0.00     0.003 A 
ATOM      8  C6  PXY d   1      -0.116  -0.564   1.718  0.00  0.00     0.003 A 
ENDROOT
TORSDOF 0
ENDMDL
