MODEL 1
REMARK minimizedAffinity -5.61345196
REMARK minimizedRMSD -1
REMARK  0 active torsions:
REMARK  status: ('A' for Active; 'I' for Inactive)
ROOT
ATOM      1  C4' PXY d   1      -2.251  -0.094   1.553  0.00  0.00     0.077 C 
ATOM      2  C1' PXY d   1       3.280  -1.195   0.283  0.00  0.00     0.077 C 
ATOM      3  C1  PXY d   1       1.830  -0.914   0.627  0.00  0.00    -0.082 A 
ATOM      4  C2  PXY d   1       1.006  -0.489  -0.316  0.00  0.00     0.003 A 
ATOM      5  C3  PXY d   1      -0.301  -0.200  -0.017  0.00  0.00     0.003 A 
ATOM      6  C4  PXY d   1      -0.781  -0.399   1.250  0.00  0.00    -0.082 A 
ATOM      7  C5  PXY d   1       0.052  -0.843   2.215  0.00  0.00     0.003 A 
ATOM      8  C6  PXY d   1       1.384  -1.091   1.900  0.00  0.00     0.003 A 
ENDROOT
TORSDOF 0
ENDMDL
