MODEL 1
REMARK minimizedAffinity -5.81776524
REMARK minimizedRMSD -1
REMARK  0 active torsions:
REMARK  status: ('A' for Active; 'I' for Inactive)
ROOT
ATOM      1  C4' PXY d   1       3.309  -2.177   0.013  0.00  0.00     0.077 C 
ATOM      2  C1' PXY d   1      -1.165   0.210   2.788  0.00  0.00     0.077 C 
ATOM      3  C1  PXY d   1       0.015  -0.418   2.072  0.00  0.00    -0.082 A 
ATOM      4  C2  PXY d   1       0.222  -0.148   0.793  0.00  0.00     0.003 A 
ATOM      5  C3  PXY d   1       1.265  -0.732   0.122  0.00  0.00     0.003 A 
ATOM      6  C4  PXY d   1       2.136  -1.559   0.779  0.00  0.00    -0.082 A 
ATOM      7  C5  PXY d   1       1.938  -1.831   2.086  0.00  0.00     0.003 A 
ATOM      8  C6  PXY d   1       0.849  -1.260   2.739  0.00  0.00     0.003 A 
ENDROOT
TORSDOF 0
ENDMDL
