MODEL 1
REMARK minimizedAffinity -2.63690925
REMARK minimizedRMSD -1
REMARK  0 active torsions:
REMARK  status: ('A' for Active; 'I' for Inactive)
ROOT
ATOM      1  C4' PXY d   1      -0.920   0.873  -1.591  0.00  0.00     0.077 C 
ATOM      2  C1' PXY d   1       1.994  -1.308   2.900  0.00  0.00     0.077 C 
ATOM      3  C1  PXY d   1       1.218  -0.740   1.728  0.00  0.00    -0.082 A 
ATOM      4  C2  PXY d   1       1.820  -0.584   0.559  0.00  0.00     0.003 A 
ATOM      5  C3  PXY d   1       1.143  -0.042  -0.503  0.00  0.00     0.003 A 
ATOM      6  C4  PXY d   1      -0.179   0.294  -0.383  0.00  0.00    -0.082 A 
ATOM      7  C5  PXY d   1      -0.803   0.129   0.803  0.00  0.00     0.003 A 
ATOM      8  C6  PXY d   1      -0.086  -0.385   1.880  0.00  0.00     0.003 A 
ENDROOT
TORSDOF 0
ENDMDL
