MODEL 1
REMARK minimizedAffinity -5.05956888
REMARK minimizedRMSD -1
REMARK  0 active torsions:
REMARK  status: ('A' for Active; 'I' for Inactive)
ROOT
ATOM      1  C4' PXY d   1      -0.399   0.784  -1.423  0.00  0.00     0.077 C 
ATOM      2  C1' PXY d   1       2.846  -2.280   2.250  0.00  0.00     0.077 C 
ATOM      3  C1  PXY d   1       1.985  -1.477   1.295  0.00  0.00    -0.082 A 
ATOM      4  C2  PXY d   1       2.250  -1.499  -0.001  0.00  0.00     0.003 A 
ATOM      5  C3  PXY d   1       1.502  -0.753  -0.875  0.00  0.00     0.003 A 
ATOM      6  C4  PXY d   1       0.437  -0.019  -0.424  0.00  0.00    -0.082 A 
ATOM      7  C5  PXY d   1       0.154   0.000   0.896  0.00  0.00     0.003 A 
ATOM      8  C6  PXY d   1       0.951  -0.731   1.772  0.00  0.00     0.003 A 
ENDROOT
TORSDOF 0
ENDMDL
