MODEL 1
REMARK minimizedAffinity -4.77625227
REMARK minimizedRMSD -1
REMARK  0 active torsions:
REMARK  status: ('A' for Active; 'I' for Inactive)
ROOT
ATOM      1  C4' PXY d   1      -1.010   1.001  -1.534  0.00  0.00     0.077 C 
ATOM      2  C1' PXY d   1       1.503  -1.367   3.102  0.00  0.00     0.077 C 
ATOM      3  C1  PXY d   1       0.832  -0.751   1.890  0.00  0.00    -0.082 A 
ATOM      4  C2  PXY d   1       1.544  -0.506   0.802  0.00  0.00     0.003 A 
ATOM      5  C3  PXY d   1       0.961   0.080  -0.291  0.00  0.00     0.003 A 
ATOM      6  C4  PXY d   1      -0.377   0.371  -0.290  0.00  0.00    -0.082 A 
ATOM      7  C5  PXY d   1      -1.113   0.115   0.812  0.00  0.00     0.003 A 
ATOM      8  C6  PXY d   1      -0.493  -0.443   1.927  0.00  0.00     0.003 A 
ENDROOT
TORSDOF 0
ENDMDL
