MODEL 1
REMARK minimizedAffinity -4.87110376
REMARK minimizedRMSD -1
REMARK  0 active torsions:
REMARK  status: ('A' for Active; 'I' for Inactive)
ROOT
ATOM      1  C4' PXY d   1      -1.123   0.611  -1.431  0.00  0.00     0.077 C 
ATOM      2  C1' PXY d   1       2.324  -1.772   2.551  0.00  0.00     0.077 C 
ATOM      3  C1  PXY d   1       1.410  -1.149   1.514  0.00  0.00    -0.082 A 
ATOM      4  C2  PXY d   1       1.772  -1.143   0.242  0.00  0.00     0.003 A 
ATOM      5  C3  PXY d   1       0.972  -0.555  -0.704  0.00  0.00     0.003 A 
ATOM      6  C4  PXY d   1      -0.236  -0.016  -0.352  0.00  0.00    -0.082 A 
ATOM      7  C5  PXY d   1      -0.618  -0.028   0.943  0.00  0.00     0.003 A 
ATOM      8  C6  PXY d   1       0.227  -0.593   1.894  0.00  0.00     0.003 A 
ENDROOT
TORSDOF 0
ENDMDL
