MODEL 1
REMARK minimizedAffinity -5.74540758
REMARK minimizedRMSD -1
REMARK  0 active torsions:
REMARK  status: ('A' for Active; 'I' for Inactive)
ROOT
ATOM      1  C4' PXY d   1      -0.352   0.331  -1.825  0.00  0.00     0.077 C 
ATOM      2  C1' PXY d   1       1.734  -1.833   3.112  0.00  0.00     0.077 C 
ATOM      3  C1  PXY d   1       1.199  -1.265   1.813  0.00  0.00    -0.082 A 
ATOM      4  C2  PXY d   1       0.015  -0.674   1.795  0.00  0.00     0.003 A 
ATOM      5  C3  PXY d   1      -0.498  -0.183   0.622  0.00  0.00     0.003 A 
ATOM      6  C4  PXY d   1       0.232  -0.249  -0.534  0.00  0.00    -0.082 A 
ATOM      7  C5  PXY d   1       1.446  -0.840  -0.523  0.00  0.00     0.003 A 
ATOM      8  C6  PXY d   1       1.930  -1.370   0.670  0.00  0.00     0.003 A 
ENDROOT
TORSDOF 0
ENDMDL
