MODEL 1
REMARK minimizedAffinity -4.737988
REMARK minimizedRMSD -1
REMARK  0 active torsions:
REMARK  status: ('A' for Active; 'I' for Inactive)
ROOT
ATOM      1  C4' PXY d   1      -2.212   0.809   1.939  0.00  0.00     0.077 C 
ATOM      2  C1' PXY d   1       2.868  -1.784   0.999  0.00  0.00     0.077 C 
ATOM      3  C1  PXY d   1       1.537  -1.098   1.234  0.00  0.00    -0.082 A 
ATOM      4  C2  PXY d   1       1.111  -0.904   2.471  0.00  0.00     0.003 A 
ATOM      5  C3  PXY d   1      -0.106  -0.314   2.701  0.00  0.00     0.003 A 
ATOM      6  C4  PXY d   1      -0.869   0.130   1.655  0.00  0.00    -0.082 A 
ATOM      7  C5  PXY d   1      -0.436  -0.055   0.389  0.00  0.00     0.003 A 
ATOM      8  C6  PXY d   1       0.782  -0.693   0.176  0.00  0.00     0.003 A 
ENDROOT
TORSDOF 0
ENDMDL
