MODEL 1
REMARK minimizedAffinity 14.2140369
REMARK minimizedRMSD -1
REMARK  0 active torsions:
REMARK  status: ('A' for Active; 'I' for Inactive)
ROOT
ATOM      1  C   UNL d   1       1.695   2.538   0.667  0.00  0.00     0.124 A 
ATOM      2  C1  UNL d   1       0.390   2.821   0.290  0.00  0.00     0.062 A 
ATOM      3  C2  UNL d   1      -0.306   1.945  -0.537  0.00  0.00     0.162 A 
ATOM      4  C3  UNL d   1       0.302   0.775  -0.993  0.00  0.00    -0.034 A 
ATOM      5  C4  UNL d   1       1.615   0.497  -0.611  0.00  0.00     0.162 A 
ATOM      6  C5  UNL d   1       2.307   1.376   0.216  0.00  0.00     0.062 A 
ATOM      7  F   UNL d   1       3.568   1.101   0.579  0.00  0.00    -0.097 F 
ATOM      8  F1  UNL d   1       2.230  -0.619  -1.031  0.00  0.00    -0.096 F 
ATOM      9  I   UNL d   1      -0.736  -0.538  -2.231  0.00  0.00    -0.060 I 
ATOM     10  F2  UNL d   1      -1.566   2.244  -0.885  0.00  0.00    -0.096 F 
ATOM     11  F3  UNL d   1      -0.203   3.943   0.723  0.00  0.00    -0.097 F 
ATOM     12  F4  UNL d   1       2.363   3.383   1.462  0.00  0.00    -0.092 F 
ENDROOT
TORSDOF 0
ENDMDL
