MODEL 1
REMARK minimizedAffinity 15.2210293
REMARK minimizedRMSD -1
REMARK  0 active torsions:
REMARK  status: ('A' for Active; 'I' for Inactive)
ROOT
ATOM      1  C   UNL d   1      -0.659   3.549   0.732  0.00  0.00     0.124 A 
ATOM      2  C1  UNL d   1       0.322   2.696   0.246  0.00  0.00     0.062 A 
ATOM      3  C2  UNL d   1      -0.031   1.576  -0.502  0.00  0.00     0.162 A 
ATOM      4  C3  UNL d   1      -1.373   1.303  -0.769  0.00  0.00    -0.034 A 
ATOM      5  C4  UNL d   1      -2.354   2.165  -0.276  0.00  0.00     0.162 A 
ATOM      6  C5  UNL d   1      -1.996   3.283   0.470  0.00  0.00     0.062 A 
ATOM      7  F   UNL d   1      -2.945   4.106   0.939  0.00  0.00    -0.097 F 
ATOM      8  F1  UNL d   1      -3.653   1.932  -0.515  0.00  0.00    -0.096 F 
ATOM      9  I   UNL d   1      -1.905  -0.370  -1.886  0.00  0.00    -0.060 I 
ATOM     10  F2  UNL d   1       0.938   0.769  -0.958  0.00  0.00    -0.096 F 
ATOM     11  F3  UNL d   1       1.614   2.950   0.498  0.00  0.00    -0.097 F 
ATOM     12  F4  UNL d   1      -0.316   4.625   1.451  0.00  0.00    -0.092 F 
ENDROOT
TORSDOF 0
ENDMDL
