MODEL 1
REMARK minimizedAffinity 9.63810158
REMARK minimizedRMSD -1
REMARK  0 active torsions:
REMARK  status: ('A' for Active; 'I' for Inactive)
ROOT
ATOM      1  C   UNL d   1       2.845   0.187   0.119  0.00  0.00     0.124 A 
ATOM      2  C1  UNL d   1       2.807  -0.008  -1.255  0.00  0.00     0.062 A 
ATOM      3  C2  UNL d   1       3.697   0.669  -2.083  0.00  0.00     0.162 A 
ATOM      4  C3  UNL d   1       4.634   1.548  -1.539  0.00  0.00    -0.034 A 
ATOM      5  C4  UNL d   1       4.666   1.740  -0.157  0.00  0.00     0.162 A 
ATOM      6  C5  UNL d   1       3.774   1.060   0.666  0.00  0.00     0.062 A 
ATOM      7  F   UNL d   1       3.812   1.250   1.993  0.00  0.00    -0.097 F 
ATOM      8  F1  UNL d   1       5.554   2.577   0.399  0.00  0.00    -0.096 F 
ATOM      9  I   UNL d   1       5.967   2.563  -2.774  0.00  0.00    -0.060 I 
ATOM     10  F2  UNL d   1       3.638   0.461  -3.407  0.00  0.00    -0.096 F 
ATOM     11  F3  UNL d   1       1.910  -0.851  -1.786  0.00  0.00    -0.097 F 
ATOM     12  F4  UNL d   1       1.987  -0.466   0.913  0.00  0.00    -0.092 F 
ENDROOT
TORSDOF 0
ENDMDL
