MODEL 1
REMARK minimizedAffinity 11.3254929
REMARK minimizedRMSD -1
REMARK  0 active torsions:
REMARK  status: ('A' for Active; 'I' for Inactive)
ROOT
ATOM      1  C   UNL d   1       2.342   0.025  -1.190  0.00  0.00     0.124 A 
ATOM      2  C1  UNL d   1       2.584  -0.146  -2.546  0.00  0.00     0.062 A 
ATOM      3  C2  UNL d   1       3.625   0.541  -3.163  0.00  0.00     0.162 A 
ATOM      4  C3  UNL d   1       4.434   1.405  -2.425  0.00  0.00    -0.034 A 
ATOM      5  C4  UNL d   1       4.184   1.574  -1.062  0.00  0.00     0.162 A 
ATOM      6  C5  UNL d   1       3.142   0.885  -0.449  0.00  0.00     0.062 A 
ATOM      7  F   UNL d   1       2.910   1.052   0.861  0.00  0.00    -0.097 F 
ATOM      8  F1  UNL d   1       4.941   2.397  -0.323  0.00  0.00    -0.096 F 
ATOM      9  I   UNL d   1       5.991   2.434  -3.345  0.00  0.00    -0.060 I 
ATOM     10  F2  UNL d   1       3.836   0.356  -4.475  0.00  0.00    -0.096 F 
ATOM     11  F3  UNL d   1       1.812  -0.975  -3.263  0.00  0.00    -0.097 F 
ATOM     12  F4  UNL d   1       1.339  -0.636  -0.598  0.00  0.00    -0.092 F 
ENDROOT
TORSDOF 0
ENDMDL
