MODEL 1
REMARK minimizedAffinity 8.45274353
REMARK minimizedRMSD -1
REMARK  0 active torsions:
REMARK  status: ('A' for Active; 'I' for Inactive)
ROOT
ATOM      1  C   UNL d   1      -1.466   3.161   0.419  0.00  0.00     0.124 A 
ATOM      2  C1  UNL d   1      -1.418   2.158  -0.539  0.00  0.00     0.062 A 
ATOM      3  C2  UNL d   1      -0.269   1.387  -0.688  0.00  0.00     0.162 A 
ATOM      4  C3  UNL d   1       0.842   1.615   0.124  0.00  0.00    -0.034 A 
ATOM      5  C4  UNL d   1       0.787   2.626   1.085  0.00  0.00     0.162 A 
ATOM      6  C5  UNL d   1      -0.364   3.394   1.230  0.00  0.00     0.062 A 
ATOM      7  F   UNL d   1      -0.409   4.363   2.156  0.00  0.00    -0.097 F 
ATOM      8  F1  UNL d   1       1.837   2.873   1.882  0.00  0.00    -0.096 F 
ATOM      9  I   UNL d   1       2.563   0.465  -0.096  0.00  0.00    -0.060 I 
ATOM     10  F2  UNL d   1      -0.250   0.424  -1.622  0.00  0.00    -0.096 F 
ATOM     11  F3  UNL d   1      -2.481   1.931  -1.324  0.00  0.00    -0.097 F 
ATOM     12  F4  UNL d   1      -2.573   3.901   0.560  0.00  0.00    -0.092 F 
ENDROOT
TORSDOF 0
ENDMDL
