MODEL 1
REMARK minimizedAffinity 24.6365242
REMARK minimizedRMSD -1
REMARK  0 active torsions:
REMARK  status: ('A' for Active; 'I' for Inactive)
ROOT
ATOM      1  C   UNL d   1      -1.446   1.606  -0.905  0.00  0.00     0.124 A 
ATOM      2  C1  UNL d   1      -0.155   1.697  -0.403  0.00  0.00     0.062 A 
ATOM      3  C2  UNL d   1       0.221   2.793   0.367  0.00  0.00     0.162 A 
ATOM      4  C3  UNL d   1      -0.696   3.808   0.641  0.00  0.00    -0.034 A 
ATOM      5  C4  UNL d   1      -1.992   3.710   0.132  0.00  0.00     0.162 A 
ATOM      6  C5  UNL d   1      -2.363   2.612  -0.637  0.00  0.00     0.062 A 
ATOM      7  F   UNL d   1      -3.611   2.526  -1.121  0.00  0.00    -0.097 F 
ATOM      8  F1  UNL d   1      -2.899   4.668   0.377  0.00  0.00    -0.096 F 
ATOM      9  I   UNL d   1      -0.138   5.449   1.793  0.00  0.00    -0.060 I 
ATOM     10  F2  UNL d   1       1.475   2.855   0.839  0.00  0.00    -0.096 F 
ATOM     11  F3  UNL d   1       0.733   0.726  -0.662  0.00  0.00    -0.097 F 
ATOM     12  F4  UNL d   1      -1.805   0.550  -1.647  0.00  0.00    -0.092 F 
ENDROOT
TORSDOF 0
ENDMDL
