MODEL 1
REMARK minimizedAffinity 12.9959774
REMARK minimizedRMSD -1
REMARK  0 active torsions:
REMARK  status: ('A' for Active; 'I' for Inactive)
ROOT
ATOM      1  C   UNL d   1       2.683   0.232  -0.095  0.00  0.00     0.124 A 
ATOM      2  C1  UNL d   1       2.632   0.033  -1.468  0.00  0.00     0.062 A 
ATOM      3  C2  UNL d   1       3.577   0.628  -2.297  0.00  0.00     0.162 A 
ATOM      4  C3  UNL d   1       4.584   1.428  -1.757  0.00  0.00    -0.034 A 
ATOM      5  C4  UNL d   1       4.629   1.625  -0.375  0.00  0.00     0.162 A 
ATOM      6  C5  UNL d   1       3.681   1.028   0.450  0.00  0.00     0.062 A 
ATOM      7  F   UNL d   1       3.732   1.222   1.776  0.00  0.00    -0.097 F 
ATOM      8  F1  UNL d   1       5.583   2.388   0.178  0.00  0.00    -0.096 F 
ATOM      9  I   UNL d   1       6.000   2.320  -2.994  0.00  0.00    -0.060 I 
ATOM     10  F2  UNL d   1       3.504   0.418  -3.620  0.00  0.00    -0.096 F 
ATOM     11  F3  UNL d   1       1.668  -0.735  -1.996  0.00  0.00    -0.097 F 
ATOM     12  F4  UNL d   1       1.771  -0.341   0.701  0.00  0.00    -0.092 F 
ENDROOT
TORSDOF 0
ENDMDL
