MODEL 1
REMARK minimizedAffinity 5.63104677
REMARK minimizedRMSD -1
REMARK  0 active torsions:
REMARK  status: ('A' for Active; 'I' for Inactive)
ROOT
ATOM      1  C   UNL d   1      -4.669   1.316  -5.196  0.00  0.00     0.124 A 
ATOM      2  C1  UNL d   1      -4.853   0.133  -4.494  0.00  0.00     0.062 A 
ATOM      3  C2  UNL d   1      -3.849  -0.348  -3.659  0.00  0.00     0.162 A 
ATOM      4  C3  UNL d   1      -2.651   0.354  -3.521  0.00  0.00    -0.034 A 
ATOM      5  C4  UNL d   1      -2.474   1.543  -4.231  0.00  0.00     0.162 A 
ATOM      6  C5  UNL d   1      -3.480   2.020  -5.064  0.00  0.00     0.062 A 
ATOM      7  F   UNL d   1      -3.301   3.163  -5.741  0.00  0.00    -0.097 F 
ATOM      8  F1  UNL d   1      -1.335   2.243  -4.120  0.00  0.00    -0.096 F 
ATOM      9  I   UNL d   1      -1.148  -0.362  -2.273  0.00  0.00    -0.060 I 
ATOM     10  F2  UNL d   1      -4.053  -1.494  -2.993  0.00  0.00    -0.096 F 
ATOM     11  F3  UNL d   1      -6.000  -0.549  -4.621  0.00  0.00    -0.097 F 
ATOM     12  F4  UNL d   1      -5.636   1.777  -6.000  0.00  0.00    -0.092 F 
ENDROOT
TORSDOF 0
ENDMDL
