MODEL 1
REMARK minimizedAffinity 5.50989866
REMARK minimizedRMSD -1
REMARK  1 active torsions:
REMARK  status: ('A' for Active; 'I' for Inactive)
REMARK    1  A    between atoms: C1_2  and  C2_3 
ROOT
ATOM      1  C2  UNL d   1       0.162   0.401  -0.090  0.00  0.00    -0.077 A 
ATOM      2  C3  UNL d   1      -0.215  -0.270   1.082  0.00  0.00     0.002 A 
ATOM      3  C4  UNL d   1      -0.165  -1.664   1.144  0.00  0.00     0.002 A 
ATOM      4  C5  UNL d   1       0.265  -2.398   0.041  0.00  0.00    -0.004 A 
ATOM      5  C6  UNL d   1       0.641  -1.740  -1.129  0.00  0.00     0.002 A 
ATOM      6  C7  UNL d   1       0.590  -0.347  -1.195  0.00  0.00     0.002 A 
ENDROOT
BRANCH   1   7
ATOM      7  C1  UNL d   1       0.156   1.906  -0.144  0.00  0.00     0.055 C 
ATOM      8  C   UNL d   1       1.525   2.478   0.195  0.00  0.00     0.019 C 
ENDBRANCH   1   7
TORSDOF 1
ENDMDL
