MODEL 1
REMARK minimizedAffinity -0.773087978
REMARK minimizedRMSD -1
REMARK  1 active torsions:
REMARK  status: ('A' for Active; 'I' for Inactive)
REMARK    1  A    between atoms: C1_2  and  C2_3 
ROOT
ATOM      1  C2  UNL d   1       3.386  -0.666  -0.715  0.00  0.00    -0.077 A 
ATOM      2  C3  UNL d   1       3.141  -2.041  -0.836  0.00  0.00     0.002 A 
ATOM      3  C4  UNL d   1       1.864  -2.554  -0.598  0.00  0.00     0.002 A 
ATOM      4  C5  UNL d   1       0.823  -1.699  -0.242  0.00  0.00    -0.004 A 
ATOM      5  C6  UNL d   1       1.058  -0.330  -0.118  0.00  0.00     0.002 A 
ATOM      6  C7  UNL d   1       2.333   0.184  -0.354  0.00  0.00     0.002 A 
ENDROOT
BRANCH   1   7
ATOM      7  C1  UNL d   1       4.751  -0.104  -1.019  0.00  0.00     0.055 C 
ATOM      8  C   UNL d   1       4.801   1.396  -0.769  0.00  0.00     0.019 C 
ENDBRANCH   1   7
TORSDOF 1
ENDMDL
