MODEL 1
REMARK minimizedAffinity 8.39544106
REMARK minimizedRMSD -1
REMARK  1 active torsions:
REMARK  status: ('A' for Active; 'I' for Inactive)
REMARK    1  A    between atoms: C1_2  and  C2_3 
ROOT
ATOM      1  C2  UNL d   1      -2.925  -0.601  -0.078  0.00  0.00    -0.077 A 
ATOM      2  C3  UNL d   1      -2.084   0.175  -0.887  0.00  0.00     0.002 A 
ATOM      3  C4  UNL d   1      -0.825  -0.302  -1.259  0.00  0.00     0.002 A 
ATOM      4  C5  UNL d   1      -0.399  -1.557  -0.830  0.00  0.00    -0.004 A 
ATOM      5  C6  UNL d   1      -1.228  -2.335  -0.023  0.00  0.00     0.002 A 
ATOM      6  C7  UNL d   1      -2.486  -1.860   0.351  0.00  0.00     0.002 A 
ENDROOT
BRANCH   1   7
ATOM      7  C1  UNL d   1      -4.303  -0.109   0.284  0.00  0.00     0.055 C 
ATOM      8  C   UNL d   1      -4.266   0.784   1.516  0.00  0.00     0.019 C 
ENDBRANCH   1   7
TORSDOF 1
ENDMDL
