MODEL 1
REMARK minimizedAffinity -4.05071831
REMARK minimizedRMSD -1
REMARK  1 active torsions:
REMARK  status: ('A' for Active; 'I' for Inactive)
REMARK    1  A    between atoms: C1_2  and  C2_3 
ROOT
ATOM      1  C2  UNL d   1       1.640  -0.549  -0.059  0.00  0.00    -0.077 A 
ATOM      2  C3  UNL d   1       0.823  -1.590  -0.520  0.00  0.00     0.002 A 
ATOM      3  C4  UNL d   1      -0.514  -1.349  -0.844  0.00  0.00     0.002 A 
ATOM      4  C5  UNL d   1      -1.043  -0.067  -0.713  0.00  0.00    -0.004 A 
ATOM      5  C6  UNL d   1      -0.239   0.975  -0.254  0.00  0.00     0.002 A 
ATOM      6  C7  UNL d   1       1.097   0.736   0.071  0.00  0.00     0.002 A 
ENDROOT
BRANCH   1   7
ATOM      7  C1  UNL d   1       3.095  -0.796   0.243  0.00  0.00     0.055 C 
ATOM      8  C   UNL d   1       3.944   0.424  -0.082  0.00  0.00     0.019 C 
ENDBRANCH   1   7
TORSDOF 1
ENDMDL
