MODEL 1
REMARK minimizedAffinity -0.990346432
REMARK minimizedRMSD -1
REMARK  1 active torsions:
REMARK  status: ('A' for Active; 'I' for Inactive)
REMARK    1  A    between atoms: C1_2  and  C2_3 
ROOT
ATOM      1  C2  UNL d   1       1.516  -1.399   0.539  0.00  0.00    -0.077 A 
ATOM      2  C3  UNL d   1       1.506  -1.608   1.925  0.00  0.00     0.002 A 
ATOM      3  C4  UNL d   1       1.564  -0.524   2.803  0.00  0.00     0.002 A 
ATOM      4  C5  UNL d   1       1.629   0.776   2.304  0.00  0.00    -0.004 A 
ATOM      5  C6  UNL d   1       1.642   0.993   0.927  0.00  0.00     0.002 A 
ATOM      6  C7  UNL d   1       1.584  -0.089   0.048  0.00  0.00     0.002 A 
ENDROOT
BRANCH   1   7
ATOM      7  C1  UNL d   1       1.403  -2.565  -0.409  0.00  0.00     0.055 C 
ATOM      8  C   UNL d   1      -0.043  -2.805  -0.821  0.00  0.00     0.019 C 
ENDBRANCH   1   7
TORSDOF 1
ENDMDL
