MODEL 1
REMARK minimizedAffinity 4.0444026
REMARK minimizedRMSD -1
REMARK  1 active torsions:
REMARK  status: ('A' for Active; 'I' for Inactive)
REMARK    1  A    between atoms: C1_2  and  C2_3 
ROOT
ATOM      1  C2  UNL d   1       2.190  -0.512  -0.594  0.00  0.00    -0.077 A 
ATOM      2  C3  UNL d   1       2.679  -1.821  -0.704  0.00  0.00     0.002 A 
ATOM      3  C4  UNL d   1       1.796  -2.901  -0.781  0.00  0.00     0.002 A 
ATOM      4  C5  UNL d   1       0.421  -2.681  -0.753  0.00  0.00    -0.004 A 
ATOM      5  C6  UNL d   1      -0.075  -1.383  -0.641  0.00  0.00     0.002 A 
ATOM      6  C7  UNL d   1       0.805  -0.303  -0.563  0.00  0.00     0.002 A 
ENDROOT
BRANCH   1   7
ATOM      7  C1  UNL d   1       3.139   0.657  -0.560  0.00  0.00     0.055 C 
ATOM      8  C   UNL d   1       4.411   0.360  -1.342  0.00  0.00     0.019 C 
ENDBRANCH   1   7
TORSDOF 1
ENDMDL
