MODEL 1
REMARK minimizedAffinity 5.74420404
REMARK minimizedRMSD -1
REMARK  1 active torsions:
REMARK  status: ('A' for Active; 'I' for Inactive)
REMARK    1  A    between atoms: C1_2  and  C2_3 
ROOT
ATOM      1  C2  UNL d   1       2.151  -2.321  -1.056  0.00  0.00    -0.077 A 
ATOM      2  C3  UNL d   1       2.842  -1.105  -0.956  0.00  0.00     0.002 A 
ATOM      3  C4  UNL d   1       3.934  -0.842  -1.785  0.00  0.00     0.002 A 
ATOM      4  C5  UNL d   1       4.342  -1.788  -2.724  0.00  0.00    -0.004 A 
ATOM      5  C6  UNL d   1       3.662  -3.001  -2.830  0.00  0.00     0.002 A 
ATOM      6  C7  UNL d   1       2.572  -3.266  -2.001  0.00  0.00     0.002 A 
ENDROOT
BRANCH   1   7
ATOM      7  C1  UNL d   1       0.943  -2.586  -0.196  0.00  0.00     0.055 C 
ATOM      8  C   UNL d   1      -0.337  -2.570  -1.020  0.00  0.00     0.019 C 
ENDBRANCH   1   7
TORSDOF 1
ENDMDL
