MODEL 1
REMARK minimizedAffinity 7.65132189
REMARK minimizedRMSD -1
REMARK  1 active torsions:
REMARK  status: ('A' for Active; 'I' for Inactive)
REMARK    1  A    between atoms: C1_2  and  C2_3 
ROOT
ATOM      1  C2  UNL d   1      -3.256  -0.171  -1.276  0.00  0.00    -0.077 A 
ATOM      2  C3  UNL d   1      -3.759  -0.445   0.004  0.00  0.00     0.002 A 
ATOM      3  C4  UNL d   1      -5.126  -0.653   0.196  0.00  0.00     0.002 A 
ATOM      4  C5  UNL d   1      -6.000  -0.595  -0.888  0.00  0.00    -0.004 A 
ATOM      5  C6  UNL d   1      -5.510  -0.321  -2.164  0.00  0.00     0.002 A 
ATOM      6  C7  UNL d   1      -4.144  -0.111  -2.357  0.00  0.00     0.002 A 
ENDROOT
BRANCH   1   7
ATOM      7  C1  UNL d   1      -1.775   0.006  -1.492  0.00  0.00     0.055 C 
ATOM      8  C   UNL d   1      -1.077  -1.335  -1.662  0.00  0.00     0.019 C 
ENDBRANCH   1   7
TORSDOF 1
ENDMDL
