MODEL 1
REMARK minimizedAffinity 8.91182995
REMARK minimizedRMSD -1
REMARK  1 active torsions:
REMARK  status: ('A' for Active; 'I' for Inactive)
REMARK    1  A    between atoms: C1_2  and  C2_3 
ROOT
ATOM      1  C2  UNL d   1       0.128  -3.122  -0.881  0.00  0.00    -0.077 A 
ATOM      2  C3  UNL d   1       0.911  -3.591   0.184  0.00  0.00     0.002 A 
ATOM      3  C4  UNL d   1       2.049  -2.889   0.586  0.00  0.00     0.002 A 
ATOM      4  C5  UNL d   1       2.411  -1.713  -0.066  0.00  0.00    -0.004 A 
ATOM      5  C6  UNL d   1       1.640  -1.239  -1.127  0.00  0.00     0.002 A 
ATOM      6  C7  UNL d   1       0.503  -1.940  -1.532  0.00  0.00     0.002 A 
ENDROOT
BRANCH   1   7
ATOM      7  C1  UNL d   1      -1.126  -3.852  -1.285  0.00  0.00     0.055 C 
ATOM      8  C   UNL d   1      -1.109  -5.294  -0.799  0.00  0.00     0.019 C 
ENDBRANCH   1   7
TORSDOF 1
ENDMDL
