MODEL 1
REMARK minimizedAffinity -4.20430279
REMARK minimizedRMSD -1
REMARK  1 active torsions:
REMARK  status: ('A' for Active; 'I' for Inactive)
REMARK    1  A    between atoms: C3_4  and  O_7 
ROOT
ATOM      1  C   UNL d   1      -0.325   1.138  -0.834  0.00  0.00    -0.033 A 
ATOM      2  C1  UNL d   1      -0.765   0.815   0.452  0.00  0.00     0.039 A 
ATOM      3  C2  UNL d   1      -0.663  -0.497   0.917  0.00  0.00    -0.080 A 
ATOM      4  C3  UNL d   1      -0.120  -1.476   0.089  0.00  0.00     0.150 A 
ATOM      5  C4  UNL d   1       0.324  -1.160  -1.191  0.00  0.00    -0.007 A 
ATOM      6  C5  UNL d   1       0.220   0.151  -1.654  0.00  0.00     0.039 A 
ENDROOT
BRANCH   4   7
ATOM      7  O   UNL d   1      -0.005  -2.771   0.498  0.00  0.00    -0.526 OA
ATOM      8  H5  UNL d   1      -0.378  -2.846   1.392  0.00  0.00     0.418 HD
ENDBRANCH   4   7
TORSDOF 1
ENDMDL
