MODEL 1
REMARK minimizedAffinity -3.48126626
REMARK minimizedRMSD -1
REMARK  1 active torsions:
REMARK  status: ('A' for Active; 'I' for Inactive)
REMARK    1  A    between atoms: C3_4  and  O_7 
ROOT
ATOM      1  C   UNL d   1       0.140  -3.214   0.750  0.00  0.00    -0.033 A 
ATOM      2  C1  UNL d   1       1.125  -3.000  -0.216  0.00  0.00     0.039 A 
ATOM      3  C2  UNL d   1       1.220  -1.763  -0.857  0.00  0.00    -0.080 A 
ATOM      4  C3  UNL d   1       0.325  -0.750  -0.523  0.00  0.00     0.150 A 
ATOM      5  C4  UNL d   1      -0.657  -0.955   0.441  0.00  0.00    -0.007 A 
ATOM      6  C5  UNL d   1      -0.750  -2.191   1.079  0.00  0.00     0.039 A 
ENDROOT
BRANCH   4   7
ATOM      7  O   UNL d   1       0.375   0.472  -1.125  0.00  0.00    -0.526 OA
ATOM      8  H5  UNL d   1       1.084   0.459  -1.790  0.00  0.00     0.418 HD
ENDBRANCH   4   7
TORSDOF 1
ENDMDL
