MODEL 1
REMARK minimizedAffinity -3.4325583
REMARK minimizedRMSD -1
REMARK  1 active torsions:
REMARK  status: ('A' for Active; 'I' for Inactive)
REMARK    1  A    between atoms: C3_4  and  O_7 
ROOT
ATOM      1  C   UNL d   1      -0.610   1.036   0.085  0.00  0.00    -0.033 A 
ATOM      2  C1  UNL d   1       0.105   0.353  -0.901  0.00  0.00     0.039 A 
ATOM      3  C2  UNL d   1       0.293  -1.027  -0.800  0.00  0.00    -0.080 A 
ATOM      4  C3  UNL d   1      -0.239  -1.711   0.289  0.00  0.00     0.150 A 
ATOM      5  C4  UNL d   1      -0.956  -1.038   1.273  0.00  0.00    -0.007 A 
ATOM      6  C5  UNL d   1      -1.142   0.340   1.171  0.00  0.00     0.039 A 
ENDROOT
BRANCH   4   7
ATOM      7  O   UNL d   1      -0.077  -3.057   0.433  0.00  0.00    -0.526 OA
ATOM      8  H5  UNL d   1       0.463  -3.383  -0.306  0.00  0.00     0.418 HD
ENDBRANCH   4   7
TORSDOF 1
ENDMDL
