MODEL 1
REMARK minimizedAffinity -4.64688492
REMARK minimizedRMSD -1
REMARK  1 active torsions:
REMARK  status: ('A' for Active; 'I' for Inactive)
REMARK    1  A    between atoms: C3_4  and  O_7 
ROOT
ATOM      1  C   UNL d   1      -0.324   0.391   0.057  0.00  0.00    -0.033 A 
ATOM      2  C1  UNL d   1       0.522  -0.255  -0.847  0.00  0.00     0.039 A 
ATOM      3  C2  UNL d   1       0.718  -1.634  -0.759  0.00  0.00    -0.080 A 
ATOM      4  C3  UNL d   1       0.062  -2.356   0.235  0.00  0.00     0.150 A 
ATOM      5  C4  UNL d   1      -0.785  -1.719   1.136  0.00  0.00    -0.007 A 
ATOM      6  C5  UNL d   1      -0.979  -0.342   1.048  0.00  0.00     0.039 A 
ENDROOT
BRANCH   4   7
ATOM      7  O   UNL d   1       0.226  -3.703   0.363  0.00  0.00    -0.526 OA
ATOM      8  H5  UNL d   1       0.861  -4.001  -0.310  0.00  0.00     0.418 HD
ENDBRANCH   4   7
TORSDOF 1
ENDMDL
