MODEL 1
REMARK minimizedAffinity -2.72318649
REMARK minimizedRMSD -1
REMARK  1 active torsions:
REMARK  status: ('A' for Active; 'I' for Inactive)
REMARK    1  A    between atoms: C3_4  and  O_7 
ROOT
ATOM      1  C   UNL d   1      -0.011   0.398   0.240  0.00  0.00    -0.033 A 
ATOM      2  C1  UNL d   1      -1.174   0.376   1.012  0.00  0.00     0.039 A 
ATOM      3  C2  UNL d   1      -1.844  -0.828   1.235  0.00  0.00    -0.080 A 
ATOM      4  C3  UNL d   1      -1.340  -2.003   0.682  0.00  0.00     0.150 A 
ATOM      5  C4  UNL d   1      -0.180  -1.989  -0.084  0.00  0.00    -0.007 A 
ATOM      6  C5  UNL d   1       0.487  -0.785  -0.307  0.00  0.00     0.039 A 
ENDROOT
BRANCH   4   7
ATOM      7  O   UNL d   1      -1.962  -3.202   0.868  0.00  0.00    -0.526 OA
ATOM      8  H5  UNL d   1      -2.766  -3.053   1.394  0.00  0.00     0.418 HD
ENDBRANCH   4   7
TORSDOF 1
ENDMDL
