MODEL 1
REMARK minimizedAffinity -3.58105159
REMARK minimizedRMSD -1
REMARK  1 active torsions:
REMARK  status: ('A' for Active; 'I' for Inactive)
REMARK    1  A    between atoms: C3_4  and  O_7 
ROOT
ATOM      1  C   UNL d   1      -0.747  -3.030   0.138  0.00  0.00    -0.033 A 
ATOM      2  C1  UNL d   1      -1.521  -2.183   0.934  0.00  0.00     0.039 A 
ATOM      3  C2  UNL d   1      -1.183  -0.834   1.055  0.00  0.00    -0.080 A 
ATOM      4  C3  UNL d   1      -0.071  -0.344   0.376  0.00  0.00     0.150 A 
ATOM      5  C4  UNL d   1       0.702  -1.181  -0.422  0.00  0.00    -0.007 A 
ATOM      6  C5  UNL d   1       0.364  -2.528  -0.541  0.00  0.00     0.039 A 
ENDROOT
BRANCH   4   7
ATOM      7  O   UNL d   1       0.300   0.964   0.468  0.00  0.00    -0.526 OA
ATOM      8  H5  UNL d   1      -0.309   1.415   1.076  0.00  0.00     0.418 HD
ENDBRANCH   4   7
TORSDOF 1
ENDMDL
