MODEL 1
REMARK minimizedAffinity -5.55883169
REMARK minimizedRMSD -1
REMARK  1 active torsions:
REMARK  status: ('A' for Active; 'I' for Inactive)
REMARK    1  A    between atoms: C3_4  and  O_7 
ROOT
ATOM      1  C   UNL d   1      -0.020   0.017  -1.261  0.00  0.00    -0.033 A 
ATOM      2  C1  UNL d   1      -0.298   0.199   0.096  0.00  0.00     0.039 A 
ATOM      3  C2  UNL d   1      -0.301  -0.895   0.962  0.00  0.00    -0.080 A 
ATOM      4  C3  UNL d   1      -0.024  -2.164   0.462  0.00  0.00     0.150 A 
ATOM      5  C4  UNL d   1       0.257  -2.353  -0.887  0.00  0.00    -0.007 A 
ATOM      6  C5  UNL d   1       0.259  -1.259  -1.752  0.00  0.00     0.039 A 
ENDROOT
BRANCH   4   7
ATOM      7  O   UNL d   1      -0.021  -3.264   1.268  0.00  0.00    -0.526 OA
ATOM      8  H5  UNL d   1      -0.260  -2.986   2.168  0.00  0.00     0.418 HD
ENDBRANCH   4   7
TORSDOF 1
ENDMDL
