MODEL 1
REMARK minimizedAffinity -4.80462122
REMARK minimizedRMSD -1
REMARK  1 active torsions:
REMARK  status: ('A' for Active; 'I' for Inactive)
REMARK    1  A    between atoms: C3_4  and  O_7 
ROOT
ATOM      1  C   UNL d   1      -0.059  -0.049  -0.351  0.00  0.00    -0.033 A 
ATOM      2  C1  UNL d   1       0.624  -0.993  -1.121  0.00  0.00     0.039 A 
ATOM      3  C2  UNL d   1       0.596  -2.342  -0.762  0.00  0.00    -0.080 A 
ATOM      4  C3  UNL d   1      -0.117  -2.734   0.367  0.00  0.00     0.150 A 
ATOM      5  C4  UNL d   1      -0.803  -1.800   1.137  0.00  0.00    -0.007 A 
ATOM      6  C5  UNL d   1      -0.774  -0.453   0.777  0.00  0.00     0.039 A 
ENDROOT
BRANCH   4   7
ATOM      7  O   UNL d   1      -0.169  -4.038   0.760  0.00  0.00    -0.526 OA
ATOM      8  H5  UNL d   1       0.374  -4.565   0.150  0.00  0.00     0.418 HD
ENDBRANCH   4   7
TORSDOF 1
ENDMDL
