MODEL 1
REMARK minimizedAffinity -3.16334033
REMARK minimizedRMSD -1
REMARK  1 active torsions:
REMARK  status: ('A' for Active; 'I' for Inactive)
REMARK    1  A    between atoms: C3_4  and  O_7 
ROOT
ATOM      1  C   UNL d   1       0.497  -2.686  -0.808  0.00  0.00    -0.033 A 
ATOM      2  C1  UNL d   1      -0.574  -3.105  -0.015  0.00  0.00     0.039 A 
ATOM      3  C2  UNL d   1      -1.312  -2.171   0.714  0.00  0.00    -0.080 A 
ATOM      4  C3  UNL d   1      -0.971  -0.824   0.642  0.00  0.00     0.150 A 
ATOM      5  C4  UNL d   1       0.092  -0.398  -0.148  0.00  0.00    -0.007 A 
ATOM      6  C5  UNL d   1       0.828  -1.332  -0.875  0.00  0.00     0.039 A 
ENDROOT
BRANCH   4   7
ATOM      7  O   UNL d   1      -1.659   0.124   1.340  0.00  0.00    -0.526 OA
ATOM      8  H5  UNL d   1      -2.348  -0.319   1.864  0.00  0.00     0.418 HD
ENDBRANCH   4   7
TORSDOF 1
ENDMDL
