MODEL 1
REMARK minimizedAffinity -3.88769197
REMARK minimizedRMSD -1
REMARK  1 active torsions:
REMARK  status: ('A' for Active; 'I' for Inactive)
REMARK    1  A    between atoms: C3_4  and  O_7 
ROOT
ATOM      1  C   UNL d   1       0.410   0.678  -0.588  0.00  0.00    -0.033 A 
ATOM      2  C1  UNL d   1      -0.555   0.841   0.408  0.00  0.00     0.039 A 
ATOM      3  C2  UNL d   1      -1.218  -0.272   0.929  0.00  0.00    -0.080 A 
ATOM      4  C3  UNL d   1      -0.906  -1.540   0.447  0.00  0.00     0.150 A 
ATOM      5  C4  UNL d   1       0.057  -1.710  -0.542  0.00  0.00    -0.007 A 
ATOM      6  C5  UNL d   1       0.717  -0.598  -1.062  0.00  0.00     0.039 A 
ENDROOT
BRANCH   4   7
ATOM      7  O   UNL d   1      -1.530  -2.656   0.922  0.00  0.00    -0.526 OA
ATOM      8  H5  UNL d   1      -2.190  -2.382   1.580  0.00  0.00     0.418 HD
ENDBRANCH   4   7
TORSDOF 1
ENDMDL
