MODEL 1
REMARK minimizedAffinity -4.69140339
REMARK minimizedRMSD -1
REMARK  1 active torsions:
REMARK  status: ('A' for Active; 'I' for Inactive)
REMARK    1  A    between atoms: C3_4  and  O_7 
ROOT
ATOM      1  C   UNL d   1      -0.390   0.198   0.435  0.00  0.00    -0.033 A 
ATOM      2  C1  UNL d   1       0.445  -0.415  -0.501  0.00  0.00     0.039 A 
ATOM      3  C2  UNL d   1       0.754  -1.772  -0.381  0.00  0.00    -0.080 A 
ATOM      4  C3  UNL d   1       0.220  -2.503   0.676  0.00  0.00     0.150 A 
ATOM      5  C4  UNL d   1      -0.616  -1.900   1.610  0.00  0.00    -0.007 A 
ATOM      6  C5  UNL d   1      -0.922  -0.545   1.490  0.00  0.00     0.039 A 
ENDROOT
BRANCH   4   7
ATOM      7  O   UNL d   1       0.496  -3.829   0.837  0.00  0.00    -0.526 OA
ATOM      8  H5  UNL d   1       1.109  -4.103   0.134  0.00  0.00     0.418 HD
ENDBRANCH   4   7
TORSDOF 1
ENDMDL
