MODEL 1
REMARK minimizedAffinity -5.06287527
REMARK minimizedRMSD -1
REMARK  1 active torsions:
REMARK  status: ('A' for Active; 'I' for Inactive)
REMARK    1  A    between atoms: C3_4  and  O_7 
ROOT
ATOM      1  C   UNL d   1       0.829  -2.054  -0.957  0.00  0.00    -0.033 A 
ATOM      2  C1  UNL d   1       0.639  -0.678  -0.821  0.00  0.00     0.039 A 
ATOM      3  C2  UNL d   1      -0.122  -0.177   0.237  0.00  0.00    -0.080 A 
ATOM      4  C3  UNL d   1      -0.685  -1.062   1.153  0.00  0.00     0.150 A 
ATOM      5  C4  UNL d   1      -0.496  -2.434   1.026  0.00  0.00    -0.007 A 
ATOM      6  C5  UNL d   1       0.263  -2.933  -0.032  0.00  0.00     0.039 A 
ENDROOT
BRANCH   4   7
ATOM      7  O   UNL d   1      -1.439  -0.621   2.199  0.00  0.00    -0.526 OA
ATOM      8  H5  UNL d   1      -1.507   0.347   2.143  0.00  0.00     0.418 HD
ENDBRANCH   4   7
TORSDOF 1
ENDMDL
