MODEL 1
REMARK minimizedAffinity -2.34501863
REMARK minimizedRMSD -1
REMARK  1 active torsions:
REMARK  status: ('A' for Active; 'I' for Inactive)
REMARK    1  A    between atoms: C3_4  and  O_7 
ROOT
ATOM      1  C   UNL d   1      -0.086   0.022  -0.229  0.00  0.00    -0.033 A 
ATOM      2  C1  UNL d   1       0.912  -0.788  -0.774  0.00  0.00     0.039 A 
ATOM      3  C2  UNL d   1       1.012  -2.128  -0.392  0.00  0.00    -0.080 A 
ATOM      4  C3  UNL d   1       0.108  -2.643   0.533  0.00  0.00     0.150 A 
ATOM      5  C4  UNL d   1      -0.891  -1.843   1.076  0.00  0.00    -0.007 A 
ATOM      6  C5  UNL d   1      -0.988  -0.505   0.695  0.00  0.00     0.039 A 
ENDROOT
BRANCH   4   7
ATOM      7  O   UNL d   1       0.168  -3.943   0.939  0.00  0.00    -0.526 OA
ATOM      8  H5  UNL d   1       0.926  -4.367   0.503  0.00  0.00     0.418 HD
ENDBRANCH   4   7
TORSDOF 1
ENDMDL
