MODEL 1
REMARK minimizedAffinity -2.50965786
REMARK minimizedRMSD -1
REMARK  1 active torsions:
REMARK  status: ('A' for Active; 'I' for Inactive)
REMARK    1  A    between atoms: C3_4  and  O_7 
ROOT
ATOM      1  C   UNL d   1       0.097   0.686  -0.933  0.00  0.00    -0.033 A 
ATOM      2  C1  UNL d   1       0.101  -0.446  -1.749  0.00  0.00     0.039 A 
ATOM      3  C2  UNL d   1      -0.270  -1.687  -1.227  0.00  0.00    -0.080 A 
ATOM      4  C3  UNL d   1      -0.643  -1.781   0.111  0.00  0.00     0.150 A 
ATOM      5  C4  UNL d   1      -0.653  -0.657   0.929  0.00  0.00    -0.007 A 
ATOM      6  C5  UNL d   1      -0.281   0.581   0.406  0.00  0.00     0.039 A 
ENDROOT
BRANCH   4   7
ATOM      7  O   UNL d   1      -1.009  -2.971   0.666  0.00  0.00    -0.526 OA
ATOM      8  H5  UNL d   1      -0.926  -3.665  -0.010  0.00  0.00     0.418 HD
ENDBRANCH   4   7
TORSDOF 1
ENDMDL
