MODEL 1
REMARK minimizedAffinity -3.20188594
REMARK minimizedRMSD -1
REMARK  1 active torsions:
REMARK  status: ('A' for Active; 'I' for Inactive)
REMARK    1  A    between atoms: C3_4  and  O_7 
ROOT
ATOM      1  C   UNL d   1      -0.324  -2.682   0.499  0.00  0.00    -0.033 A 
ATOM      2  C1  UNL d   1       0.404  -2.055  -0.513  0.00  0.00     0.039 A 
ATOM      3  C2  UNL d   1       0.323  -0.670  -0.678  0.00  0.00    -0.080 A 
ATOM      4  C3  UNL d   1      -0.487   0.073   0.176  0.00  0.00     0.150 A 
ATOM      5  C4  UNL d   1      -1.212  -0.545   1.189  0.00  0.00    -0.007 A 
ATOM      6  C5  UNL d   1      -1.131  -1.927   1.351  0.00  0.00     0.039 A 
ENDROOT
BRANCH   4   7
ATOM      7  O   UNL d   1      -0.601   1.426   0.051  0.00  0.00    -0.526 OA
ATOM      8  H5  UNL d   1      -0.066   1.711  -0.709  0.00  0.00     0.418 HD
ENDBRANCH   4   7
TORSDOF 1
ENDMDL
