MODEL 1
REMARK minimizedAffinity -3.71180463
REMARK minimizedRMSD -1
REMARK  1 active torsions:
REMARK  status: ('A' for Active; 'I' for Inactive)
REMARK    1  A    between atoms: C3_4  and  O_7 
ROOT
ATOM      1  C   UNL d   1       0.142   0.562  -0.294  0.00  0.00    -0.033 A 
ATOM      2  C1  UNL d   1      -0.664   0.121   0.757  0.00  0.00     0.039 A 
ATOM      3  C2  UNL d   1      -0.696  -1.234   1.093  0.00  0.00    -0.080 A 
ATOM      4  C3  UNL d   1       0.082  -2.136   0.372  0.00  0.00     0.150 A 
ATOM      5  C4  UNL d   1       0.890  -1.702  -0.674  0.00  0.00    -0.007 A 
ATOM      6  C5  UNL d   1       0.920  -0.349  -1.008  0.00  0.00     0.039 A 
ENDROOT
BRANCH   4   7
ATOM      7  O   UNL d   1       0.080  -3.468   0.660  0.00  0.00    -0.526 OA
ATOM      8  H5  UNL d   1      -0.546  -3.625   1.387  0.00  0.00     0.418 HD
ENDBRANCH   4   7
TORSDOF 1
ENDMDL
