MODEL 1
REMARK minimizedAffinity 8.37136364
REMARK minimizedRMSD -1
REMARK  0 active torsions:
REMARK  status: ('A' for Active; 'I' for Inactive)
ROOT
ATOM      1  C   UNL d   1      -5.125   4.848  -4.980  0.00  0.00     0.020 A 
ATOM      2  C1  UNL d   1      -5.995   4.071  -5.745  0.00  0.00     0.020 A 
ATOM      3  C2  UNL d   1      -5.999   2.681  -5.602  0.00  0.00     0.034 A 
ATOM      4  C3  UNL d   1      -5.131   2.065  -4.693  0.00  0.00     0.017 A 
ATOM      5  C4  UNL d   1      -4.259   2.846  -3.926  0.00  0.00     0.017 A 
ATOM      6  C5  UNL d   1      -4.259   4.236  -4.073  0.00  0.00     0.034 A 
ATOM      7 Cl   UNL d   1      -3.160   2.157  -2.783  0.00  0.00    -0.070 Cl
ATOM      8 Cl1  UNL d   1      -5.190   0.343  -4.568  0.00  0.00    -0.070 Cl
ENDROOT
TORSDOF 0
ENDMDL
