MODEL 1
REMARK minimizedAffinity 6.61354065
REMARK minimizedRMSD -1
REMARK  0 active torsions:
REMARK  status: ('A' for Active; 'I' for Inactive)
ROOT
ATOM      1  C   UNL d   1       1.248  -2.043   1.368  0.00  0.00     0.020 A 
ATOM      2  C1  UNL d   1       1.263  -1.456   2.633  0.00  0.00     0.020 A 
ATOM      3  C2  UNL d   1       2.269  -1.786   3.544  0.00  0.00     0.034 A 
ATOM      4  C3  UNL d   1       3.264  -2.704   3.191  0.00  0.00     0.017 A 
ATOM      5  C4  UNL d   1       3.248  -3.292   1.921  0.00  0.00     0.017 A 
ATOM      6  C5  UNL d   1       2.239  -2.959   1.013  0.00  0.00     0.034 A 
ATOM      7 Cl   UNL d   1       4.443  -4.434   1.414  0.00  0.00    -0.070 Cl
ATOM      8 Cl1  UNL d   1       4.478  -3.065   4.367  0.00  0.00    -0.070 Cl
ENDROOT
TORSDOF 0
ENDMDL
