MODEL 1
REMARK minimizedAffinity 8.43424606
REMARK minimizedRMSD -1
REMARK  0 active torsions:
REMARK  status: ('A' for Active; 'I' for Inactive)
ROOT
ATOM      1  C   UNL d   1       5.185  -3.014   5.996  0.00  0.00     0.020 A 
ATOM      2  C1  UNL d   1       5.911  -2.235   5.096  0.00  0.00     0.020 A 
ATOM      3  C2  UNL d   1       5.994  -2.613   3.754  0.00  0.00     0.034 A 
ATOM      4  C3  UNL d   1       5.350  -3.774   3.309  0.00  0.00     0.017 A 
ATOM      5  C4  UNL d   1       4.622  -4.555   4.213  0.00  0.00     0.017 A 
ATOM      6  C5  UNL d   1       4.542  -4.172   5.556  0.00  0.00     0.034 A 
ATOM      7 Cl   UNL d   1       3.801  -6.000   3.738  0.00  0.00    -0.070 Cl
ATOM      8 Cl1  UNL d   1       5.495  -4.181   1.636  0.00  0.00    -0.070 Cl
ENDROOT
TORSDOF 0
ENDMDL
