MODEL 1
REMARK minimizedAffinity -1.08192384
REMARK minimizedRMSD -1
REMARK  0 active torsions:
REMARK  status: ('A' for Active; 'I' for Inactive)
ROOT
ATOM      1  C   UNL d   1       3.197  -4.032   1.111  0.00  0.00     0.020 A 
ATOM      2  C1  UNL d   1       2.030  -3.284   0.963  0.00  0.00     0.020 A 
ATOM      3  C2  UNL d   1       2.076  -2.035   0.341  0.00  0.00     0.034 A 
ATOM      4  C3  UNL d   1       3.292  -1.530  -0.136  0.00  0.00     0.017 A 
ATOM      5  C4  UNL d   1       4.462  -2.282   0.013  0.00  0.00     0.017 A 
ATOM      6  C5  UNL d   1       4.410  -3.533   0.637  0.00  0.00     0.034 A 
ATOM      7 Cl   UNL d   1       5.999  -1.726  -0.549  0.00  0.00    -0.070 Cl
ATOM      8 Cl1  UNL d   1       3.275   0.022  -0.896  0.00  0.00    -0.070 Cl
ENDROOT
TORSDOF 0
ENDMDL
