MODEL 1
REMARK minimizedAffinity 2.63537741
REMARK minimizedRMSD -1
REMARK  0 active torsions:
REMARK  status: ('A' for Active; 'I' for Inactive)
ROOT
ATOM      1  C   UNL d   1       2.177   0.572  -1.249  0.00  0.00     0.020 A 
ATOM      2  C1  UNL d   1       3.398   1.234  -1.122  0.00  0.00     0.020 A 
ATOM      3  C2  UNL d   1       4.510   0.557  -0.617  0.00  0.00     0.034 A 
ATOM      4  C3  UNL d   1       4.404  -0.786  -0.237  0.00  0.00     0.017 A 
ATOM      5  C4  UNL d   1       3.179  -1.450  -0.365  0.00  0.00     0.017 A 
ATOM      6  C5  UNL d   1       2.068  -0.767  -0.872  0.00  0.00     0.034 A 
ATOM      7 Cl   UNL d   1       2.971  -3.106   0.082  0.00  0.00    -0.070 Cl
ATOM      8 Cl1  UNL d   1       5.820  -1.561   0.379  0.00  0.00    -0.070 Cl
ENDROOT
TORSDOF 0
ENDMDL
