MODEL 1
REMARK minimizedAffinity 0.309707761
REMARK minimizedRMSD -1
REMARK  0 active torsions:
REMARK  status: ('A' for Active; 'I' for Inactive)
ROOT
ATOM      1  C   UNL d   1       3.278  -4.073   0.902  0.00  0.00     0.020 A 
ATOM      2  C1  UNL d   1       2.542  -4.051   2.086  0.00  0.00     0.020 A 
ATOM      3  C2  UNL d   1       1.676  -2.988   2.350  0.00  0.00     0.034 A 
ATOM      4  C3  UNL d   1       1.542  -1.943   1.429  0.00  0.00     0.017 A 
ATOM      5  C4  UNL d   1       2.281  -1.966   0.240  0.00  0.00     0.017 A 
ATOM      6  C5  UNL d   1       3.147  -3.033  -0.019  0.00  0.00     0.034 A 
ATOM      7 Cl   UNL d   1       2.170  -0.713  -0.945  0.00  0.00    -0.070 Cl
ATOM      8 Cl1  UNL d   1       0.452  -0.661   1.820  0.00  0.00    -0.070 Cl
ENDROOT
TORSDOF 0
ENDMDL
