MODEL 1
REMARK minimizedAffinity 12.6349478
REMARK minimizedRMSD -1
REMARK  0 active torsions:
REMARK  status: ('A' for Active; 'I' for Inactive)
ROOT
ATOM      1  C   UNL d   1       1.907   0.635  -1.080  0.00  0.00     0.020 A 
ATOM      2  C1  UNL d   1       2.971   1.486  -0.784  0.00  0.00     0.020 A 
ATOM      3  C2  UNL d   1       4.223   0.955  -0.470  0.00  0.00     0.034 A 
ATOM      4  C3  UNL d   1       4.415  -0.432  -0.450  0.00  0.00     0.017 A 
ATOM      5  C4  UNL d   1       3.346  -1.285  -0.747  0.00  0.00     0.017 A 
ATOM      6  C5  UNL d   1       2.094  -0.747  -1.061  0.00  0.00     0.034 A 
ATOM      7 Cl   UNL d   1       3.505  -3.006  -0.742  0.00  0.00    -0.070 Cl
ATOM      8 Cl1  UNL d   1       5.990  -1.020  -0.053  0.00  0.00    -0.070 Cl
ENDROOT
TORSDOF 0
ENDMDL
