MODEL 1
REMARK minimizedAffinity 14.4620132
REMARK minimizedRMSD -1
REMARK  0 active torsions:
REMARK  status: ('A' for Active; 'I' for Inactive)
ROOT
ATOM      1  C   UNL d   1       0.484  -1.144   2.922  0.00  0.00     0.020 A 
ATOM      2  C1  UNL d   1       0.529   0.235   2.721  0.00  0.00     0.020 A 
ATOM      3  C2  UNL d   1       1.263   0.763   1.657  0.00  0.00     0.034 A 
ATOM      4  C3  UNL d   1       1.956  -0.089   0.790  0.00  0.00     0.017 A 
ATOM      5  C4  UNL d   1       1.911  -1.473   0.991  0.00  0.00     0.017 A 
ATOM      6  C5  UNL d   1       1.174  -1.996   2.058  0.00  0.00     0.034 A 
ATOM      7 Cl   UNL d   1       2.741  -2.588  -0.037  0.00  0.00    -0.070 Cl
ATOM      8 Cl1  UNL d   1       2.844   0.632  -0.505  0.00  0.00    -0.070 Cl
ENDROOT
TORSDOF 0
ENDMDL
