MODEL 1
REMARK minimizedAffinity 0.0662182942
REMARK minimizedRMSD -1
REMARK  0 active torsions:
REMARK  status: ('A' for Active; 'I' for Inactive)
ROOT
ATOM      1  C   UNL d   1       1.138  -3.364   2.726  0.00  0.00     0.020 A 
ATOM      2  C1  UNL d   1      -0.055  -2.933   3.306  0.00  0.00     0.020 A 
ATOM      3  C2  UNL d   1      -0.662  -1.757   2.862  0.00  0.00     0.034 A 
ATOM      4  C3  UNL d   1      -0.077  -1.007   1.835  0.00  0.00     0.017 A 
ATOM      5  C4  UNL d   1       1.120  -1.440   1.254  0.00  0.00     0.017 A 
ATOM      6  C5  UNL d   1       1.724  -2.619   1.702  0.00  0.00     0.034 A 
ATOM      7 Cl   UNL d   1       1.902  -0.568  -0.017  0.00  0.00    -0.070 Cl
ATOM      8 Cl1  UNL d   1      -0.883   0.438   1.336  0.00  0.00    -0.070 Cl
ENDROOT
TORSDOF 0
ENDMDL
