MODEL 1
REMARK minimizedAffinity 6.54564476
REMARK minimizedRMSD -1
REMARK  0 active torsions:
REMARK  status: ('A' for Active; 'I' for Inactive)
ROOT
ATOM      1  C   UNL d   1      -2.472   0.075   2.248  0.00  0.00     0.020 A 
ATOM      2  C1  UNL d   1      -2.248   0.732   1.038  0.00  0.00     0.020 A 
ATOM      3  C2  UNL d   1      -1.062   0.514   0.334  0.00  0.00     0.034 A 
ATOM      4  C3  UNL d   1      -0.095  -0.363   0.839  0.00  0.00     0.017 A 
ATOM      5  C4  UNL d   1      -0.320  -1.022   2.053  0.00  0.00     0.017 A 
ATOM      6  C5  UNL d   1      -1.509  -0.800   2.754  0.00  0.00     0.034 A 
ATOM      7 Cl   UNL d   1       0.826  -2.119   2.739  0.00  0.00    -0.070 Cl
ATOM      8 Cl1  UNL d   1       1.348  -0.585  -0.085  0.00  0.00    -0.070 Cl
ENDROOT
TORSDOF 0
ENDMDL
