MODEL 1
REMARK minimizedAffinity 3.42708945
REMARK minimizedRMSD -1
REMARK  0 active torsions:
REMARK  status: ('A' for Active; 'I' for Inactive)
ROOT
ATOM      1  C   UNL d   1      -2.558  -0.296  -0.310  0.00  0.00     0.020 A 
ATOM      2  C1  UNL d   1      -3.005  -0.066   0.991  0.00  0.00     0.020 A 
ATOM      3  C2  UNL d   1      -2.089  -0.002   2.043  0.00  0.00     0.034 A 
ATOM      4  C3  UNL d   1      -0.722  -0.170   1.796  0.00  0.00     0.017 A 
ATOM      5  C4  UNL d   1      -0.274  -0.402   0.491  0.00  0.00     0.017 A 
ATOM      6  C5  UNL d   1      -1.196  -0.464  -0.559  0.00  0.00     0.034 A 
ATOM      7 Cl   UNL d   1       1.398  -0.618   0.109  0.00  0.00    -0.070 Cl
ATOM      8 Cl1  UNL d   1       0.355  -0.079   3.145  0.00  0.00    -0.070 Cl
ENDROOT
TORSDOF 0
ENDMDL
