MODEL 1
REMARK minimizedAffinity -2.35912466
REMARK minimizedRMSD -1
REMARK  0 active torsions:
REMARK  status: ('A' for Active; 'I' for Inactive)
ROOT
ATOM      1  C   UNL d   1      -0.849   2.285   1.744  0.00  0.00     0.172 C 
ATOM      2  N   UNL d   1      -0.503   1.305   0.742  0.00  0.00    -0.070 N 
ATOM      3  C1  UNL d   1      -0.200  -0.009   0.981  0.00  0.00    -0.004 A 
ATOM      4  C2  UNL d   1       0.071  -0.607  -0.231  0.00  0.00    -0.047 A 
ATOM      5  C3  UNL d   1      -0.074   0.382  -1.233  0.00  0.00    -0.047 A 
ATOM      6  C4  UNL d   1      -0.430   1.556  -0.603  0.00  0.00    -0.004 A 
ENDROOT
TORSDOF 0
ENDMDL
