MODEL 1
REMARK minimizedAffinity -2.8307004
REMARK minimizedRMSD -1
REMARK  0 active torsions:
REMARK  status: ('A' for Active; 'I' for Inactive)
ROOT
ATOM      1  C   UNL d   1       0.499  -0.990  -0.872  0.00  0.00     0.172 C 
ATOM      2  N   UNL d   1       0.174   0.050   0.075  0.00  0.00    -0.070 N 
ATOM      3  C1  UNL d   1      -0.309   1.293  -0.239  0.00  0.00    -0.004 A 
ATOM      4  C2  UNL d   1      -0.488   1.985   0.939  0.00  0.00    -0.047 A 
ATOM      5  C3  UNL d   1      -0.099   1.130   1.997  0.00  0.00    -0.047 A 
ATOM      6  C4  UNL d   1       0.307  -0.061   1.434  0.00  0.00    -0.004 A 
ENDROOT
TORSDOF 0
ENDMDL
