MODEL 1
REMARK minimizedAffinity -3.0004859
REMARK minimizedRMSD -1
REMARK  0 active torsions:
REMARK  status: ('A' for Active; 'I' for Inactive)
ROOT
ATOM      1  C   UNL d   1      -1.874   2.042   0.785  0.00  0.00     0.172 C 
ATOM      2  N   UNL d   1      -0.874   1.299   0.055  0.00  0.00    -0.070 N 
ATOM      3  C1  UNL d   1      -0.419   0.047   0.373  0.00  0.00    -0.004 A 
ATOM      4  C2  UNL d   1       0.526  -0.309  -0.564  0.00  0.00    -0.047 A 
ATOM      5  C3  UNL d   1       0.644   0.766  -1.477  0.00  0.00    -0.047 A 
ATOM      6  C4  UNL d   1      -0.234   1.748  -1.070  0.00  0.00    -0.004 A 
ENDROOT
TORSDOF 0
ENDMDL
