MODEL 1
REMARK minimizedAffinity -3.94475007
REMARK minimizedRMSD -1
REMARK  0 active torsions:
REMARK  status: ('A' for Active; 'I' for Inactive)
ROOT
ATOM      1  C   UNL d   1       0.948  -0.835  -0.679  0.00  0.00     0.172 C 
ATOM      2  N   UNL d   1       0.371   0.070   0.286  0.00  0.00    -0.070 N 
ATOM      3  C1  UNL d   1       0.816   0.260   1.567  0.00  0.00    -0.004 A 
ATOM      4  C2  UNL d   1       0.002   1.201   2.161  0.00  0.00    -0.047 A 
ATOM      5  C3  UNL d   1      -0.965   1.590   1.204  0.00  0.00    -0.047 A 
ATOM      6  C4  UNL d   1      -0.713   0.874   0.052  0.00  0.00    -0.004 A 
ENDROOT
TORSDOF 0
ENDMDL
