MODEL 1
REMARK minimizedAffinity -3.47711825
REMARK minimizedRMSD -1
REMARK  0 active torsions:
REMARK  status: ('A' for Active; 'I' for Inactive)
ROOT
ATOM      1  C   UNL d   1      -0.264  -0.137  -0.913  0.00  0.00     0.172 C 
ATOM      2  N   UNL d   1      -0.433   0.825   0.151  0.00  0.00    -0.070 N 
ATOM      3  C1  UNL d   1      -0.154   0.609   1.474  0.00  0.00    -0.004 A 
ATOM      4  C2  UNL d   1      -0.448   1.767   2.162  0.00  0.00    -0.047 A 
ATOM      5  C3  UNL d   1      -0.921   2.711   1.220  0.00  0.00    -0.047 A 
ATOM      6  C4  UNL d   1      -0.901   2.101  -0.017  0.00  0.00    -0.004 A 
ENDROOT
TORSDOF 0
ENDMDL
