MODEL 1
REMARK minimizedAffinity -3.02698803
REMARK minimizedRMSD -1
REMARK  0 active torsions:
REMARK  status: ('A' for Active; 'I' for Inactive)
ROOT
ATOM      1  C   UNL d   1       0.106   0.372  -0.460  0.00  0.00     0.172 C 
ATOM      2  N   UNL d   1      -0.273   1.390   0.492  0.00  0.00    -0.070 N 
ATOM      3  C1  UNL d   1      -1.538   1.882   0.674  0.00  0.00    -0.004 A 
ATOM      4  C2  UNL d   1      -1.481   2.833   1.669  0.00  0.00    -0.047 A 
ATOM      5  C3  UNL d   1      -0.136   2.917   2.099  0.00  0.00    -0.047 A 
ATOM      6  C4  UNL d   1       0.591   2.013   1.354  0.00  0.00    -0.004 A 
ENDROOT
TORSDOF 0
ENDMDL
