MODEL 1
REMARK minimizedAffinity 22.2192116
REMARK minimizedRMSD -1
REMARK  0 active torsions:
REMARK  status: ('A' for Active; 'I' for Inactive)
ROOT
ATOM      1  C   UNL d   1       1.286  -1.446   3.891  0.00  0.00     0.124 A 
ATOM      2  C1  UNL d   1       1.595  -1.638   2.552  0.00  0.00     0.062 A 
ATOM      3  C2  UNL d   1       2.019  -0.567   1.771  0.00  0.00     0.162 A 
ATOM      4  C3  UNL d   1       2.138   0.706   2.327  0.00  0.00    -0.034 A 
ATOM      5  C4  UNL d   1       1.824   0.892   3.675  0.00  0.00     0.162 A 
ATOM      6  C5  UNL d   1       1.400  -0.182   4.452  0.00  0.00     0.062 A 
ATOM      7  F   UNL d   1       1.102   0.006   5.745  0.00  0.00    -0.097 F 
ATOM      8  F1  UNL d   1       1.927   2.103   4.242  0.00  0.00    -0.096 F 
ATOM      9  I   UNL d   1       2.771   2.310   1.163  0.00  0.00    -0.060 I 
ATOM     10  F2  UNL d   1       2.311  -0.782   0.479  0.00  0.00    -0.096 F 
ATOM     11  F3  UNL d   1       1.483  -2.859   2.008  0.00  0.00    -0.097 F 
ATOM     12  F4  UNL d   1       0.877  -2.478   4.641  0.00  0.00    -0.092 F 
ENDROOT
TORSDOF 0
ENDMDL
