MODEL 1
REMARK minimizedAffinity 12.9588022
REMARK minimizedRMSD -1
REMARK  0 active torsions:
REMARK  status: ('A' for Active; 'I' for Inactive)
ROOT
ATOM      1  C   UNL d   1       1.590  -0.152   3.522  0.00  0.00     0.124 A 
ATOM      2  C1  UNL d   1       1.751   1.007   2.776  0.00  0.00     0.062 A 
ATOM      3  C2  UNL d   1       1.746   0.950   1.385  0.00  0.00     0.162 A 
ATOM      4  C3  UNL d   1       1.578  -0.271   0.731  0.00  0.00    -0.034 A 
ATOM      5  C4  UNL d   1       1.417  -1.432   1.489  0.00  0.00     0.162 A 
ATOM      6  C5  UNL d   1       1.423  -1.370   2.879  0.00  0.00     0.062 A 
ATOM      7  F   UNL d   1       1.268  -2.491   3.598  0.00  0.00    -0.097 F 
ATOM      8  F1  UNL d   1       1.253  -2.622   0.893  0.00  0.00    -0.096 F 
ATOM      9  I   UNL d   1       1.569  -0.360  -1.348  0.00  0.00    -0.060 I 
ATOM     10  F2  UNL d   1       1.904   2.086   0.689  0.00  0.00    -0.096 F 
ATOM     11  F3  UNL d   1       1.914   2.185   3.395  0.00  0.00    -0.097 F 
ATOM     12  F4  UNL d   1       1.597  -0.095   4.860  0.00  0.00    -0.092 F 
ENDROOT
TORSDOF 0
ENDMDL
