MODEL 1
REMARK minimizedAffinity 18.668829
REMARK minimizedRMSD -1
REMARK  0 active torsions:
REMARK  status: ('A' for Active; 'I' for Inactive)
ROOT
ATOM      1  C   UNL d   1       2.422  -2.226  -1.078  0.00  0.00     0.124 A 
ATOM      2  C1  UNL d   1       3.042  -0.999  -0.886  0.00  0.00     0.062 A 
ATOM      3  C2  UNL d   1       3.797  -0.429  -1.907  0.00  0.00     0.162 A 
ATOM      4  C3  UNL d   1       3.935  -1.084  -3.131  0.00  0.00    -0.034 A 
ATOM      5  C4  UNL d   1       3.309  -2.318  -3.316  0.00  0.00     0.162 A 
ATOM      6  C5  UNL d   1       2.556  -2.884  -2.293  0.00  0.00     0.062 A 
ATOM      7  F   UNL d   1       1.958  -4.069  -2.480  0.00  0.00    -0.097 F 
ATOM      8  F1  UNL d   1       3.421  -2.975  -4.480  0.00  0.00    -0.096 F 
ATOM      9  I   UNL d   1       5.063  -0.234  -4.660  0.00  0.00    -0.060 I 
ATOM     10  F2  UNL d   1       4.385   0.758  -1.693  0.00  0.00    -0.096 F 
ATOM     11  F3  UNL d   1       2.915  -0.362   0.287  0.00  0.00    -0.097 F 
ATOM     12  F4  UNL d   1       1.698  -2.773  -0.094  0.00  0.00    -0.092 F 
ENDROOT
TORSDOF 0
ENDMDL
