MODEL 1
REMARK minimizedAffinity 24.8645229
REMARK minimizedRMSD -1
REMARK  0 active torsions:
REMARK  status: ('A' for Active; 'I' for Inactive)
ROOT
ATOM      1  C   UNL d   1       2.596  -0.704   1.034  0.00  0.00     0.124 A 
ATOM      2  C1  UNL d   1       1.803   0.329   1.514  0.00  0.00     0.062 A 
ATOM      3  C2  UNL d   1       1.893   1.599   0.952  0.00  0.00     0.162 A 
ATOM      4  C3  UNL d   1       2.781   1.844  -0.096  0.00  0.00    -0.034 A 
ATOM      5  C4  UNL d   1       3.576   0.800  -0.572  0.00  0.00     0.162 A 
ATOM      6  C5  UNL d   1       3.481  -0.468  -0.008  0.00  0.00     0.062 A 
ATOM      7  F   UNL d   1       4.248  -1.465  -0.472  0.00  0.00    -0.097 F 
ATOM      8  F1  UNL d   1       4.439   1.000  -1.579  0.00  0.00    -0.096 F 
ATOM      9  I   UNL d   1       2.920   3.742  -0.938  0.00  0.00    -0.060 I 
ATOM     10  F2  UNL d   1       1.115   2.579   1.435  0.00  0.00    -0.096 F 
ATOM     11  F3  UNL d   1       0.947   0.104   2.521  0.00  0.00    -0.097 F 
ATOM     12  F4  UNL d   1       2.507  -1.925   1.577  0.00  0.00    -0.092 F 
ENDROOT
TORSDOF 0
ENDMDL
