MODEL 1
REMARK minimizedAffinity 10.8721132
REMARK minimizedRMSD -1
REMARK  0 active torsions:
REMARK  status: ('A' for Active; 'I' for Inactive)
ROOT
ATOM      1  C   UNL d   1      -1.930  -1.065   0.917  0.00  0.00     0.124 A 
ATOM      2  C1  UNL d   1      -2.127  -2.436   1.002  0.00  0.00     0.062 A 
ATOM      3  C2  UNL d   1      -1.157  -3.314   0.526  0.00  0.00     0.162 A 
ATOM      4  C3  UNL d   1       0.021  -2.822  -0.038  0.00  0.00    -0.034 A 
ATOM      5  C4  UNL d   1       0.212  -1.442  -0.121  0.00  0.00     0.162 A 
ATOM      6  C5  UNL d   1      -0.761  -0.569   0.356  0.00  0.00     0.062 A 
ATOM      7  F   UNL d   1      -0.569   0.755   0.274  0.00  0.00    -0.097 F 
ATOM      8  F1  UNL d   1       1.332  -0.936  -0.657  0.00  0.00    -0.096 F 
ATOM      9  I   UNL d   1       1.474  -4.131  -0.750  0.00  0.00    -0.060 I 
ATOM     10  F2  UNL d   1      -1.374  -4.634   0.621  0.00  0.00    -0.096 F 
ATOM     11  F3  UNL d   1      -3.255  -2.918   1.542  0.00  0.00    -0.097 F 
ATOM     12  F4  UNL d   1      -2.865  -0.223   1.375  0.00  0.00    -0.092 F 
ENDROOT
TORSDOF 0
ENDMDL
