MODEL 1
REMARK minimizedAffinity 6.3819313
REMARK minimizedRMSD -1
REMARK  0 active torsions:
REMARK  status: ('A' for Active; 'I' for Inactive)
ROOT
ATOM      1  C   UNL d   1       1.051   0.911   0.713  0.00  0.00     0.124 A 
ATOM      2  C1  UNL d   1      -0.120   0.210   0.965  0.00  0.00     0.062 A 
ATOM      3  C2  UNL d   1      -0.070  -1.040   1.575  0.00  0.00     0.162 A 
ATOM      4  C3  UNL d   1       1.155  -1.598   1.938  0.00  0.00    -0.034 A 
ATOM      5  C4  UNL d   1       2.329  -0.888   1.681  0.00  0.00     0.162 A 
ATOM      6  C5  UNL d   1       2.274   0.361   1.071  0.00  0.00     0.062 A 
ATOM      7  F   UNL d   1       3.407   1.037   0.829  0.00  0.00    -0.097 F 
ATOM      8  F1  UNL d   1       3.525  -1.394   2.017  0.00  0.00    -0.096 F 
ATOM      9  I   UNL d   1       1.234  -3.467   2.850  0.00  0.00    -0.060 I 
ATOM     10  F2  UNL d   1      -1.218  -1.695   1.806  0.00  0.00    -0.096 F 
ATOM     11  F3  UNL d   1      -1.303   0.738   0.620  0.00  0.00    -0.097 F 
ATOM     12  F4  UNL d   1       1.001   2.113   0.126  0.00  0.00    -0.092 F 
ENDROOT
TORSDOF 0
ENDMDL
