MODEL 1
REMARK minimizedAffinity 12.0395994
REMARK minimizedRMSD -1
REMARK  0 active torsions:
REMARK  status: ('A' for Active; 'I' for Inactive)
ROOT
ATOM      1  C   UNL d   1       0.449   0.254   1.483  0.00  0.00     0.124 A 
ATOM      2  C1  UNL d   1       1.510   1.148   1.448  0.00  0.00     0.062 A 
ATOM      3  C2  UNL d   1       2.814   0.681   1.312  0.00  0.00     0.162 A 
ATOM      4  C3  UNL d   1       3.065  -0.687   1.208  0.00  0.00    -0.034 A 
ATOM      5  C4  UNL d   1       1.993  -1.580   1.244  0.00  0.00     0.162 A 
ATOM      6  C5  UNL d   1       0.691  -1.109   1.381  0.00  0.00     0.062 A 
ATOM      7  F   UNL d   1      -0.333  -1.974   1.414  0.00  0.00    -0.097 F 
ATOM      8  F1  UNL d   1       2.198  -2.902   1.147  0.00  0.00    -0.096 F 
ATOM      9  I   UNL d   1       5.014  -1.388   1.004  0.00  0.00    -0.060 I 
ATOM     10  F2  UNL d   1       3.820   1.568   1.282  0.00  0.00    -0.096 F 
ATOM     11  F3  UNL d   1       1.279   2.465   1.548  0.00  0.00    -0.097 F 
ATOM     12  F4  UNL d   1      -0.805   0.706   1.615  0.00  0.00    -0.092 F 
ENDROOT
TORSDOF 0
ENDMDL
