MODEL 1
REMARK minimizedAffinity 4.79735518
REMARK minimizedRMSD -1
REMARK  0 active torsions:
REMARK  status: ('A' for Active; 'I' for Inactive)
ROOT
ATOM      1  C   UNL d   1       1.276   0.356   2.156  0.00  0.00     0.124 A 
ATOM      2  C1  UNL d   1       1.552  -0.992   1.972  0.00  0.00     0.062 A 
ATOM      3  C2  UNL d   1       1.630  -1.847   3.068  0.00  0.00     0.162 A 
ATOM      4  C3  UNL d   1       1.431  -1.356   4.358  0.00  0.00    -0.034 A 
ATOM      5  C4  UNL d   1       1.155   0.001   4.535  0.00  0.00     0.162 A 
ATOM      6  C5  UNL d   1       1.078   0.851   3.437  0.00  0.00     0.062 A 
ATOM      7  F   UNL d   1       0.811   2.153   3.616  0.00  0.00    -0.097 F 
ATOM      8  F1  UNL d   1       0.959   0.506   5.762  0.00  0.00    -0.096 F 
ATOM      9  I   UNL d   1       1.548  -2.630   6.000  0.00  0.00    -0.060 I 
ATOM     10  F2  UNL d   1       1.899  -3.144   2.861  0.00  0.00    -0.096 F 
ATOM     11  F3  UNL d   1       1.745  -1.473   0.735  0.00  0.00    -0.097 F 
ATOM     12  F4  UNL d   1       1.203   1.176   1.099  0.00  0.00    -0.092 F 
ENDROOT
TORSDOF 0
ENDMDL
