MODEL 1
REMARK minimizedAffinity 2.48289633
REMARK minimizedRMSD -1
REMARK  0 active torsions:
REMARK  status: ('A' for Active; 'I' for Inactive)
ROOT
ATOM      1  C   UNL d   1       2.210   1.904   1.449  0.00  0.00     0.124 A 
ATOM      2  C1  UNL d   1       2.761   0.650   1.674  0.00  0.00     0.062 A 
ATOM      3  C2  UNL d   1       1.947  -0.478   1.707  0.00  0.00     0.162 A 
ATOM      4  C3  UNL d   1       0.570  -0.358   1.513  0.00  0.00    -0.034 A 
ATOM      5  C4  UNL d   1       0.023   0.906   1.288  0.00  0.00     0.162 A 
ATOM      6  C5  UNL d   1       0.841   2.030   1.256  0.00  0.00     0.062 A 
ATOM      7  F   UNL d   1       0.306   3.241   1.038  0.00  0.00    -0.097 F 
ATOM      8  F1  UNL d   1      -1.297   1.057   1.098  0.00  0.00    -0.096 F 
ATOM      9  I   UNL d   1      -0.651  -2.042   1.562  0.00  0.00    -0.060 I 
ATOM     10  F2  UNL d   1       2.507  -1.676   1.927  0.00  0.00    -0.096 F 
ATOM     11  F3  UNL d   1       4.083   0.525   1.862  0.00  0.00    -0.097 F 
ATOM     12  F4  UNL d   1       2.996   2.987   1.419  0.00  0.00    -0.092 F 
ENDROOT
TORSDOF 0
ENDMDL
