MODEL 1
REMARK minimizedAffinity -1.23943126
REMARK minimizedRMSD -1
REMARK  0 active torsions:
REMARK  status: ('A' for Active; 'I' for Inactive)
ROOT
ATOM      1  C   UNL d   1      -0.585   0.663   2.822  0.00  0.00     0.172 C 
ATOM      2  N   UNL d   1       0.100   0.166   1.652  0.00  0.00    -0.070 N 
ATOM      3  C1  UNL d   1       1.369  -0.350   1.629  0.00  0.00    -0.004 A 
ATOM      4  C2  UNL d   1       1.654  -0.710   0.330  0.00  0.00    -0.047 A 
ATOM      5  C3  UNL d   1       0.518  -0.400  -0.455  0.00  0.00    -0.047 A 
ATOM      6  C4  UNL d   1      -0.429   0.141   0.389  0.00  0.00    -0.004 A 
ENDROOT
TORSDOF 0
ENDMDL
