MODEL 1
REMARK minimizedAffinity -3.60466528
REMARK minimizedRMSD -1
REMARK  0 active torsions:
REMARK  status: ('A' for Active; 'I' for Inactive)
ROOT
ATOM      1  C   UNL d   1       0.328  -0.626  -0.040  0.00  0.00     0.172 C 
ATOM      2  N   UNL d   1      -0.060   0.245   1.045  0.00  0.00    -0.070 N 
ATOM      3  C1  UNL d   1      -1.297   0.289   1.629  0.00  0.00    -0.004 A 
ATOM      4  C2  UNL d   1      -1.262   1.245   2.621  0.00  0.00    -0.047 A 
ATOM      5  C3  UNL d   1       0.042   1.795   2.633  0.00  0.00    -0.047 A 
ATOM      6  C4  UNL d   1       0.765   1.158   1.647  0.00  0.00    -0.004 A 
ENDROOT
TORSDOF 0
ENDMDL
