MODEL 1
REMARK minimizedAffinity -0.535437107
REMARK minimizedRMSD -1
REMARK  0 active torsions:
REMARK  status: ('A' for Active; 'I' for Inactive)
ROOT
ATOM      1  C   UNL d   1      -1.667  -1.073  -0.470  0.00  0.00     0.172 C 
ATOM      2  N   UNL d   1      -0.433  -0.621   0.129  0.00  0.00    -0.070 N 
ATOM      3  C1  UNL d   1       0.720  -0.322  -0.547  0.00  0.00    -0.004 A 
ATOM      4  C2  UNL d   1       1.662   0.071   0.378  0.00  0.00    -0.047 A 
ATOM      5  C3  UNL d   1       1.055   0.006   1.655  0.00  0.00    -0.047 A 
ATOM      6  C4  UNL d   1      -0.242  -0.425   1.471  0.00  0.00    -0.004 A 
ENDROOT
TORSDOF 0
ENDMDL
