MODEL 1
REMARK minimizedAffinity -2.86748028
REMARK minimizedRMSD -1
REMARK  0 active torsions:
REMARK  status: ('A' for Active; 'I' for Inactive)
ROOT
ATOM      1  C   UNL d   1       1.276   0.514   2.352  0.00  0.00     0.172 C 
ATOM      2  N   UNL d   1       1.349   0.197   0.945  0.00  0.00    -0.070 N 
ATOM      3  C1  UNL d   1       0.833   0.956  -0.071  0.00  0.00    -0.004 A 
ATOM      4  C2  UNL d   1       1.110   0.315  -1.259  0.00  0.00    -0.047 A 
ATOM      5  C3  UNL d   1       1.816  -0.871  -0.946  0.00  0.00    -0.047 A 
ATOM      6  C4  UNL d   1       1.950  -0.918   0.426  0.00  0.00    -0.004 A 
ENDROOT
TORSDOF 0
ENDMDL
