MODEL 1
REMARK minimizedAffinity -3.57715917
REMARK minimizedRMSD -1
REMARK  0 active torsions:
REMARK  status: ('A' for Active; 'I' for Inactive)
ROOT
ATOM      1  C   UNL d   1      -1.808  -0.368  -0.134  0.00  0.00     0.172 C 
ATOM      2  N   UNL d   1      -2.211  -1.627  -0.714  0.00  0.00    -0.070 N 
ATOM      3  C1  UNL d   1      -1.365  -2.617  -1.138  0.00  0.00    -0.004 A 
ATOM      4  C2  UNL d   1      -2.136  -3.650  -1.626  0.00  0.00    -0.047 A 
ATOM      5  C3  UNL d   1      -3.492  -3.267  -1.491  0.00  0.00    -0.047 A 
ATOM      6  C4  UNL d   1      -3.509  -2.010  -0.924  0.00  0.00    -0.004 A 
ENDROOT
TORSDOF 0
ENDMDL
