MODEL 1
REMARK minimizedAffinity -3.45233727
REMARK minimizedRMSD -1
REMARK  0 active torsions:
REMARK  status: ('A' for Active; 'I' for Inactive)
ROOT
ATOM      1  C   UNL d   1      -0.711   1.690   3.013  0.00  0.00     0.172 C 
ATOM      2  N   UNL d   1      -0.013   0.989   1.961  0.00  0.00    -0.070 N 
ATOM      3  C1  UNL d   1       1.269   0.512   2.033  0.00  0.00    -0.004 A 
ATOM      4  C2  UNL d   1       1.563  -0.091   0.830  0.00  0.00    -0.047 A 
ATOM      5  C3  UNL d   1       0.419   0.028   0.005  0.00  0.00    -0.047 A 
ATOM      6  C4  UNL d   1      -0.541   0.701   0.731  0.00  0.00    -0.004 A 
ENDROOT
TORSDOF 0
ENDMDL
