MODEL 1
REMARK minimizedAffinity 13.7114859
REMARK minimizedRMSD -1
REMARK  0 active torsions:
REMARK  status: ('A' for Active; 'I' for Inactive)
ROOT
ATOM      1  C   UNL d   1       2.013   5.384  -1.455  0.00  0.00     0.077 C 
ATOM      2  C1  UNL d   1       3.372   5.605  -2.049  0.00  0.00    -0.074 A 
ATOM      3  C2  UNL d   1       4.495   5.778  -1.232  0.00  0.00    -0.005 A 
ATOM      4  C3  UNL d   1       5.754   5.972  -1.800  0.00  0.00     0.006 A 
ATOM      5  C4  UNL d   1       5.904   5.996  -3.187  0.00  0.00    -0.005 A 
ATOM      6  C5  UNL d   1       4.793   5.824  -4.019  0.00  0.00    -0.074 A 
ATOM      7  C6  UNL d   1       4.938   5.837  -5.512  0.00  0.00     0.077 C 
ATOM      8  C7  UNL d   1       3.532   5.622  -3.442  0.00  0.00    -0.001 A 
ENDROOT
TORSDOF 0
ENDMDL
