MODEL 1
REMARK minimizedAffinity -0.949105501
REMARK minimizedRMSD -1
REMARK  0 active torsions:
REMARK  status: ('A' for Active; 'I' for Inactive)
ROOT
ATOM      1  C   UNL d   1       3.021  -1.586  -3.374  0.00  0.00     0.077 C 
ATOM      2  C1  UNL d   1       3.958  -0.849  -4.284  0.00  0.00    -0.074 A 
ATOM      3  C2  UNL d   1       5.140  -1.446  -4.735  0.00  0.00    -0.005 A 
ATOM      4  C3  UNL d   1       5.997  -0.751  -5.589  0.00  0.00     0.006 A 
ATOM      5  C4  UNL d   1       5.681   0.545  -6.000  0.00  0.00    -0.005 A 
ATOM      6  C5  UNL d   1       4.503   1.157  -5.560  0.00  0.00    -0.074 A 
ATOM      7  C6  UNL d   1       4.144   2.545  -6.000  0.00  0.00     0.077 C 
ATOM      8  C7  UNL d   1       3.644   0.450  -4.708  0.00  0.00    -0.001 A 
ENDROOT
TORSDOF 0
ENDMDL
