MODEL 1
REMARK minimizedAffinity 8.79521179
REMARK minimizedRMSD -1
REMARK  0 active torsions:
REMARK  status: ('A' for Active; 'I' for Inactive)
ROOT
ATOM      1  C   UNL d   1       1.236  -0.296   1.861  0.00  0.00     0.077 C 
ATOM      2  C1  UNL d   1       1.279  -1.550   2.682  0.00  0.00    -0.074 A 
ATOM      3  C2  UNL d   1       0.714  -1.592   3.961  0.00  0.00    -0.005 A 
ATOM      4  C3  UNL d   1       0.754  -2.769   4.709  0.00  0.00     0.006 A 
ATOM      5  C4  UNL d   1       1.358  -3.913   4.187  0.00  0.00    -0.005 A 
ATOM      6  C5  UNL d   1       1.927  -3.891   2.910  0.00  0.00    -0.074 A 
ATOM      7  C6  UNL d   1       2.571  -5.115   2.330  0.00  0.00     0.077 C 
ATOM      8  C7  UNL d   1       1.877  -2.707   2.161  0.00  0.00    -0.001 A 
ENDROOT
TORSDOF 0
ENDMDL
