MODEL 1
REMARK minimizedAffinity 6.55172443
REMARK minimizedRMSD -1
REMARK  0 active torsions:
REMARK  status: ('A' for Active; 'I' for Inactive)
ROOT
ATOM      1  C   UNL d   1       2.191   1.905   1.802  0.00  0.00     0.077 C 
ATOM      2  C1  UNL d   1       1.786   0.498   2.127  0.00  0.00    -0.074 A 
ATOM      3  C2  UNL d   1       1.670  -0.467   1.122  0.00  0.00    -0.005 A 
ATOM      4  C3  UNL d   1       1.301  -1.774   1.441  0.00  0.00     0.006 A 
ATOM      5  C4  UNL d   1       1.045  -2.128   2.766  0.00  0.00    -0.005 A 
ATOM      6  C5  UNL d   1       1.157  -1.177   3.785  0.00  0.00    -0.074 A 
ATOM      7  C6  UNL d   1       0.895  -1.543   5.216  0.00  0.00     0.077 C 
ATOM      8  C7  UNL d   1       1.535   0.133   3.457  0.00  0.00    -0.001 A 
ENDROOT
TORSDOF 0
ENDMDL
