MODEL 1
REMARK minimizedAffinity 12.6268158
REMARK minimizedRMSD -1
REMARK  0 active torsions:
REMARK  status: ('A' for Active; 'I' for Inactive)
ROOT
ATOM      1  C   UNL d   1       0.965  -0.990   1.426  0.00  0.00     0.077 C 
ATOM      2  C1  UNL d   1       0.615   0.468   1.403  0.00  0.00    -0.074 A 
ATOM      3  C2  UNL d   1       1.550   1.437   1.781  0.00  0.00    -0.005 A 
ATOM      4  C3  UNL d   1       1.213   2.791   1.744  0.00  0.00     0.006 A 
ATOM      5  C4  UNL d   1      -0.059   3.187   1.331  0.00  0.00    -0.005 A 
ATOM      6  C5  UNL d   1      -1.006   2.232   0.948  0.00  0.00    -0.074 A 
ATOM      7  C6  UNL d   1      -2.375   2.642   0.491  0.00  0.00     0.077 C 
ATOM      8  C7  UNL d   1      -0.658   0.875   0.981  0.00  0.00    -0.001 A 
ENDROOT
TORSDOF 0
ENDMDL
