MODEL 1
REMARK minimizedAffinity 4.51223087
REMARK minimizedRMSD -1
REMARK  0 active torsions:
REMARK  status: ('A' for Active; 'I' for Inactive)
ROOT
ATOM      1  C   UNL d   1       0.689  -2.705   3.657  0.00  0.00     0.077 C 
ATOM      2  C1  UNL d   1       1.532  -1.934   2.684  0.00  0.00    -0.074 A 
ATOM      3  C2  UNL d   1       0.995  -0.868   1.956  0.00  0.00    -0.005 A 
ATOM      4  C3  UNL d   1       1.793  -0.154   1.062  0.00  0.00     0.006 A 
ATOM      5  C4  UNL d   1       3.134  -0.499   0.887  0.00  0.00    -0.005 A 
ATOM      6  C5  UNL d   1       3.688  -1.562   1.607  0.00  0.00    -0.074 A 
ATOM      7  C6  UNL d   1       5.130  -1.940   1.438  0.00  0.00     0.077 C 
ATOM      8  C7  UNL d   1       2.882  -2.270   2.509  0.00  0.00    -0.001 A 
ENDROOT
TORSDOF 0
ENDMDL
