MODEL 1
REMARK minimizedAffinity 13.3805742
REMARK minimizedRMSD -1
REMARK  0 active torsions:
REMARK  status: ('A' for Active; 'I' for Inactive)
ROOT
ATOM      1  C   UNL d   1      -6.000   1.706  -2.666  0.00  0.00     0.077 C 
ATOM      2  C1  UNL d   1      -4.690   1.036  -2.374  0.00  0.00    -0.074 A 
ATOM      3  C2  UNL d   1      -4.207   0.013  -3.196  0.00  0.00    -0.005 A 
ATOM      4  C3  UNL d   1      -2.983  -0.595  -2.916  0.00  0.00     0.006 A 
ATOM      5  C4  UNL d   1      -2.231  -0.187  -1.814  0.00  0.00    -0.005 A 
ATOM      6  C5  UNL d   1      -2.698   0.836  -0.982  0.00  0.00    -0.074 A 
ATOM      7  C6  UNL d   1      -1.897   1.293   0.201  0.00  0.00     0.077 C 
ATOM      8  C7  UNL d   1      -3.925   1.446  -1.273  0.00  0.00    -0.001 A 
ENDROOT
TORSDOF 0
ENDMDL
