MODEL 1
REMARK minimizedAffinity 8.87835598
REMARK minimizedRMSD -1
REMARK  0 active torsions:
REMARK  status: ('A' for Active; 'I' for Inactive)
ROOT
ATOM      1  C   UNL d   1      -3.608  -5.998  -4.938  0.00  0.00     0.077 C 
ATOM      2  C1  UNL d   1      -4.397  -4.725  -4.863  0.00  0.00    -0.074 A 
ATOM      3  C2  UNL d   1      -5.020  -4.197  -5.999  0.00  0.00    -0.005 A 
ATOM      4  C3  UNL d   1      -5.759  -3.018  -5.912  0.00  0.00     0.006 A 
ATOM      5  C4  UNL d   1      -5.883  -2.355  -4.690  0.00  0.00    -0.005 A 
ATOM      6  C5  UNL d   1      -5.268  -2.868  -3.543  0.00  0.00    -0.074 A 
ATOM      7  C6  UNL d   1      -5.400  -2.174  -2.221  0.00  0.00     0.077 C 
ATOM      8  C7  UNL d   1      -4.533  -4.058  -3.638  0.00  0.00    -0.001 A 
ENDROOT
TORSDOF 0
ENDMDL
