MODEL 1
REMARK minimizedAffinity 1.07589364
REMARK minimizedRMSD -1
REMARK  0 active torsions:
REMARK  status: ('A' for Active; 'I' for Inactive)
ROOT
ATOM      1  C   UNL d   1       5.999  -2.403   1.118  0.00  0.00     0.077 C 
ATOM      2  C1  UNL d   1       4.505  -2.329   1.216  0.00  0.00    -0.074 A 
ATOM      3  C2  UNL d   1       3.690  -2.960   0.270  0.00  0.00    -0.005 A 
ATOM      4  C3  UNL d   1       2.301  -2.890   0.379  0.00  0.00     0.006 A 
ATOM      5  C4  UNL d   1       1.714  -2.189   1.433  0.00  0.00    -0.005 A 
ATOM      6  C5  UNL d   1       2.512  -1.553   2.389  0.00  0.00    -0.074 A 
ATOM      7  C6  UNL d   1       1.897  -0.804   3.534  0.00  0.00     0.077 C 
ATOM      8  C7  UNL d   1       3.907  -1.633   2.276  0.00  0.00    -0.001 A 
ENDROOT
TORSDOF 0
ENDMDL
