MODEL 1
REMARK minimizedAffinity -1.02701747
REMARK minimizedRMSD -1
REMARK  0 active torsions:
REMARK  status: ('A' for Active; 'I' for Inactive)
ROOT
ATOM      1  C   UNL d   1       1.322   1.782   4.111  0.00  0.00     0.077 C 
ATOM      2  C1  UNL d   1       1.512   0.321   3.830  0.00  0.00    -0.074 A 
ATOM      3  C2  UNL d   1       1.868  -0.124   2.552  0.00  0.00    -0.005 A 
ATOM      4  C3  UNL d   1       2.051  -1.485   2.308  0.00  0.00     0.006 A 
ATOM      5  C4  UNL d   1       1.881  -2.413   3.336  0.00  0.00    -0.005 A 
ATOM      6  C5  UNL d   1       1.527  -1.986   4.620  0.00  0.00    -0.074 A 
ATOM      7  C6  UNL d   1       1.350  -2.969   5.739  0.00  0.00     0.077 C 
ATOM      8  C7  UNL d   1       1.351  -0.616   4.860  0.00  0.00    -0.001 A 
ENDROOT
TORSDOF 0
ENDMDL
