MODEL 1
REMARK minimizedAffinity 2.14515209
REMARK minimizedRMSD -1
REMARK  0 active torsions:
REMARK  status: ('A' for Active; 'I' for Inactive)
ROOT
ATOM      1  C   UNL d   1       0.937  -2.999   5.999  0.00  0.00     0.077 C 
ATOM      2  C1  UNL d   1       1.310  -2.258   4.750  0.00  0.00    -0.074 A 
ATOM      3  C2  UNL d   1       0.734  -1.019   4.450  0.00  0.00    -0.005 A 
ATOM      4  C3  UNL d   1       1.097  -0.338   3.288  0.00  0.00     0.006 A 
ATOM      5  C4  UNL d   1       2.039  -0.887   2.417  0.00  0.00    -0.005 A 
ATOM      6  C5  UNL d   1       2.626  -2.124   2.701  0.00  0.00    -0.074 A 
ATOM      7  C6  UNL d   1       3.646  -2.723   1.780  0.00  0.00     0.077 C 
ATOM      8  C7  UNL d   1       2.260  -2.799   3.873  0.00  0.00    -0.001 A 
ENDROOT
TORSDOF 0
ENDMDL
