MODEL 1
REMARK minimizedAffinity -0.607082248
REMARK minimizedRMSD -1
REMARK  0 active torsions:
REMARK  status: ('A' for Active; 'I' for Inactive)
ROOT
ATOM      1  C2' OXE d   1      -2.730   5.930   1.295  0.00  0.00     0.078 C 
ATOM      2  C1' OXE d   1      -5.480   5.908   1.860  0.00  0.00     0.078 C 
ATOM      3  C1  OXE d   1      -4.523   5.948   3.025  0.00  0.00    -0.078 A 
ATOM      4  C2  OXE d   1      -3.179   5.911   2.740  0.00  0.00    -0.078 A 
ATOM      5  C3  OXE d   1      -2.252   6.000   3.776  0.00  0.00     0.003 A 
ATOM      6  C4  OXE d   1      -2.675   5.972   5.110  0.00  0.00    -0.002 A 
ATOM      7  C5  OXE d   1      -4.039   5.969   5.422  0.00  0.00    -0.002 A 
ATOM      8  C6  OXE d   1      -4.974   6.000   4.394  0.00  0.00     0.003 A 
ENDROOT
TORSDOF 0
ENDMDL
