MODEL 1
REMARK minimizedAffinity 2.46692729
REMARK minimizedRMSD -1
REMARK  0 active torsions:
REMARK  status: ('A' for Active; 'I' for Inactive)
ROOT
ATOM      1  C2' OXE d   1      -5.526   5.950   2.256  0.00  0.00     0.078 C 
ATOM      2  C1' OXE d   1      -2.865   5.962   1.362  0.00  0.00     0.078 C 
ATOM      3  C1  OXE d   1      -3.107   5.959   2.851  0.00  0.00    -0.078 A 
ATOM      4  C2  OXE d   1      -4.411   6.000   3.279  0.00  0.00    -0.078 A 
ATOM      5  C3  OXE d   1      -4.692   5.943   4.642  0.00  0.00     0.003 A 
ATOM      6  C4  OXE d   1      -3.655   6.000   5.581  0.00  0.00    -0.002 A 
ATOM      7  C5  OXE d   1      -2.319   5.999   5.166  0.00  0.00    -0.002 A 
ATOM      8  C6  OXE d   1      -2.028   5.936   3.808  0.00  0.00     0.003 A 
ENDROOT
TORSDOF 0
ENDMDL
