MODEL 1
REMARK minimizedAffinity 0.991685152
REMARK minimizedRMSD -1
REMARK  0 active torsions:
REMARK  status: ('A' for Active; 'I' for Inactive)
ROOT
ATOM      1  C2' OXE d   1      -2.999   5.997   1.037  0.00  0.00     0.078 C 
ATOM      2  C1' OXE d   1      -5.708   5.976   1.772  0.00  0.00     0.078 C 
ATOM      3  C1  OXE d   1      -4.679   5.979   2.876  0.00  0.00    -0.078 A 
ATOM      4  C2  OXE d   1      -3.356   5.943   2.507  0.00  0.00    -0.078 A 
ATOM      5  C3  OXE d   1      -2.366   6.000   3.484  0.00  0.00     0.003 A 
ATOM      6  C4  OXE d   1      -2.706   5.939   4.841  0.00  0.00    -0.002 A 
ATOM      7  C5  OXE d   1      -4.047   5.935   5.238  0.00  0.00    -0.002 A 
ATOM      8  C6  OXE d   1      -5.044   5.998   4.271  0.00  0.00     0.003 A 
ENDROOT
TORSDOF 0
ENDMDL
