MODEL 1
REMARK minimizedAffinity 5.78492975
REMARK minimizedRMSD -1
REMARK  0 active torsions:
REMARK  status: ('A' for Active; 'I' for Inactive)
ROOT
ATOM      1  C2' OXE d   1      -4.900   5.999   5.981  0.00  0.00     0.078 C 
ATOM      2  C1' OXE d   1      -2.094   5.975   5.935  0.00  0.00     0.078 C 
ATOM      3  C1  OXE d   1      -2.819   5.978   4.612  0.00  0.00    -0.078 A 
ATOM      4  C2  OXE d   1      -4.192   5.942   4.645  0.00  0.00    -0.078 A 
ATOM      5  C3  OXE d   1      -4.911   5.999   3.454  0.00  0.00     0.003 A 
ATOM      6  C4  OXE d   1      -4.249   5.936   2.222  0.00  0.00    -0.002 A 
ATOM      7  C5  OXE d   1      -2.851   5.931   2.167  0.00  0.00    -0.002 A 
ATOM      8  C6  OXE d   1      -2.123   5.994   3.350  0.00  0.00     0.003 A 
ENDROOT
TORSDOF 0
ENDMDL
