MODEL 1
REMARK minimizedAffinity 7.28940105
REMARK minimizedRMSD -1
REMARK  0 active torsions:
REMARK  status: ('A' for Active; 'I' for Inactive)
ROOT
ATOM      1  C2' OXE d   1      -2.645   1.523   3.251  0.00  0.00     0.078 C 
ATOM      2  C1' OXE d   1      -4.090  -0.664   4.255  0.00  0.00     0.078 C 
ATOM      3  C1  OXE d   1      -3.385  -0.835   2.933  0.00  0.00    -0.078 A 
ATOM      4  C2  OXE d   1      -2.719   0.256   2.427  0.00  0.00    -0.078 A 
ATOM      5  C3  OXE d   1      -2.007   0.137   1.237  0.00  0.00     0.003 A 
ATOM      6  C4  OXE d   1      -2.089  -1.036   0.476  0.00  0.00    -0.002 A 
ATOM      7  C5  OXE d   1      -2.795  -2.145   0.954  0.00  0.00    -0.002 A 
ATOM      8  C6  OXE d   1      -3.412  -2.075   2.198  0.00  0.00     0.003 A 
ENDROOT
TORSDOF 0
ENDMDL
