MODEL 1
REMARK minimizedAffinity -0.835866094
REMARK minimizedRMSD -1
REMARK  0 active torsions:
REMARK  status: ('A' for Active; 'I' for Inactive)
ROOT
ATOM      1  C2' OXE d   1      -5.048   5.998   5.446  0.00  0.00     0.078 C 
ATOM      2  C1' OXE d   1      -2.258   5.999   5.141  0.00  0.00     0.078 C 
ATOM      3  C1  OXE d   1      -3.102   5.980   3.891  0.00  0.00    -0.078 A 
ATOM      4  C2  OXE d   1      -4.466   5.932   4.051  0.00  0.00    -0.078 A 
ATOM      5  C3  OXE d   1      -5.293   5.968   2.931  0.00  0.00     0.003 A 
ATOM      6  C4  OXE d   1      -4.746   5.897   1.644  0.00  0.00    -0.002 A 
ATOM      7  C5  OXE d   1      -3.360   5.904   1.460  0.00  0.00    -0.002 A 
ATOM      8  C6  OXE d   1      -2.525   5.988   2.570  0.00  0.00     0.003 A 
ENDROOT
TORSDOF 0
ENDMDL
