MODEL 1
REMARK minimizedAffinity 4.22781801
REMARK minimizedRMSD -1
REMARK  0 active torsions:
REMARK  status: ('A' for Active; 'I' for Inactive)
ROOT
ATOM      1  C2' OXE d   1      -3.028   5.952   1.628  0.00  0.00     0.078 C 
ATOM      2  C1' OXE d   1      -5.784   5.931   2.162  0.00  0.00     0.078 C 
ATOM      3  C1  OXE d   1      -4.840   5.959   3.338  0.00  0.00    -0.078 A 
ATOM      4  C2  OXE d   1      -3.493   5.922   3.068  0.00  0.00    -0.078 A 
ATOM      5  C3  OXE d   1      -2.578   6.000   4.114  0.00  0.00     0.003 A 
ATOM      6  C4  OXE d   1      -3.017   5.961   5.444  0.00  0.00    -0.002 A 
ATOM      7  C5  OXE d   1      -4.384   5.958   5.741  0.00  0.00    -0.002 A 
ATOM      8  C6  OXE d   1      -5.307   6.000   4.702  0.00  0.00     0.003 A 
ENDROOT
TORSDOF 0
ENDMDL
