MODEL 1
REMARK minimizedAffinity 4.75379038
REMARK minimizedRMSD -1
REMARK  0 active torsions:
REMARK  status: ('A' for Active; 'I' for Inactive)
ROOT
ATOM      1  C2' OXE d   1      -3.144   5.318   1.558  0.00  0.00     0.078 C 
ATOM      2  C1' OXE d   1      -5.692   4.469   2.372  0.00  0.00     0.078 C 
ATOM      3  C1  OXE d   1      -4.758   5.003   3.429  0.00  0.00    -0.078 A 
ATOM      4  C2  OXE d   1      -3.496   5.373   3.028  0.00  0.00    -0.078 A 
ATOM      5  C3  OXE d   1      -2.613   5.923   3.953  0.00  0.00     0.003 A 
ATOM      6  C4  OXE d   1      -2.943   5.960   5.313  0.00  0.00    -0.002 A 
ATOM      7  C5  OXE d   1      -4.209   5.552   5.748  0.00  0.00    -0.002 A 
ATOM      8  C6  OXE d   1      -5.141   5.112   4.815  0.00  0.00     0.003 A 
ENDROOT
TORSDOF 0
ENDMDL
