MODEL 1
REMARK minimizedAffinity 2.93465233
REMARK minimizedRMSD -1
REMARK  0 active torsions:
REMARK  status: ('A' for Active; 'I' for Inactive)
ROOT
ATOM      1  C2' OXE d   1      -3.450   5.448   0.849  0.00  0.00     0.078 C 
ATOM      2  C1' OXE d   1      -5.920   5.684   2.162  0.00  0.00     0.078 C 
ATOM      3  C1  OXE d   1      -4.668   5.770   2.998  0.00  0.00    -0.078 A 
ATOM      4  C2  OXE d   1      -3.465   5.607   2.354  0.00  0.00    -0.078 A 
ATOM      5  C3  OXE d   1      -2.277   5.732   3.070  0.00  0.00     0.003 A 
ATOM      6  C4  OXE d   1      -2.300   5.869   4.463  0.00  0.00    -0.002 A 
ATOM      7  C5  OXE d   1      -3.515   5.997   5.144  0.00  0.00    -0.002 A 
ATOM      8  C6  OXE d   1      -4.704   5.993   4.423  0.00  0.00     0.003 A 
ENDROOT
TORSDOF 0
ENDMDL
