MODEL 1
REMARK minimizedAffinity 0.0129273608
REMARK minimizedRMSD -1
REMARK  0 active torsions:
REMARK  status: ('A' for Active; 'I' for Inactive)
ROOT
ATOM      1  C2' OXE d   1      -2.875   5.935   1.175  0.00  0.00     0.078 C 
ATOM      2  C1' OXE d   1      -5.589   5.914   1.893  0.00  0.00     0.078 C 
ATOM      3  C1  OXE d   1      -4.568   5.950   3.002  0.00  0.00    -0.078 A 
ATOM      4  C2  OXE d   1      -3.242   5.913   2.643  0.00  0.00    -0.078 A 
ATOM      5  C3  OXE d   1      -2.259   5.999   3.624  0.00  0.00     0.003 A 
ATOM      6  C4  OXE d   1      -2.606   5.968   4.980  0.00  0.00    -0.002 A 
ATOM      7  C5  OXE d   1      -3.950   5.966   5.369  0.00  0.00    -0.002 A 
ATOM      8  C6  OXE d   1      -4.941   6.000   4.394  0.00  0.00     0.003 A 
ENDROOT
TORSDOF 0
ENDMDL
