MODEL 1
REMARK minimizedAffinity -0.79054296
REMARK minimizedRMSD -1
REMARK  0 active torsions:
REMARK  status: ('A' for Active; 'I' for Inactive)
ROOT
ATOM      1  C2' OXE d   1      -2.999   5.901   1.572  0.00  0.00     0.078 C 
ATOM      2  C1' OXE d   1      -5.722   5.878   2.254  0.00  0.00     0.078 C 
ATOM      3  C1  OXE d   1      -4.716   5.933   3.377  0.00  0.00    -0.078 A 
ATOM      4  C2  OXE d   1      -3.385   5.897   3.035  0.00  0.00    -0.078 A 
ATOM      5  C3  OXE d   1      -2.416   6.000   4.029  0.00  0.00     0.003 A 
ATOM      6  C4  OXE d   1      -2.781   5.985   5.380  0.00  0.00    -0.002 A 
ATOM      7  C5  OXE d   1      -4.130   5.982   5.751  0.00  0.00    -0.002 A 
ATOM      8  C6  OXE d   1      -5.108   5.999   4.763  0.00  0.00     0.003 A 
ENDROOT
TORSDOF 0
ENDMDL
