MODEL 1
REMARK minimizedAffinity 5.15230465
REMARK minimizedRMSD -1
REMARK  0 active torsions:
REMARK  status: ('A' for Active; 'I' for Inactive)
ROOT
ATOM      1  C2' OXE d   1      -5.996   6.000   3.313  0.00  0.00     0.078 C 
ATOM      2  C1' OXE d   1      -4.295   5.996   5.546  0.00  0.00     0.078 C 
ATOM      3  C1  OXE d   1      -3.660   5.985   4.178  0.00  0.00    -0.078 A 
ATOM      4  C2  OXE d   1      -4.500   5.940   3.091  0.00  0.00    -0.078 A 
ATOM      5  C3  OXE d   1      -3.968   5.984   1.806  0.00  0.00     0.003 A 
ATOM      6  C4  OXE d   1      -2.584   5.918   1.609  0.00  0.00    -0.002 A 
ATOM      7  C5  OXE d   1      -1.710   5.923   2.702  0.00  0.00    -0.002 A 
ATOM      8  C6  OXE d   1      -2.230   5.999   3.989  0.00  0.00     0.003 A 
ENDROOT
TORSDOF 0
ENDMDL
