MODEL 1
REMARK minimizedAffinity -0.840234399
REMARK minimizedRMSD -1
REMARK  0 active torsions:
REMARK  status: ('A' for Active; 'I' for Inactive)
ROOT
ATOM      1  C2' OXE d   1      -2.838   5.994   2.143  0.00  0.00     0.078 C 
ATOM      2  C1' OXE d   1      -5.644   5.978   2.229  0.00  0.00     0.078 C 
ATOM      3  C1  OXE d   1      -4.900   5.980   3.541  0.00  0.00    -0.078 A 
ATOM      4  C2  OXE d   1      -3.528   5.940   3.489  0.00  0.00    -0.078 A 
ATOM      5  C3  OXE d   1      -2.792   5.995   4.670  0.00  0.00     0.003 A 
ATOM      6  C4  OXE d   1      -3.437   5.935   5.911  0.00  0.00    -0.002 A 
ATOM      7  C5  OXE d   1      -4.834   5.935   5.985  0.00  0.00    -0.002 A 
ATOM      8  C6  OXE d   1      -5.579   6.000   4.813  0.00  0.00     0.003 A 
ENDROOT
TORSDOF 0
ENDMDL
