MODEL 1
REMARK minimizedAffinity -0.398701966
REMARK minimizedRMSD -1
REMARK  0 active torsions:
REMARK  status: ('A' for Active; 'I' for Inactive)
ROOT
ATOM      1  C2' OXE d   1      -2.839   6.000   1.114  0.00  0.00     0.078 C 
ATOM      2  C1' OXE d   1      -5.490   5.979   2.039  0.00  0.00     0.078 C 
ATOM      3  C1  OXE d   1      -4.386   5.981   3.067  0.00  0.00    -0.078 A 
ATOM      4  C2  OXE d   1      -3.092   5.944   2.605  0.00  0.00    -0.078 A 
ATOM      5  C3  OXE d   1      -2.036   6.000   3.510  0.00  0.00     0.003 A 
ATOM      6  C4  OXE d   1      -2.278   5.938   4.887  0.00  0.00    -0.002 A 
ATOM      7  C5  OXE d   1      -3.588   5.936   5.378  0.00  0.00    -0.002 A 
ATOM      8  C6  OXE d   1      -4.651   6.000   4.484  0.00  0.00     0.003 A 
ENDROOT
TORSDOF 0
ENDMDL
