MODEL 1
REMARK minimizedAffinity 4.77692318
REMARK minimizedRMSD -1
REMARK  0 active torsions:
REMARK  status: ('A' for Active; 'I' for Inactive)
ROOT
ATOM      1  C2' OXE d   1      -5.657   5.997   4.931  0.00  0.00     0.078 C 
ATOM      2  C1' OXE d   1      -2.969   5.992   5.740  0.00  0.00     0.078 C 
ATOM      3  C1  OXE d   1      -3.258   5.984   4.260  0.00  0.00    -0.078 A 
ATOM      4  C2  OXE d   1      -4.576   5.939   3.873  0.00  0.00    -0.078 A 
ATOM      5  C3  OXE d   1      -4.900   5.986   2.520  0.00  0.00     0.003 A 
ATOM      6  C4  OXE d   1      -3.894   5.922   1.548  0.00  0.00    -0.002 A 
ATOM      7  C5  OXE d   1      -2.546   5.926   1.921  0.00  0.00    -0.002 A 
ATOM      8  C6  OXE d   1      -2.211   6.000   3.268  0.00  0.00     0.003 A 
ENDROOT
TORSDOF 0
ENDMDL
