MODEL 1
REMARK minimizedAffinity 5.10975742
REMARK minimizedRMSD -1
REMARK  0 active torsions:
REMARK  status: ('A' for Active; 'I' for Inactive)
ROOT
ATOM      1  C2' OXE d   1      -2.966   4.763   1.581  0.00  0.00     0.078 C 
ATOM      2  C1' OXE d   1      -5.599   5.466   2.254  0.00  0.00     0.078 C 
ATOM      3  C1  OXE d   1      -4.551   5.551   3.334  0.00  0.00    -0.078 A 
ATOM      4  C2  OXE d   1      -3.274   5.160   3.008  0.00  0.00    -0.078 A 
ATOM      5  C3  OXE d   1      -2.257   5.270   3.952  0.00  0.00     0.003 A 
ATOM      6  C4  OXE d   1      -2.552   5.629   5.273  0.00  0.00    -0.002 A 
ATOM      7  C5  OXE d   1      -3.853   5.992   5.637  0.00  0.00    -0.002 A 
ATOM      8  C6  OXE d   1      -4.853   6.000   4.671  0.00  0.00     0.003 A 
ENDROOT
TORSDOF 0
ENDMDL
