MODEL 1
REMARK minimizedAffinity 2.67026448
REMARK minimizedRMSD -1
REMARK  0 active torsions:
REMARK  status: ('A' for Active; 'I' for Inactive)
ROOT
ATOM      1  C2' OXE d   1      -5.970   5.373   2.209  0.00  0.00     0.078 C 
ATOM      2  C1' OXE d   1      -3.688   3.933   1.436  0.00  0.00     0.078 C 
ATOM      3  C1  OXE d   1      -3.660   4.631   2.773  0.00  0.00    -0.078 A 
ATOM      4  C2  OXE d   1      -4.763   5.372   3.122  0.00  0.00    -0.078 A 
ATOM      5  C3  OXE d   1      -4.812   5.991   4.368  0.00  0.00     0.003 A 
ATOM      6  C4  OXE d   1      -3.687   5.994   5.202  0.00  0.00    -0.002 A 
ATOM      7  C5  OXE d   1      -2.539   5.278   4.848  0.00  0.00    -0.002 A 
ATOM      8  C6  OXE d   1      -2.524   4.558   3.659  0.00  0.00     0.003 A 
ENDROOT
TORSDOF 0
ENDMDL
