MODEL 1
REMARK minimizedAffinity 0.109959431
REMARK minimizedRMSD -1
REMARK  0 active torsions:
REMARK  status: ('A' for Active; 'I' for Inactive)
ROOT
ATOM      1  C2' OXE d   1      -3.015   5.725   0.934  0.00  0.00     0.078 C 
ATOM      2  C1' OXE d   1      -5.496   5.795   2.246  0.00  0.00     0.078 C 
ATOM      3  C1  OXE d   1      -4.250   5.869   3.093  0.00  0.00    -0.078 A 
ATOM      4  C2  OXE d   1      -3.040   5.787   2.446  0.00  0.00    -0.078 A 
ATOM      5  C3  OXE d   1      -1.860   5.906   3.175  0.00  0.00     0.003 A 
ATOM      6  C4  OXE d   1      -1.892   5.954   4.574  0.00  0.00    -0.002 A 
ATOM      7  C5  OXE d   1      -3.113   5.998   5.255  0.00  0.00    -0.002 A 
ATOM      8  C6  OXE d   1      -4.299   6.000   4.528  0.00  0.00     0.003 A 
ENDROOT
TORSDOF 0
ENDMDL
