MODEL 1
REMARK minimizedAffinity 11.380558
REMARK minimizedRMSD -1
REMARK  0 active torsions:
REMARK  status: ('A' for Active; 'I' for Inactive)
ROOT
ATOM      1  C   UNL d   1      -0.620   2.360  -0.743  0.00  0.00     0.020 A 
ATOM      2  C1  UNL d   1       0.074   2.491   0.459  0.00  0.00     0.020 A 
ATOM      3  C2  UNL d   1       1.138   3.390   0.557  0.00  0.00     0.034 A 
ATOM      4  C3  UNL d   1       1.511   4.162  -0.549  0.00  0.00     0.017 A 
ATOM      5  C4  UNL d   1       0.814   4.030  -1.756  0.00  0.00     0.017 A 
ATOM      6  C5  UNL d   1      -0.251   3.128  -1.848  0.00  0.00     0.034 A 
ATOM      7 Cl   UNL d   1       1.216   4.948  -3.164  0.00  0.00    -0.070 Cl
ATOM      8 Cl1  UNL d   1       2.836   5.254  -0.357  0.00  0.00    -0.070 Cl
ENDROOT
TORSDOF 0
ENDMDL
