MODEL 1
REMARK minimizedAffinity 11.1382694
REMARK minimizedRMSD -1
REMARK  0 active torsions:
REMARK  status: ('A' for Active; 'I' for Inactive)
ROOT
ATOM      1  C   UNL d   1      -1.011   2.167   0.716  0.00  0.00     0.020 A 
ATOM      2  C1  UNL d   1      -0.212   2.159   1.858  0.00  0.00     0.020 A 
ATOM      3  C2  UNL d   1       1.073   2.705   1.815  0.00  0.00     0.034 A 
ATOM      4  C3  UNL d   1       1.562   3.260   0.627  0.00  0.00     0.017 A 
ATOM      5  C4  UNL d   1       0.759   3.267  -0.519  0.00  0.00     0.017 A 
ATOM      6  C5  UNL d   1      -0.527   2.720  -0.470  0.00  0.00     0.034 A 
ATOM      7 Cl   UNL d   1       1.294   3.934  -2.021  0.00  0.00    -0.070 Cl
ATOM      8 Cl1  UNL d   1       3.160   3.917   0.646  0.00  0.00    -0.070 Cl
ENDROOT
TORSDOF 0
ENDMDL
