MODEL 1
REMARK minimizedAffinity 10.3318987
REMARK minimizedRMSD -1
REMARK  0 active torsions:
REMARK  status: ('A' for Active; 'I' for Inactive)
ROOT
ATOM      1  C   UNL d   1      -1.317   2.867  -0.963  0.00  0.00     0.020 A 
ATOM      2  C1  UNL d   1      -1.346   3.477   0.291  0.00  0.00     0.020 A 
ATOM      3  C2  UNL d   1      -0.521   3.007   1.315  0.00  0.00     0.034 A 
ATOM      4  C3  UNL d   1       0.335   1.923   1.088  0.00  0.00     0.017 A 
ATOM      5  C4  UNL d   1       0.363   1.312  -0.171  0.00  0.00     0.017 A 
ATOM      6  C5  UNL d   1      -0.465   1.787  -1.193  0.00  0.00     0.034 A 
ATOM      7 Cl   UNL d   1       1.393  -0.030  -0.527  0.00  0.00    -0.070 Cl
ATOM      8 Cl1  UNL d   1       1.327   1.395   2.400  0.00  0.00    -0.070 Cl
ENDROOT
TORSDOF 0
ENDMDL
