MODEL 1
REMARK minimizedAffinity 6.70234299
REMARK minimizedRMSD -1
REMARK  0 active torsions:
REMARK  status: ('A' for Active; 'I' for Inactive)
ROOT
ATOM      1  C   UNL d   1      -0.496   2.986   0.561  0.00  0.00     0.020 A 
ATOM      2  C1  UNL d   1      -1.485   2.727   1.509  0.00  0.00     0.020 A 
ATOM      3  C2  UNL d   1      -1.207   1.900   2.600  0.00  0.00     0.034 A 
ATOM      4  C3  UNL d   1       0.063   1.329   2.745  0.00  0.00     0.017 A 
ATOM      5  C4  UNL d   1       1.055   1.590   1.793  0.00  0.00     0.017 A 
ATOM      6  C5  UNL d   1       0.771   2.419   0.703  0.00  0.00     0.034 A 
ATOM      7 Cl   UNL d   1       2.645   0.922   1.905  0.00  0.00    -0.070 Cl
ATOM      8 Cl1  UNL d   1       0.336   0.316   4.118  0.00  0.00    -0.070 Cl
ENDROOT
TORSDOF 0
ENDMDL
