MODEL 1
REMARK minimizedAffinity 11.8157015
REMARK minimizedRMSD -1
REMARK  0 active torsions:
REMARK  status: ('A' for Active; 'I' for Inactive)
ROOT
ATOM      1  C   UNL d   1       0.507   2.726   0.662  0.00  0.00     0.020 A 
ATOM      2  C1  UNL d   1      -0.882   2.601   0.669  0.00  0.00     0.020 A 
ATOM      3  C2  UNL d   1      -1.636   3.144  -0.373  0.00  0.00     0.034 A 
ATOM      4  C3  UNL d   1      -1.003   3.814  -1.426  0.00  0.00     0.017 A 
ATOM      5  C4  UNL d   1       0.391   3.939  -1.432  0.00  0.00     0.017 A 
ATOM      6  C5  UNL d   1       1.142   3.394  -0.386  0.00  0.00     0.034 A 
ATOM      7 Cl   UNL d   1       1.244   4.752  -2.696  0.00  0.00    -0.070 Cl
ATOM      8 Cl1  UNL d   1      -1.999   4.461  -2.682  0.00  0.00    -0.070 Cl
ENDROOT
TORSDOF 0
ENDMDL
