MODEL 1
REMARK minimizedAffinity 5.3053894
REMARK minimizedRMSD -1
REMARK  0 active torsions:
REMARK  status: ('A' for Active; 'I' for Inactive)
ROOT
ATOM      1  C   UNL d   1       0.612  -0.462  -0.927  0.00  0.00     0.020 A 
ATOM      2  C1  UNL d   1      -0.770  -0.604  -1.034  0.00  0.00     0.020 A 
ATOM      3  C2  UNL d   1      -1.569   0.513  -1.291  0.00  0.00     0.034 A 
ATOM      4  C3  UNL d   1      -0.985   1.776  -1.442  0.00  0.00     0.017 A 
ATOM      5  C4  UNL d   1       0.403   1.917  -1.334  0.00  0.00     0.017 A 
ATOM      6  C5  UNL d   1       1.198   0.795  -1.077  0.00  0.00     0.034 A 
ATOM      7 Cl   UNL d   1       1.196   3.443  -1.509  0.00  0.00    -0.070 Cl
ATOM      8 Cl1  UNL d   1      -2.033   3.113  -1.758  0.00  0.00    -0.070 Cl
ENDROOT
TORSDOF 0
ENDMDL
