MODEL 1
REMARK minimizedAffinity 4.4363122
REMARK minimizedRMSD -1
REMARK  0 active torsions:
REMARK  status: ('A' for Active; 'I' for Inactive)
ROOT
ATOM      1  C   UNL d   1      -1.947   2.488   1.337  0.00  0.00     0.020 A 
ATOM      2  C1  UNL d   1      -1.160   2.457   2.487  0.00  0.00     0.020 A 
ATOM      3  C2  UNL d   1       0.212   2.701   2.401  0.00  0.00     0.034 A 
ATOM      4  C3  UNL d   1       0.801   2.978   1.162  0.00  0.00     0.017 A 
ATOM      5  C4  UNL d   1       0.010   3.009   0.008  0.00  0.00     0.017 A 
ATOM      6  C5  UNL d   1      -1.363   2.764   0.100  0.00  0.00     0.034 A 
ATOM      7 Cl   UNL d   1       0.666   3.344  -1.556  0.00  0.00    -0.070 Cl
ATOM      8 Cl1  UNL d   1       2.504   3.271   1.130  0.00  0.00    -0.070 Cl
ENDROOT
TORSDOF 0
ENDMDL
