MODEL 1
REMARK minimizedAffinity 10.444293
REMARK minimizedRMSD -1
REMARK  0 active torsions:
REMARK  status: ('A' for Active; 'I' for Inactive)
ROOT
ATOM      1  C   UNL d   1      -0.012  -5.025  -3.019  0.00  0.00     0.020 A 
ATOM      2  C1  UNL d   1      -0.744  -3.928  -3.473  0.00  0.00     0.020 A 
ATOM      3  C2  UNL d   1      -0.546  -2.670  -2.899  0.00  0.00     0.034 A 
ATOM      4  C3  UNL d   1       0.387  -2.506  -1.868  0.00  0.00     0.017 A 
ATOM      5  C4  UNL d   1       1.121  -3.607  -1.414  0.00  0.00     0.017 A 
ATOM      6  C5  UNL d   1       0.919  -4.864  -1.992  0.00  0.00     0.034 A 
ATOM      7 Cl   UNL d   1       2.289  -3.482  -0.146  0.00  0.00    -0.070 Cl
ATOM      8 Cl1  UNL d   1       0.580  -0.922  -1.205  0.00  0.00    -0.070 Cl
ENDROOT
TORSDOF 0
ENDMDL
