MODEL 1
REMARK minimizedAffinity -2.8287394
REMARK minimizedRMSD -1
REMARK  1 active torsions:
REMARK  status: ('A' for Active; 'I' for Inactive)
REMARK    1  A    between atoms: C3_4  and  O_7 
ROOT
ATOM      1  C   UNL d   1      -0.386  -0.170   0.739  0.00  0.00    -0.033 A 
ATOM      2  C1  UNL d   1       0.929  -0.410   1.140  0.00  0.00     0.039 A 
ATOM      3  C2  UNL d   1       1.876  -0.845   0.211  0.00  0.00    -0.080 A 
ATOM      4  C3  UNL d   1       1.495  -1.036  -1.114  0.00  0.00     0.150 A 
ATOM      5  C4  UNL d   1       0.187  -0.795  -1.522  0.00  0.00    -0.007 A 
ATOM      6  C5  UNL d   1      -0.757  -0.361  -0.592  0.00  0.00     0.039 A 
ENDROOT
BRANCH   4   7
ATOM      7  O   UNL d   1       2.382  -1.464  -2.057  0.00  0.00    -0.526 OA
ATOM      8  H5  UNL d   1       3.239  -1.617  -1.625  0.00  0.00     0.418 HD
ENDBRANCH   4   7
TORSDOF 1
ENDMDL
