MODEL 1
REMARK minimizedAffinity 4.89636421
REMARK minimizedRMSD -1
REMARK  1 active torsions:
REMARK  status: ('A' for Active; 'I' for Inactive)
REMARK    1  A    between atoms: C3_4  and  O_7 
ROOT
ATOM      1  C   UNL d   1       0.198  -1.705   2.211  0.00  0.00    -0.033 A 
ATOM      2  C1  UNL d   1       1.593  -1.648   2.227  0.00  0.00     0.039 A 
ATOM      3  C2  UNL d   1       2.243  -0.617   2.909  0.00  0.00    -0.080 A 
ATOM      4  C3  UNL d   1       1.487   0.349   3.569  0.00  0.00     0.150 A 
ATOM      5  C4  UNL d   1       0.097   0.295   3.559  0.00  0.00    -0.007 A 
ATOM      6  C5  UNL d   1      -0.550  -0.735   2.878  0.00  0.00     0.039 A 
ENDROOT
BRANCH   4   7
ATOM      7  O   UNL d   1       2.077   1.376   4.243  0.00  0.00    -0.526 OA
ATOM      8  H5  UNL d   1       3.040   1.300   4.139  0.00  0.00     0.418 HD
ENDBRANCH   4   7
TORSDOF 1
ENDMDL
