MODEL 1
REMARK minimizedAffinity -3.97019553
REMARK minimizedRMSD -1
REMARK  1 active torsions:
REMARK  status: ('A' for Active; 'I' for Inactive)
REMARK    1  A    between atoms: C3_4  and  O_7 
ROOT
ATOM      1  C   UNL d   1       2.041  -0.484   2.573  0.00  0.00    -0.033 A 
ATOM      2  C1  UNL d   1       1.065  -1.393   2.987  0.00  0.00     0.039 A 
ATOM      3  C2  UNL d   1      -0.112  -1.541   2.251  0.00  0.00    -0.080 A 
ATOM      4  C3  UNL d   1      -0.300  -0.776   1.103  0.00  0.00     0.150 A 
ATOM      5  C4  UNL d   1       0.670   0.129   0.682  0.00  0.00    -0.007 A 
ATOM      6  C5  UNL d   1       1.844   0.276   1.420  0.00  0.00     0.039 A 
ENDROOT
BRANCH   4   7
ATOM      7  O   UNL d   1      -1.434  -0.882   0.354  0.00  0.00    -0.526 OA
ATOM      8  H5  UNL d   1      -2.026  -1.524   0.780  0.00  0.00     0.418 HD
ENDBRANCH   4   7
TORSDOF 1
ENDMDL
