MODEL 1
REMARK minimizedAffinity -1.84915149
REMARK minimizedRMSD -1
REMARK  1 active torsions:
REMARK  status: ('A' for Active; 'I' for Inactive)
REMARK    1  A    between atoms: C3_4  and  O_7 
ROOT
ATOM      1  C   UNL d   1      -0.582  -0.157  -0.741  0.00  0.00    -0.033 A 
ATOM      2  C1  UNL d   1       0.766  -0.507  -0.644  0.00  0.00     0.039 A 
ATOM      3  C2  UNL d   1       1.330  -0.780   0.604  0.00  0.00    -0.080 A 
ATOM      4  C3  UNL d   1       0.537  -0.701   1.744  0.00  0.00     0.150 A 
ATOM      5  C4  UNL d   1      -0.808  -0.357   1.654  0.00  0.00    -0.007 A 
ATOM      6  C5  UNL d   1      -1.370  -0.084   0.408  0.00  0.00     0.039 A 
ENDROOT
BRANCH   4   7
ATOM      7  O   UNL d   1       1.044  -0.954   2.984  0.00  0.00    -0.526 OA
ATOM      8  H5  UNL d   1       1.991  -1.150   2.895  0.00  0.00     0.418 HD
ENDBRANCH   4   7
TORSDOF 1
ENDMDL
