MODEL 1
REMARK minimizedAffinity -1.39180422
REMARK minimizedRMSD -1
REMARK  1 active torsions:
REMARK  status: ('A' for Active; 'I' for Inactive)
REMARK    1  A    between atoms: C3_4  and  O_7 
ROOT
ATOM      1  C   UNL d   1      -5.904   1.163  -4.546  0.00  0.00    -0.033 A 
ATOM      2  C1  UNL d   1      -5.099   1.498  -3.456  0.00  0.00     0.039 A 
ATOM      3  C2  UNL d   1      -4.377   2.694  -3.461  0.00  0.00    -0.080 A 
ATOM      4  C3  UNL d   1      -4.470   3.544  -4.559  0.00  0.00     0.150 A 
ATOM      5  C4  UNL d   1      -5.273   3.217  -5.647  0.00  0.00    -0.007 A 
ATOM      6  C5  UNL d   1      -5.992   2.023  -5.641  0.00  0.00     0.039 A 
ENDROOT
BRANCH   4   7
ATOM      7  O   UNL d   1      -3.781   4.719  -4.612  0.00  0.00    -0.526 OA
ATOM      8  H5  UNL d   1      -3.246   4.798  -3.804  0.00  0.00     0.418 HD
ENDBRANCH   4   7
TORSDOF 1
ENDMDL
