MODEL 1
REMARK minimizedAffinity 1.70692074
REMARK minimizedRMSD -1
REMARK  1 active torsions:
REMARK  status: ('A' for Active; 'I' for Inactive)
REMARK    1  A    between atoms: C3_4  and  O_7 
ROOT
ATOM      1  C   UNL d   1       4.881   0.268   0.019  0.00  0.00    -0.033 A 
ATOM      2  C1  UNL d   1       5.998   0.607   0.785  0.00  0.00     0.039 A 
ATOM      3  C2  UNL d   1       5.999   1.781   1.540  0.00  0.00    -0.080 A 
ATOM      4  C3  UNL d   1       4.878   2.606   1.522  0.00  0.00     0.150 A 
ATOM      5  C4  UNL d   1       3.760   2.272   0.764  0.00  0.00    -0.007 A 
ATOM      6  C5  UNL d   1       3.762   1.100   0.010  0.00  0.00     0.039 A 
ENDROOT
BRANCH   4   7
ATOM      7  O   UNL d   1       4.833   3.765   2.239  0.00  0.00    -0.526 OA
ATOM      8  H5  UNL d   1       5.686   3.880   2.690  0.00  0.00     0.418 HD
ENDBRANCH   4   7
TORSDOF 1
ENDMDL
