MODEL 1
REMARK minimizedAffinity -0.612372339
REMARK minimizedRMSD -1
REMARK  1 active torsions:
REMARK  status: ('A' for Active; 'I' for Inactive)
REMARK    1  A    between atoms: C3_4  and  O_7 
ROOT
ATOM      1  C   UNL d   1       2.165  -3.022   1.402  0.00  0.00    -0.033 A 
ATOM      2  C1  UNL d   1       1.878  -4.386   1.479  0.00  0.00     0.039 A 
ATOM      3  C2  UNL d   1       0.638  -4.815   1.954  0.00  0.00    -0.080 A 
ATOM      4  C3  UNL d   1      -0.307  -3.872   2.348  0.00  0.00     0.150 A 
ATOM      5  C4  UNL d   1      -0.029  -2.511   2.271  0.00  0.00    -0.007 A 
ATOM      6  C5  UNL d   1       1.210  -2.084   1.797  0.00  0.00     0.039 A 
ENDROOT
BRANCH   4   7
ATOM      7  O   UNL d   1      -1.529  -4.242   2.824  0.00  0.00    -0.526 OA
ATOM      8  H5  UNL d   1      -1.569  -5.213   2.848  0.00  0.00     0.418 HD
ENDBRANCH   4   7
TORSDOF 1
ENDMDL
