MODEL 1
REMARK minimizedAffinity -4.23991394
REMARK minimizedRMSD -1
REMARK  1 active torsions:
REMARK  status: ('A' for Active; 'I' for Inactive)
REMARK    1  A    between atoms: C3_4  and  O_7 
ROOT
ATOM      1  C   UNL d   1      -1.694  -0.379   1.159  0.00  0.00    -0.033 A 
ATOM      2  C1  UNL d   1      -0.889  -0.565   0.033  0.00  0.00     0.039 A 
ATOM      3  C2  UNL d   1       0.266  -1.344   0.119  0.00  0.00    -0.080 A 
ATOM      4  C3  UNL d   1       0.604  -1.932   1.335  0.00  0.00     0.150 A 
ATOM      5  C4  UNL d   1      -0.196  -1.755   2.459  0.00  0.00    -0.007 A 
ATOM      6  C5  UNL d   1      -1.348  -0.976   2.371  0.00  0.00     0.039 A 
ENDROOT
BRANCH   4   7
ATOM      7  O   UNL d   1       1.724  -2.697   1.469  0.00  0.00    -0.526 OA
ATOM      8  H5  UNL d   1       2.194  -2.708   0.618  0.00  0.00     0.418 HD
ENDBRANCH   4   7
TORSDOF 1
ENDMDL
