MODEL 1
REMARK minimizedAffinity -2.7868557
REMARK minimizedRMSD -1
REMARK  1 active torsions:
REMARK  status: ('A' for Active; 'I' for Inactive)
REMARK    1  A    between atoms: C3_4  and  O_7 
ROOT
ATOM      1  C   UNL d   1      -0.523  -0.619   1.269  0.00  0.00    -0.033 A 
ATOM      2  C1  UNL d   1      -0.377  -1.292   2.483  0.00  0.00     0.039 A 
ATOM      3  C2  UNL d   1       0.628  -2.250   2.636  0.00  0.00    -0.080 A 
ATOM      4  C3  UNL d   1       1.479  -2.523   1.568  0.00  0.00     0.150 A 
ATOM      5  C4  UNL d   1       1.341  -1.853   0.357  0.00  0.00    -0.007 A 
ATOM      6  C5  UNL d   1       0.336  -0.898   0.207  0.00  0.00     0.039 A 
ENDROOT
BRANCH   4   7
ATOM      7  O   UNL d   1       2.471  -3.453   1.668  0.00  0.00    -0.526 OA
ATOM      8  H5  UNL d   1       2.428  -3.855   2.551  0.00  0.00     0.418 HD
ENDBRANCH   4   7
TORSDOF 1
ENDMDL
