MODEL 1
REMARK minimizedAffinity 6.21872425
REMARK minimizedRMSD -1
REMARK  0 active torsions:
REMARK  status: ('A' for Active; 'I' for Inactive)
ROOT
ATOM      1  N1  IND d   1       0.590  -3.216  -2.802  0.00  0.00    -0.196 N 
ATOM      2  C2  IND d   1       1.692  -3.792  -2.234  0.00  0.00     0.054 A 
ATOM      3  C3  IND d   1       1.852  -3.350  -0.966  0.00  0.00    -0.031 A 
ATOM      4  C4  IND d   1       0.369  -1.760   0.412  0.00  0.00     0.051 A 
ATOM      5  C5  IND d   1      -0.728  -0.952   0.311  0.00  0.00    -0.031 A 
ATOM      6  C6  IND d   1      -1.458  -0.857  -0.856  0.00  0.00     0.015 A 
ATOM      7  C7  IND d   1      -1.124  -1.579  -1.967  0.00  0.00    -0.016 A 
ATOM      8  C8  IND d   1      -0.006  -2.395  -1.870  0.00  0.00    -0.047 A 
ATOM      9  C9  IND d   1       0.764  -2.464  -0.701  0.00  0.00    -0.096 A 
ATOM     10  HN1 IND d   1       0.316  -3.344  -3.607  0.00  0.00     0.298 HD
ENDROOT
TORSDOF 0
ENDMDL
