MODEL 1
REMARK minimizedAffinity 3.50822616
REMARK minimizedRMSD -1
REMARK  0 active torsions:
REMARK  status: ('A' for Active; 'I' for Inactive)
ROOT
ATOM      1  N1  IND d   1       2.012  -3.579   2.333  0.00  0.00    -0.196 N 
ATOM      2  C2  IND d   1       1.572  -2.285   2.338  0.00  0.00     0.054 A 
ATOM      3  C3  IND d   1       1.311  -1.872   1.077  0.00  0.00    -0.031 A 
ATOM      4  C4  IND d   1       1.440  -3.185  -1.133  0.00  0.00     0.051 A 
ATOM      5  C5  IND d   1       1.825  -4.390  -1.650  0.00  0.00    -0.031 A 
ATOM      6  C6  IND d   1       2.300  -5.408  -0.848  0.00  0.00     0.015 A 
ATOM      7  C7  IND d   1       2.396  -5.262   0.507  0.00  0.00    -0.016 A 
ATOM      8  C8  IND d   1       2.012  -4.037   1.034  0.00  0.00    -0.047 A 
ATOM      9  C9  IND d   1       1.570  -2.985   0.221  0.00  0.00    -0.096 A 
ATOM     10  HN1 IND d   1       2.250  -4.031   3.025  0.00  0.00     0.298 HD
ENDROOT
TORSDOF 0
ENDMDL
