MODEL 1
REMARK minimizedAffinity 11.5362473
REMARK minimizedRMSD -1
REMARK  0 active torsions:
REMARK  status: ('A' for Active; 'I' for Inactive)
ROOT
ATOM      1  N1  IND d   1       2.214  -1.043   3.775  0.00  0.00    -0.196 N 
ATOM      2  C2  IND d   1       2.207  -2.167   2.997  0.00  0.00     0.054 A 
ATOM      3  C3  IND d   1       2.326  -1.835   1.692  0.00  0.00    -0.031 A 
ATOM      4  C4  IND d   1       2.647   0.481   0.615  0.00  0.00     0.051 A 
ATOM      5  C5  IND d   1       2.680   1.814   0.917  0.00  0.00    -0.031 A 
ATOM      6  C6  IND d   1       2.560   2.271   2.213  0.00  0.00     0.015 A 
ATOM      7  C7  IND d   1       2.413   1.409   3.262  0.00  0.00    -0.016 A 
ATOM      8  C8  IND d   1       2.371   0.055   2.959  0.00  0.00    -0.047 A 
ATOM      9  C9  IND d   1       2.450  -0.413   1.641  0.00  0.00    -0.096 A 
ATOM     10  HN1 IND d   1       2.133  -1.025   4.631  0.00  0.00     0.298 HD
ENDROOT
TORSDOF 0
ENDMDL
