MODEL 1
REMARK minimizedAffinity -3.89751077
REMARK minimizedRMSD -1
REMARK  0 active torsions:
REMARK  status: ('A' for Active; 'I' for Inactive)
ROOT
ATOM      1  N1  IND d   1       1.926   5.988  -3.717  0.00  0.00    -0.196 N 
ATOM      2  C2  IND d   1       1.237   5.752  -2.561  0.00  0.00     0.054 A 
ATOM      3  C3  IND d   1       2.089   5.427  -1.563  0.00  0.00    -0.031 A 
ATOM      4  C4  IND d   1       4.661   5.321  -1.579  0.00  0.00     0.051 A 
ATOM      5  C5  IND d   1       5.739   5.421  -2.414  0.00  0.00    -0.031 A 
ATOM      6  C6  IND d   1       5.597   5.723  -3.753  0.00  0.00     0.015 A 
ATOM      7  C7  IND d   1       4.369   5.950  -4.306  0.00  0.00    -0.016 A 
ATOM      8  C8  IND d   1       3.272   5.843  -3.463  0.00  0.00    -0.047 A 
ATOM      9  C9  IND d   1       3.406   5.494  -2.112  0.00  0.00    -0.096 A 
ATOM     10  HN1 IND d   1       1.578   6.193  -4.476  0.00  0.00     0.298 HD
ENDROOT
TORSDOF 0
ENDMDL
