MODEL 1
REMARK minimizedAffinity 9.29825211
REMARK minimizedRMSD -1
REMARK  0 active torsions:
REMARK  status: ('A' for Active; 'I' for Inactive)
ROOT
ATOM      1  N1  IND d   1      -4.843   2.422   2.522  0.00  0.00    -0.196 N 
ATOM      2  C2  IND d   1      -5.958   3.121   2.149  0.00  0.00     0.054 A 
ATOM      3  C3  IND d   1      -5.897   3.437   0.836  0.00  0.00    -0.031 A 
ATOM      4  C4  IND d   1      -4.112   2.821  -0.914  0.00  0.00     0.051 A 
ATOM      5  C5  IND d   1      -2.889   2.223  -1.041  0.00  0.00    -0.031 A 
ATOM      6  C6  IND d   1      -2.244   1.647   0.034  0.00  0.00     0.015 A 
ATOM      7  C7  IND d   1      -2.805   1.637   1.280  0.00  0.00    -0.016 A 
ATOM      8  C8  IND d   1      -4.043   2.250   1.414  0.00  0.00    -0.047 A 
ATOM      9  C9  IND d   1      -4.683   2.873   0.336  0.00  0.00    -0.096 A 
ATOM     10  HN1 IND d   1      -4.671   2.139   3.315  0.00  0.00     0.298 HD
ENDROOT
TORSDOF 0
ENDMDL
