MODEL 1
REMARK minimizedAffinity 7.63478804
REMARK minimizedRMSD -1
REMARK  0 active torsions:
REMARK  status: ('A' for Active; 'I' for Inactive)
ROOT
ATOM      1  N1  IND d   1       3.348   1.871  -0.006  0.00  0.00    -0.196 N 
ATOM      2  C2  IND d   1       2.635   1.157   0.917  0.00  0.00     0.054 A 
ATOM      3  C3  IND d   1       1.406   1.697   1.081  0.00  0.00    -0.031 A 
ATOM      4  C4  IND d   1       0.319   3.689  -0.133  0.00  0.00     0.051 A 
ATOM      5  C5  IND d   1       0.591   4.680  -1.034  0.00  0.00    -0.031 A 
ATOM      6  C6  IND d   1       1.820   4.786  -1.653  0.00  0.00     0.015 A 
ATOM      7  C7  IND d   1       2.823   3.894  -1.401  0.00  0.00    -0.016 A 
ATOM      8  C8  IND d   1       2.553   2.890  -0.481  0.00  0.00    -0.047 A 
ATOM      9  C9  IND d   1       1.322   2.803   0.181  0.00  0.00    -0.096 A 
ATOM     10  HN1 IND d   1       4.157   1.710  -0.248  0.00  0.00     0.298 HD
ENDROOT
TORSDOF 0
ENDMDL
