MODEL 1
REMARK minimizedAffinity 3.09782934
REMARK minimizedRMSD -1
REMARK  0 active torsions:
REMARK  status: ('A' for Active; 'I' for Inactive)
ROOT
ATOM      1  N1  IND d   1       2.416  -3.930  -3.829  0.00  0.00    -0.196 N 
ATOM      2  C2  IND d   1       3.781  -3.882  -3.757  0.00  0.00     0.054 A 
ATOM      3  C3  IND d   1       4.171  -3.024  -2.788  0.00  0.00    -0.031 A 
ATOM      4  C4  IND d   1       2.741  -1.672  -1.128  0.00  0.00     0.051 A 
ATOM      5  C5  IND d   1       1.444  -1.361  -0.828  0.00  0.00    -0.031 A 
ATOM      6  C6  IND d   1       0.384  -1.904  -1.525  0.00  0.00     0.015 A 
ATOM      7  C7  IND d   1       0.581  -2.791  -2.545  0.00  0.00    -0.016 A 
ATOM      8  C8  IND d   1       1.897  -3.103  -2.858  0.00  0.00    -0.047 A 
ATOM      9  C9  IND d   1       2.978  -2.522  -2.182  0.00  0.00    -0.096 A 
ATOM     10  HN1 IND d   1       1.960  -4.399  -4.387  0.00  0.00     0.298 HD
ENDROOT
TORSDOF 0
ENDMDL
