MODEL 1
REMARK minimizedAffinity 7.95668316
REMARK minimizedRMSD -1
REMARK  0 active torsions:
REMARK  status: ('A' for Active; 'I' for Inactive)
ROOT
ATOM      1  N1  IND d   1       1.674  -3.684  -1.428  0.00  0.00    -0.196 N 
ATOM      2  C2  IND d   1       1.245  -3.446  -2.704  0.00  0.00     0.054 A 
ATOM      3  C3  IND d   1       0.379  -2.408  -2.723  0.00  0.00    -0.031 A 
ATOM      4  C4  IND d   1      -0.398  -0.890  -0.794  0.00  0.00     0.051 A 
ATOM      5  C5  IND d   1      -0.307  -0.739   0.562  0.00  0.00    -0.031 A 
ATOM      6  C6  IND d   1       0.467  -1.577   1.338  0.00  0.00     0.015 A 
ATOM      7  C7  IND d   1       1.191  -2.596   0.785  0.00  0.00    -0.016 A 
ATOM      8  C8  IND d   1       1.095  -2.756  -0.590  0.00  0.00    -0.047 A 
ATOM      9  C9  IND d   1       0.278  -1.935  -1.378  0.00  0.00    -0.096 A 
ATOM     10  HN1 IND d   1       2.214  -4.309  -1.189  0.00  0.00     0.298 HD
ENDROOT
TORSDOF 0
ENDMDL
