MODEL 1
REMARK minimizedAffinity 3.61507225
REMARK minimizedRMSD -1
REMARK  0 active torsions:
REMARK  status: ('A' for Active; 'I' for Inactive)
ROOT
ATOM      1  N1  IND d   1       1.384  -2.351  -1.233  0.00  0.00    -0.196 N 
ATOM      2  C2  IND d   1       2.110  -2.235  -2.386  0.00  0.00     0.054 A 
ATOM      3  C3  IND d   1       2.858  -1.110  -2.360  0.00  0.00    -0.031 A 
ATOM      4  C4  IND d   1       3.125   0.633  -0.484  0.00  0.00     0.051 A 
ATOM      5  C5  IND d   1       2.637   0.975   0.746  0.00  0.00    -0.031 A 
ATOM      6  C6  IND d   1       1.690   0.208   1.394  0.00  0.00     0.015 A 
ATOM      7  C7  IND d   1       1.201  -0.940   0.837  0.00  0.00    -0.016 A 
ATOM      8  C8  IND d   1       1.689  -1.286  -0.415  0.00  0.00    -0.047 A 
ATOM      9  C9  IND d   1       2.619  -0.489  -1.095  0.00  0.00    -0.096 A 
ATOM     10  HN1 IND d   1       0.831  -2.983  -1.050  0.00  0.00     0.298 HD
ENDROOT
TORSDOF 0
ENDMDL
