MODEL 1
REMARK minimizedAffinity 6.04069901
REMARK minimizedRMSD -1
REMARK  0 active torsions:
REMARK  status: ('A' for Active; 'I' for Inactive)
ROOT
ATOM      1  N1  IND d   1       3.118   1.251   2.276  0.00  0.00    -0.196 N 
ATOM      2  C2  IND d   1       2.893   1.618   0.979  0.00  0.00     0.054 A 
ATOM      3  C3  IND d   1       2.142   0.686   0.350  0.00  0.00    -0.031 A 
ATOM      4  C4  IND d   1       1.089  -1.469   1.284  0.00  0.00     0.051 A 
ATOM      5  C5  IND d   1       1.044  -2.247   2.407  0.00  0.00    -0.031 A 
ATOM      6  C6  IND d   1       1.699  -1.890   3.568  0.00  0.00     0.015 A 
ATOM      7  C7  IND d   1       2.417  -0.731   3.653  0.00  0.00    -0.016 A 
ATOM      8  C8  IND d   1       2.471   0.058   2.513  0.00  0.00    -0.047 A 
ATOM      9  C9  IND d   1       1.843  -0.320   1.319  0.00  0.00    -0.096 A 
ATOM     10  HN1 IND d   1       3.585   1.692   2.848  0.00  0.00     0.298 HD
ENDROOT
TORSDOF 0
ENDMDL
