MODEL 1
REMARK minimizedAffinity 4.87350273
REMARK minimizedRMSD -1
REMARK  0 active torsions:
REMARK  status: ('A' for Active; 'I' for Inactive)
ROOT
ATOM      1  N1  IND d   1       3.771  -1.857   0.592  0.00  0.00    -0.196 N 
ATOM      2  C2  IND d   1       3.088  -2.228  -0.533  0.00  0.00     0.054 A 
ATOM      3  C3  IND d   1       2.964  -1.178  -1.375  0.00  0.00    -0.031 A 
ATOM      4  C4  IND d   1       3.893   1.213  -1.157  0.00  0.00     0.051 A 
ATOM      5  C5  IND d   1       4.552   2.038  -0.289  0.00  0.00    -0.031 A 
ATOM      6  C6  IND d   1       4.996   1.596   0.941  0.00  0.00     0.015 A 
ATOM      7  C7  IND d   1       4.807   0.305   1.345  0.00  0.00    -0.016 A 
ATOM      8  C8  IND d   1       4.131  -0.533   0.469  0.00  0.00    -0.047 A 
ATOM      9  C9  IND d   1       3.641  -0.079  -0.762  0.00  0.00    -0.096 A 
ATOM     10  HN1 IND d   1       3.947  -2.365   1.263  0.00  0.00     0.298 HD
ENDROOT
TORSDOF 0
ENDMDL
