MODEL 1
REMARK minimizedAffinity 2.93960619
REMARK minimizedRMSD -1
REMARK  0 active torsions:
REMARK  status: ('A' for Active; 'I' for Inactive)
ROOT
ATOM      1  N1  IND d   1       2.096  -1.738   5.215  0.00  0.00    -0.196 N 
ATOM      2  C2  IND d   1       1.445  -0.962   4.298  0.00  0.00     0.054 A 
ATOM      3  C3  IND d   1       0.444  -1.660   3.716  0.00  0.00    -0.031 A 
ATOM      4  C4  IND d   1      -0.369  -4.056   4.190  0.00  0.00     0.051 A 
ATOM      5  C5  IND d   1      -0.065  -5.173   4.917  0.00  0.00    -0.031 A 
ATOM      6  C6  IND d   1       0.995  -5.201   5.801  0.00  0.00     0.015 A 
ATOM      7  C7  IND d   1       1.786  -4.106   5.999  0.00  0.00    -0.016 A 
ATOM      8  C8  IND d   1       1.485  -2.972   5.257  0.00  0.00    -0.047 A 
ATOM      9  C9  IND d   1       0.437  -2.951   4.327  0.00  0.00    -0.096 A 
ATOM     10  HN1 IND d   1       2.773  -1.497   5.686  0.00  0.00     0.298 HD
ENDROOT
TORSDOF 0
ENDMDL
