MODEL 1
REMARK minimizedAffinity -3.53352976
REMARK minimizedRMSD -1
REMARK  0 active torsions:
REMARK  status: ('A' for Active; 'I' for Inactive)
ROOT
ATOM      1  N1  IND d   1       1.883   3.140   6.000  0.00  0.00    -0.196 N 
ATOM      2  C2  IND d   1       1.671   4.490   5.968  0.00  0.00     0.054 A 
ATOM      3  C3  IND d   1       2.784   5.131   5.545  0.00  0.00    -0.031 A 
ATOM      4  C4  IND d   1       5.032   4.157   4.755  0.00  0.00     0.051 A 
ATOM      5  C5  IND d   1       5.713   2.978   4.639  0.00  0.00    -0.031 A 
ATOM      6  C6  IND d   1       5.141   1.768   4.975  0.00  0.00     0.015 A 
ATOM      7  C7  IND d   1       3.855   1.691   5.430  0.00  0.00    -0.016 A 
ATOM      8  C8  IND d   1       3.162   2.887   5.556  0.00  0.00    -0.047 A 
ATOM      9  C9  IND d   1       3.752   4.121   5.258  0.00  0.00    -0.096 A 
ATOM     10  HN1 IND d   1       1.313   2.549   6.254  0.00  0.00     0.298 HD
ENDROOT
TORSDOF 0
ENDMDL
