MODEL 1
REMARK minimizedAffinity -2.03972268
REMARK minimizedRMSD -1
REMARK  0 active torsions:
REMARK  status: ('A' for Active; 'I' for Inactive)
ROOT
ATOM      1  N1  IND d   1       1.178   4.692   5.883  0.00  0.00    -0.196 N 
ATOM      2  C2  IND d   1       1.632   5.961   5.655  0.00  0.00     0.054 A 
ATOM      3  C3  IND d   1       2.971   5.955   5.469  0.00  0.00    -0.031 A 
ATOM      4  C4  IND d   1       4.603   3.965   5.394  0.00  0.00     0.051 A 
ATOM      5  C5  IND d   1       4.662   2.613   5.584  0.00  0.00    -0.031 A 
ATOM      6  C6  IND d   1       3.540   1.869   5.886  0.00  0.00     0.015 A 
ATOM      7  C7  IND d   1       2.309   2.451   5.999  0.00  0.00    -0.016 A 
ATOM      8  C8  IND d   1       2.246   3.825   5.815  0.00  0.00    -0.047 A 
ATOM      9  C9  IND d   1       3.389   4.591   5.550  0.00  0.00    -0.096 A 
ATOM     10  HN1 IND d   1       0.362   4.472   6.042  0.00  0.00     0.298 HD
ENDROOT
TORSDOF 0
ENDMDL
