MODEL 1
REMARK minimizedAffinity 1.30319476
REMARK minimizedRMSD -1
REMARK  0 active torsions:
REMARK  status: ('A' for Active; 'I' for Inactive)
ROOT
ATOM      1  N1  IND d   1       5.143   2.409   4.860  0.00  0.00    -0.196 N 
ATOM      2  C2  IND d   1       4.531   1.333   5.439  0.00  0.00     0.054 A 
ATOM      3  C3  IND d   1       3.358   1.704   6.000  0.00  0.00    -0.031 A 
ATOM      4  C4  IND d   1       2.201   4.003   6.000  0.00  0.00     0.051 A 
ATOM      5  C5  IND d   1       2.390   5.305   5.629  0.00  0.00    -0.031 A 
ATOM      6  C6  IND d   1       3.529   5.716   4.966  0.00  0.00     0.015 A 
ATOM      7  C7  IND d   1       4.520   4.834   4.639  0.00  0.00    -0.016 A 
ATOM      8  C8  IND d   1       4.334   3.513   5.021  0.00  0.00    -0.047 A 
ATOM      9  C9  IND d   1       3.200   3.098   5.731  0.00  0.00    -0.096 A 
ATOM     10  HN1 IND d   1       5.905   2.399   4.462  0.00  0.00     0.298 HD
ENDROOT
TORSDOF 0
ENDMDL
