MODEL 1
REMARK minimizedAffinity 6.21554804
REMARK minimizedRMSD -1
REMARK  0 active torsions:
REMARK  status: ('A' for Active; 'I' for Inactive)
ROOT
ATOM      1  N1  IND d   1      -2.762   3.936   1.828  0.00  0.00    -0.196 N 
ATOM      2  C2  IND d   1      -2.746   5.109   1.126  0.00  0.00     0.054 A 
ATOM      3  C3  IND d   1      -3.747   5.128   0.218  0.00  0.00    -0.031 A 
ATOM      4  C4  IND d   1      -5.592   3.386  -0.219  0.00  0.00     0.051 A 
ATOM      5  C5  IND d   1      -6.000   2.134   0.148  0.00  0.00    -0.031 A 
ATOM      6  C6  IND d   1      -5.338   1.405   1.115  0.00  0.00     0.015 A 
ATOM      7  C7  IND d   1      -4.245   1.909   1.762  0.00  0.00    -0.016 A 
ATOM      8  C8  IND d   1      -3.824   3.176   1.388  0.00  0.00    -0.047 A 
ATOM      9  C9  IND d   1      -4.466   3.903   0.377  0.00  0.00    -0.096 A 
ATOM     10  HN1 IND d   1      -2.204   3.711   2.442  0.00  0.00     0.298 HD
ENDROOT
TORSDOF 0
ENDMDL
