MODEL 1
REMARK minimizedAffinity 5.01376057
REMARK minimizedRMSD -1
REMARK  0 active torsions:
REMARK  status: ('A' for Active; 'I' for Inactive)
ROOT
ATOM      1  N1  IND d   1      -1.197  -4.541   4.571  0.00  0.00    -0.196 N 
ATOM      2  C2  IND d   1      -0.558  -5.498   5.309  0.00  0.00     0.054 A 
ATOM      3  C3  IND d   1       0.542  -4.980   5.900  0.00  0.00    -0.031 A 
ATOM      4  C4  IND d   1       1.426  -2.562   5.876  0.00  0.00     0.051 A 
ATOM      5  C5  IND d   1       1.201  -1.338   5.311  0.00  0.00    -0.031 A 
ATOM      6  C6  IND d   1       0.141  -1.114   4.455  0.00  0.00     0.015 A 
ATOM      7  C7  IND d   1      -0.742  -2.108   4.140  0.00  0.00    -0.016 A 
ATOM      8  C8  IND d   1      -0.512  -3.353   4.707  0.00  0.00    -0.047 A 
ATOM      9  C9  IND d   1       0.585  -3.598   5.542  0.00  0.00    -0.096 A 
ATOM     10  HN1 IND d   1      -1.907  -4.661   4.102  0.00  0.00     0.298 HD
ENDROOT
TORSDOF 0
ENDMDL
