MODEL 1
REMARK minimizedAffinity 14.1276789
REMARK minimizedRMSD -1
REMARK  0 active torsions:
REMARK  status: ('A' for Active; 'I' for Inactive)
ROOT
ATOM      1  N1  IND d   1       5.978   3.955   3.473  0.00  0.00    -0.196 N 
ATOM      2  C2  IND d   1       5.136   3.620   4.497  0.00  0.00     0.054 A 
ATOM      3  C3  IND d   1       4.120   2.855   4.039  0.00  0.00    -0.031 A 
ATOM      4  C4  IND d   1       3.697   1.947   1.667  0.00  0.00     0.051 A 
ATOM      5  C5  IND d   1       4.172   2.014   0.387  0.00  0.00    -0.031 A 
ATOM      6  C6  IND d   1       5.298   2.744   0.065  0.00  0.00     0.015 A 
ATOM      7  C7  IND d   1       6.000   3.428   1.016  0.00  0.00    -0.016 A 
ATOM      8  C8  IND d   1       5.516   3.368   2.316  0.00  0.00    -0.047 A 
ATOM      9  C9  IND d   1       4.350   2.664   2.642  0.00  0.00    -0.096 A 
ATOM     10  HN1 IND d   1       6.678   4.450   3.541  0.00  0.00     0.298 HD
ENDROOT
TORSDOF 0
ENDMDL
