MODEL 1
REMARK minimizedAffinity -0.244242966
REMARK minimizedRMSD -1
REMARK  0 active torsions:
REMARK  status: ('A' for Active; 'I' for Inactive)
ROOT
ATOM      1  N1  IND d   1       3.668   5.050   5.759  0.00  0.00    -0.196 N 
ATOM      2  C2  IND d   1       2.312   5.000   5.919  0.00  0.00     0.054 A 
ATOM      3  C3  IND d   1       1.895   3.716   6.000  0.00  0.00    -0.031 A 
ATOM      4  C4  IND d   1       3.277   1.544   5.997  0.00  0.00     0.051 A 
ATOM      5  C5  IND d   1       4.552   1.079   5.837  0.00  0.00    -0.031 A 
ATOM      6  C6  IND d   1       5.620   1.931   5.642  0.00  0.00     0.015 A 
ATOM      7  C7  IND d   1       5.453   3.287   5.611  0.00  0.00    -0.016 A 
ATOM      8  C8  IND d   1       4.158   3.762   5.765  0.00  0.00    -0.047 A 
ATOM      9  C9  IND d   1       3.065   2.901   5.921  0.00  0.00    -0.096 A 
ATOM     10  HN1 IND d   1       4.137   5.765   5.669  0.00  0.00     0.298 HD
ENDROOT
TORSDOF 0
ENDMDL
