MODEL 1
REMARK minimizedAffinity 5.99772644
REMARK minimizedRMSD -1
REMARK  0 active torsions:
REMARK  status: ('A' for Active; 'I' for Inactive)
ROOT
ATOM      1  N1  IND d   1       5.002   4.355   3.692  0.00  0.00    -0.196 N 
ATOM      2  C2  IND d   1       5.804   3.365   3.196  0.00  0.00     0.054 A 
ATOM      3  C3  IND d   1       5.426   2.163   3.688  0.00  0.00    -0.031 A 
ATOM      4  C4  IND d   1       3.457   1.576   5.239  0.00  0.00     0.051 A 
ATOM      5  C5  IND d   1       2.464   2.149   5.983  0.00  0.00    -0.031 A 
ATOM      6  C6  IND d   1       2.260   3.514   5.999  0.00  0.00     0.015 A 
ATOM      7  C7  IND d   1       3.038   4.359   5.260  0.00  0.00    -0.016 A 
ATOM      8  C8  IND d   1       4.052   3.782   4.509  0.00  0.00    -0.047 A 
ATOM      9  C9  IND d   1       4.291   2.401   4.522  0.00  0.00    -0.096 A 
ATOM     10  HN1 IND d   1       5.078   5.194   3.522  0.00  0.00     0.298 HD
ENDROOT
TORSDOF 0
ENDMDL
