MODEL 1
REMARK minimizedAffinity 0.773652494
REMARK minimizedRMSD -1
REMARK  2 active torsions:
REMARK  status: ('A' for Active; 'I' for Inactive)
REMARK    1  A    between atoms: C2'_3  and  C1'_4 
REMARK    2  A    between atoms: C1'_4  and  C1_5 
ROOT
ATOM      1  C1  I4B d   1       1.401  -1.318   0.566  0.00  0.00    -0.075 A 
ATOM      2  C2  I4B d   1       1.639  -0.084   0.014  0.00  0.00     0.003 A 
ATOM      3  C3  I4B d   1       1.882   1.035   0.848  0.00  0.00     0.002 A 
ATOM      4  C4  I4B d   1       1.829   0.885   2.218  0.00  0.00    -0.004 A 
ATOM      5  C5  I4B d   1       1.611  -0.371   2.776  0.00  0.00     0.002 A 
ATOM      6  C6  I4B d   1       1.408  -1.483   1.945  0.00  0.00     0.003 A 
ENDROOT
BRANCH   1   7
ATOM      7  C1' I4B d   1       1.115  -2.471  -0.343  0.00  0.00     0.060 C 
BRANCH   7   8
ATOM      8  C2' I4B d   1      -0.386  -2.553  -0.535  0.00  0.00    -0.013 C 
ATOM      9  C4' I4B d   1      -0.856  -1.579  -1.583  0.00  0.00     0.013 C 
ATOM     10  C3' I4B d   1      -0.728  -3.963  -0.913  0.00  0.00     0.013 C 
ENDBRANCH   7   8
ENDBRANCH   1   7
TORSDOF 2
ENDMDL
