MODEL 1
REMARK minimizedAffinity 6.2381258
REMARK minimizedRMSD -1
REMARK  2 active torsions:
REMARK  status: ('A' for Active; 'I' for Inactive)
REMARK    1  A    between atoms: C2'_3  and  C1'_4 
REMARK    2  A    between atoms: C1'_4  and  C1_5 
ROOT
ATOM      1  C1  I4B d   1       2.010  -1.132  -0.361  0.00  0.00    -0.075 A 
ATOM      2  C2  I4B d   1       1.650   0.067   0.202  0.00  0.00     0.003 A 
ATOM      3  C3  I4B d   1       2.548   1.162   0.182  0.00  0.00     0.002 A 
ATOM      4  C4  I4B d   1       3.805   1.000  -0.364  0.00  0.00    -0.004 A 
ATOM      5  C5  I4B d   1       4.160  -0.209  -0.955  0.00  0.00     0.002 A 
ATOM      6  C6  I4B d   1       3.252  -1.278  -0.965  0.00  0.00     0.003 A 
ENDROOT
BRANCH   1   7
ATOM      7  C1' I4B d   1       1.050  -2.277  -0.293  0.00  0.00     0.060 C 
BRANCH   7   8
ATOM      8  C2' I4B d   1      -0.351  -1.722  -0.452  0.00  0.00    -0.013 C 
ATOM      9  C4' I4B d   1      -0.819  -1.826  -1.880  0.00  0.00     0.013 C 
ATOM     10  C3' I4B d   1      -1.257  -2.481   0.471  0.00  0.00     0.013 C 
ENDBRANCH   7   8
ENDBRANCH   1   7
TORSDOF 2
ENDMDL
