MODEL 1
REMARK minimizedAffinity 11.1688786
REMARK minimizedRMSD -1
REMARK  2 active torsions:
REMARK  status: ('A' for Active; 'I' for Inactive)
REMARK    1  A    between atoms: C2'_3  and  C1'_4 
REMARK    2  A    between atoms: C1'_4  and  C1_5 
ROOT
ATOM      1  C1  I4B d   1       4.517   2.818   3.425  0.00  0.00    -0.075 A 
ATOM      2  C2  I4B d   1       3.347   2.205   3.054  0.00  0.00     0.003 A 
ATOM      3  C3  I4B d   1       3.119   1.865   1.698  0.00  0.00     0.002 A 
ATOM      4  C4  I4B d   1       4.060   2.200   0.746  0.00  0.00    -0.004 A 
ATOM      5  C5  I4B d   1       5.256   2.802   1.128  0.00  0.00     0.002 A 
ATOM      6  C6  I4B d   1       5.492   3.102   2.477  0.00  0.00     0.003 A 
ENDROOT
BRANCH   1   7
ATOM      7  C1' I4B d   1       4.710   3.193   4.860  0.00  0.00     0.060 C 
BRANCH   7   8
ATOM      8  C2' I4B d   1       4.983   4.682   4.921  0.00  0.00    -0.013 C 
ATOM      9  C4' I4B d   1       3.718   5.458   5.181  0.00  0.00     0.013 C 
ATOM     10  C3' I4B d   1       5.997   4.923   6.000  0.00  0.00     0.013 C 
ENDBRANCH   7   8
ENDBRANCH   1   7
TORSDOF 2
ENDMDL
