MODEL 1
REMARK minimizedAffinity 1.89478803
REMARK minimizedRMSD -1
REMARK  2 active torsions:
REMARK  status: ('A' for Active; 'I' for Inactive)
REMARK    1  A    between atoms: C2'_3  and  C1'_4 
REMARK    2  A    between atoms: C1'_4  and  C1_5 
ROOT
ATOM      1  C1  I4B d   1       1.419  -0.491  -0.021  0.00  0.00    -0.075 A 
ATOM      2  C2  I4B d   1       1.280   0.855   0.211  0.00  0.00     0.003 A 
ATOM      3  C3  I4B d   1       0.070   1.513  -0.117  0.00  0.00     0.002 A 
ATOM      4  C4  I4B d   1      -0.949   0.803  -0.717  0.00  0.00    -0.004 A 
ATOM      5  C5  I4B d   1      -0.815  -0.566  -0.931  0.00  0.00     0.002 A 
ATOM      6  C6  I4B d   1       0.372  -1.220  -0.569  0.00  0.00     0.003 A 
ENDROOT
BRANCH   1   7
ATOM      7  C1' I4B d   1       2.722  -1.148   0.308  0.00  0.00     0.060 C 
BRANCH   7   8
ATOM      8  C2' I4B d   1       3.752  -0.058   0.525  0.00  0.00    -0.013 C 
ATOM      9  C4' I4B d   1       5.033  -0.622   1.082  0.00  0.00     0.013 C 
ATOM     10  C3' I4B d   1       3.988   0.625  -0.789  0.00  0.00     0.013 C 
ENDBRANCH   7   8
ENDBRANCH   1   7
TORSDOF 2
ENDMDL
