MODEL 1
REMARK minimizedAffinity 4.75144529
REMARK minimizedRMSD -1
REMARK  1 active torsions:
REMARK  status: ('A' for Active; 'I' for Inactive)
REMARK    1  A    between atoms: C1_2  and  C2_3 
ROOT
ATOM      1  C2  UNL d   1      -3.728  -0.116   2.225  0.00  0.00    -0.077 A 
ATOM      2  C3  UNL d   1      -4.485  -1.102   1.577  0.00  0.00     0.002 A 
ATOM      3  C4  UNL d   1      -5.615  -1.644   2.193  0.00  0.00     0.002 A 
ATOM      4  C5  UNL d   1      -6.000  -1.202   3.457  0.00  0.00    -0.004 A 
ATOM      5  C6  UNL d   1      -5.253  -0.223   4.111  0.00  0.00     0.002 A 
ATOM      6  C7  UNL d   1      -4.123   0.319   3.497  0.00  0.00     0.002 A 
ENDROOT
BRANCH   1   7
ATOM      7  C1  UNL d   1      -2.538   0.505   1.541  0.00  0.00     0.055 C 
ATOM      8  C   UNL d   1      -1.248  -0.210   1.918  0.00  0.00     0.019 C 
ENDBRANCH   1   7
TORSDOF 1
ENDMDL
