MODEL 1
REMARK minimizedAffinity -0.782344162
REMARK minimizedRMSD -1
REMARK  1 active torsions:
REMARK  status: ('A' for Active; 'I' for Inactive)
REMARK    1  A    between atoms: C1_2  and  C2_3 
ROOT
ATOM      1  C2  UNL d   1      -4.797  -5.222  -3.671  0.00  0.00    -0.077 A 
ATOM      2  C3  UNL d   1      -5.370  -3.943  -3.683  0.00  0.00     0.002 A 
ATOM      3  C4  UNL d   1      -5.967  -3.447  -4.844  0.00  0.00     0.002 A 
ATOM      4  C5  UNL d   1      -6.000  -4.225  -5.999  0.00  0.00    -0.004 A 
ATOM      5  C6  UNL d   1      -5.430  -5.498  -5.998  0.00  0.00     0.002 A 
ATOM      6  C7  UNL d   1      -4.832  -5.995  -4.839  0.00  0.00     0.002 A 
ENDROOT
BRANCH   1   7
ATOM      7  C1  UNL d   1      -4.196  -5.778  -2.406  0.00  0.00     0.055 C 
ATOM      8  C   UNL d   1      -5.259  -6.000  -1.340  0.00  0.00     0.019 C 
ENDBRANCH   1   7
TORSDOF 1
ENDMDL
