MODEL 1
REMARK minimizedAffinity -0.939090729
REMARK minimizedRMSD -1
REMARK  1 active torsions:
REMARK  status: ('A' for Active; 'I' for Inactive)
REMARK    1  A    between atoms: C1_2  and  C2_3 
ROOT
ATOM      1  C2  UNL d   1      -5.273  -5.280  -3.622  0.00  0.00    -0.077 A 
ATOM      2  C3  UNL d   1      -5.502  -5.999  -4.804  0.00  0.00     0.002 A 
ATOM      3  C4  UNL d   1      -5.865  -5.333  -5.976  0.00  0.00     0.002 A 
ATOM      4  C5  UNL d   1      -5.998  -3.946  -5.979  0.00  0.00    -0.004 A 
ATOM      5  C6  UNL d   1      -5.775  -3.223  -4.808  0.00  0.00     0.002 A 
ATOM      6  C7  UNL d   1      -5.413  -3.887  -3.635  0.00  0.00     0.002 A 
ENDROOT
BRANCH   1   7
ATOM      7  C1  UNL d   1      -4.833  -5.992  -2.370  0.00  0.00     0.055 C 
ATOM      8  C   UNL d   1      -3.317  -6.000  -2.241  0.00  0.00     0.019 C 
ENDBRANCH   1   7
TORSDOF 1
ENDMDL
