MODEL 1
REMARK minimizedAffinity -0.0700794607
REMARK minimizedRMSD -1
REMARK  1 active torsions:
REMARK  status: ('A' for Active; 'I' for Inactive)
REMARK    1  A    between atoms: C1_2  and  C2_3 
ROOT
ATOM      1  C2  UNL d   1      -4.786  -5.178  -3.866  0.00  0.00    -0.077 A 
ATOM      2  C3  UNL d   1      -5.403  -5.880  -4.911  0.00  0.00     0.002 A 
ATOM      3  C4  UNL d   1      -5.998  -5.191  -5.970  0.00  0.00     0.002 A 
ATOM      4  C5  UNL d   1      -5.979  -3.798  -5.996  0.00  0.00    -0.004 A 
ATOM      5  C6  UNL d   1      -5.370  -3.091  -4.960  0.00  0.00     0.002 A 
ATOM      6  C7  UNL d   1      -4.776  -3.777  -3.900  0.00  0.00     0.002 A 
ENDROOT
BRANCH   1   7
ATOM      7  C1  UNL d   1      -4.101  -5.919  -2.748  0.00  0.00     0.055 C 
ATOM      8  C   UNL d   1      -4.503  -5.366  -1.389  0.00  0.00     0.019 C 
ENDBRANCH   1   7
TORSDOF 1
ENDMDL
