MODEL 1
REMARK minimizedAffinity 8.98497963
REMARK minimizedRMSD -1
REMARK  1 active torsions:
REMARK  status: ('A' for Active; 'I' for Inactive)
REMARK    1  A    between atoms: C1_2  and  C2_3 
ROOT
ATOM      1  C2  UNL d   1      -5.214  -4.974  -2.726  0.00  0.00    -0.077 A 
ATOM      2  C3  UNL d   1      -5.608  -5.793  -3.793  0.00  0.00     0.002 A 
ATOM      3  C4  UNL d   1      -5.991  -5.230  -5.012  0.00  0.00     0.002 A 
ATOM      4  C5  UNL d   1      -5.978  -3.846  -5.176  0.00  0.00    -0.004 A 
ATOM      5  C6  UNL d   1      -5.589  -3.023  -4.120  0.00  0.00     0.002 A 
ATOM      6  C7  UNL d   1      -5.208  -3.584  -2.901  0.00  0.00     0.002 A 
ENDROOT
BRANCH   1   7
ATOM      7  C1  UNL d   1      -4.754  -5.582  -1.426  0.00  0.00     0.055 C 
ATOM      8  C   UNL d   1      -3.250  -5.816  -1.426  0.00  0.00     0.019 C 
ENDBRANCH   1   7
TORSDOF 1
ENDMDL
