MODEL 1
REMARK minimizedAffinity 4.33854532
REMARK minimizedRMSD -1
REMARK  1 active torsions:
REMARK  status: ('A' for Active; 'I' for Inactive)
REMARK    1  A    between atoms: C1_2  and  C2_3 
ROOT
ATOM      1  C2  UNL d   1      -4.886  -5.102  -3.048  0.00  0.00    -0.077 A 
ATOM      2  C3  UNL d   1      -5.429  -5.974  -4.002  0.00  0.00     0.002 A 
ATOM      3  C4  UNL d   1      -5.985  -5.474  -5.181  0.00  0.00     0.002 A 
ATOM      4  C5  UNL d   1      -6.000  -4.101  -5.418  0.00  0.00    -0.004 A 
ATOM      5  C6  UNL d   1      -5.465  -3.225  -4.475  0.00  0.00     0.002 A 
ATOM      6  C7  UNL d   1      -4.909  -3.724  -3.295  0.00  0.00     0.002 A 
ENDROOT
BRANCH   1   7
ATOM      7  C1  UNL d   1      -4.241  -5.643  -1.799  0.00  0.00     0.055 C 
ATOM      8  C   UNL d   1      -2.748  -5.859  -1.995  0.00  0.00     0.019 C 
ENDBRANCH   1   7
TORSDOF 1
ENDMDL
