MODEL 1
REMARK minimizedAffinity 4.98010445
REMARK minimizedRMSD -1
REMARK  1 active torsions:
REMARK  status: ('A' for Active; 'I' for Inactive)
REMARK    1  A    between atoms: C1_2  and  C2_3 
ROOT
ATOM      1  C2  UNL d   1      -4.794  -5.201  -3.704  0.00  0.00    -0.077 A 
ATOM      2  C3  UNL d   1      -4.933  -3.807  -3.765  0.00  0.00     0.002 A 
ATOM      3  C4  UNL d   1      -5.532  -3.205  -4.873  0.00  0.00     0.002 A 
ATOM      4  C5  UNL d   1      -5.999  -3.989  -5.926  0.00  0.00    -0.004 A 
ATOM      5  C6  UNL d   1      -5.864  -5.375  -5.875  0.00  0.00     0.002 A 
ATOM      6  C7  UNL d   1      -5.264  -5.979  -4.769  0.00  0.00     0.002 A 
ENDROOT
BRANCH   1   7
ATOM      7  C1  UNL d   1      -4.193  -5.855  -2.487  0.00  0.00     0.055 C 
ATOM      8  C   UNL d   1      -2.900  -5.168  -2.071  0.00  0.00     0.019 C 
ENDBRANCH   1   7
TORSDOF 1
ENDMDL
