MODEL 1
REMARK minimizedAffinity 5.84856129
REMARK minimizedRMSD -1
REMARK  1 active torsions:
REMARK  status: ('A' for Active; 'I' for Inactive)
REMARK    1  A    between atoms: C1_2  and  C2_3 
ROOT
ATOM      1  C2  UNL d   1      -4.536  -3.718  -4.363  0.00  0.00    -0.077 A 
ATOM      2  C3  UNL d   1      -4.548  -4.882  -3.580  0.00  0.00     0.002 A 
ATOM      3  C4  UNL d   1      -5.279  -6.000  -3.988  0.00  0.00     0.002 A 
ATOM      4  C5  UNL d   1      -5.999  -5.966  -5.180  0.00  0.00    -0.004 A 
ATOM      5  C6  UNL d   1      -5.995  -4.813  -5.964  0.00  0.00     0.002 A 
ATOM      6  C7  UNL d   1      -5.266  -3.695  -5.558  0.00  0.00     0.002 A 
ENDROOT
BRANCH   1   7
ATOM      7  C1  UNL d   1      -3.709  -2.529  -3.949  0.00  0.00     0.055 C 
ATOM      8  C   UNL d   1      -2.294  -2.620  -4.501  0.00  0.00     0.019 C 
ENDBRANCH   1   7
TORSDOF 1
ENDMDL
