MODEL 1
REMARK minimizedAffinity 0.425911814
REMARK minimizedRMSD -1
REMARK  1 active torsions:
REMARK  status: ('A' for Active; 'I' for Inactive)
REMARK    1  A    between atoms: C1_2  and  C2_3 
ROOT
ATOM      1  C2  UNL d   1      -3.692  -3.956  -3.569  0.00  0.00    -0.077 A 
ATOM      2  C3  UNL d   1      -3.286  -5.085  -2.845  0.00  0.00     0.002 A 
ATOM      3  C4  UNL d   1      -4.231  -6.000  -2.374  0.00  0.00     0.002 A 
ATOM      4  C5  UNL d   1      -5.586  -5.796  -2.627  0.00  0.00    -0.004 A 
ATOM      5  C6  UNL d   1      -6.000  -4.674  -3.344  0.00  0.00     0.002 A 
ATOM      6  C7  UNL d   1      -5.057  -3.759  -3.814  0.00  0.00     0.002 A 
ENDROOT
BRANCH   1   7
ATOM      7  C1  UNL d   1      -2.671  -2.994  -4.119  0.00  0.00     0.055 C 
ATOM      8  C   UNL d   1      -1.256  -3.422  -3.757  0.00  0.00     0.019 C 
ENDBRANCH   1   7
TORSDOF 1
ENDMDL
