MODEL 1
REMARK minimizedAffinity -0.164901808
REMARK minimizedRMSD -1
REMARK  1 active torsions:
REMARK  status: ('A' for Active; 'I' for Inactive)
REMARK    1  A    between atoms: C1_2  and  C2_3 
ROOT
ATOM      1  C2  UNL d   1      -4.786  -4.931  -3.457  0.00  0.00    -0.077 A 
ATOM      2  C3  UNL d   1      -4.693  -3.684  -4.091  0.00  0.00     0.002 A 
ATOM      3  C4  UNL d   1      -5.248  -3.492  -5.357  0.00  0.00     0.002 A 
ATOM      4  C5  UNL d   1      -5.903  -4.541  -5.999  0.00  0.00    -0.004 A 
ATOM      5  C6  UNL d   1      -6.000  -5.786  -5.377  0.00  0.00     0.002 A 
ATOM      6  C7  UNL d   1      -5.444  -5.980  -4.112  0.00  0.00     0.002 A 
ENDROOT
BRANCH   1   7
ATOM      7  C1  UNL d   1      -4.231  -5.125  -2.070  0.00  0.00     0.055 C 
ATOM      8  C   UNL d   1      -2.715  -5.253  -2.093  0.00  0.00     0.019 C 
ENDBRANCH   1   7
TORSDOF 1
ENDMDL
