MODEL 1
REMARK minimizedAffinity -0.982555509
REMARK minimizedRMSD -1
REMARK  0 active torsions:
REMARK  status: ('A' for Active; 'I' for Inactive)
ROOT
ATOM      1  C   UNL d   1      -1.858   0.800   3.619  0.00  0.00     0.078 C 
ATOM      2  C1  UNL d   1      -1.189   0.589   2.293  0.00  0.00    -0.077 A 
ATOM      3  C2  UNL d   1      -0.064   1.337   1.926  0.00  0.00    -0.001 A 
ATOM      4  C3  UNL d   1       0.542   1.137   0.685  0.00  0.00     0.003 A 
ATOM      5  C4  UNL d   1       0.031   0.189  -0.199  0.00  0.00    -0.005 A 
ATOM      6  C5  UNL d   1      -1.089  -0.559   0.157  0.00  0.00     0.003 A 
ATOM      7  C6  UNL d   1      -1.697  -0.360   1.397  0.00  0.00    -0.001 A 
ENDROOT
TORSDOF 0
ENDMDL
