MODEL 1
REMARK minimizedAffinity -2.58809829
REMARK minimizedRMSD -1
REMARK  0 active torsions:
REMARK  status: ('A' for Active; 'I' for Inactive)
ROOT
ATOM      1  C   UNL d   1      -2.622  -0.119   3.842  0.00  0.00     0.078 C 
ATOM      2  C1  UNL d   1      -3.177  -0.497   2.501  0.00  0.00    -0.077 A 
ATOM      3  C2  UNL d   1      -4.557  -0.628   2.303  0.00  0.00    -0.001 A 
ATOM      4  C3  UNL d   1      -5.060  -0.990   1.052  0.00  0.00     0.003 A 
ATOM      5  C4  UNL d   1      -4.189  -1.226  -0.010  0.00  0.00    -0.005 A 
ATOM      6  C5  UNL d   1      -2.814  -1.100   0.178  0.00  0.00     0.003 A 
ATOM      7  C6  UNL d   1      -2.310  -0.738   1.429  0.00  0.00    -0.001 A 
ENDROOT
TORSDOF 0
ENDMDL
