MODEL 1
REMARK minimizedAffinity 9.03202534
REMARK minimizedRMSD -1
REMARK  0 active torsions:
REMARK  status: ('A' for Active; 'I' for Inactive)
ROOT
ATOM      1  C   UNL d   1      -1.423  -3.637  -2.838  0.00  0.00     0.078 C 
ATOM      2  C1  UNL d   1      -0.937  -4.463  -1.685  0.00  0.00    -0.077 A 
ATOM      3  C2  UNL d   1      -1.622  -4.471  -0.463  0.00  0.00    -0.001 A 
ATOM      4  C3  UNL d   1      -1.152  -5.237   0.605  0.00  0.00     0.003 A 
ATOM      5  C4  UNL d   1       0.005  -5.999   0.463  0.00  0.00    -0.005 A 
ATOM      6  C5  UNL d   1       0.695  -5.996  -0.748  0.00  0.00     0.003 A 
ATOM      7  C6  UNL d   1       0.227  -5.231  -1.817  0.00  0.00    -0.001 A 
ENDROOT
TORSDOF 0
ENDMDL
