MODEL 1
REMARK minimizedAffinity 4.19179249
REMARK minimizedRMSD -1
REMARK  0 active torsions:
REMARK  status: ('A' for Active; 'I' for Inactive)
ROOT
ATOM      1  C   UNL d   1      -4.110  -1.166   1.727  0.00  0.00     0.078 C 
ATOM      2  C1  UNL d   1      -3.029  -0.633   2.620  0.00  0.00    -0.077 A 
ATOM      3  C2  UNL d   1      -2.851  -1.134   3.915  0.00  0.00    -0.001 A 
ATOM      4  C3  UNL d   1      -1.847  -0.621   4.738  0.00  0.00     0.003 A 
ATOM      5  C4  UNL d   1      -1.014   0.395   4.276  0.00  0.00    -0.005 A 
ATOM      6  C5  UNL d   1      -1.185   0.902   2.989  0.00  0.00     0.003 A 
ATOM      7  C6  UNL d   1      -2.189   0.391   2.164  0.00  0.00    -0.001 A 
ENDROOT
TORSDOF 0
ENDMDL
