MODEL 1
REMARK minimizedAffinity 0.0671461225
REMARK minimizedRMSD -1
REMARK  0 active torsions:
REMARK  status: ('A' for Active; 'I' for Inactive)
ROOT
ATOM      1  C   UNL d   1      -5.218  -0.550  -0.721  0.00  0.00     0.078 C 
ATOM      2  C1  UNL d   1      -4.038  -0.657   0.199  0.00  0.00    -0.077 A 
ATOM      3  C2  UNL d   1      -4.023   0.006   1.432  0.00  0.00    -0.001 A 
ATOM      4  C3  UNL d   1      -2.914  -0.095   2.274  0.00  0.00     0.003 A 
ATOM      5  C4  UNL d   1      -1.811  -0.857   1.890  0.00  0.00    -0.005 A 
ATOM      6  C5  UNL d   1      -1.817  -1.518   0.664  0.00  0.00     0.003 A 
ATOM      7  C6  UNL d   1      -2.925  -1.418  -0.179  0.00  0.00    -0.001 A 
ENDROOT
TORSDOF 0
ENDMDL
