MODEL 1
REMARK minimizedAffinity 2.76634336
REMARK minimizedRMSD -1
REMARK  0 active torsions:
REMARK  status: ('A' for Active; 'I' for Inactive)
ROOT
ATOM      1  C   UNL d   1      -0.924  -6.000  -1.108  0.00  0.00     0.078 C 
ATOM      2  C1  UNL d   1      -1.175  -4.524  -1.008  0.00  0.00    -0.077 A 
ATOM      3  C2  UNL d   1      -1.182  -3.715  -2.151  0.00  0.00    -0.001 A 
ATOM      4  C3  UNL d   1      -1.407  -2.342  -2.042  0.00  0.00     0.003 A 
ATOM      5  C4  UNL d   1      -1.626  -1.766  -0.792  0.00  0.00    -0.005 A 
ATOM      6  C5  UNL d   1      -1.619  -2.563   0.351  0.00  0.00     0.003 A 
ATOM      7  C6  UNL d   1      -1.394  -3.936   0.244  0.00  0.00    -0.001 A 
ENDROOT
TORSDOF 0
ENDMDL
