MODEL 1
REMARK minimizedAffinity 6.7634654
REMARK minimizedRMSD -1
REMARK  0 active torsions:
REMARK  status: ('A' for Active; 'I' for Inactive)
ROOT
ATOM      1  C   UNL d   1      -2.994  -0.821   2.610  0.00  0.00     0.078 C 
ATOM      2  C1  UNL d   1      -3.832  -0.788   1.368  0.00  0.00    -0.077 A 
ATOM      3  C2  UNL d   1      -5.192  -1.121   1.406  0.00  0.00    -0.001 A 
ATOM      4  C3  UNL d   1      -5.958  -1.095   0.240  0.00  0.00     0.003 A 
ATOM      5  C4  UNL d   1      -5.373  -0.738  -0.974  0.00  0.00    -0.005 A 
ATOM      6  C5  UNL d   1      -4.021  -0.407  -1.022  0.00  0.00     0.003 A 
ATOM      7  C6  UNL d   1      -3.253  -0.432   0.143  0.00  0.00    -0.001 A 
ENDROOT
TORSDOF 0
ENDMDL
