MODEL 1
REMARK minimizedAffinity 0.258604437
REMARK minimizedRMSD -1
REMARK  0 active torsions:
REMARK  status: ('A' for Active; 'I' for Inactive)
ROOT
ATOM      1  C   UNL d   1      -1.711  -5.985   1.911  0.00  0.00     0.078 C 
ATOM      2  C1  UNL d   1      -1.250  -5.998   3.338  0.00  0.00    -0.077 A 
ATOM      3  C2  UNL d   1      -2.170  -5.995   4.393  0.00  0.00    -0.001 A 
ATOM      4  C3  UNL d   1      -1.727  -5.997   5.717  0.00  0.00     0.003 A 
ATOM      5  C4  UNL d   1      -0.362  -6.000   5.998  0.00  0.00    -0.005 A 
ATOM      6  C5  UNL d   1       0.562  -6.000   4.954  0.00  0.00     0.003 A 
ATOM      7  C6  UNL d   1       0.120  -5.998   3.630  0.00  0.00    -0.001 A 
ENDROOT
TORSDOF 0
ENDMDL
