MODEL 1
REMARK minimizedAffinity -3.67525101
REMARK minimizedRMSD -1
REMARK  0 active torsions:
REMARK  status: ('A' for Active; 'I' for Inactive)
ROOT
ATOM      1  C   UNL d   1      -4.155   5.990   2.025  0.00  0.00     0.078 C 
ATOM      2  C1  UNL d   1      -4.510   5.526   3.406  0.00  0.00    -0.077 A 
ATOM      3  C2  UNL d   1      -5.569   4.635   3.617  0.00  0.00    -0.001 A 
ATOM      4  C3  UNL d   1      -5.895   4.218   4.909  0.00  0.00     0.003 A 
ATOM      5  C4  UNL d   1      -5.167   4.690   6.000  0.00  0.00    -0.005 A 
ATOM      6  C5  UNL d   1      -4.113   5.579   5.800  0.00  0.00     0.003 A 
ATOM      7  C6  UNL d   1      -3.786   5.996   4.509  0.00  0.00    -0.001 A 
ENDROOT
TORSDOF 0
ENDMDL
