MODEL 1
REMARK minimizedAffinity -1.05252266
REMARK minimizedRMSD -1
REMARK  1 active torsions:
REMARK  status: ('A' for Active; 'I' for Inactive)
REMARK    1  A    between atoms: C3_4  and  O_7 
ROOT
ATOM      1  C   UNL d   1      -0.210   0.123   1.406  0.00  0.00    -0.033 A 
ATOM      2  C1  UNL d   1      -1.242  -0.651   1.941  0.00  0.00     0.039 A 
ATOM      3  C2  UNL d   1      -0.957  -1.643   2.881  0.00  0.00    -0.080 A 
ATOM      4  C3  UNL d   1       0.361  -1.851   3.278  0.00  0.00     0.150 A 
ATOM      5  C4  UNL d   1       1.393  -1.081   2.752  0.00  0.00    -0.007 A 
ATOM      6  C5  UNL d   1       1.107  -0.091   1.813  0.00  0.00     0.039 A 
ENDROOT
BRANCH   4   7
ATOM      7  O   UNL d   1       0.688  -2.811   4.189  0.00  0.00    -0.526 OA
ATOM      8  H5  UNL d   1      -0.122  -3.283   4.443  0.00  0.00     0.418 HD
ENDBRANCH   4   7
TORSDOF 1
ENDMDL
