MODEL 1
REMARK minimizedAffinity -0.670196354
REMARK minimizedRMSD -1
REMARK  1 active torsions:
REMARK  status: ('A' for Active; 'I' for Inactive)
REMARK    1  A    between atoms: C3_4  and  O_7 
ROOT
ATOM      1  C   UNL d   1      -1.058  -0.137   1.697  0.00  0.00    -0.033 A 
ATOM      2  C1  UNL d   1       0.311  -0.144   1.424  0.00  0.00     0.039 A 
ATOM      3  C2  UNL d   1       1.187  -0.845   2.255  0.00  0.00    -0.080 A 
ATOM      4  C3  UNL d   1       0.681  -1.534   3.354  0.00  0.00     0.150 A 
ATOM      5  C4  UNL d   1      -0.682  -1.534   3.630  0.00  0.00    -0.007 A 
ATOM      6  C5  UNL d   1      -1.555  -0.833   2.799  0.00  0.00     0.039 A 
ENDROOT
BRANCH   4   7
ATOM      7  O   UNL d   1       1.497  -2.228   4.197  0.00  0.00    -0.526 OA
ATOM      8  H5  UNL d   1       2.415  -2.115   3.899  0.00  0.00     0.418 HD
ENDBRANCH   4   7
TORSDOF 1
ENDMDL
