MODEL 1
REMARK minimizedAffinity -0.291998684
REMARK minimizedRMSD -1
REMARK  1 active torsions:
REMARK  status: ('A' for Active; 'I' for Inactive)
REMARK    1  A    between atoms: C3_4  and  O_7 
ROOT
ATOM      1  C   UNL d   1       1.074  -0.951   3.228  0.00  0.00    -0.033 A 
ATOM      2  C1  UNL d   1       0.650  -2.115   3.871  0.00  0.00     0.039 A 
ATOM      3  C2  UNL d   1      -0.697  -2.484   3.834  0.00  0.00    -0.080 A 
ATOM      4  C3  UNL d   1      -1.606  -1.681   3.151  0.00  0.00     0.150 A 
ATOM      5  C4  UNL d   1      -1.190  -0.522   2.505  0.00  0.00    -0.007 A 
ATOM      6  C5  UNL d   1       0.155  -0.155   2.543  0.00  0.00     0.039 A 
ENDROOT
BRANCH   4   7
ATOM      7  O   UNL d   1      -2.931  -1.998   3.091  0.00  0.00    -0.526 OA
ATOM      8  H5  UNL d   1      -3.077  -2.809   3.607  0.00  0.00     0.418 HD
ENDBRANCH   4   7
TORSDOF 1
ENDMDL
