MODEL 1
REMARK minimizedAffinity -1.62915826
REMARK minimizedRMSD -1
REMARK  1 active torsions:
REMARK  status: ('A' for Active; 'I' for Inactive)
REMARK    1  A    between atoms: C3_4  and  O_7 
ROOT
ATOM      1  C   UNL d   1      -2.277  -0.964   2.914  0.00  0.00    -0.033 A 
ATOM      2  C1  UNL d   1      -1.146  -0.225   2.561  0.00  0.00     0.039 A 
ATOM      3  C2  UNL d   1       0.097  -0.539   3.115  0.00  0.00    -0.080 A 
ATOM      4  C3  UNL d   1       0.195  -1.594   4.018  0.00  0.00     0.150 A 
ATOM      5  C4  UNL d   1      -0.927  -2.337   4.371  0.00  0.00    -0.007 A 
ATOM      6  C5  UNL d   1      -2.167  -2.021   3.818  0.00  0.00     0.039 A 
ENDROOT
BRANCH   4   7
ATOM      7  O   UNL d   1       1.385  -1.935   4.588  0.00  0.00    -0.526 OA
ATOM      8  H5  UNL d   1       2.066  -1.317   4.272  0.00  0.00     0.418 HD
ENDBRANCH   4   7
TORSDOF 1
ENDMDL
