MODEL 1
REMARK minimizedAffinity -1.97268069
REMARK minimizedRMSD -1
REMARK  1 active torsions:
REMARK  status: ('A' for Active; 'I' for Inactive)
REMARK    1  A    between atoms: C3_4  and  O_7 
ROOT
ATOM      1  C   UNL d   1      -1.645  -0.393   1.716  0.00  0.00    -0.033 A 
ATOM      2  C1  UNL d   1      -2.015  -1.615   2.280  0.00  0.00     0.039 A 
ATOM      3  C2  UNL d   1      -1.097  -2.341   3.041  0.00  0.00    -0.080 A 
ATOM      4  C3  UNL d   1       0.186  -1.834   3.231  0.00  0.00     0.150 A 
ATOM      5  C4  UNL d   1       0.560  -0.615   2.675  0.00  0.00    -0.007 A 
ATOM      6  C5  UNL d   1      -0.358   0.108   1.915  0.00  0.00     0.039 A 
ENDROOT
BRANCH   4   7
ATOM      7  O   UNL d   1       1.118  -2.509   3.962  0.00  0.00    -0.526 OA
ATOM      8  H5  UNL d   1       0.728  -3.347   4.260  0.00  0.00     0.418 HD
ENDBRANCH   4   7
TORSDOF 1
ENDMDL
