MODEL 1
REMARK minimizedAffinity -4.36034155
REMARK minimizedRMSD -1
REMARK  1 active torsions:
REMARK  status: ('A' for Active; 'I' for Inactive)
REMARK    1  A    between atoms: C3_4  and  O_7 
ROOT
ATOM      1  C   UNL d   1      -0.073   0.150   1.607  0.00  0.00    -0.033 A 
ATOM      2  C1  UNL d   1      -1.174  -0.372   2.289  0.00  0.00     0.039 A 
ATOM      3  C2  UNL d   1      -0.988  -1.323   3.294  0.00  0.00    -0.080 A 
ATOM      4  C3  UNL d   1       0.302  -1.742   3.608  0.00  0.00     0.150 A 
ATOM      5  C4  UNL d   1       1.403  -1.224   2.935  0.00  0.00    -0.007 A 
ATOM      6  C5  UNL d   1       1.216  -0.275   1.931  0.00  0.00     0.039 A 
ENDROOT
BRANCH   4   7
ATOM      7  O   UNL d   1       0.533  -2.672   4.578  0.00  0.00    -0.526 OA
ATOM      8  H5  UNL d   1      -0.322  -2.961   4.937  0.00  0.00     0.418 HD
ENDBRANCH   4   7
TORSDOF 1
ENDMDL
