MODEL 1
REMARK minimizedAffinity -0.946929276
REMARK minimizedRMSD -1
REMARK  1 active torsions:
REMARK  status: ('A' for Active; 'I' for Inactive)
REMARK    1  A    between atoms: C3_4  and  O_7 
ROOT
ATOM      1  C   UNL d   1      -0.460  -1.599   4.677  0.00  0.00    -0.033 A 
ATOM      2  C1  UNL d   1      -1.136  -1.048   3.586  0.00  0.00     0.039 A 
ATOM      3  C2  UNL d   1      -0.431  -0.683   2.438  0.00  0.00    -0.080 A 
ATOM      4  C3  UNL d   1       0.947  -0.875   2.392  0.00  0.00     0.150 A 
ATOM      5  C4  UNL d   1       1.626  -1.428   3.472  0.00  0.00    -0.007 A 
ATOM      6  C5  UNL d   1       0.920  -1.791   4.619  0.00  0.00     0.039 A 
ENDROOT
BRANCH   4   7
ATOM      7  O   UNL d   1       1.678  -0.530   1.294  0.00  0.00    -0.526 OA
ATOM      8  H5  UNL d   1       1.080  -0.134   0.638  0.00  0.00     0.418 HD
ENDBRANCH   4   7
TORSDOF 1
ENDMDL
