MODEL 1
REMARK minimizedAffinity 6.77537727
REMARK minimizedRMSD -1
REMARK  0 active torsions:
REMARK  status: ('A' for Active; 'I' for Inactive)
ROOT
ATOM      1  C1  BNZ d   1       1.082  -3.479  -0.054  0.00  0.00     0.000 A 
ATOM      2  C2  BNZ d   1       0.905  -4.831  -0.179  0.00  0.00     0.000 A 
ATOM      3  C3  BNZ d   1       1.964  -5.688  -0.067  0.00  0.00     0.000 A 
ATOM      4  C4  BNZ d   1       3.202  -5.190   0.129  0.00  0.00     0.000 A 
ATOM      5  C5  BNZ d   1       3.398  -3.829   0.248  0.00  0.00     0.000 A 
ATOM      6  C6  BNZ d   1       2.324  -2.971   0.174  0.00  0.00     0.000 A 
ENDROOT
TORSDOF 0
ENDMDL
