MODEL 1
REMARK minimizedAffinity 0.0388901457
REMARK minimizedRMSD -1
REMARK  0 active torsions:
REMARK  status: ('A' for Active; 'I' for Inactive)
ROOT
ATOM      1  C1  BNZ d   1       2.651  -3.980   0.972  0.00  0.00     0.000 A 
ATOM      2  C2  BNZ d   1       3.142  -2.973   1.759  0.00  0.00     0.000 A 
ATOM      3  C3  BNZ d   1       2.426  -1.825   1.955  0.00  0.00     0.000 A 
ATOM      4  C4  BNZ d   1       1.240  -1.669   1.332  0.00  0.00     0.000 A 
ATOM      5  C5  BNZ d   1       0.736  -2.672   0.527  0.00  0.00     0.000 A 
ATOM      6  C6  BNZ d   1       1.441  -3.842   0.364  0.00  0.00     0.000 A 
ENDROOT
TORSDOF 0
ENDMDL
