MODEL 1
REMARK minimizedAffinity -1.92806816
REMARK minimizedRMSD -1
REMARK  0 active torsions:
REMARK  status: ('A' for Active; 'I' for Inactive)
ROOT
ATOM      1  C1  BNZ d   1      -3.643   5.999   5.237  0.00  0.00     0.000 A 
ATOM      2  C2  BNZ d   1      -2.274   5.998   5.257  0.00  0.00     0.000 A 
ATOM      3  C3  BNZ d   1      -1.580   4.877   5.620  0.00  0.00     0.000 A 
ATOM      4  C4  BNZ d   1      -2.256   3.773   6.000  0.00  0.00     0.000 A 
ATOM      5  C5  BNZ d   1      -3.637   3.762   5.994  0.00  0.00     0.000 A 
ATOM      6  C6  BNZ d   1      -4.331   4.880   5.591  0.00  0.00     0.000 A 
ENDROOT
TORSDOF 0
ENDMDL
