MODEL 1
REMARK minimizedAffinity 7.33288383
REMARK minimizedRMSD -1
REMARK  0 active torsions:
REMARK  status: ('A' for Active; 'I' for Inactive)
ROOT
ATOM      1  C1  BNZ d   1      -6.000  -1.257  -3.548  0.00  0.00     0.000 A 
ATOM      2  C2  BNZ d   1      -5.435  -2.485  -3.771  0.00  0.00     0.000 A 
ATOM      3  C3  BNZ d   1      -4.856  -2.780  -4.973  0.00  0.00     0.000 A 
ATOM      4  C4  BNZ d   1      -4.878  -1.864  -5.963  0.00  0.00     0.000 A 
ATOM      5  C5  BNZ d   1      -5.453  -0.626  -5.756  0.00  0.00     0.000 A 
ATOM      6  C6  BNZ d   1      -6.000  -0.318  -4.532  0.00  0.00     0.000 A 
ENDROOT
TORSDOF 0
ENDMDL
