MODEL 1
REMARK minimizedAffinity 1.26260495
REMARK minimizedRMSD -1
REMARK  0 active torsions:
REMARK  status: ('A' for Active; 'I' for Inactive)
ROOT
ATOM      1  C1  BNZ d   1       3.685  -3.854   1.156  0.00  0.00     0.000 A 
ATOM      2  C2  BNZ d   1       3.296  -2.544   1.254  0.00  0.00     0.000 A 
ATOM      3  C3  BNZ d   1       2.094  -2.132   0.751  0.00  0.00     0.000 A 
ATOM      4  C4  BNZ d   1       1.302  -3.019   0.116  0.00  0.00     0.000 A 
ATOM      5  C5  BNZ d   1       1.684  -4.341   0.001  0.00  0.00     0.000 A 
ATOM      6  C6  BNZ d   1       2.877  -4.761   0.543  0.00  0.00     0.000 A 
ENDROOT
TORSDOF 0
ENDMDL
