MODEL 1
REMARK minimizedAffinity 0.646121681
REMARK minimizedRMSD -1
REMARK  0 active torsions:
REMARK  status: ('A' for Active; 'I' for Inactive)
ROOT
ATOM      1  C1  BNZ d   1       2.483  -4.107   0.357  0.00  0.00     0.000 A 
ATOM      2  C2  BNZ d   1       1.510  -3.146   0.426  0.00  0.00     0.000 A 
ATOM      3  C3  BNZ d   1       1.679  -2.035   1.204  0.00  0.00     0.000 A 
ATOM      4  C4  BNZ d   1       2.800  -1.906   1.942  0.00  0.00     0.000 A 
ATOM      5  C5  BNZ d   1       3.786  -2.871   1.889  0.00  0.00     0.000 A 
ATOM      6  C6  BNZ d   1       3.630  -3.969   1.075  0.00  0.00     0.000 A 
ENDROOT
TORSDOF 0
ENDMDL
