MODEL 1
REMARK minimizedAffinity 1.88085973
REMARK minimizedRMSD -1
REMARK  0 active torsions:
REMARK  status: ('A' for Active; 'I' for Inactive)
ROOT
ATOM      1  C1  BNZ d   1       3.395  -1.414   4.438  0.00  0.00     0.000 A 
ATOM      2  C2  BNZ d   1       2.544  -1.333   3.368  0.00  0.00     0.000 A 
ATOM      3  C3  BNZ d   1       2.912  -1.815   2.143  0.00  0.00     0.000 A 
ATOM      4  C4  BNZ d   1       4.144  -2.340   1.980  0.00  0.00     0.000 A 
ATOM      5  C5  BNZ d   1       5.017  -2.420   3.047  0.00  0.00     0.000 A 
ATOM      6  C6  BNZ d   1       4.628  -1.969   4.288  0.00  0.00     0.000 A 
ENDROOT
TORSDOF 0
ENDMDL
