MODEL 1
REMARK minimizedAffinity 7.70111084
REMARK minimizedRMSD -1
REMARK  0 active torsions:
REMARK  status: ('A' for Active; 'I' for Inactive)
ROOT
ATOM      1  C1  BNZ d   1      -1.687   1.834  -2.129  0.00  0.00     0.000 A 
ATOM      2  C2  BNZ d   1      -0.382   1.646  -2.498  0.00  0.00     0.000 A 
ATOM      3  C3  BNZ d   1       0.026   1.894  -3.779  0.00  0.00     0.000 A 
ATOM      4  C4  BNZ d   1      -0.878   2.292  -4.697  0.00  0.00     0.000 A 
ATOM      5  C5  BNZ d   1      -2.199   2.477  -4.342  0.00  0.00     0.000 A 
ATOM      6  C6  BNZ d   1      -2.598   2.263  -3.043  0.00  0.00     0.000 A 
ENDROOT
TORSDOF 0
ENDMDL
