MODEL 1
REMARK minimizedAffinity 0.891437471
REMARK minimizedRMSD -1
REMARK  0 active torsions:
REMARK  status: ('A' for Active; 'I' for Inactive)
ROOT
ATOM      1  C2' OXE d   1       2.246  -2.471  -0.491  0.00  0.00     0.078 C 
ATOM      2  C1' OXE d   1       4.566  -4.043  -0.331  0.00  0.00     0.078 C 
ATOM      3  C1  OXE d   1       4.004  -3.755  -1.701  0.00  0.00    -0.078 A 
ATOM      4  C2  OXE d   1       2.843  -3.024  -1.767  0.00  0.00    -0.078 A 
ATOM      5  C3  OXE d   1       2.312  -2.683  -3.008  0.00  0.00     0.003 A 
ATOM      6  C4  OXE d   1       2.865  -3.207  -4.183  0.00  0.00    -0.002 A 
ATOM      7  C5  OXE d   1       4.025  -3.987  -4.135  0.00  0.00    -0.002 A 
ATOM      8  C6  OXE d   1       4.630  -4.234  -2.908  0.00  0.00     0.003 A 
ENDROOT
TORSDOF 0
ENDMDL
