MODEL 1
REMARK minimizedAffinity 9.79687691
REMARK minimizedRMSD -1
REMARK  0 active torsions:
REMARK  status: ('A' for Active; 'I' for Inactive)
ROOT
ATOM      1  C2' OXE d   1       1.593  -6.000  -2.260  0.00  0.00     0.078 C 
ATOM      2  C1' OXE d   1       3.418  -4.390  -3.659  0.00  0.00     0.078 C 
ATOM      3  C1  OXE d   1       3.580  -4.501  -2.164  0.00  0.00    -0.078 A 
ATOM      4  C2  OXE d   1       2.655  -5.253  -1.482  0.00  0.00    -0.078 A 
ATOM      5  C3  OXE d   1       2.790  -5.433  -0.108  0.00  0.00     0.003 A 
ATOM      6  C4  OXE d   1       3.769  -4.731   0.606  0.00  0.00    -0.002 A 
ATOM      7  C5  OXE d   1       4.697  -3.928  -0.065  0.00  0.00    -0.002 A 
ATOM      8  C6  OXE d   1       4.643  -3.836  -1.451  0.00  0.00     0.003 A 
ENDROOT
TORSDOF 0
ENDMDL
