MODEL 1
REMARK minimizedAffinity 7.92329025
REMARK minimizedRMSD -1
REMARK  0 active torsions:
REMARK  status: ('A' for Active; 'I' for Inactive)
ROOT
ATOM      1  C2' OXE d   1       4.769  -5.395  -0.287  0.00  0.00     0.078 C 
ATOM      2  C1' OXE d   1       2.672  -3.574   0.118  0.00  0.00     0.078 C 
ATOM      3  C1  OXE d   1       2.919  -4.060  -1.288  0.00  0.00    -0.078 A 
ATOM      4  C2  OXE d   1       3.977  -4.915  -1.484  0.00  0.00    -0.078 A 
ATOM      5  C3  OXE d   1       4.216  -5.437  -2.752  0.00  0.00     0.003 A 
ATOM      6  C4  OXE d   1       3.485  -4.980  -3.856  0.00  0.00    -0.002 A 
ATOM      7  C5  OXE d   1       2.429  -4.079  -3.684  0.00  0.00    -0.002 A 
ATOM      8  C6  OXE d   1       2.107  -3.643  -2.404  0.00  0.00     0.003 A 
ENDROOT
TORSDOF 0
ENDMDL
