MODEL 1
REMARK minimizedAffinity 7.13595676
REMARK minimizedRMSD -1
REMARK  0 active torsions:
REMARK  status: ('A' for Active; 'I' for Inactive)
ROOT
ATOM      1  C2' OXE d   1       5.253  -4.187  -4.844  0.00  0.00     0.078 C 
ATOM      2  C1' OXE d   1       2.918  -2.715  -5.351  0.00  0.00     0.078 C 
ATOM      3  C1  OXE d   1       3.033  -3.414  -4.020  0.00  0.00    -0.078 A 
ATOM      4  C2  OXE d   1       4.159  -4.171  -3.799  0.00  0.00    -0.078 A 
ATOM      5  C3  OXE d   1       4.341  -4.792  -2.567  0.00  0.00     0.003 A 
ATOM      6  C4  OXE d   1       3.320  -4.781  -1.609  0.00  0.00    -0.002 A 
ATOM      7  C5  OXE d   1       2.148  -4.049  -1.830  0.00  0.00    -0.002 A 
ATOM      8  C6  OXE d   1       2.007  -3.327  -3.010  0.00  0.00     0.003 A 
ENDROOT
TORSDOF 0
ENDMDL
