MODEL 1
REMARK minimizedAffinity 3.01338172
REMARK minimizedRMSD -1
REMARK  0 active torsions:
REMARK  status: ('A' for Active; 'I' for Inactive)
ROOT
ATOM      1  C2' OXE d   1      -5.999  -2.105   2.624  0.00  0.00     0.078 C 
ATOM      2  C1' OXE d   1      -5.997  -4.475   1.120  0.00  0.00     0.078 C 
ATOM      3  C1  OXE d   1      -5.319  -4.496   2.467  0.00  0.00    -0.078 A 
ATOM      4  C2  OXE d   1      -5.284  -3.319   3.176  0.00  0.00    -0.078 A 
ATOM      5  C3  OXE d   1      -4.719  -3.297   4.448  0.00  0.00     0.003 A 
ATOM      6  C4  OXE d   1      -4.051  -4.422   4.947  0.00  0.00    -0.002 A 
ATOM      7  C5  OXE d   1      -4.040  -5.620   4.224  0.00  0.00    -0.002 A 
ATOM      8  C6  OXE d   1      -4.705  -5.686   3.004  0.00  0.00     0.003 A 
ENDROOT
TORSDOF 0
ENDMDL
