MODEL 1
REMARK minimizedAffinity 0.965976715
REMARK minimizedRMSD -1
REMARK  0 active torsions:
REMARK  status: ('A' for Active; 'I' for Inactive)
ROOT
ATOM      1  C2' OXE d   1       4.632  -5.069  -0.366  0.00  0.00     0.078 C 
ATOM      2  C1' OXE d   1       2.456  -3.301  -0.512  0.00  0.00     0.078 C 
ATOM      3  C1  OXE d   1       3.054  -3.789  -1.808  0.00  0.00    -0.078 A 
ATOM      4  C2  OXE d   1       4.147  -4.617  -1.727  0.00  0.00    -0.078 A 
ATOM      5  C3  OXE d   1       4.703  -5.140  -2.891  0.00  0.00     0.003 A 
ATOM      6  C4  OXE d   1       4.256  -4.710  -4.146  0.00  0.00    -0.002 A 
ATOM      7  C5  OXE d   1       3.169  -3.836  -4.250  0.00  0.00    -0.002 A 
ATOM      8  C6  OXE d   1       2.531  -3.400  -3.094  0.00  0.00     0.003 A 
ENDROOT
TORSDOF 0
ENDMDL
