MODEL 1
REMARK minimizedAffinity 0.325062782
REMARK minimizedRMSD -1
REMARK  0 active torsions:
REMARK  status: ('A' for Active; 'I' for Inactive)
ROOT
ATOM      1  C2' OXE d   1       3.442  -3.018   0.263  0.00  0.00     0.078 C 
ATOM      2  C1' OXE d   1       5.470  -4.870  -0.318  0.00  0.00     0.078 C 
ATOM      3  C1  OXE d   1       4.397  -4.652  -1.356  0.00  0.00    -0.078 A 
ATOM      4  C2  OXE d   1       3.383  -3.779  -1.044  0.00  0.00    -0.078 A 
ATOM      5  C3  OXE d   1       2.398  -3.501  -1.987  0.00  0.00     0.003 A 
ATOM      6  C4  OXE d   1       2.346  -4.217  -3.189  0.00  0.00    -0.002 A 
ATOM      7  C5  OXE d   1       3.347  -5.140  -3.510  0.00  0.00    -0.002 A 
ATOM      8  C6  OXE d   1       4.401  -5.338  -2.625  0.00  0.00     0.003 A 
ENDROOT
TORSDOF 0
ENDMDL
