MODEL 1
REMARK minimizedAffinity 13.2982969
REMARK minimizedRMSD -1
REMARK  0 active torsions:
REMARK  status: ('A' for Active; 'I' for Inactive)
ROOT
ATOM      1  C2' OXE d   1       2.523  -3.104  -0.155  0.00  0.00     0.078 C 
ATOM      2  C1' OXE d   1       4.525  -5.002  -0.674  0.00  0.00     0.078 C 
ATOM      3  C1  OXE d   1       3.623  -4.601  -1.814  0.00  0.00    -0.078 A 
ATOM      4  C2  OXE d   1       2.617  -3.706  -1.540  0.00  0.00    -0.078 A 
ATOM      5  C3  OXE d   1       1.792  -3.261  -2.568  0.00  0.00     0.003 A 
ATOM      6  C4  OXE d   1       1.878  -3.830  -3.844  0.00  0.00    -0.002 A 
ATOM      7  C5  OXE d   1       2.871  -4.772  -4.135  0.00  0.00    -0.002 A 
ATOM      8  C6  OXE d   1       3.776  -5.136  -3.145  0.00  0.00     0.003 A 
ENDROOT
TORSDOF 0
ENDMDL
