MODEL 1
REMARK minimizedAffinity 6.04999781
REMARK minimizedRMSD -1
REMARK  0 active torsions:
REMARK  status: ('A' for Active; 'I' for Inactive)
ROOT
ATOM      1  C2' OXE d   1       1.773  -3.260  -2.975  0.00  0.00     0.078 C 
ATOM      2  C1' OXE d   1       3.413  -5.352  -3.877  0.00  0.00     0.078 C 
ATOM      3  C1  OXE d   1       3.596  -4.877  -2.457  0.00  0.00    -0.078 A 
ATOM      4  C2  OXE d   1       2.821  -3.821  -2.039  0.00  0.00    -0.078 A 
ATOM      5  C3  OXE d   1       2.911  -3.379  -0.722  0.00  0.00     0.003 A 
ATOM      6  C4  OXE d   1       3.890  -3.897   0.134  0.00  0.00    -0.002 A 
ATOM      7  C5  OXE d   1       4.717  -4.946  -0.284  0.00  0.00    -0.002 A 
ATOM      8  C6  OXE d   1       4.554  -5.475  -1.560  0.00  0.00     0.003 A 
ENDROOT
TORSDOF 0
ENDMDL
