MODEL 1
REMARK minimizedAffinity 1.8825767
REMARK minimizedRMSD -1
REMARK  0 active torsions:
REMARK  status: ('A' for Active; 'I' for Inactive)
ROOT
ATOM      1  C2' OXE d   1       2.435  -1.415  -0.378  0.00  0.00     0.078 C 
ATOM      2  C1' OXE d   1       4.110  -3.601   0.164  0.00  0.00     0.078 C 
ATOM      3  C1  OXE d   1       3.348  -3.605  -1.137  0.00  0.00    -0.078 A 
ATOM      4  C2  OXE d   1       2.495  -2.554  -1.373  0.00  0.00    -0.078 A 
ATOM      5  C3  OXE d   1       1.810  -2.480  -2.583  0.00  0.00     0.003 A 
ATOM      6  C4  OXE d   1       1.863  -3.543  -3.493  0.00  0.00    -0.002 A 
ATOM      7  C5  OXE d   1       2.695  -4.642  -3.254  0.00  0.00    -0.002 A 
ATOM      8  C6  OXE d   1       3.475  -4.668  -2.103  0.00  0.00     0.003 A 
ENDROOT
TORSDOF 0
ENDMDL
