MODEL 1
REMARK minimizedAffinity 5.03807211
REMARK minimizedRMSD -1
REMARK  0 active torsions:
REMARK  status: ('A' for Active; 'I' for Inactive)
ROOT
ATOM      1  C2' OXE d   1       4.867  -5.386  -1.314  0.00  0.00     0.078 C 
ATOM      2  C1' OXE d   1       5.762  -4.819  -3.913  0.00  0.00     0.078 C 
ATOM      3  C1  OXE d   1       4.315  -4.541  -3.592  0.00  0.00    -0.078 A 
ATOM      4  C2  OXE d   1       3.874  -4.865  -2.331  0.00  0.00    -0.078 A 
ATOM      5  C3  OXE d   1       2.563  -4.579  -1.965  0.00  0.00     0.003 A 
ATOM      6  C4  OXE d   1       1.649  -4.106  -2.914  0.00  0.00    -0.002 A 
ATOM      7  C5  OXE d   1       2.067  -3.806  -4.215  0.00  0.00    -0.002 A 
ATOM      8  C6  OXE d   1       3.404  -3.978  -4.557  0.00  0.00     0.003 A 
ENDROOT
TORSDOF 0
ENDMDL
