MODEL 1
REMARK minimizedAffinity 3.35059118
REMARK minimizedRMSD -1
REMARK  0 active torsions:
REMARK  status: ('A' for Active; 'I' for Inactive)
ROOT
ATOM      1  C2' OXE d   1       2.235  -3.275  -3.791  0.00  0.00     0.078 C 
ATOM      2  C1' OXE d   1       4.510  -4.914  -3.931  0.00  0.00     0.078 C 
ATOM      3  C1  OXE d   1       3.938  -4.620  -2.567  0.00  0.00    -0.078 A 
ATOM      4  C2  OXE d   1       2.853  -3.779  -2.505  0.00  0.00    -0.078 A 
ATOM      5  C3  OXE d   1       2.252  -3.519  -1.276  0.00  0.00     0.003 A 
ATOM      6  C4  OXE d   1       2.835  -3.981  -0.090  0.00  0.00    -0.002 A 
ATOM      7  C5  OXE d   1       3.965  -4.806  -0.129  0.00  0.00    -0.002 A 
ATOM      8  C6  OXE d   1       4.502  -5.169  -1.359  0.00  0.00     0.003 A 
ENDROOT
TORSDOF 0
ENDMDL
