MODEL 1
REMARK minimizedAffinity 0.0279625952
REMARK minimizedRMSD -1
REMARK  0 active torsions:
REMARK  status: ('A' for Active; 'I' for Inactive)
ROOT
ATOM      1  C2' OXE d   1       4.253  -4.392  -0.039  0.00  0.00     0.078 C 
ATOM      2  C1' OXE d   1       2.233  -2.464  -0.331  0.00  0.00     0.078 C 
ATOM      3  C1  OXE d   1       2.830  -3.053  -1.585  0.00  0.00    -0.078 A 
ATOM      4  C2  OXE d   1       3.850  -3.961  -1.433  0.00  0.00    -0.078 A 
ATOM      5  C3  OXE d   1       4.399  -4.576  -2.555  0.00  0.00     0.003 A 
ATOM      6  C4  OXE d   1       4.028  -4.165  -3.841  0.00  0.00    -0.002 A 
ATOM      7  C5  OXE d   1       3.018  -3.212  -4.018  0.00  0.00    -0.002 A 
ATOM      8  C6  OXE d   1       2.381  -2.679  -2.903  0.00  0.00     0.003 A 
ENDROOT
TORSDOF 0
ENDMDL
