MODEL 1
REMARK minimizedAffinity 6.26015139
REMARK minimizedRMSD -1
REMARK  0 active torsions:
REMARK  status: ('A' for Active; 'I' for Inactive)
ROOT
ATOM      1  C2' OXE d   1       4.438  -5.188  -0.661  0.00  0.00     0.078 C 
ATOM      2  C1' OXE d   1       5.626  -4.986  -3.196  0.00  0.00     0.078 C 
ATOM      3  C1  OXE d   1       4.141  -4.743  -3.094  0.00  0.00    -0.078 A 
ATOM      4  C2  OXE d   1       3.560  -4.890  -1.857  0.00  0.00    -0.078 A 
ATOM      5  C3  OXE d   1       2.203  -4.623  -1.697  0.00  0.00     0.003 A 
ATOM      6  C4  OXE d   1       1.396  -4.358  -2.810  0.00  0.00    -0.002 A 
ATOM      7  C5  OXE d   1       1.961  -4.243  -4.085  0.00  0.00    -0.002 A 
ATOM      8  C6  OXE d   1       3.335  -4.390  -4.237  0.00  0.00     0.003 A 
ENDROOT
TORSDOF 0
ENDMDL
