MODEL 1
REMARK minimizedAffinity -2.12451816
REMARK minimizedRMSD -1
REMARK  0 active torsions:
REMARK  status: ('A' for Active; 'I' for Inactive)
ROOT
ATOM      1  C2' OXE d   1       4.457  -4.586  -0.351  0.00  0.00     0.078 C 
ATOM      2  C1' OXE d   1       5.542  -4.635  -2.940  0.00  0.00     0.078 C 
ATOM      3  C1  OXE d   1       4.131  -4.128  -2.778  0.00  0.00    -0.078 A 
ATOM      4  C2  OXE d   1       3.592  -4.152  -1.514  0.00  0.00    -0.078 A 
ATOM      5  C3  OXE d   1       2.313  -3.645  -1.301  0.00  0.00     0.003 A 
ATOM      6  C4  OXE d   1       1.515  -3.255  -2.383  0.00  0.00    -0.002 A 
ATOM      7  C5  OXE d   1       2.031  -3.260  -3.684  0.00  0.00    -0.002 A 
ATOM      8  C6  OXE d   1       3.349  -3.653  -3.892  0.00  0.00     0.003 A 
ENDROOT
TORSDOF 0
ENDMDL
