MODEL 1
REMARK minimizedAffinity 2.67271852
REMARK minimizedRMSD -1
REMARK  0 active torsions:
REMARK  status: ('A' for Active; 'I' for Inactive)
ROOT
ATOM      1  C2' OXE d   1       1.800  -2.250  -3.038  0.00  0.00     0.078 C 
ATOM      2  C1' OXE d   1       0.786  -4.676  -4.021  0.00  0.00     0.078 C 
ATOM      3  C1  OXE d   1       1.906  -4.739  -3.013  0.00  0.00    -0.078 A 
ATOM      4  C2  OXE d   1       2.427  -3.546  -2.572  0.00  0.00    -0.078 A 
ATOM      5  C3  OXE d   1       3.425  -3.546  -1.601  0.00  0.00     0.003 A 
ATOM      6  C4  OXE d   1       4.007  -4.749  -1.183  0.00  0.00    -0.002 A 
ATOM      7  C5  OXE d   1       3.518  -5.974  -1.649  0.00  0.00    -0.002 A 
ATOM      8  C6  OXE d   1       2.442  -5.988  -2.530  0.00  0.00     0.003 A 
ENDROOT
TORSDOF 0
ENDMDL
