MODEL 1
REMARK minimizedAffinity 7.14699793
REMARK minimizedRMSD -1
REMARK  0 active torsions:
REMARK  status: ('A' for Active; 'I' for Inactive)
ROOT
ATOM      1  C2' OXE d   1      -5.613  -1.926  -5.995  0.00  0.00     0.078 C 
ATOM      2  C1' OXE d   1      -2.848  -1.443  -5.974  0.00  0.00     0.078 C 
ATOM      3  C1  OXE d   1      -3.311  -2.878  -5.979  0.00  0.00    -0.078 A 
ATOM      4  C2  OXE d   1      -4.666  -3.106  -5.942  0.00  0.00    -0.078 A 
ATOM      5  C3  OXE d   1      -5.148  -4.410  -6.000  0.00  0.00     0.003 A 
ATOM      6  C4  OXE d   1      -4.265  -5.495  -5.941  0.00  0.00    -0.002 A 
ATOM      7  C5  OXE d   1      -2.882  -5.286  -5.938  0.00  0.00    -0.002 A 
ATOM      8  C6  OXE d   1      -2.389  -3.987  -6.000  0.00  0.00     0.003 A 
ENDROOT
TORSDOF 0
ENDMDL
