MODEL 1
REMARK minimizedAffinity 16.8091927
REMARK minimizedRMSD -1
REMARK  0 active torsions:
REMARK  status: ('A' for Active; 'I' for Inactive)
ROOT
ATOM      1  C2' OXE d   1       0.368   5.623   1.177  0.00  0.00     0.078 C 
ATOM      2  C1' OXE d   1       1.026   5.998  -1.526  0.00  0.00     0.078 C 
ATOM      3  C1  OXE d   1       1.389   4.679  -0.890  0.00  0.00    -0.078 A 
ATOM      4  C2  OXE d   1       1.105   4.522   0.445  0.00  0.00    -0.078 A 
ATOM      5  C3  OXE d   1       1.368   3.305   1.067  0.00  0.00     0.003 A 
ATOM      6  C4  OXE d   1       2.059   2.296   0.386  0.00  0.00    -0.002 A 
ATOM      7  C5  OXE d   1       2.393   2.450  -0.964  0.00  0.00    -0.002 A 
ATOM      8  C6  OXE d   1       2.028   3.617  -1.627  0.00  0.00     0.003 A 
ENDROOT
TORSDOF 0
ENDMDL
