MODEL 1
REMARK minimizedAffinity 19.5000629
REMARK minimizedRMSD -1
REMARK  0 active torsions:
REMARK  status: ('A' for Active; 'I' for Inactive)
ROOT
ATOM      1  C2' OXE d   1      -2.715  -5.499  -1.413  0.00  0.00     0.078 C 
ATOM      2  C1' OXE d   1      -3.288  -4.225  -3.847  0.00  0.00     0.078 C 
ATOM      3  C1  OXE d   1      -1.840  -4.461  -3.501  0.00  0.00    -0.078 A 
ATOM      4  C2  OXE d   1      -1.567  -5.043  -2.287  0.00  0.00    -0.078 A 
ATOM      5  C3  OXE d   1      -0.250  -5.334  -1.942  0.00  0.00     0.003 A 
ATOM      6  C4  OXE d   1       0.807  -4.900  -2.751  0.00  0.00    -0.002 A 
ATOM      7  C5  OXE d   1       0.552  -4.270  -3.974  0.00  0.00    -0.002 A 
ATOM      8  C6  OXE d   1      -0.763  -4.081  -4.383  0.00  0.00     0.003 A 
ENDROOT
TORSDOF 0
ENDMDL
