MODEL 1
REMARK minimizedAffinity 23.8260098
REMARK minimizedRMSD -1
REMARK  0 active torsions:
REMARK  status: ('A' for Active; 'I' for Inactive)
ROOT
ATOM      1  C2' OXE d   1      -3.947   0.828   3.534  0.00  0.00     0.078 C 
ATOM      2  C1' OXE d   1      -2.560   1.133   5.955  0.00  0.00     0.078 C 
ATOM      3  C1  OXE d   1      -1.777   1.270   4.674  0.00  0.00    -0.078 A 
ATOM      4  C2  OXE d   1      -2.454   1.073   3.495  0.00  0.00    -0.078 A 
ATOM      5  C3  OXE d   1      -1.791   1.242   2.282  0.00  0.00     0.003 A 
ATOM      6  C4  OXE d   1      -0.408   1.459   2.255  0.00  0.00    -0.002 A 
ATOM      7  C5  OXE d   1       0.308   1.623   3.445  0.00  0.00    -0.002 A 
ATOM      8  C6  OXE d   1      -0.367   1.574   4.659  0.00  0.00     0.003 A 
ENDROOT
TORSDOF 0
ENDMDL
