MODEL 1
REMARK minimizedAffinity 0.432206631
REMARK minimizedRMSD -1
REMARK  0 active torsions:
REMARK  status: ('A' for Active; 'I' for Inactive)
ROOT
ATOM      1  C   UNL d   1      -0.679   3.171   3.184  0.00  0.00     0.124 A 
ATOM      2  C1  UNL d   1       0.672   2.908   3.362  0.00  0.00     0.062 A 
ATOM      3  C2  UNL d   1       1.390   2.236   2.377  0.00  0.00     0.162 A 
ATOM      4  C3  UNL d   1       0.758   1.823   1.204  0.00  0.00    -0.034 A 
ATOM      5  C4  UNL d   1      -0.601   2.090   1.033  0.00  0.00     0.162 A 
ATOM      6  C5  UNL d   1      -1.314   2.762   2.021  0.00  0.00     0.062 A 
ATOM      7  F   UNL d   1      -2.620   3.015   1.847  0.00  0.00    -0.097 F 
ATOM      8  F1  UNL d   1      -1.240   1.706  -0.082  0.00  0.00    -0.096 F 
ATOM      9  I   UNL d   1       1.828   0.817  -0.271  0.00  0.00    -0.060 I 
ATOM     10  F2  UNL d   1       2.695   1.996   2.575  0.00  0.00    -0.096 F 
ATOM     11  F3  UNL d   1       1.288   3.302   4.486  0.00  0.00    -0.097 F 
ATOM     12  F4  UNL d   1      -1.367   3.817   4.134  0.00  0.00    -0.092 F 
ENDROOT
TORSDOF 0
ENDMDL
