MODEL 1
REMARK minimizedAffinity 12.3458204
REMARK minimizedRMSD -1
REMARK  0 active torsions:
REMARK  status: ('A' for Active; 'I' for Inactive)
ROOT
ATOM      1  C   UNL d   1      -1.631   2.264   1.777  0.00  0.00     0.124 A 
ATOM      2  C1  UNL d   1      -1.887   1.194   0.931  0.00  0.00     0.062 A 
ATOM      3  C2  UNL d   1      -0.836   0.528   0.308  0.00  0.00     0.162 A 
ATOM      4  C3  UNL d   1       0.482   0.929   0.529  0.00  0.00    -0.034 A 
ATOM      5  C4  UNL d   1       0.731   2.006   1.381  0.00  0.00     0.162 A 
ATOM      6  C5  UNL d   1      -0.322   2.669   2.002  0.00  0.00     0.062 A 
ATOM      7  F   UNL d   1      -0.073   3.703   2.819  0.00  0.00    -0.097 F 
ATOM      8  F1  UNL d   1       1.986   2.418   1.616  0.00  0.00    -0.096 F 
ATOM      9  I   UNL d   1       2.056  -0.065  -0.401  0.00  0.00    -0.060 I 
ATOM     10  F2  UNL d   1      -1.112  -0.503  -0.505  0.00  0.00    -0.096 F 
ATOM     11  F3  UNL d   1      -3.150   0.802   0.712  0.00  0.00    -0.097 F 
ATOM     12  F4  UNL d   1      -2.644   2.904   2.375  0.00  0.00    -0.092 F 
ENDROOT
TORSDOF 0
ENDMDL
