MODEL 1
REMARK minimizedAffinity 10.1037979
REMARK minimizedRMSD -1
REMARK  0 active torsions:
REMARK  status: ('A' for Active; 'I' for Inactive)
ROOT
ATOM      1  C   UNL d   1       3.168   1.693   0.780  0.00  0.00     0.124 A 
ATOM      2  C1  UNL d   1       2.230   2.366   1.551  0.00  0.00     0.062 A 
ATOM      3  C2  UNL d   1       0.870   2.144   1.352  0.00  0.00     0.162 A 
ATOM      4  C3  UNL d   1       0.440   1.242   0.378  0.00  0.00    -0.034 A 
ATOM      5  C4  UNL d   1       1.389   0.570  -0.394  0.00  0.00     0.162 A 
ATOM      6  C5  UNL d   1       2.746   0.796  -0.191  0.00  0.00     0.062 A 
ATOM      7  F   UNL d   1       3.651   0.144  -0.937  0.00  0.00    -0.097 F 
ATOM      8  F1  UNL d   1       1.010  -0.303  -1.339  0.00  0.00    -0.096 F 
ATOM      9  I   UNL d   1      -1.592   0.907   0.077  0.00  0.00    -0.060 I 
ATOM     10  F2  UNL d   1      -0.014   2.808   2.111  0.00  0.00    -0.096 F 
ATOM     11  F3  UNL d   1       2.634   3.234   2.489  0.00  0.00    -0.097 F 
ATOM     12  F4  UNL d   1       4.475   1.910   0.973  0.00  0.00    -0.092 F 
ENDROOT
TORSDOF 0
ENDMDL
