MODEL 1
REMARK minimizedAffinity 8.79028416
REMARK minimizedRMSD -1
REMARK  0 active torsions:
REMARK  status: ('A' for Active; 'I' for Inactive)
ROOT
ATOM      1  C   UNL d   1       3.933   3.159   2.314  0.00  0.00     0.124 A 
ATOM      2  C1  UNL d   1       2.721   2.485   2.275  0.00  0.00     0.062 A 
ATOM      3  C2  UNL d   1       2.401   1.682   1.184  0.00  0.00     0.162 A 
ATOM      4  C3  UNL d   1       3.296   1.548   0.122  0.00  0.00    -0.034 A 
ATOM      5  C4  UNL d   1       4.513   2.230   0.168  0.00  0.00     0.162 A 
ATOM      6  C5  UNL d   1       4.828   3.031   1.261  0.00  0.00     0.062 A 
ATOM      7  F   UNL d   1       6.000   3.682   1.297  0.00  0.00    -0.097 F 
ATOM      8  F1  UNL d   1       5.397   2.124  -0.835  0.00  0.00    -0.096 F 
ATOM      9  I   UNL d   1       2.821   0.349  -1.511  0.00  0.00    -0.060 I 
ATOM     10  F2  UNL d   1       1.222   1.042   1.173  0.00  0.00    -0.096 F 
ATOM     11  F3  UNL d   1       1.854   2.607   3.291  0.00  0.00    -0.097 F 
ATOM     12  F4  UNL d   1       4.238   3.931   3.365  0.00  0.00    -0.092 F 
ENDROOT
TORSDOF 0
ENDMDL
