MODEL 1
REMARK minimizedAffinity 14.8891907
REMARK minimizedRMSD -1
REMARK  0 active torsions:
REMARK  status: ('A' for Active; 'I' for Inactive)
ROOT
ATOM      1  C   UNL d   1      -0.818   2.715   1.463  0.00  0.00     0.124 A 
ATOM      2  C1  UNL d   1       0.262   1.935   1.071  0.00  0.00     0.062 A 
ATOM      3  C2  UNL d   1       0.053   0.668   0.534  0.00  0.00     0.162 A 
ATOM      4  C3  UNL d   1      -1.242   0.172   0.385  0.00  0.00    -0.034 A 
ATOM      5  C4  UNL d   1      -2.323   0.961   0.781  0.00  0.00     0.162 A 
ATOM      6  C5  UNL d   1      -2.109   2.227   1.317  0.00  0.00     0.062 A 
ATOM      7  F   UNL d   1      -3.154   2.978   1.695  0.00  0.00    -0.097 F 
ATOM      8  F1  UNL d   1      -3.582   0.516   0.651  0.00  0.00    -0.096 F 
ATOM      9  I   UNL d   1      -1.559  -1.722  -0.418  0.00  0.00    -0.060 I 
ATOM     10  F2  UNL d   1       1.115  -0.063   0.165  0.00  0.00    -0.096 F 
ATOM     11  F3  UNL d   1       1.511   2.404   1.211  0.00  0.00    -0.097 F 
ATOM     12  F4  UNL d   1      -0.614   3.933   1.980  0.00  0.00    -0.092 F 
ENDROOT
TORSDOF 0
ENDMDL
