MODEL 1
REMARK minimizedAffinity 14.9556704
REMARK minimizedRMSD -1
REMARK  0 active torsions:
REMARK  status: ('A' for Active; 'I' for Inactive)
ROOT
ATOM      1  C   UNL d   1       0.088   3.743   4.008  0.00  0.00     0.124 A 
ATOM      2  C1  UNL d   1      -1.028   3.309   3.307  0.00  0.00     0.062 A 
ATOM      3  C2  UNL d   1      -0.876   2.604   2.117  0.00  0.00     0.162 A 
ATOM      4  C3  UNL d   1       0.398   2.328   1.620  0.00  0.00    -0.034 A 
ATOM      5  C4  UNL d   1       1.516   2.769   2.330  0.00  0.00     0.162 A 
ATOM      6  C5  UNL d   1       1.359   3.474   3.519  0.00  0.00     0.062 A 
ATOM      7  F   UNL d   1       2.438   3.893   4.195  0.00  0.00    -0.097 F 
ATOM      8  F1  UNL d   1       2.755   2.522   1.880  0.00  0.00    -0.096 F 
ATOM      9  I   UNL d   1       0.629   1.274  -0.160  0.00  0.00    -0.060 I 
ATOM     10  F2  UNL d   1      -1.972   2.196   1.460  0.00  0.00    -0.096 F 
ATOM     11  F3  UNL d   1      -2.256   3.569   3.778  0.00  0.00    -0.097 F 
ATOM     12  F4  UNL d   1      -0.060   4.422   5.153  0.00  0.00    -0.092 F 
ENDROOT
TORSDOF 0
ENDMDL
