MODEL 1
REMARK minimizedAffinity 14.1959314
REMARK minimizedRMSD -1
REMARK  0 active torsions:
REMARK  status: ('A' for Active; 'I' for Inactive)
ROOT
ATOM      1  C   UNL d   1      -0.098  -0.204  -0.975  0.00  0.00     0.124 A 
ATOM      2  C1  UNL d   1      -0.014  -1.252  -1.882  0.00  0.00     0.062 A 
ATOM      3  C2  UNL d   1      -0.860  -2.351  -1.762  0.00  0.00     0.162 A 
ATOM      4  C3  UNL d   1      -1.798  -2.408  -0.731  0.00  0.00    -0.034 A 
ATOM      5  C4  UNL d   1      -1.875  -1.351   0.178  0.00  0.00     0.162 A 
ATOM      6  C5  UNL d   1      -1.028  -0.255   0.054  0.00  0.00     0.062 A 
ATOM      7  F   UNL d   1      -1.110   0.756   0.931  0.00  0.00    -0.097 F 
ATOM      8  F1  UNL d   1      -2.766  -1.373   1.181  0.00  0.00    -0.096 F 
ATOM      9  I   UNL d   1      -3.064  -4.049  -0.548  0.00  0.00    -0.060 I 
ATOM     10  F2  UNL d   1      -0.757  -3.349  -2.652  0.00  0.00    -0.096 F 
ATOM     11  F3  UNL d   1       0.884  -1.206  -2.876  0.00  0.00    -0.097 F 
ATOM     12  F4  UNL d   1       0.718   0.852  -1.092  0.00  0.00    -0.092 F 
ENDROOT
TORSDOF 0
ENDMDL
