MODEL 1
REMARK minimizedAffinity 10.3520145
REMARK minimizedRMSD -1
REMARK  0 active torsions:
REMARK  status: ('A' for Active; 'I' for Inactive)
ROOT
ATOM      1  C   UNL d   1      -1.253   2.982   1.742  0.00  0.00     0.124 A 
ATOM      2  C1  UNL d   1       0.122   3.133   1.858  0.00  0.00     0.062 A 
ATOM      3  C2  UNL d   1       0.979   2.368   1.072  0.00  0.00     0.162 A 
ATOM      4  C3  UNL d   1       0.464   1.445   0.162  0.00  0.00    -0.034 A 
ATOM      5  C4  UNL d   1      -0.920   1.298   0.052  0.00  0.00     0.162 A 
ATOM      6  C5  UNL d   1      -1.772   2.065   0.840  0.00  0.00     0.062 A 
ATOM      7  F   UNL d   1      -3.101   1.918   0.726  0.00  0.00    -0.097 F 
ATOM      8  F1  UNL d   1      -1.450   0.420  -0.813  0.00  0.00    -0.096 F 
ATOM      9  I   UNL d   1       1.742   0.299  -1.014  0.00  0.00    -0.060 I 
ATOM     10  F2  UNL d   1       2.303   2.535   1.205  0.00  0.00    -0.096 F 
ATOM     11  F3  UNL d   1       0.627   4.018   2.730  0.00  0.00    -0.097 F 
ATOM     12  F4  UNL d   1      -2.075   3.719   2.500  0.00  0.00    -0.092 F 
ENDROOT
TORSDOF 0
ENDMDL
