MODEL 1
REMARK minimizedAffinity 13.4638643
REMARK minimizedRMSD -1
REMARK  0 active torsions:
REMARK  status: ('A' for Active; 'I' for Inactive)
ROOT
ATOM      1  C   UNL d   1      -0.342   2.238   1.596  0.00  0.00     0.124 A 
ATOM      2  C1  UNL d   1       1.031   2.418   1.497  0.00  0.00     0.062 A 
ATOM      3  C2  UNL d   1       1.783   1.611   0.649  0.00  0.00     0.162 A 
ATOM      4  C3  UNL d   1       1.164   0.617  -0.109  0.00  0.00    -0.034 A 
ATOM      5  C4  UNL d   1      -0.217   0.441  -0.003  0.00  0.00     0.162 A 
ATOM      6  C5  UNL d   1      -0.965   1.251   0.846  0.00  0.00     0.062 A 
ATOM      7  F   UNL d   1      -2.291   1.076   0.941  0.00  0.00    -0.097 F 
ATOM      8  F1  UNL d   1      -0.845  -0.505  -0.717  0.00  0.00    -0.096 F 
ATOM      9  I   UNL d   1       2.285  -0.592  -1.379  0.00  0.00    -0.060 I 
ATOM     10  F2  UNL d   1       3.108   1.807   0.573  0.00  0.00    -0.096 F 
ATOM     11  F3  UNL d   1       1.634   3.371   2.222  0.00  0.00    -0.097 F 
ATOM     12  F4  UNL d   1      -1.063   3.016   2.414  0.00  0.00    -0.092 F 
ENDROOT
TORSDOF 0
ENDMDL
