MODEL 1
REMARK minimizedAffinity 11.2878323
REMARK minimizedRMSD -1
REMARK  0 active torsions:
REMARK  status: ('A' for Active; 'I' for Inactive)
ROOT
ATOM      1  C   UNL d   1       3.393   1.336  -0.742  0.00  0.00     0.124 A 
ATOM      2  C1  UNL d   1       2.778   2.101   0.239  0.00  0.00     0.062 A 
ATOM      3  C2  UNL d   1       1.435   1.899   0.546  0.00  0.00     0.162 A 
ATOM      4  C3  UNL d   1       0.698   0.926  -0.130  0.00  0.00    -0.034 A 
ATOM      5  C4  UNL d   1       1.323   0.161  -1.116  0.00  0.00     0.162 A 
ATOM      6  C5  UNL d   1       2.665   0.367  -1.419  0.00  0.00     0.062 A 
ATOM      7  F   UNL d   1       3.258  -0.373  -2.367  0.00  0.00    -0.097 F 
ATOM      8  F1  UNL d   1       0.644  -0.783  -1.785  0.00  0.00    -0.096 F 
ATOM      9  I   UNL d   1      -1.310   0.620   0.325  0.00  0.00    -0.060 I 
ATOM     10  F2  UNL d   1       0.867   2.652   1.498  0.00  0.00    -0.096 F 
ATOM     11  F3  UNL d   1       3.478   3.038   0.894  0.00  0.00    -0.097 F 
ATOM     12  F4  UNL d   1       4.685   1.533  -1.035  0.00  0.00    -0.092 F 
ENDROOT
TORSDOF 0
ENDMDL
