MODEL 1
REMARK minimizedAffinity 6.44760084
REMARK minimizedRMSD -1
REMARK  0 active torsions:
REMARK  status: ('A' for Active; 'I' for Inactive)
ROOT
ATOM      1  C   UNL d   1      -2.333   0.828   0.666  0.00  0.00     0.124 A 
ATOM      2  C1  UNL d   1      -2.025   2.174   0.802  0.00  0.00     0.062 A 
ATOM      3  C2  UNL d   1      -0.713   2.572   1.039  0.00  0.00     0.162 A 
ATOM      4  C3  UNL d   1       0.303   1.621   1.142  0.00  0.00    -0.034 A 
ATOM      5  C4  UNL d   1      -0.014   0.269   1.005  0.00  0.00     0.162 A 
ATOM      6  C5  UNL d   1      -1.328  -0.123   0.768  0.00  0.00     0.062 A 
ATOM      7  F   UNL d   1      -1.623  -1.425   0.637  0.00  0.00    -0.097 F 
ATOM      8  F1  UNL d   1       0.938  -0.671   1.098  0.00  0.00    -0.096 F 
ATOM      9  I   UNL d   1       2.267   2.212   1.497  0.00  0.00    -0.060 I 
ATOM     10  F2  UNL d   1      -0.444   3.880   1.166  0.00  0.00    -0.096 F 
ATOM     11  F3  UNL d   1      -2.995   3.095   0.705  0.00  0.00    -0.097 F 
ATOM     12  F4  UNL d   1      -3.597   0.448   0.439  0.00  0.00    -0.092 F 
ENDROOT
TORSDOF 0
ENDMDL
