MODEL 1
REMARK minimizedAffinity 7.68119478
REMARK minimizedRMSD -1
REMARK  0 active torsions:
REMARK  status: ('A' for Active; 'I' for Inactive)
ROOT
ATOM      1  C   UNL d   1      -2.093   2.166   1.110  0.00  0.00     0.124 A 
ATOM      2  C1  UNL d   1      -0.939   2.629   1.726  0.00  0.00     0.062 A 
ATOM      3  C2  UNL d   1       0.294   2.058   1.422  0.00  0.00     0.162 A 
ATOM      4  C3  UNL d   1       0.378   1.017   0.497  0.00  0.00    -0.034 A 
ATOM      5  C4  UNL d   1      -0.787   0.556  -0.117  0.00  0.00     0.162 A 
ATOM      6  C5  UNL d   1      -2.017   1.131   0.190  0.00  0.00     0.062 A 
ATOM      7  F   UNL d   1      -3.131   0.682  -0.406  0.00  0.00    -0.097 F 
ATOM      8  F1  UNL d   1      -0.742  -0.442  -1.011  0.00  0.00    -0.096 F 
ATOM      9  I   UNL d   1       2.219   0.161   0.040  0.00  0.00    -0.060 I 
ATOM     10  F2  UNL d   1       1.393   2.525   2.032  0.00  0.00    -0.096 F 
ATOM     11  F3  UNL d   1      -1.010   3.629   2.617  0.00  0.00    -0.097 F 
ATOM     12  F4  UNL d   1      -3.278   2.717   1.405  0.00  0.00    -0.092 F 
ENDROOT
TORSDOF 0
ENDMDL
