MODEL 1
REMARK minimizedAffinity 15.7695618
REMARK minimizedRMSD -1
REMARK  0 active torsions:
REMARK  status: ('A' for Active; 'I' for Inactive)
ROOT
ATOM      1  C   UNL d   1      -1.050  -2.903  -1.931  0.00  0.00     0.124 A 
ATOM      2  C1  UNL d   1      -1.587  -2.406  -0.752  0.00  0.00     0.062 A 
ATOM      3  C2  UNL d   1      -2.573  -3.119  -0.076  0.00  0.00     0.162 A 
ATOM      4  C3  UNL d   1      -3.029  -4.338  -0.578  0.00  0.00    -0.034 A 
ATOM      5  C4  UNL d   1      -2.485  -4.831  -1.766  0.00  0.00     0.162 A 
ATOM      6  C5  UNL d   1      -1.500  -4.115  -2.437  0.00  0.00     0.062 A 
ATOM      7  F   UNL d   1      -0.983  -4.596  -3.577  0.00  0.00    -0.097 F 
ATOM      8  F1  UNL d   1      -2.901  -6.000  -2.277  0.00  0.00    -0.096 F 
ATOM      9  I   UNL d   1      -4.503  -5.408   0.428  0.00  0.00    -0.060 I 
ATOM     10  F2  UNL d   1      -3.073  -2.615   1.062  0.00  0.00    -0.096 F 
ATOM     11  F3  UNL d   1      -1.155  -1.236  -0.261  0.00  0.00    -0.097 F 
ATOM     12  F4  UNL d   1      -0.102  -2.215  -2.580  0.00  0.00    -0.092 F 
ENDROOT
TORSDOF 0
ENDMDL
