MODEL 1
REMARK minimizedAffinity 7.90983629
REMARK minimizedRMSD -1
REMARK  0 active torsions:
REMARK  status: ('A' for Active; 'I' for Inactive)
ROOT
ATOM      1  C   UNL d   1      -1.753   0.583   1.097  0.00  0.00     0.124 A 
ATOM      2  C1  UNL d   1      -0.774  -0.387   0.931  0.00  0.00     0.062 A 
ATOM      3  C2  UNL d   1       0.572  -0.046   1.014  0.00  0.00     0.162 A 
ATOM      4  C3  UNL d   1       0.949   1.274   1.266  0.00  0.00    -0.034 A 
ATOM      5  C4  UNL d   1      -0.040   2.245   1.431  0.00  0.00     0.162 A 
ATOM      6  C5  UNL d   1      -1.385   1.898   1.347  0.00  0.00     0.062 A 
ATOM      7  F   UNL d   1      -2.329   2.837   1.507  0.00  0.00    -0.097 F 
ATOM      8  F1  UNL d   1       0.287   3.522   1.674  0.00  0.00    -0.096 F 
ATOM      9  I   UNL d   1       2.962   1.789   1.391  0.00  0.00    -0.060 I 
ATOM     10  F2  UNL d   1       1.496  -1.004   0.850  0.00  0.00    -0.096 F 
ATOM     11  F3  UNL d   1      -1.127  -1.658   0.689  0.00  0.00    -0.097 F 
ATOM     12  F4  UNL d   1      -3.048   0.252   1.016  0.00  0.00    -0.092 F 
ENDROOT
TORSDOF 0
ENDMDL
