MODEL 1
REMARK minimizedAffinity 22.883564
REMARK minimizedRMSD -1
REMARK  0 active torsions:
REMARK  status: ('A' for Active; 'I' for Inactive)
ROOT
ATOM      1  C   UNL d   1       2.266   1.230   0.223  0.00  0.00     0.124 A 
ATOM      2  C1  UNL d   1       2.435   0.731  -1.061  0.00  0.00     0.062 A 
ATOM      3  C2  UNL d   1       1.858  -0.483  -1.422  0.00  0.00     0.162 A 
ATOM      4  C3  UNL d   1       1.105  -1.207  -0.497  0.00  0.00    -0.034 A 
ATOM      5  C4  UNL d   1       0.939  -0.699   0.793  0.00  0.00     0.162 A 
ATOM      6  C5  UNL d   1       1.518   0.515   1.148  0.00  0.00     0.062 A 
ATOM      7  F   UNL d   1       1.354   0.996   2.389  0.00  0.00    -0.097 F 
ATOM      8  F1  UNL d   1       0.221  -1.368   1.706  0.00  0.00    -0.096 F 
ATOM      9  I   UNL d   1       0.240  -3.022  -1.033  0.00  0.00    -0.060 I 
ATOM     10  F2  UNL d   1       2.038  -0.942  -2.669  0.00  0.00    -0.096 F 
ATOM     11  F3  UNL d   1       3.157   1.419  -1.957  0.00  0.00    -0.097 F 
ATOM     12  F4  UNL d   1       2.823   2.398   0.568  0.00  0.00    -0.092 F 
ENDROOT
TORSDOF 0
ENDMDL
