MODEL 1
REMARK minimizedAffinity 1.09645307
REMARK minimizedRMSD -1
REMARK  2 active torsions:
REMARK  status: ('A' for Active; 'I' for Inactive)
REMARK    1  A    between atoms: C1_2  and  C2_3 
REMARK    2  A    between atoms: C2_3  and  C3_4 
ROOT
ATOM      1  C3  UNL d   1       1.776  -1.847   1.648  0.00  0.00    -0.075 A 
ATOM      2  C4  UNL d   1       1.367  -3.139   2.009  0.00  0.00     0.002 A 
ATOM      3  C5  UNL d   1       0.210  -3.331   2.764  0.00  0.00     0.002 A 
ATOM      4  C6  UNL d   1      -0.547  -2.236   3.175  0.00  0.00    -0.004 A 
ATOM      5  C7  UNL d   1      -0.141  -0.947   2.836  0.00  0.00     0.002 A 
ATOM      6  C8  UNL d   1       1.014  -0.752   2.078  0.00  0.00     0.002 A 
ENDROOT
BRANCH   1   7
ATOM      7  C2  UNL d   1       3.012  -1.635   0.807  0.00  0.00     0.056 C 
BRANCH   7   8
ATOM      8  C1  UNL d   1       2.895  -2.177  -0.621  0.00  0.00     0.007 C 
ATOM      9  C   UNL d   1       1.963  -1.355  -1.501  0.00  0.00     0.009 C 
ENDBRANCH   7   8
ENDBRANCH   1   7
TORSDOF 2
ENDMDL
