MODEL 1
REMARK minimizedAffinity 2.53108072
REMARK minimizedRMSD -1
REMARK  2 active torsions:
REMARK  status: ('A' for Active; 'I' for Inactive)
REMARK    1  A    between atoms: C1_2  and  C2_3 
REMARK    2  A    between atoms: C2_3  and  C3_4 
ROOT
ATOM      1  C3  UNL d   1      -4.113   2.003  -5.430  0.00  0.00    -0.075 A 
ATOM      2  C4  UNL d   1      -3.196   1.108  -6.000  0.00  0.00     0.002 A 
ATOM      3  C5  UNL d   1      -3.205  -0.240  -5.640  0.00  0.00     0.002 A 
ATOM      4  C6  UNL d   1      -4.121  -0.708  -4.701  0.00  0.00    -0.004 A 
ATOM      5  C7  UNL d   1      -5.026   0.176  -4.116  0.00  0.00     0.002 A 
ATOM      6  C8  UNL d   1      -5.023   1.524  -4.478  0.00  0.00     0.002 A 
ENDROOT
BRANCH   1   7
ATOM      7  C2  UNL d   1      -4.128   3.457  -5.837  0.00  0.00     0.056 C 
BRANCH   7   8
ATOM      8  C1  UNL d   1      -5.108   4.319  -5.034  0.00  0.00     0.007 C 
ATOM      9  C   UNL d   1      -4.488   5.612  -4.520  0.00  0.00     0.009 C 
ENDBRANCH   7   8
ENDBRANCH   1   7
TORSDOF 2
ENDMDL
