MODEL 1
REMARK minimizedAffinity 0.00800941978
REMARK minimizedRMSD -1
REMARK  2 active torsions:
REMARK  status: ('A' for Active; 'I' for Inactive)
REMARK    1  A    between atoms: C1_2  and  C2_3 
REMARK    2  A    between atoms: C2_3  and  C3_4 
ROOT
ATOM      1  C3  UNL d   1       0.873  -1.444  -0.122  0.00  0.00    -0.075 A 
ATOM      2  C4  UNL d   1      -0.166  -1.469   0.819  0.00  0.00     0.002 A 
ATOM      3  C5  UNL d   1       0.097  -1.762   2.158  0.00  0.00     0.002 A 
ATOM      4  C6  UNL d   1       1.398  -2.043   2.570  0.00  0.00    -0.004 A 
ATOM      5  C7  UNL d   1       2.435  -2.037   1.640  0.00  0.00     0.002 A 
ATOM      6  C8  UNL d   1       2.176  -1.740   0.301  0.00  0.00     0.002 A 
ENDROOT
BRANCH   1   7
ATOM      7  C2  UNL d   1       0.599  -1.099  -1.566  0.00  0.00     0.056 C 
BRANCH   7   8
ATOM      8  C1  UNL d   1       1.704  -0.270  -2.230  0.00  0.00     0.007 C 
ATOM      9  C   UNL d   1       1.594   1.221  -1.935  0.00  0.00     0.009 C 
ENDBRANCH   7   8
ENDBRANCH   1   7
TORSDOF 2
ENDMDL
