MODEL 1
REMARK minimizedAffinity 4.64913654
REMARK minimizedRMSD -1
REMARK  2 active torsions:
REMARK  status: ('A' for Active; 'I' for Inactive)
REMARK    1  A    between atoms: C1_2  and  C2_3 
REMARK    2  A    between atoms: C2_3  and  C3_4 
ROOT
ATOM      1  C3  UNL d   1       1.491  -1.326   1.335  0.00  0.00    -0.075 A 
ATOM      2  C4  UNL d   1       0.107  -1.529   1.428  0.00  0.00     0.002 A 
ATOM      3  C5  UNL d   1      -0.583  -1.186   2.591  0.00  0.00     0.002 A 
ATOM      4  C6  UNL d   1       0.102  -0.647   3.678  0.00  0.00    -0.004 A 
ATOM      5  C7  UNL d   1       1.480  -0.456   3.603  0.00  0.00     0.002 A 
ATOM      6  C8  UNL d   1       2.172  -0.794   2.438  0.00  0.00     0.002 A 
ENDROOT
BRANCH   1   7
ATOM      7  C2  UNL d   1       2.239  -1.667   0.068  0.00  0.00     0.056 C 
BRANCH   7   8
ATOM      8  C1  UNL d   1       1.693  -0.973  -1.184  0.00  0.00     0.007 C 
ATOM      9  C   UNL d   1       1.652   0.544  -1.061  0.00  0.00     0.009 C 
ENDBRANCH   7   8
ENDBRANCH   1   7
TORSDOF 2
ENDMDL
