MODEL 1
REMARK minimizedAffinity 6.16582632
REMARK minimizedRMSD -1
REMARK  2 active torsions:
REMARK  status: ('A' for Active; 'I' for Inactive)
REMARK    1  A    between atoms: C1_2  and  C2_3 
REMARK    2  A    between atoms: C2_3  and  C3_4 
ROOT
ATOM      1  C3  UNL d   1       0.377  -1.195   1.611  0.00  0.00    -0.075 A 
ATOM      2  C4  UNL d   1      -0.909  -0.887   1.143  0.00  0.00     0.002 A 
ATOM      3  C5  UNL d   1      -1.825  -0.234   1.967  0.00  0.00     0.002 A 
ATOM      4  C6  UNL d   1      -1.473   0.110   3.271  0.00  0.00    -0.004 A 
ATOM      5  C7  UNL d   1      -0.204  -0.206   3.752  0.00  0.00     0.002 A 
ATOM      6  C8  UNL d   1       0.716  -0.856   2.928  0.00  0.00     0.002 A 
ENDROOT
BRANCH   1   7
ATOM      7  C2  UNL d   1       1.383  -1.876   0.715  0.00  0.00     0.056 C 
BRANCH   7   8
ATOM      8  C1  UNL d   1       2.082  -0.931  -0.268  0.00  0.00     0.007 C 
ATOM      9  C   UNL d   1       1.285  -0.695  -1.544  0.00  0.00     0.009 C 
ENDBRANCH   7   8
ENDBRANCH   1   7
TORSDOF 2
ENDMDL
