MODEL 1
REMARK minimizedAffinity 7.9624033
REMARK minimizedRMSD -1
REMARK  2 active torsions:
REMARK  status: ('A' for Active; 'I' for Inactive)
REMARK    1  A    between atoms: C1_2  and  C2_3 
REMARK    2  A    between atoms: C2_3  and  C3_4 
ROOT
ATOM      1  C3  UNL d   1       0.241  -1.495   1.551  0.00  0.00    -0.075 A 
ATOM      2  C4  UNL d   1       1.498  -2.099   1.398  0.00  0.00     0.002 A 
ATOM      3  C5  UNL d   1       2.181  -2.014   0.184  0.00  0.00     0.002 A 
ATOM      4  C6  UNL d   1       1.613  -1.336  -0.893  0.00  0.00    -0.004 A 
ATOM      5  C7  UNL d   1       0.358  -0.747  -0.756  0.00  0.00     0.002 A 
ATOM      6  C8  UNL d   1      -0.326  -0.826   0.458  0.00  0.00     0.002 A 
ENDROOT
BRANCH   1   7
ATOM      7  C2  UNL d   1      -0.489  -1.558   2.871  0.00  0.00     0.056 C 
BRANCH   7   8
ATOM      8  C1  UNL d   1      -0.381  -0.277   3.705  0.00  0.00     0.007 C 
ATOM      9  C   UNL d   1      -1.672   0.530   3.736  0.00  0.00     0.009 C 
ENDBRANCH   7   8
ENDBRANCH   1   7
TORSDOF 2
ENDMDL
