MODEL 1
REMARK minimizedAffinity 6.9195919
REMARK minimizedRMSD -1
REMARK  2 active torsions:
REMARK  status: ('A' for Active; 'I' for Inactive)
REMARK    1  A    between atoms: C1_2  and  C2_3 
REMARK    2  A    between atoms: C2_3  and  C3_4 
ROOT
ATOM      1  C3  UNL d   1       0.733  -1.008   0.787  0.00  0.00    -0.075 A 
ATOM      2  C4  UNL d   1       0.132  -0.610   1.990  0.00  0.00     0.002 A 
ATOM      3  C5  UNL d   1       0.722  -0.925   3.215  0.00  0.00     0.002 A 
ATOM      4  C6  UNL d   1       1.911  -1.649   3.252  0.00  0.00    -0.004 A 
ATOM      5  C7  UNL d   1       2.509  -2.064   2.064  0.00  0.00     0.002 A 
ATOM      6  C8  UNL d   1       1.923  -1.746   0.837  0.00  0.00     0.002 A 
ENDROOT
BRANCH   1   7
ATOM      7  C2  UNL d   1       0.116  -0.644  -0.542  0.00  0.00     0.056 C 
BRANCH   7   8
ATOM      8  C1  UNL d   1       1.134  -0.443  -1.669  0.00  0.00     0.007 C 
ATOM      9  C   UNL d   1       1.233   1.002  -2.139  0.00  0.00     0.009 C 
ENDBRANCH   7   8
ENDBRANCH   1   7
TORSDOF 2
ENDMDL
