MODEL 1
REMARK minimizedAffinity 10.542387
REMARK minimizedRMSD -1
REMARK  2 active torsions:
REMARK  status: ('A' for Active; 'I' for Inactive)
REMARK    1  A    between atoms: C1_2  and  C2_3 
REMARK    2  A    between atoms: C2_3  and  C3_4 
ROOT
ATOM      1  C3  UNL d   1      -0.985  -0.050   2.337  0.00  0.00    -0.075 A 
ATOM      2  C4  UNL d   1      -0.418  -0.691   3.448  0.00  0.00     0.002 A 
ATOM      3  C5  UNL d   1       0.673  -1.546   3.292  0.00  0.00     0.002 A 
ATOM      4  C6  UNL d   1       1.204  -1.778   2.025  0.00  0.00    -0.004 A 
ATOM      5  C7  UNL d   1       0.639  -1.160   0.913  0.00  0.00     0.002 A 
ATOM      6  C8  UNL d   1      -0.451  -0.301   1.066  0.00  0.00     0.002 A 
ENDROOT
BRANCH   1   7
ATOM      7  C2  UNL d   1      -2.148   0.899   2.503  0.00  0.00     0.056 C 
BRANCH   7   8
ATOM      8  C1  UNL d   1      -3.023   0.606   3.727  0.00  0.00     0.007 C 
ATOM      9  C   UNL d   1      -4.000   1.728   4.049  0.00  0.00     0.009 C 
ENDBRANCH   7   8
ENDBRANCH   1   7
TORSDOF 2
ENDMDL
