MODEL 1
REMARK minimizedAffinity 0.67515552
REMARK minimizedRMSD -1
REMARK  2 active torsions:
REMARK  status: ('A' for Active; 'I' for Inactive)
REMARK    1  A    between atoms: C2'_3  and  C1'_4 
REMARK    2  A    between atoms: C1'_4  and  C1_5 
ROOT
ATOM      1  C1  I4B d   1       5.775   0.923  -5.213  0.00  0.00    -0.075 A 
ATOM      2  C2  I4B d   1       5.864  -0.267  -5.892  0.00  0.00     0.003 A 
ATOM      3  C3  I4B d   1       5.946  -1.489  -5.181  0.00  0.00     0.002 A 
ATOM      4  C4  I4B d   1       5.988  -1.471  -3.801  0.00  0.00    -0.004 A 
ATOM      5  C5  I4B d   1       5.875  -0.265  -3.115  0.00  0.00     0.002 A 
ATOM      6  C6  I4B d   1       5.756   0.938  -3.824  0.00  0.00     0.003 A 
ENDROOT
BRANCH   1   7
ATOM      7  C1' I4B d   1       5.723   2.197  -5.995  0.00  0.00     0.060 C 
BRANCH   7   8
ATOM      8  C2' I4B d   1       4.564   3.019  -5.471  0.00  0.00    -0.013 C 
ATOM      9  C4' I4B d   1       4.624   4.435  -5.982  0.00  0.00     0.013 C 
ATOM     10  C3' I4B d   1       3.291   2.346  -5.891  0.00  0.00     0.013 C 
ENDBRANCH   7   8
ENDBRANCH   1   7
TORSDOF 2
ENDMDL
