MODEL 1
REMARK minimizedAffinity -2.15203595
REMARK minimizedRMSD -1
REMARK  2 active torsions:
REMARK  status: ('A' for Active; 'I' for Inactive)
REMARK    1  A    between atoms: C2'_3  and  C1'_4 
REMARK    2  A    between atoms: C1'_4  and  C1_5 
ROOT
ATOM      1  C1  I4B d   1       5.762   0.743  -4.876  0.00  0.00    -0.075 A 
ATOM      2  C2  I4B d   1       5.645   1.074  -3.550  0.00  0.00     0.003 A 
ATOM      3  C3  I4B d   1       5.718   0.068  -2.555  0.00  0.00     0.002 A 
ATOM      4  C4  I4B d   1       5.857  -1.252  -2.932  0.00  0.00    -0.004 A 
ATOM      5  C5  I4B d   1       6.000  -1.583  -4.277  0.00  0.00     0.002 A 
ATOM      6  C6  I4B d   1       5.964  -0.578  -5.255  0.00  0.00     0.003 A 
ENDROOT
BRANCH   1   7
ATOM      7  C1' I4B d   1       5.648   1.826  -5.902  0.00  0.00     0.060 C 
BRANCH   7   8
ATOM      8  C2' I4B d   1       5.045   3.043  -5.231  0.00  0.00    -0.013 C 
ATOM      9  C4' I4B d   1       5.996   4.210  -5.262  0.00  0.00     0.013 C 
ATOM     10  C3' I4B d   1       3.761   3.371  -5.933  0.00  0.00     0.013 C 
ENDBRANCH   7   8
ENDBRANCH   1   7
TORSDOF 2
ENDMDL
