MODEL 1
REMARK minimizedAffinity 5.4461894
REMARK minimizedRMSD -1
REMARK  2 active torsions:
REMARK  status: ('A' for Active; 'I' for Inactive)
REMARK    1  A    between atoms: C2'_3  and  C1'_4 
REMARK    2  A    between atoms: C1'_4  and  C1_5 
ROOT
ATOM      1  C1  I4B d   1       0.732   2.626   1.419  0.00  0.00    -0.075 A 
ATOM      2  C2  I4B d   1       0.198   1.887   2.444  0.00  0.00     0.003 A 
ATOM      3  C3  I4B d   1      -1.205   1.838   2.632  0.00  0.00     0.002 A 
ATOM      4  C4  I4B d   1      -2.027   2.579   1.808  0.00  0.00    -0.004 A 
ATOM      5  C5  I4B d   1      -1.485   3.310   0.755  0.00  0.00     0.002 A 
ATOM      6  C6  I4B d   1      -0.098   3.324   0.551  0.00  0.00     0.003 A 
ENDROOT
BRANCH   1   7
ATOM      7  C1' I4B d   1       2.219   2.682   1.270  0.00  0.00     0.060 C 
BRANCH   7   8
ATOM      8  C2' I4B d   1       2.826   1.721   2.273  0.00  0.00    -0.013 C 
ATOM      9  C4' I4B d   1       4.241   1.367   1.901  0.00  0.00     0.013 C 
ATOM     10  C3' I4B d   1       2.767   2.366   3.625  0.00  0.00     0.013 C 
ENDBRANCH   7   8
ENDBRANCH   1   7
TORSDOF 2
ENDMDL
