MODEL 1
REMARK minimizedAffinity 6.44737339
REMARK minimizedRMSD -1
REMARK  2 active torsions:
REMARK  status: ('A' for Active; 'I' for Inactive)
REMARK    1  A    between atoms: C2'_3  and  C1'_4 
REMARK    2  A    between atoms: C1'_4  and  C1_5 
ROOT
ATOM      1  C1  I4B d   1      -1.150  -2.118   0.014  0.00  0.00    -0.075 A 
ATOM      2  C2  I4B d   1      -0.241  -1.092  -0.063  0.00  0.00     0.003 A 
ATOM      3  C3  I4B d   1      -0.118  -0.168   1.003  0.00  0.00     0.002 A 
ATOM      4  C4  I4B d   1      -0.952  -0.276   2.097  0.00  0.00    -0.004 A 
ATOM      5  C5  I4B d   1      -1.856  -1.331   2.183  0.00  0.00     0.002 A 
ATOM      6  C6  I4B d   1      -1.948  -2.265   1.141  0.00  0.00     0.003 A 
ENDROOT
BRANCH   1   7
ATOM      7  C1' I4B d   1      -1.277  -3.057  -1.143  0.00  0.00     0.060 C 
BRANCH   7   8
ATOM      8  C2' I4B d   1       0.096  -3.223  -1.763  0.00  0.00    -0.013 C 
ATOM      9  C4' I4B d   1       0.859  -4.342  -1.104  0.00  0.00     0.013 C 
ATOM     10  C3' I4B d   1      -0.086  -3.481  -3.229  0.00  0.00     0.013 C 
ENDBRANCH   7   8
ENDBRANCH   1   7
TORSDOF 2
ENDMDL
