MODEL 1
REMARK minimizedAffinity 1.292225
REMARK minimizedRMSD -1
REMARK  2 active torsions:
REMARK  status: ('A' for Active; 'I' for Inactive)
REMARK    1  A    between atoms: C2'_3  and  C1'_4 
REMARK    2  A    between atoms: C1'_4  and  C1_5 
ROOT
ATOM      1  C1  I4B d   1       1.356  -5.368  -3.682  0.00  0.00    -0.075 A 
ATOM      2  C2  I4B d   1       2.668  -4.968  -3.657  0.00  0.00     0.003 A 
ATOM      3  C3  I4B d   1       3.465  -5.067  -4.823  0.00  0.00     0.002 A 
ATOM      4  C4  I4B d   1       2.927  -5.615  -5.970  0.00  0.00    -0.004 A 
ATOM      5  C5  I4B d   1       1.590  -5.998  -5.999  0.00  0.00     0.002 A 
ATOM      6  C6  I4B d   1       0.795  -5.863  -4.852  0.00  0.00     0.003 A 
ENDROOT
BRANCH   1   7
ATOM      7  C1' I4B d   1       0.552  -5.280  -2.423  0.00  0.00     0.060 C 
BRANCH   7   8
ATOM      8  C2' I4B d   1      -0.731  -4.538  -2.739  0.00  0.00    -0.013 C 
ATOM      9  C4' I4B d   1      -1.913  -5.472  -2.746  0.00  0.00     0.013 C 
ATOM     10  C3' I4B d   1      -0.903  -3.454  -1.717  0.00  0.00     0.013 C 
ENDBRANCH   7   8
ENDBRANCH   1   7
TORSDOF 2
ENDMDL
