MODEL 1
REMARK minimizedAffinity 9.29980564
REMARK minimizedRMSD -1
REMARK  2 active torsions:
REMARK  status: ('A' for Active; 'I' for Inactive)
REMARK    1  A    between atoms: C2'_3  and  C1'_4 
REMARK    2  A    between atoms: C1'_4  and  C1_5 
ROOT
ATOM      1  C1  I4B d   1      -1.024   0.892   2.475  0.00  0.00    -0.075 A 
ATOM      2  C2  I4B d   1       0.074   1.101   1.677  0.00  0.00     0.003 A 
ATOM      3  C3  I4B d   1       0.228   2.327   0.985  0.00  0.00     0.002 A 
ATOM      4  C4  I4B d   1      -0.757   3.289   1.078  0.00  0.00    -0.004 A 
ATOM      5  C5  I4B d   1      -1.858   3.084   1.905  0.00  0.00     0.002 A 
ATOM      6  C6  I4B d   1      -1.986   1.883   2.618  0.00  0.00     0.003 A 
ENDROOT
BRANCH   1   7
ATOM      7  C1' I4B d   1      -1.172  -0.427   3.165  0.00  0.00     0.060 C 
BRANCH   7   8
ATOM      8  C2' I4B d   1      -1.267  -1.502   2.102  0.00  0.00    -0.013 C 
ATOM      9  C4' I4B d   1       0.036  -1.655   1.363  0.00  0.00     0.013 C 
ATOM     10  C3' I4B d   1      -1.662  -2.784   2.773  0.00  0.00     0.013 C 
ENDBRANCH   7   8
ENDBRANCH   1   7
TORSDOF 2
ENDMDL
