MODEL 1
REMARK minimizedAffinity 14.8122253
REMARK minimizedRMSD -1
REMARK  2 active torsions:
REMARK  status: ('A' for Active; 'I' for Inactive)
REMARK    1  A    between atoms: C2'_3  and  C1'_4 
REMARK    2  A    between atoms: C1'_4  and  C1_5 
ROOT
ATOM      1  C1  I4B d   1      -0.531  -1.973  -0.019  0.00  0.00    -0.075 A 
ATOM      2  C2  I4B d   1       0.071  -1.522  -1.167  0.00  0.00     0.003 A 
ATOM      3  C3  I4B d   1       0.017  -2.296  -2.352  0.00  0.00     0.002 A 
ATOM      4  C4  I4B d   1      -0.601  -3.529  -2.330  0.00  0.00    -0.004 A 
ATOM      5  C5  I4B d   1      -1.231  -3.975  -1.172  0.00  0.00     0.002 A 
ATOM      6  C6  I4B d   1      -1.207  -3.187  -0.012  0.00  0.00     0.003 A 
ENDROOT
BRANCH   1   7
ATOM      7  C1' I4B d   1      -0.427  -1.146   1.222  0.00  0.00     0.060 C 
BRANCH   7   8
ATOM      8  C2' I4B d   1      -1.724  -1.294   1.992  0.00  0.00    -0.013 C 
ATOM      9  C4' I4B d   1      -1.717  -2.541   2.836  0.00  0.00     0.013 C 
ATOM     10  C3' I4B d   1      -1.902  -0.069   2.839  0.00  0.00     0.013 C 
ENDBRANCH   7   8
ENDBRANCH   1   7
TORSDOF 2
ENDMDL
