MODEL 1
REMARK minimizedAffinity 11.8949852
REMARK minimizedRMSD -1
REMARK  2 active torsions:
REMARK  status: ('A' for Active; 'I' for Inactive)
REMARK    1  A    between atoms: C2'_3  and  C1'_4 
REMARK    2  A    between atoms: C1'_4  and  C1_5 
ROOT
ATOM      1  C1  I4B d   1       1.543  -4.757  -3.482  0.00  0.00    -0.075 A 
ATOM      2  C2  I4B d   1       2.544  -5.690  -3.589  0.00  0.00     0.003 A 
ATOM      3  C3  I4B d   1       3.098  -5.998  -4.855  0.00  0.00     0.002 A 
ATOM      4  C4  I4B d   1       2.591  -5.391  -5.986  0.00  0.00    -0.004 A 
ATOM      5  C5  I4B d   1       1.592  -4.428  -5.872  0.00  0.00     0.002 A 
ATOM      6  C6  I4B d   1       1.073  -4.100  -4.612  0.00  0.00     0.003 A 
ENDROOT
BRANCH   1   7
ATOM      7  C1' I4B d   1       0.958  -4.479  -2.134  0.00  0.00     0.060 C 
BRANCH   7   8
ATOM      8  C2' I4B d   1      -0.361  -3.762  -2.336  0.00  0.00    -0.013 C 
ATOM      9  C4' I4B d   1      -1.522  -4.628  -1.924  0.00  0.00     0.013 C 
ATOM     10  C3' I4B d   1      -0.324  -2.491  -1.540  0.00  0.00     0.013 C 
ENDBRANCH   7   8
ENDBRANCH   1   7
TORSDOF 2
ENDMDL
