MODEL 1
REMARK minimizedAffinity 9.73409367
REMARK minimizedRMSD -1
REMARK  2 active torsions:
REMARK  status: ('A' for Active; 'I' for Inactive)
REMARK    1  A    between atoms: C2'_3  and  C1'_4 
REMARK    2  A    between atoms: C1'_4  and  C1_5 
ROOT
ATOM      1  C1  I4B d   1       3.525  -5.619  -3.680  0.00  0.00    -0.075 A 
ATOM      2  C2  I4B d   1       2.412  -4.890  -3.343  0.00  0.00     0.003 A 
ATOM      3  C3  I4B d   1       1.489  -4.495  -4.341  0.00  0.00     0.002 A 
ATOM      4  C4  I4B d   1       1.742  -4.805  -5.662  0.00  0.00    -0.004 A 
ATOM      5  C5  I4B d   1       2.859  -5.565  -5.999  0.00  0.00     0.002 A 
ATOM      6  C6  I4B d   1       3.750  -5.985  -5.000  0.00  0.00     0.003 A 
ENDROOT
BRANCH   1   7
ATOM      7  C1' I4B d   1       4.495  -5.991  -2.604  0.00  0.00     0.060 C 
BRANCH   7   8
ATOM      8  C2' I4B d   1       3.997  -5.401  -1.301  0.00  0.00    -0.013 C 
ATOM      9  C4' I4B d   1       2.674  -5.999  -0.902  0.00  0.00     0.013 C 
ATOM     10  C3' I4B d   1       5.040  -5.647  -0.252  0.00  0.00     0.013 C 
ENDBRANCH   7   8
ENDBRANCH   1   7
TORSDOF 2
ENDMDL
