MODEL 1
REMARK minimizedAffinity 10.9764671
REMARK minimizedRMSD -1
REMARK  2 active torsions:
REMARK  status: ('A' for Active; 'I' for Inactive)
REMARK    1  A    between atoms: C2'_3  and  C1'_4 
REMARK    2  A    between atoms: C1'_4  and  C1_5 
ROOT
ATOM      1  C1  I4B d   1      -0.038  -0.799  -0.119  0.00  0.00    -0.075 A 
ATOM      2  C2  I4B d   1      -0.470  -1.220   1.114  0.00  0.00     0.003 A 
ATOM      3  C3  I4B d   1      -1.220  -2.415   1.236  0.00  0.00     0.002 A 
ATOM      4  C4  I4B d   1      -1.556  -3.126   0.102  0.00  0.00    -0.004 A 
ATOM      5  C5  I4B d   1      -1.097  -2.709  -1.145  0.00  0.00     0.002 A 
ATOM      6  C6  I4B d   1      -0.323  -1.545  -1.255  0.00  0.00     0.003 A 
ENDROOT
BRANCH   1   7
ATOM      7  C1' I4B d   1       0.724   0.485  -0.216  0.00  0.00     0.060 C 
BRANCH   7   8
ATOM      8  C2' I4B d   1       1.006   0.968   1.192  0.00  0.00    -0.013 C 
ATOM      9  C4' I4B d   1       2.475   0.880   1.515  0.00  0.00     0.013 C 
ATOM     10  C3' I4B d   1       0.510   2.378   1.306  0.00  0.00     0.013 C 
ENDBRANCH   7   8
ENDBRANCH   1   7
TORSDOF 2
ENDMDL
