MODEL 1
REMARK minimizedAffinity 10.7229395
REMARK minimizedRMSD -1
REMARK  2 active torsions:
REMARK  status: ('A' for Active; 'I' for Inactive)
REMARK    1  A    between atoms: C2'_3  and  C1'_4 
REMARK    2  A    between atoms: C1'_4  and  C1_5 
ROOT
ATOM      1  C1  I4B d   1      -2.346  -3.485   2.400  0.00  0.00    -0.075 A 
ATOM      2  C2  I4B d   1      -3.129  -4.522   1.958  0.00  0.00     0.003 A 
ATOM      3  C3  I4B d   1      -3.358  -5.646   2.788  0.00  0.00     0.002 A 
ATOM      4  C4  I4B d   1      -2.749  -5.713   4.025  0.00  0.00    -0.004 A 
ATOM      5  C5  I4B d   1      -1.975  -4.650   4.480  0.00  0.00     0.002 A 
ATOM      6  C6  I4B d   1      -1.782  -3.523   3.668  0.00  0.00     0.003 A 
ENDROOT
BRANCH   1   7
ATOM      7  C1' I4B d   1      -2.098  -2.328   1.483  0.00  0.00     0.060 C 
BRANCH   7   8
ATOM      8  C2' I4B d   1      -0.961  -2.704   0.555  0.00  0.00    -0.013 C 
ATOM      9  C4' I4B d   1      -1.477  -3.151  -0.787  0.00  0.00     0.013 C 
ATOM     10  C3' I4B d   1      -0.061  -1.512   0.419  0.00  0.00     0.013 C 
ENDBRANCH   7   8
ENDBRANCH   1   7
TORSDOF 2
ENDMDL
