MODEL 1
REMARK minimizedAffinity 9.18227959
REMARK minimizedRMSD -1
REMARK  2 active torsions:
REMARK  status: ('A' for Active; 'I' for Inactive)
REMARK    1  A    between atoms: C2'_3  and  C1'_4 
REMARK    2  A    between atoms: C1'_4  and  C1_5 
ROOT
ATOM      1  C1  I4B d   1      -3.364   3.364  -2.278  0.00  0.00    -0.075 A 
ATOM      2  C2  I4B d   1      -4.514   2.733  -1.872  0.00  0.00     0.003 A 
ATOM      3  C3  I4B d   1      -4.925   2.801  -0.519  0.00  0.00     0.002 A 
ATOM      4  C4  I4B d   1      -4.136   3.464   0.398  0.00  0.00    -0.004 A 
ATOM      5  C5  I4B d   1      -2.983   4.123  -0.019  0.00  0.00     0.002 A 
ATOM      6  C6  I4B d   1      -2.601   4.084  -1.368  0.00  0.00     0.003 A 
ENDROOT
BRANCH   1   7
ATOM      7  C1' I4B d   1      -2.942   3.244  -3.708  0.00  0.00     0.060 C 
BRANCH   7   8
ATOM      8  C2' I4B d   1      -3.531   4.415  -4.468  0.00  0.00    -0.013 C 
ATOM      9  C4' I4B d   1      -2.530   5.532  -4.610  0.00  0.00     0.013 C 
ATOM     10  C3' I4B d   1      -3.980   3.917  -5.810  0.00  0.00     0.013 C 
ENDBRANCH   7   8
ENDBRANCH   1   7
TORSDOF 2
ENDMDL
