MODEL 1
REMARK minimizedAffinity 5.57309103
REMARK minimizedRMSD -1
REMARK  2 active torsions:
REMARK  status: ('A' for Active; 'I' for Inactive)
REMARK    1  A    between atoms: C2'_3  and  C1'_4 
REMARK    2  A    between atoms: C1'_4  and  C1_5 
ROOT
ATOM      1  C1  I4B d   1       5.639   1.171  -4.958  0.00  0.00    -0.075 A 
ATOM      2  C2  I4B d   1       5.680  -0.096  -5.482  0.00  0.00     0.003 A 
ATOM      3  C3  I4B d   1       5.374  -1.214  -4.668  0.00  0.00     0.002 A 
ATOM      4  C4  I4B d   1       5.084  -1.024  -3.333  0.00  0.00    -0.004 A 
ATOM      5  C5  I4B d   1       5.020   0.264  -2.809  0.00  0.00     0.002 A 
ATOM      6  C6  I4B d   1       5.287   1.370  -3.629  0.00  0.00     0.003 A 
ENDROOT
BRANCH   1   7
ATOM      7  C1' I4B d   1       5.999   2.327  -5.837  0.00  0.00     0.060 C 
BRANCH   7   8
ATOM      8  C2' I4B d   1       5.112   3.495  -5.460  0.00  0.00    -0.013 C 
ATOM      9  C4' I4B d   1       5.659   4.791  -5.998  0.00  0.00     0.013 C 
ATOM     10  C3' I4B d   1       3.738   3.224  -5.995  0.00  0.00     0.013 C 
ENDBRANCH   7   8
ENDBRANCH   1   7
TORSDOF 2
ENDMDL
