MODEL 1
REMARK minimizedAffinity 1.08555174
REMARK minimizedRMSD -1
REMARK  2 active torsions:
REMARK  status: ('A' for Active; 'I' for Inactive)
REMARK    1  A    between atoms: C2'_3  and  C1'_4 
REMARK    2  A    between atoms: C1'_4  and  C1_5 
ROOT
ATOM      1  C1  I4B d   1       5.136   2.384  -5.926  0.00  0.00    -0.075 A 
ATOM      2  C2  I4B d   1       3.778   2.569  -5.996  0.00  0.00     0.003 A 
ATOM      3  C3  I4B d   1       3.237   3.877  -5.999  0.00  0.00     0.002 A 
ATOM      4  C4  I4B d   1       4.081   4.962  -5.880  0.00  0.00    -0.004 A 
ATOM      5  C5  I4B d   1       5.459   4.773  -5.832  0.00  0.00     0.002 A 
ATOM      6  C6  I4B d   1       5.991   3.477  -5.867  0.00  0.00     0.003 A 
ENDROOT
BRANCH   1   7
ATOM      7  C1' I4B d   1       5.672   0.987  -5.891  0.00  0.00     0.060 C 
BRANCH   7   8
ATOM      8  C2' I4B d   1       5.976   0.639  -4.448  0.00  0.00    -0.013 C 
ATOM      9  C4' I4B d   1       5.053   1.366  -3.506  0.00  0.00     0.013 C 
ATOM     10  C3' I4B d   1       5.847  -0.847  -4.294  0.00  0.00     0.013 C 
ENDBRANCH   7   8
ENDBRANCH   1   7
TORSDOF 2
ENDMDL
