MODEL 1
REMARK minimizedAffinity -2.74182582
REMARK minimizedRMSD -1
REMARK  0 active torsions:
REMARK  status: ('A' for Active; 'I' for Inactive)
ROOT
ATOM      1  C1  DEN d   1       0.785  -1.489   0.232  0.00  0.00     0.130 A 
ATOM      2  C2  DEN d   1       1.176  -1.314  -1.164  0.00  0.00    -0.031 A 
ATOM      3  C3  DEN d   1       0.588  -0.049  -1.648  0.00  0.00     0.027 A 
ATOM      4  C4  DEN d   1      -0.879   1.649  -0.376  0.00  0.00     0.027 A 
ATOM      5  C5  DEN d   1      -1.487   1.927   0.828  0.00  0.00    -0.003 A 
ATOM      6  C6  DEN d   1      -1.410   1.076   1.899  0.00  0.00     0.001 A 
ATOM      7  C7  DEN d   1      -0.670  -0.073   1.800  0.00  0.00     0.017 A 
ATOM      8  C8  DEN d   1      -0.060  -0.363   0.587  0.00  0.00    -0.094 A 
ATOM      9  C9  DEN d   1      -0.140   0.516  -0.480  0.00  0.00    -0.072 A 
ENDROOT
TORSDOF 0
ENDMDL
