MODEL 1
REMARK minimizedAffinity -3.18246889
REMARK minimizedRMSD -1
REMARK  0 active torsions:
REMARK  status: ('A' for Active; 'I' for Inactive)
ROOT
ATOM      1  C1  DEN d   1       0.095   1.519  -1.339  0.00  0.00     0.130 A 
ATOM      2  C2  DEN d   1       0.744   0.233  -1.577  0.00  0.00    -0.031 A 
ATOM      3  C3  DEN d   1       0.383  -0.673  -0.468  0.00  0.00     0.027 A 
ATOM      4  C4  DEN d   1      -1.115  -0.213   1.581  0.00  0.00     0.027 A 
ATOM      5  C5  DEN d   1      -1.879   0.737   2.222  0.00  0.00    -0.003 A 
ATOM      6  C6  DEN d   1      -2.010   2.014   1.743  0.00  0.00     0.001 A 
ATOM      7  C7  DEN d   1      -1.404   2.362   0.565  0.00  0.00     0.017 A 
ATOM      8  C8  DEN d   1      -0.626   1.412  -0.083  0.00  0.00    -0.094 A 
ATOM      9  C9  DEN d   1      -0.515   0.124   0.411  0.00  0.00    -0.072 A 
ENDROOT
TORSDOF 0
ENDMDL
