MODEL 1
REMARK minimizedAffinity -3.09782124
REMARK minimizedRMSD -1
REMARK  0 active torsions:
REMARK  status: ('A' for Active; 'I' for Inactive)
ROOT
ATOM      1  C1  DEN d   1      -1.166   2.076  -0.320  0.00  0.00     0.130 A 
ATOM      2  C2  DEN d   1      -1.737   2.233   1.015  0.00  0.00    -0.031 A 
ATOM      3  C3  DEN d   1      -1.329   1.068   1.825  0.00  0.00     0.027 A 
ATOM      4  C4  DEN d   1       0.126  -0.951   1.148  0.00  0.00     0.027 A 
ATOM      5  C5  DEN d   1       0.829  -1.532   0.116  0.00  0.00    -0.003 A 
ATOM      6  C6  DEN d   1       0.887  -0.973  -1.134  0.00  0.00     0.001 A 
ATOM      7  C7  DEN d   1       0.268   0.226  -1.370  0.00  0.00     0.017 A 
ATOM      8  C8  DEN d   1      -0.448   0.814  -0.337  0.00  0.00    -0.094 A 
ATOM      9  C9  DEN d   1      -0.485   0.239   0.923  0.00  0.00    -0.072 A 
ENDROOT
TORSDOF 0
ENDMDL
