MODEL 1
REMARK minimizedAffinity -5.31172848
REMARK minimizedRMSD -1
REMARK  0 active torsions:
REMARK  status: ('A' for Active; 'I' for Inactive)
ROOT
ATOM      1  C1  DEN d   1       1.098   1.111  -1.376  0.00  0.00     0.130 A 
ATOM      2  C2  DEN d   1       1.627  -0.241  -1.226  0.00  0.00    -0.031 A 
ATOM      3  C3  DEN d   1       0.882  -0.905  -0.137  0.00  0.00     0.027 A 
ATOM      4  C4  DEN d   1      -1.032   0.024   1.320  0.00  0.00     0.027 A 
ATOM      5  C5  DEN d   1      -1.818   1.128   1.572  0.00  0.00    -0.003 A 
ATOM      6  C6  DEN d   1      -1.665   2.304   0.887  0.00  0.00     0.001 A 
ATOM      7  C7  DEN d   1      -0.734   2.391  -0.114  0.00  0.00     0.017 A 
ATOM      8  C8  DEN d   1       0.067   1.285  -0.369  0.00  0.00    -0.094 A 
ATOM      9  C9  DEN d   1      -0.112   0.101   0.326  0.00  0.00    -0.072 A 
ENDROOT
TORSDOF 0
ENDMDL
