MODEL 1
REMARK minimizedAffinity 0.208957151
REMARK minimizedRMSD -1
REMARK  0 active torsions:
REMARK  status: ('A' for Active; 'I' for Inactive)
ROOT
ATOM      1  C1  DEN d   1      -1.218   2.121  -0.117  0.00  0.00     0.130 A 
ATOM      2  C2  DEN d   1      -1.835   2.262   1.199  0.00  0.00    -0.031 A 
ATOM      3  C3  DEN d   1      -1.354   1.155   2.050  0.00  0.00     0.027 A 
ATOM      4  C4  DEN d   1       0.282  -0.750   1.462  0.00  0.00     0.027 A 
ATOM      5  C5  DEN d   1       1.059  -1.295   0.464  0.00  0.00    -0.003 A 
ATOM      6  C6  DEN d   1       1.104  -0.764  -0.798  0.00  0.00     0.001 A 
ATOM      7  C7  DEN d   1       0.394   0.373  -1.082  0.00  0.00     0.017 A 
ATOM      8  C8  DEN d   1      -0.397   0.924  -0.082  0.00  0.00    -0.094 A 
ATOM      9  C9  DEN d   1      -0.420   0.379   1.191  0.00  0.00    -0.072 A 
ENDROOT
TORSDOF 0
ENDMDL
