MODEL 1
REMARK minimizedAffinity -4.30750656
REMARK minimizedRMSD -1
REMARK  0 active torsions:
REMARK  status: ('A' for Active; 'I' for Inactive)
ROOT
ATOM      1  C1  DEN d   1       0.427   0.043  -0.887  0.00  0.00     0.130 A 
ATOM      2  C2  DEN d   1       1.475  -0.290   0.073  0.00  0.00    -0.031 A 
ATOM      3  C3  DEN d   1       1.029   0.155   1.409  0.00  0.00     0.027 A 
ATOM      4  C4  DEN d   1      -1.174   1.316   2.081  0.00  0.00     0.027 A 
ATOM      5  C5  DEN d   1      -2.368   1.815   1.610  0.00  0.00    -0.003 A 
ATOM      6  C6  DEN d   1      -2.697   1.790   0.281  0.00  0.00     0.001 A 
ATOM      7  C7  DEN d   1      -1.841   1.213  -0.619  0.00  0.00     0.017 A 
ATOM      8  C8  DEN d   1      -0.632   0.714  -0.154  0.00  0.00    -0.094 A 
ATOM      9  C9  DEN d   1      -0.323   0.738   1.196  0.00  0.00    -0.072 A 
ENDROOT
TORSDOF 0
ENDMDL
