MODEL 1
REMARK minimizedAffinity -4.71540642
REMARK minimizedRMSD -1
REMARK  0 active torsions:
REMARK  status: ('A' for Active; 'I' for Inactive)
ROOT
ATOM      1  C1  DEN d   1      -1.427   2.561   0.254  0.00  0.00     0.130 A 
ATOM      2  C2  DEN d   1      -2.099   2.472   1.547  0.00  0.00    -0.031 A 
ATOM      3  C3  DEN d   1      -1.666   1.221   2.201  0.00  0.00     0.027 A 
ATOM      4  C4  DEN d   1      -0.026  -0.575   1.343  0.00  0.00     0.027 A 
ATOM      5  C5  DEN d   1       0.787  -0.943   0.294  0.00  0.00    -0.003 A 
ATOM      6  C6  DEN d   1       0.892  -0.193  -0.847  0.00  0.00     0.001 A 
ATOM      7  C7  DEN d   1       0.207   0.989  -0.947  0.00  0.00     0.017 A 
ATOM      8  C8  DEN d   1      -0.621   1.363   0.104  0.00  0.00    -0.094 A 
ATOM      9  C9  DEN d   1      -0.704   0.597   1.254  0.00  0.00    -0.072 A 
ENDROOT
TORSDOF 0
ENDMDL
