MODEL 1
REMARK minimizedAffinity -2.15432429
REMARK minimizedRMSD -1
REMARK  0 active torsions:
REMARK  status: ('A' for Active; 'I' for Inactive)
ROOT
ATOM      1  C1  DEN d   1       0.507   1.662  -1.107  0.00  0.00     0.130 A 
ATOM      2  C2  DEN d   1       1.259   0.453  -1.431  0.00  0.00    -0.031 A 
ATOM      3  C3  DEN d   1       0.840  -0.609  -0.494  0.00  0.00     0.027 A 
ATOM      4  C4  DEN d   1      -0.893  -0.501   1.413  0.00  0.00     0.027 A 
ATOM      5  C5  DEN d   1      -1.780   0.316   2.078  0.00  0.00    -0.003 A 
ATOM      6  C6  DEN d   1      -1.941   1.637   1.753  0.00  0.00     0.001 A 
ATOM      7  C7  DEN d   1      -1.237   2.169   0.705  0.00  0.00     0.017 A 
ATOM      8  C8  DEN d   1      -0.335   1.354   0.035  0.00  0.00    -0.094 A 
ATOM      9  C9  DEN d   1      -0.195   0.018   0.371  0.00  0.00    -0.072 A 
ENDROOT
TORSDOF 0
ENDMDL
