MODEL 1
REMARK minimizedAffinity -3.9707315
REMARK minimizedRMSD -1
REMARK  0 active torsions:
REMARK  status: ('A' for Active; 'I' for Inactive)
ROOT
ATOM      1  C1  DEN d   1      -1.531   1.926   0.532  0.00  0.00     0.130 A 
ATOM      2  C2  DEN d   1      -1.891   1.992   1.946  0.00  0.00    -0.031 A 
ATOM      3  C3  DEN d   1      -1.361   0.784   2.609  0.00  0.00     0.027 A 
ATOM      4  C4  DEN d   1      -0.021  -1.170   1.590  0.00  0.00     0.027 A 
ATOM      5  C5  DEN d   1       0.517  -1.677   0.428  0.00  0.00    -0.003 A 
ATOM      6  C6  DEN d   1       0.383  -1.040  -0.778  0.00  0.00     0.001 A 
ATOM      7  C7  DEN d   1      -0.268   0.164  -0.840  0.00  0.00     0.017 A 
ATOM      8  C8  DEN d   1      -0.820   0.677   0.326  0.00  0.00    -0.094 A 
ATOM      9  C9  DEN d   1      -0.663   0.024   1.537  0.00  0.00    -0.072 A 
ENDROOT
TORSDOF 0
ENDMDL
