MODEL 1
REMARK minimizedAffinity -4.15953875
REMARK minimizedRMSD -1
REMARK  0 active torsions:
REMARK  status: ('A' for Active; 'I' for Inactive)
ROOT
ATOM      1  C1  DEN d   1       0.172  -1.519   0.623  0.00  0.00     0.130 A 
ATOM      2  C2  DEN d   1       0.619  -1.673  -0.759  0.00  0.00    -0.031 A 
ATOM      3  C3  DEN d   1       0.242  -0.452  -1.499  0.00  0.00     0.027 A 
ATOM      4  C4  DEN d   1      -0.979   1.653  -0.642  0.00  0.00     0.027 A 
ATOM      5  C5  DEN d   1      -1.566   2.241   0.456  0.00  0.00    -0.003 A 
ATOM      6  C6  DEN d   1      -1.645   1.608   1.669  0.00  0.00     0.001 A 
ATOM      7  C7  DEN d   1      -1.087   0.366   1.824  0.00  0.00     0.017 A 
ATOM      8  C8  DEN d   1      -0.500  -0.236   0.719  0.00  0.00    -0.094 A 
ATOM      9  C9  DEN d   1      -0.420   0.425  -0.495  0.00  0.00    -0.072 A 
ENDROOT
TORSDOF 0
ENDMDL
