MODEL 1
REMARK minimizedAffinity -4.57006836
REMARK minimizedRMSD -1
REMARK  0 active torsions:
REMARK  status: ('A' for Active; 'I' for Inactive)
ROOT
ATOM      1  C1  DEN d   1      -0.729  -0.702  -1.233  0.00  0.00     0.130 A 
ATOM      2  C2  DEN d   1       0.677  -1.073  -1.099  0.00  0.00    -0.031 A 
ATOM      3  C3  DEN d   1       1.219  -0.387   0.091  0.00  0.00     0.027 A 
ATOM      4  C4  DEN d   1       0.022   1.203   1.732  0.00  0.00     0.027 A 
ATOM      5  C5  DEN d   1      -1.171   1.826   2.023  0.00  0.00    -0.003 A 
ATOM      6  C6  DEN d   1      -2.283   1.679   1.235  0.00  0.00     0.001 A 
ATOM      7  C7  DEN d   1      -2.236   0.853   0.143  0.00  0.00     0.017 A 
ATOM      8  C8  DEN d   1      -1.034   0.227  -0.160  0.00  0.00    -0.094 A 
ATOM      9  C9  DEN d   1       0.075   0.379   0.655  0.00  0.00    -0.072 A 
ENDROOT
TORSDOF 0
ENDMDL
