MODEL 1
REMARK minimizedAffinity -2.55289483
REMARK minimizedRMSD -1
REMARK  0 active torsions:
REMARK  status: ('A' for Active; 'I' for Inactive)
ROOT
ATOM      1  C1  DEN d   1      -2.185   1.567   0.069  0.00  0.00     0.130 A 
ATOM      2  C2  DEN d   1      -2.223   2.028   1.454  0.00  0.00    -0.031 A 
ATOM      3  C3  DEN d   1      -1.088   1.412   2.171  0.00  0.00     0.027 A 
ATOM      4  C4  DEN d   1       0.716  -0.198   1.274  0.00  0.00     0.027 A 
ATOM      5  C5  DEN d   1       1.156  -0.885   0.164  0.00  0.00    -0.003 A 
ATOM      6  C6  DEN d   1       0.499  -0.830  -1.037  0.00  0.00     0.001 A 
ATOM      7  C7  DEN d   1      -0.609  -0.036  -1.168  0.00  0.00     0.017 A 
ATOM      8  C8  DEN d   1      -1.063   0.654  -0.052  0.00  0.00    -0.094 A 
ATOM      9  C9  DEN d   1      -0.378   0.595   1.150  0.00  0.00    -0.072 A 
ENDROOT
TORSDOF 0
ENDMDL
