MODEL 1
REMARK minimizedAffinity -5.01486683
REMARK minimizedRMSD -1
REMARK  0 active torsions:
REMARK  status: ('A' for Active; 'I' for Inactive)
ROOT
ATOM      1  C1  DEN d   1      -1.666   0.874   2.342  0.00  0.00     0.130 A 
ATOM      2  C2  DEN d   1      -2.320   2.019   1.715  0.00  0.00    -0.031 A 
ATOM      3  C3  DEN d   1      -1.859   2.098   0.314  0.00  0.00     0.027 A 
ATOM      4  C4  DEN d   1      -0.210   0.562  -0.940  0.00  0.00     0.027 A 
ATOM      5  C5  DEN d   1       0.612  -0.537  -0.822  0.00  0.00    -0.003 A 
ATOM      6  C6  DEN d   1       0.757  -1.217   0.359  0.00  0.00     0.001 A 
ATOM      7  C7  DEN d   1       0.035  -0.831   1.457  0.00  0.00     0.017 A 
ATOM      8  C8  DEN d   1      -0.790   0.281   1.348  0.00  0.00    -0.094 A 
ATOM      9  C9  DEN d   1      -0.932   0.947   0.142  0.00  0.00    -0.072 A 
ENDROOT
TORSDOF 0
ENDMDL
