MODEL 1
REMARK minimizedAffinity -3.98603868
REMARK minimizedRMSD -1
REMARK  0 active torsions:
REMARK  status: ('A' for Active; 'I' for Inactive)
ROOT
ATOM      1  C1  DEN d   1       0.579  -1.323   0.852  0.00  0.00     0.130 A 
ATOM      2  C2  DEN d   1       1.128  -1.548  -0.483  0.00  0.00    -0.031 A 
ATOM      3  C3  DEN d   1       0.626  -0.479  -1.370  0.00  0.00     0.027 A 
ATOM      4  C4  DEN d   1      -0.935   1.495  -0.808  0.00  0.00     0.027 A 
ATOM      5  C5  DEN d   1      -1.668   2.098   0.191  0.00  0.00    -0.003 A 
ATOM      6  C6  DEN d   1      -1.730   1.588   1.461  0.00  0.00     0.001 A 
ATOM      7  C7  DEN d   1      -1.011   0.466   1.777  0.00  0.00     0.017 A 
ATOM      8  C8  DEN d   1      -0.275  -0.152   0.774  0.00  0.00    -0.094 A 
ATOM      9  C9  DEN d   1      -0.216   0.387  -0.500  0.00  0.00    -0.072 A 
ENDROOT
TORSDOF 0
ENDMDL
