MODEL 1
REMARK minimizedAffinity -0.95896858
REMARK minimizedRMSD -1
REMARK  0 active torsions:
REMARK  status: ('A' for Active; 'I' for Inactive)
ROOT
ATOM      1  C1  BNZ d   1       2.270   0.302   2.364  0.00  0.00     0.000 A 
ATOM      2  C2  BNZ d   1       2.261  -0.987   1.903  0.00  0.00     0.000 A 
ATOM      3  C3  BNZ d   1       1.669  -1.985   2.626  0.00  0.00     0.000 A 
ATOM      4  C4  BNZ d   1       1.122  -1.700   3.825  0.00  0.00     0.000 A 
ATOM      5  C5  BNZ d   1       1.132  -0.407   4.308  0.00  0.00     0.000 A 
ATOM      6  C6  BNZ d   1       1.694   0.602   3.560  0.00  0.00     0.000 A 
ENDROOT
TORSDOF 0
ENDMDL
