MODEL 1
REMARK minimizedAffinity -2.12963128
REMARK minimizedRMSD -1
REMARK  0 active torsions:
REMARK  status: ('A' for Active; 'I' for Inactive)
ROOT
ATOM      1  C1  BNZ d   1       3.448  -5.971  -5.333  0.00  0.00     0.000 A 
ATOM      2  C2  BNZ d   1       4.435  -5.969  -4.384  0.00  0.00     0.000 A 
ATOM      3  C3  BNZ d   1       4.125  -5.999  -3.053  0.00  0.00     0.000 A 
ATOM      4  C4  BNZ d   1       2.831  -5.991  -2.672  0.00  0.00     0.000 A 
ATOM      5  C5  BNZ d   1       1.825  -5.984  -3.618  0.00  0.00     0.000 A 
ATOM      6  C6  BNZ d   1       2.140  -5.993  -4.957  0.00  0.00     0.000 A 
ENDROOT
TORSDOF 0
ENDMDL
