MODEL 1
REMARK minimizedAffinity -2.84233975
REMARK minimizedRMSD -1
REMARK  0 active torsions:
REMARK  status: ('A' for Active; 'I' for Inactive)
ROOT
ATOM      1  C1  BNZ d   1       2.753  -5.960  -4.219  0.00  0.00     0.000 A 
ATOM      2  C2  BNZ d   1       3.358  -6.000  -2.991  0.00  0.00     0.000 A 
ATOM      3  C3  BNZ d   1       4.717  -5.916  -2.878  0.00  0.00     0.000 A 
ATOM      4  C4  BNZ d   1       5.472  -5.833  -3.993  0.00  0.00     0.000 A 
ATOM      5  C5  BNZ d   1       4.877  -5.801  -5.238  0.00  0.00     0.000 A 
ATOM      6  C6  BNZ d   1       3.506  -5.846  -5.347  0.00  0.00     0.000 A 
ENDROOT
TORSDOF 0
ENDMDL
