MODEL 1
REMARK minimizedAffinity 2.25191236
REMARK minimizedRMSD -1
REMARK  0 active torsions:
REMARK  status: ('A' for Active; 'I' for Inactive)
ROOT
ATOM      1  C1  BNZ d   1       2.172  -2.184   3.522  0.00  0.00     0.000 A 
ATOM      2  C2  BNZ d   1       2.725  -3.004   4.469  0.00  0.00     0.000 A 
ATOM      3  C3  BNZ d   1       4.081  -3.082   4.622  0.00  0.00     0.000 A 
ATOM      4  C4  BNZ d   1       4.883  -2.372   3.801  0.00  0.00     0.000 A 
ATOM      5  C5  BNZ d   1       4.340  -1.548   2.835  0.00  0.00     0.000 A 
ATOM      6  C6  BNZ d   1       2.974  -1.442   2.711  0.00  0.00     0.000 A 
ENDROOT
TORSDOF 0
ENDMDL
