MODEL 1
REMARK minimizedAffinity -1.87198532
REMARK minimizedRMSD -1
REMARK  0 active torsions:
REMARK  status: ('A' for Active; 'I' for Inactive)
ROOT
ATOM      1  C1  BNZ d   1       2.762  -6.000  -3.662  0.00  0.00     0.000 A 
ATOM      2  C2  BNZ d   1       4.110  -5.999  -3.421  0.00  0.00     0.000 A 
ATOM      3  C3  BNZ d   1       5.006  -5.973  -4.453  0.00  0.00     0.000 A 
ATOM      4  C4  BNZ d   1       4.554  -5.988  -5.723  0.00  0.00     0.000 A 
ATOM      5  C5  BNZ d   1       3.198  -5.998  -5.983  0.00  0.00     0.000 A 
ATOM      6  C6  BNZ d   1       2.299  -5.985  -4.941  0.00  0.00     0.000 A 
ENDROOT
TORSDOF 0
ENDMDL
