MODEL 1
REMARK minimizedAffinity 2.2419374
REMARK minimizedRMSD -1
REMARK  0 active torsions:
REMARK  status: ('A' for Active; 'I' for Inactive)
ROOT
ATOM      1  C1  BNZ d   1       5.506  -6.000  -0.331  0.00  0.00     0.000 A 
ATOM      2  C2  BNZ d   1       4.605  -5.997   0.700  0.00  0.00     0.000 A 
ATOM      3  C3  BNZ d   1       3.260  -5.982   0.455  0.00  0.00     0.000 A 
ATOM      4  C4  BNZ d   1       2.819  -5.929  -0.819  0.00  0.00     0.000 A 
ATOM      5  C5  BNZ d   1       3.715  -5.922  -1.869  0.00  0.00     0.000 A 
ATOM      6  C6  BNZ d   1       5.067  -5.977  -1.619  0.00  0.00     0.000 A 
ENDROOT
TORSDOF 0
ENDMDL
