MODEL 1
REMARK minimizedAffinity 0.849781036
REMARK minimizedRMSD -1
REMARK  0 active torsions:
REMARK  status: ('A' for Active; 'I' for Inactive)
ROOT
ATOM      1  C1  BNZ d   1       3.559  -5.977  -3.611  0.00  0.00     0.000 A 
ATOM      2  C2  BNZ d   1       2.190  -5.951  -3.652  0.00  0.00     0.000 A 
ATOM      3  C3  BNZ d   1       1.527  -5.916  -4.847  0.00  0.00     0.000 A 
ATOM      4  C4  BNZ d   1       2.232  -5.866  -5.996  0.00  0.00     0.000 A 
ATOM      5  C5  BNZ d   1       3.613  -5.882  -5.970  0.00  0.00     0.000 A 
ATOM      6  C6  BNZ d   1       4.276  -5.956  -4.767  0.00  0.00     0.000 A 
ENDROOT
TORSDOF 0
ENDMDL
