MODEL 1
REMARK minimizedAffinity 4.13719416
REMARK minimizedRMSD -1
REMARK  0 active torsions:
REMARK  status: ('A' for Active; 'I' for Inactive)
ROOT
ATOM      1  C1  BNZ d   1       1.414  -4.347   3.507  0.00  0.00     0.000 A 
ATOM      2  C2  BNZ d   1       1.025  -3.161   2.943  0.00  0.00     0.000 A 
ATOM      3  C3  BNZ d   1       1.851  -2.073   2.960  0.00  0.00     0.000 A 
ATOM      4  C4  BNZ d   1       3.048  -2.159   3.575  0.00  0.00     0.000 A 
ATOM      5  C5  BNZ d   1       3.452  -3.345   4.157  0.00  0.00     0.000 A 
ATOM      6  C6  BNZ d   1       2.633  -4.450   4.104  0.00  0.00     0.000 A 
ENDROOT
TORSDOF 0
ENDMDL
