MODEL 1
REMARK minimizedAffinity 0.401557326
REMARK minimizedRMSD -1
REMARK  0 active torsions:
REMARK  status: ('A' for Active; 'I' for Inactive)
ROOT
ATOM      1  C1  BNZ d   1       4.446  -4.884  -2.615  0.00  0.00     0.000 A 
ATOM      2  C2  BNZ d   1       4.165  -4.883  -1.275  0.00  0.00     0.000 A 
ATOM      3  C3  BNZ d   1       3.020  -5.460  -0.800  0.00  0.00     0.000 A 
ATOM      4  C4  BNZ d   1       2.140  -6.000  -1.668  0.00  0.00     0.000 A 
ATOM      5  C5  BNZ d   1       2.405  -6.000  -3.023  0.00  0.00     0.000 A 
ATOM      6  C6  BNZ d   1       3.577  -5.453  -3.494  0.00  0.00     0.000 A 
ENDROOT
TORSDOF 0
ENDMDL
