MODEL 1
REMARK minimizedAffinity -0.535070658
REMARK minimizedRMSD -1
REMARK  0 active torsions:
REMARK  status: ('A' for Active; 'I' for Inactive)
ROOT
ATOM      1  C1  BNZ d   1       3.810  -5.999  -1.346  0.00  0.00     0.000 A 
ATOM      2  C2  BNZ d   1       4.352  -5.980  -2.604  0.00  0.00     0.000 A 
ATOM      3  C3  BNZ d   1       3.551  -5.945  -3.711  0.00  0.00     0.000 A 
ATOM      4  C4  BNZ d   1       2.211  -5.970  -3.560  0.00  0.00     0.000 A 
ATOM      5  C5  BNZ d   1       1.649  -5.999  -2.299  0.00  0.00     0.000 A 
ATOM      6  C6  BNZ d   1       2.459  -5.994  -1.186  0.00  0.00     0.000 A 
ENDROOT
TORSDOF 0
ENDMDL
