MODEL 1
REMARK minimizedAffinity 1.77283907
REMARK minimizedRMSD -1
REMARK  0 active torsions:
REMARK  status: ('A' for Active; 'I' for Inactive)
ROOT
ATOM      1  C1  BNZ d   1       0.794  -1.304   1.720  0.00  0.00     0.000 A 
ATOM      2  C2  BNZ d   1       1.283  -2.526   2.098  0.00  0.00     0.000 A 
ATOM      3  C3  BNZ d   1       2.494  -2.633   2.723  0.00  0.00     0.000 A 
ATOM      4  C4  BNZ d   1       3.231  -1.524   2.933  0.00  0.00     0.000 A 
ATOM      5  C5  BNZ d   1       2.757  -0.286   2.550  0.00  0.00     0.000 A 
ATOM      6  C6  BNZ d   1       1.520  -0.178   1.956  0.00  0.00     0.000 A 
ENDROOT
TORSDOF 0
ENDMDL
