MODEL 1
REMARK minimizedAffinity -4.57481956
REMARK minimizedRMSD -1
REMARK  0 active torsions:
REMARK  status: ('A' for Active; 'I' for Inactive)
ROOT
ATOM      1  C   UNL d   1       0.780   3.276   0.382  0.00  0.00     0.023 A 
ATOM      2  C1  UNL d   1      -0.523   2.789   0.281  0.00  0.00     0.003 A 
ATOM      3  C2  UNL d   1      -0.745   1.431   0.040  0.00  0.00     0.048 A 
ATOM      4  C3  UNL d   1       0.340   0.567  -0.098  0.00  0.00     0.023 A 
ATOM      5  C4  UNL d   1       1.646   1.049   0.004  0.00  0.00     0.048 A 
ATOM      6  C5  UNL d   1       1.863   2.407   0.244  0.00  0.00     0.003 A 
ATOM      7  I   UNL d   1       0.011  -1.454  -0.456  0.00  0.00    -0.146 I 
ENDROOT
TORSDOF 0
ENDMDL
