MODEL 1
REMARK minimizedAffinity -0.669972837
REMARK minimizedRMSD -1
REMARK  0 active torsions:
REMARK  status: ('A' for Active; 'I' for Inactive)
ROOT
ATOM      1  C   UNL d   1       1.380   2.722  -0.802  0.00  0.00     0.023 A 
ATOM      2  C1  UNL d   1       1.519   1.337  -0.893  0.00  0.00     0.003 A 
ATOM      3  C2  UNL d   1       0.628   0.498  -0.221  0.00  0.00     0.048 A 
ATOM      4  C3  UNL d   1      -0.402   1.051   0.539  0.00  0.00     0.023 A 
ATOM      5  C4  UNL d   1      -0.546   2.436   0.633  0.00  0.00     0.048 A 
ATOM      6  C5  UNL d   1       0.348   3.271  -0.040  0.00  0.00     0.003 A 
ATOM      7  I   UNL d   1      -1.731  -0.195   1.540  0.00  0.00    -0.146 I 
ENDROOT
TORSDOF 0
ENDMDL
