MODEL 1
REMARK minimizedAffinity -1.28609967
REMARK minimizedRMSD -1
REMARK  0 active torsions:
REMARK  status: ('A' for Active; 'I' for Inactive)
ROOT
ATOM      1  C   UNL d   1      -2.048   1.824   0.571  0.00  0.00     0.023 A 
ATOM      2  C1  UNL d   1      -0.960   2.663   0.333  0.00  0.00     0.003 A 
ATOM      3  C2  UNL d   1       0.336   2.142   0.322  0.00  0.00     0.048 A 
ATOM      4  C3  UNL d   1       0.535   0.781   0.548  0.00  0.00     0.023 A 
ATOM      5  C4  UNL d   1      -0.551  -0.063   0.786  0.00  0.00     0.048 A 
ATOM      6  C5  UNL d   1      -1.844   0.463   0.797  0.00  0.00     0.003 A 
ATOM      7  I   UNL d   1       2.463   0.002   0.531  0.00  0.00    -0.146 I 
ENDROOT
TORSDOF 0
ENDMDL
