MODEL 1
REMARK minimizedAffinity -2.73118114
REMARK minimizedRMSD -1
REMARK  0 active torsions:
REMARK  status: ('A' for Active; 'I' for Inactive)
ROOT
ATOM      1  C   UNL d   1       0.212   2.886   0.534  0.00  0.00     0.023 A 
ATOM      2  C1  UNL d   1       0.972   2.386  -0.523  0.00  0.00     0.003 A 
ATOM      3  C2  UNL d   1       0.786   1.073  -0.959  0.00  0.00     0.048 A 
ATOM      4  C3  UNL d   1      -0.163   0.265  -0.334  0.00  0.00     0.023 A 
ATOM      5  C4  UNL d   1      -0.927   0.761   0.723  0.00  0.00     0.048 A 
ATOM      6  C5  UNL d   1      -0.737   2.075   1.156  0.00  0.00     0.003 A 
ATOM      7  I   UNL d   1      -0.442  -1.690  -0.982  0.00  0.00    -0.146 I 
ENDROOT
TORSDOF 0
ENDMDL
