MODEL 1
REMARK minimizedAffinity -3.23845816
REMARK minimizedRMSD -1
REMARK  0 active torsions:
REMARK  status: ('A' for Active; 'I' for Inactive)
ROOT
ATOM      1  C   UNL d   1       0.014   3.115   0.089  0.00  0.00     0.023 A 
ATOM      2  C1  UNL d   1      -1.080   2.323   0.438  0.00  0.00     0.003 A 
ATOM      3  C2  UNL d   1      -0.958   0.932   0.461  0.00  0.00     0.048 A 
ATOM      4  C3  UNL d   1       0.261   0.340   0.133  0.00  0.00     0.023 A 
ATOM      5  C4  UNL d   1       1.358   1.128  -0.217  0.00  0.00     0.048 A 
ATOM      6  C5  UNL d   1       1.232   2.518  -0.238  0.00  0.00     0.003 A 
ATOM      7  I   UNL d   1       0.444  -1.730   0.166  0.00  0.00    -0.146 I 
ENDROOT
TORSDOF 0
ENDMDL
