MODEL 1
REMARK minimizedAffinity -4.1151948
REMARK minimizedRMSD -1
REMARK  0 active torsions:
REMARK  status: ('A' for Active; 'I' for Inactive)
ROOT
ATOM      1  C   UNL d   1      -0.022   2.933   0.265  0.00  0.00     0.023 A 
ATOM      2  C1  UNL d   1       1.104   2.371  -0.336  0.00  0.00     0.003 A 
ATOM      3  C2  UNL d   1       1.097   1.028  -0.717  0.00  0.00     0.048 A 
ATOM      4  C3  UNL d   1      -0.040   0.252  -0.494  0.00  0.00     0.023 A 
ATOM      5  C4  UNL d   1      -1.170   0.811   0.106  0.00  0.00     0.048 A 
ATOM      6  C5  UNL d   1      -1.158   2.154   0.486  0.00  0.00     0.003 A 
ATOM      7  I   UNL d   1      -0.054  -1.748  -1.060  0.00  0.00    -0.146 I 
ENDROOT
TORSDOF 0
ENDMDL
