MODEL 1
REMARK minimizedAffinity -3.42131972
REMARK minimizedRMSD -1
REMARK  0 active torsions:
REMARK  status: ('A' for Active; 'I' for Inactive)
ROOT
ATOM      1  C   UNL d   1      -0.038   3.468  -0.025  0.00  0.00     0.023 A 
ATOM      2  C1  UNL d   1       0.948   2.825  -0.774  0.00  0.00     0.003 A 
ATOM      3  C2  UNL d   1       1.012   1.430  -0.795  0.00  0.00     0.048 A 
ATOM      4  C3  UNL d   1       0.086   0.685  -0.066  0.00  0.00     0.023 A 
ATOM      5  C4  UNL d   1      -0.903   1.324   0.683  0.00  0.00     0.048 A 
ATOM      6  C5  UNL d   1      -0.962   2.719   0.702  0.00  0.00     0.003 A 
ATOM      7  I   UNL d   1       0.178  -1.391  -0.096  0.00  0.00    -0.146 I 
ENDROOT
TORSDOF 0
ENDMDL
