MODEL 1
REMARK minimizedAffinity -2.94270563
REMARK minimizedRMSD -1
REMARK  0 active torsions:
REMARK  status: ('A' for Active; 'I' for Inactive)
ROOT
ATOM      1  C   UNL d   1       0.220   1.778   0.377  0.00  0.00     0.023 A 
ATOM      2  C1  UNL d   1       1.030   0.953  -0.404  0.00  0.00     0.003 A 
ATOM      3  C2  UNL d   1       0.616  -0.344  -0.713  0.00  0.00     0.048 A 
ATOM      4  C3  UNL d   1      -0.610  -0.809  -0.240  0.00  0.00     0.023 A 
ATOM      5  C4  UNL d   1      -1.425   0.013   0.541  0.00  0.00     0.048 A 
ATOM      6  C5  UNL d   1      -1.006   1.309   0.848  0.00  0.00     0.003 A 
ATOM      7  I   UNL d   1      -1.230  -2.739  -0.699  0.00  0.00    -0.146 I 
ENDROOT
TORSDOF 0
ENDMDL
