MODEL 1
REMARK minimizedAffinity -5.19888449
REMARK minimizedRMSD -1
REMARK  0 active torsions:
REMARK  status: ('A' for Active; 'I' for Inactive)
ROOT
ATOM      1  C   UNL d   1       0.761   3.028  -0.007  0.00  0.00     0.023 A 
ATOM      2  C1  UNL d   1      -0.527   2.515  -0.154  0.00  0.00     0.003 A 
ATOM      3  C2  UNL d   1      -0.734   1.134  -0.158  0.00  0.00     0.048 A 
ATOM      4  C3  UNL d   1       0.353   0.272  -0.014  0.00  0.00     0.023 A 
ATOM      5  C4  UNL d   1       1.644   0.781   0.134  0.00  0.00     0.048 A 
ATOM      6  C5  UNL d   1       1.846   2.163   0.137  0.00  0.00     0.003 A 
ATOM      7  I   UNL d   1       0.048  -1.784  -0.019  0.00  0.00    -0.146 I 
ENDROOT
TORSDOF 0
ENDMDL
