MODEL 1
REMARK minimizedAffinity 2.99510694
REMARK minimizedRMSD -1
REMARK  0 active torsions:
REMARK  status: ('A' for Active; 'I' for Inactive)
ROOT
ATOM      1  C   UNL d   1      -1.793   0.296   0.202  0.00  0.00     0.023 A 
ATOM      2  C1  UNL d   1      -1.766   1.655   0.514  0.00  0.00     0.003 A 
ATOM      3  C2  UNL d   1      -0.551   2.284   0.794  0.00  0.00     0.048 A 
ATOM      4  C3  UNL d   1       0.633   1.548   0.759  0.00  0.00     0.023 A 
ATOM      5  C4  UNL d   1       0.610   0.188   0.446  0.00  0.00     0.048 A 
ATOM      6  C5  UNL d   1      -0.607  -0.437   0.168  0.00  0.00     0.003 A 
ATOM      7  I   UNL d   1       2.442   2.482   1.175  0.00  0.00    -0.146 I 
ENDROOT
TORSDOF 0
ENDMDL
