MODEL 1
REMARK minimizedAffinity -4.7381444
REMARK minimizedRMSD -1
REMARK  0 active torsions:
REMARK  status: ('A' for Active; 'I' for Inactive)
ROOT
ATOM      1  C   UNL d   1      -0.210   3.286  -0.881  0.00  0.00     0.023 A 
ATOM      2  C1  UNL d   1      -0.073   3.018   0.481  0.00  0.00     0.003 A 
ATOM      3  C2  UNL d   1      -0.056   1.697   0.936  0.00  0.00     0.048 A 
ATOM      4  C3  UNL d   1      -0.175   0.650   0.022  0.00  0.00     0.023 A 
ATOM      5  C4  UNL d   1      -0.311   0.914  -1.342  0.00  0.00     0.048 A 
ATOM      6  C5  UNL d   1      -0.328   2.236  -1.791  0.00  0.00     0.003 A 
ATOM      7  I   UNL d   1      -0.150  -1.316   0.696  0.00  0.00    -0.146 I 
ENDROOT
TORSDOF 0
ENDMDL
