MODEL 1
REMARK minimizedAffinity -5.73018408
REMARK minimizedRMSD -1
REMARK  0 active torsions:
REMARK  status: ('A' for Active; 'I' for Inactive)
ROOT
ATOM      1  C   UNL d   1       1.555   3.930   0.217  0.00  0.00     0.023 A 
ATOM      2  C1  UNL d   1       0.288   3.483  -0.159  0.00  0.00     0.003 A 
ATOM      3  C2  UNL d   1       0.046   2.117  -0.316  0.00  0.00     0.048 A 
ATOM      4  C3  UNL d   1       1.075   1.203  -0.095  0.00  0.00     0.023 A 
ATOM      5  C4  UNL d   1       2.344   1.645   0.281  0.00  0.00     0.048 A 
ATOM      6  C5  UNL d   1       2.582   3.012   0.436  0.00  0.00     0.003 A 
ATOM      7  I   UNL d   1       0.717  -0.831  -0.329  0.00  0.00    -0.146 I 
ENDROOT
TORSDOF 0
ENDMDL
