MODEL 1
REMARK minimizedAffinity -2.91473055
REMARK minimizedRMSD -1
REMARK  0 active torsions:
REMARK  status: ('A' for Active; 'I' for Inactive)
ROOT
ATOM      1  C   UNL d   1       0.138   2.242   1.043  0.00  0.00     0.023 A 
ATOM      2  C1  UNL d   1      -1.124   1.840   0.608  0.00  0.00     0.003 A 
ATOM      3  C2  UNL d   1      -1.297   0.581   0.030  0.00  0.00     0.048 A 
ATOM      4  C3  UNL d   1      -0.202  -0.272  -0.108  0.00  0.00     0.023 A 
ATOM      5  C4  UNL d   1       1.063   0.125   0.327  0.00  0.00     0.048 A 
ATOM      6  C5  UNL d   1       1.231   1.386   0.903  0.00  0.00     0.003 A 
ATOM      7  I   UNL d   1      -0.456  -2.148  -0.967  0.00  0.00    -0.146 I 
ENDROOT
TORSDOF 0
ENDMDL
