MODEL 1
REMARK minimizedAffinity 0.308277667
REMARK minimizedRMSD -1
REMARK  0 active torsions:
REMARK  status: ('A' for Active; 'I' for Inactive)
ROOT
ATOM      1  O1  BZF d   1       1.172  -4.822  -4.740  0.00  0.00    -0.204 OA
ATOM      2  C2  BZF d   1       1.574  -4.539  -3.449  0.00  0.00     0.174 A 
ATOM      3  C3  BZF d   1       0.556  -4.718  -2.582  0.00  0.00    -0.012 A 
ATOM      4  C3A BZF d   1      -0.524  -5.228  -3.369  0.00  0.00    -0.107 A 
ATOM      5  C4  BZF d   1      -1.800  -5.616  -3.074  0.00  0.00     0.055 A 
ATOM      6  C5  BZF d   1      -2.625  -5.996  -4.085  0.00  0.00    -0.016 A 
ATOM      7  C6  BZF d   1      -2.210  -5.996  -5.400  0.00  0.00     0.022 A 
ATOM      8  C7  BZF d   1      -0.952  -5.624  -5.742  0.00  0.00     0.029 A 
ATOM      9  C7A BZF d   1      -0.106  -5.270  -4.719  0.00  0.00     0.058 A 
ENDROOT
TORSDOF 0
ENDMDL
