MODEL 1
REMARK minimizedAffinity 5.57303095
REMARK minimizedRMSD -1
REMARK  0 active torsions:
REMARK  status: ('A' for Active; 'I' for Inactive)
ROOT
ATOM      1  O1  BZF d   1       1.398  -5.741  -4.202  0.00  0.00    -0.204 OA
ATOM      2  C2  BZF d   1       1.330  -5.722  -5.582  0.00  0.00     0.174 A 
ATOM      3  C3  BZF d   1       0.054  -5.847  -6.000  0.00  0.00    -0.012 A 
ATOM      4  C3A BZF d   1      -0.734  -5.857  -4.806  0.00  0.00    -0.107 A 
ATOM      5  C4  BZF d   1      -2.075  -5.942  -4.566  0.00  0.00     0.055 A 
ATOM      6  C5  BZF d   1      -2.515  -5.999  -3.282  0.00  0.00    -0.016 A 
ATOM      7  C6  BZF d   1      -1.642  -5.979  -2.214  0.00  0.00     0.022 A 
ATOM      8  C7  BZF d   1      -0.303  -5.890  -2.401  0.00  0.00     0.029 A 
ATOM      9  C7A BZF d   1       0.143  -5.799  -3.697  0.00  0.00     0.058 A 
ENDROOT
TORSDOF 0
ENDMDL
