MODEL 1
REMARK minimizedAffinity 0.666826248
REMARK minimizedRMSD -1
REMARK  0 active torsions:
REMARK  status: ('A' for Active; 'I' for Inactive)
ROOT
ATOM      1  O1  BZF d   1       2.050  -5.889  -6.000  0.00  0.00    -0.204 OA
ATOM      2  C2  BZF d   1       3.116  -5.992  -5.128  0.00  0.00     0.174 A 
ATOM      3  C3  BZF d   1       2.689  -5.998  -3.849  0.00  0.00    -0.012 A 
ATOM      4  C3A BZF d   1       1.260  -5.986  -3.929  0.00  0.00    -0.107 A 
ATOM      5  C4  BZF d   1       0.267  -6.000  -2.991  0.00  0.00     0.055 A 
ATOM      6  C5  BZF d   1      -1.026  -5.906  -3.398  0.00  0.00    -0.016 A 
ATOM      7  C6  BZF d   1      -1.361  -5.792  -4.731  0.00  0.00     0.022 A 
ATOM      8  C7  BZF d   1      -0.411  -5.779  -5.698  0.00  0.00     0.029 A 
ATOM      9  C7A BZF d   1       0.895  -5.907  -5.292  0.00  0.00     0.058 A 
ENDROOT
TORSDOF 0
ENDMDL
