MODEL 1
REMARK minimizedAffinity -2.95898056
REMARK minimizedRMSD -1
REMARK  0 active torsions:
REMARK  status: ('A' for Active; 'I' for Inactive)
ROOT
ATOM      1  O1  BZF d   1       1.476  -5.992  -6.000  0.00  0.00    -0.204 OA
ATOM      2  C2  BZF d   1       2.601  -5.834  -5.214  0.00  0.00     0.174 A 
ATOM      3  C3  BZF d   1       2.259  -5.606  -3.930  0.00  0.00    -0.012 A 
ATOM      4  C3A BZF d   1       0.833  -5.713  -3.895  0.00  0.00    -0.107 A 
ATOM      5  C4  BZF d   1      -0.093  -5.604  -2.897  0.00  0.00     0.055 A 
ATOM      6  C5  BZF d   1      -1.413  -5.690  -3.208  0.00  0.00    -0.016 A 
ATOM      7  C6  BZF d   1      -1.842  -5.880  -4.505  0.00  0.00     0.022 A 
ATOM      8  C7  BZF d   1      -0.961  -6.000  -5.528  0.00  0.00     0.029 A 
ATOM      9  C7A BZF d   1       0.375  -5.946  -5.212  0.00  0.00     0.058 A 
ENDROOT
TORSDOF 0
ENDMDL
