MODEL 1
REMARK minimizedAffinity -1.76226151
REMARK minimizedRMSD -1
REMARK  0 active torsions:
REMARK  status: ('A' for Active; 'I' for Inactive)
ROOT
ATOM      1  O1  BZF d   1       0.922  -5.961  -4.430  0.00  0.00    -0.204 OA
ATOM      2  C2  BZF d   1       0.583  -5.944  -5.769  0.00  0.00     0.174 A 
ATOM      3  C3  BZF d   1      -0.756  -5.991  -5.924  0.00  0.00    -0.012 A 
ATOM      4  C3A BZF d   1      -1.291  -5.947  -4.598  0.00  0.00    -0.107 A 
ATOM      5  C4  BZF d   1      -2.561  -5.947  -4.097  0.00  0.00     0.055 A 
ATOM      6  C5  BZF d   1      -2.740  -5.971  -2.750  0.00  0.00    -0.016 A 
ATOM      7  C6  BZF d   1      -1.673  -6.000  -1.876  0.00  0.00     0.022 A 
ATOM      8  C7  BZF d   1      -0.394  -5.996  -2.326  0.00  0.00     0.029 A 
ATOM      9  C7A BZF d   1      -0.210  -5.938  -3.686  0.00  0.00     0.058 A 
ENDROOT
TORSDOF 0
ENDMDL
