MODEL 1
REMARK minimizedAffinity 3.65548515
REMARK minimizedRMSD -1
REMARK  0 active torsions:
REMARK  status: ('A' for Active; 'I' for Inactive)
ROOT
ATOM      1  O1  BZF d   1       1.877  -5.466  -4.690  0.00  0.00    -0.204 OA
ATOM      2  C2  BZF d   1       1.402  -5.552  -5.984  0.00  0.00     0.174 A 
ATOM      3  C3  BZF d   1       0.079  -5.817  -5.991  0.00  0.00    -0.012 A 
ATOM      4  C3A BZF d   1      -0.313  -5.811  -4.616  0.00  0.00    -0.107 A 
ATOM      5  C4  BZF d   1      -1.507  -5.996  -3.979  0.00  0.00     0.055 A 
ATOM      6  C5  BZF d   1      -1.538  -5.999  -2.621  0.00  0.00    -0.016 A 
ATOM      7  C6  BZF d   1      -0.395  -5.827  -1.868  0.00  0.00     0.022 A 
ATOM      8  C7  BZF d   1       0.812  -5.635  -2.454  0.00  0.00     0.029 A 
ATOM      9  C7A BZF d   1       0.841  -5.598  -3.827  0.00  0.00     0.058 A 
ENDROOT
TORSDOF 0
ENDMDL
