MODEL 1
REMARK minimizedAffinity 8.34705925
REMARK minimizedRMSD -1
REMARK  0 active torsions:
REMARK  status: ('A' for Active; 'I' for Inactive)
ROOT
ATOM      1  O1  BZF d   1       1.632  -5.830  -4.042  0.00  0.00    -0.204 OA
ATOM      2  C2  BZF d   1       1.737  -5.848  -5.419  0.00  0.00     0.174 A 
ATOM      3  C3  BZF d   1       0.521  -5.961  -5.990  0.00  0.00    -0.012 A 
ATOM      4  C3A BZF d   1      -0.410  -5.925  -4.904  0.00  0.00    -0.107 A 
ATOM      5  C4  BZF d   1      -1.772  -5.980  -4.833  0.00  0.00     0.055 A 
ATOM      6  C5  BZF d   1      -2.370  -5.994  -3.613  0.00  0.00    -0.016 A 
ATOM      7  C6  BZF d   1      -1.637  -5.961  -2.445  0.00  0.00     0.022 A 
ATOM      8  C7  BZF d   1      -0.283  -5.901  -2.465  0.00  0.00     0.029 A 
ATOM      9  C7A BZF d   1       0.322  -5.852  -3.697  0.00  0.00     0.058 A 
ENDROOT
TORSDOF 0
ENDMDL
