MODEL 1
REMARK minimizedAffinity 3.85268664
REMARK minimizedRMSD -1
REMARK  0 active torsions:
REMARK  status: ('A' for Active; 'I' for Inactive)
ROOT
ATOM      1  O1  BZF d   1      -0.465  -5.906  -5.963  0.00  0.00    -0.204 OA
ATOM      2  C2  BZF d   1       0.915  -5.870  -5.999  0.00  0.00     0.174 A 
ATOM      3  C3  BZF d   1       1.425  -5.829  -4.751  0.00  0.00    -0.012 A 
ATOM      4  C3A BZF d   1       0.295  -5.933  -3.879  0.00  0.00    -0.107 A 
ATOM      5  C4  BZF d   1       0.157  -5.965  -2.521  0.00  0.00     0.055 A 
ATOM      6  C5  BZF d   1      -1.091  -5.999  -1.985  0.00  0.00    -0.016 A 
ATOM      7  C6  BZF d   1      -2.222  -5.996  -2.776  0.00  0.00     0.022 A 
ATOM      8  C7  BZF d   1      -2.135  -5.970  -4.128  0.00  0.00     0.029 A 
ATOM      9  C7A BZF d   1      -0.874  -5.970  -4.673  0.00  0.00     0.058 A 
ENDROOT
TORSDOF 0
ENDMDL
