MODEL 1
REMARK minimizedAffinity 0.553745568
REMARK minimizedRMSD -1
REMARK  0 active torsions:
REMARK  status: ('A' for Active; 'I' for Inactive)
ROOT
ATOM      1  O1  BZF d   1      -3.449  -5.992  -4.131  0.00  0.00    -0.204 OA
ATOM      2  C2  BZF d   1      -3.586  -5.974  -2.757  0.00  0.00     0.174 A 
ATOM      3  C3  BZF d   1      -2.379  -6.000  -2.155  0.00  0.00    -0.012 A 
ATOM      4  C3A BZF d   1      -1.426  -5.943  -3.221  0.00  0.00    -0.107 A 
ATOM      5  C4  BZF d   1      -0.062  -5.921  -3.260  0.00  0.00     0.055 A 
ATOM      6  C5  BZF d   1       0.565  -5.938  -4.465  0.00  0.00    -0.016 A 
ATOM      7  C6  BZF d   1      -0.140  -5.982  -5.650  0.00  0.00     0.022 A 
ATOM      8  C7  BZF d   1      -1.496  -6.000  -5.662  0.00  0.00     0.029 A 
ATOM      9  C7A BZF d   1      -2.132  -5.949  -4.446  0.00  0.00     0.058 A 
ENDROOT
TORSDOF 0
ENDMDL
