MODEL 1
REMARK minimizedAffinity -1.77881277
REMARK minimizedRMSD -1
REMARK  0 active torsions:
REMARK  status: ('A' for Active; 'I' for Inactive)
ROOT
ATOM      1  O1  BZF d   1      -1.563  -5.346  -2.243  0.00  0.00    -0.204 OA
ATOM      2  C2  BZF d   1      -2.901  -5.631  -2.432  0.00  0.00     0.174 A 
ATOM      3  C3  BZF d   1      -3.160  -5.875  -3.733  0.00  0.00    -0.012 A 
ATOM      4  C3A BZF d   1      -1.888  -5.824  -4.386  0.00  0.00    -0.107 A 
ATOM      5  C4  BZF d   1      -1.489  -6.000  -5.680  0.00  0.00     0.055 A 
ATOM      6  C5  BZF d   1      -0.182  -5.809  -6.000  0.00  0.00    -0.016 A 
ATOM      7  C6  BZF d   1       0.751  -5.437  -5.053  0.00  0.00     0.022 A 
ATOM      8  C7  BZF d   1       0.403  -5.256  -3.756  0.00  0.00     0.029 A 
ATOM      9  C7A BZF d   1      -0.910  -5.480  -3.423  0.00  0.00     0.058 A 
ENDROOT
TORSDOF 0
ENDMDL
