MODEL 1
REMARK minimizedAffinity -2.56618214
REMARK minimizedRMSD -1
REMARK  0 active torsions:
REMARK  status: ('A' for Active; 'I' for Inactive)
ROOT
ATOM      1  O1  BZF d   1      -3.538  -5.912  -4.123  0.00  0.00    -0.204 OA
ATOM      2  C2  BZF d   1      -3.519  -5.990  -2.744  0.00  0.00     0.174 A 
ATOM      3  C3  BZF d   1      -2.252  -6.000  -2.282  0.00  0.00    -0.012 A 
ATOM      4  C3A BZF d   1      -1.429  -5.830  -3.440  0.00  0.00    -0.107 A 
ATOM      5  C4  BZF d   1      -0.079  -5.743  -3.628  0.00  0.00     0.055 A 
ATOM      6  C5  BZF d   1       0.408  -5.653  -4.894  0.00  0.00    -0.016 A 
ATOM      7  C6  BZF d   1      -0.425  -5.651  -5.993  0.00  0.00     0.022 A 
ATOM      8  C7  BZF d   1      -1.772  -5.730  -5.857  0.00  0.00     0.029 A 
ATOM      9  C7A BZF d   1      -2.268  -5.788  -4.578  0.00  0.00     0.058 A 
ENDROOT
TORSDOF 0
ENDMDL
