MODEL 1
REMARK minimizedAffinity -1.5863483
REMARK minimizedRMSD -1
REMARK  0 active torsions:
REMARK  status: ('A' for Active; 'I' for Inactive)
ROOT
ATOM      1  O1  BZF d   1       1.875  -5.430  -3.884  0.00  0.00    -0.204 OA
ATOM      2  C2  BZF d   1       2.206  -5.319  -5.221  0.00  0.00     0.174 A 
ATOM      3  C3  BZF d   1       1.120  -5.494  -6.000  0.00  0.00    -0.012 A 
ATOM      4  C3A BZF d   1       0.024  -5.638  -5.091  0.00  0.00    -0.107 A 
ATOM      5  C4  BZF d   1      -1.318  -5.825  -5.260  0.00  0.00     0.055 A 
ATOM      6  C5  BZF d   1      -2.104  -6.000  -4.165  0.00  0.00    -0.016 A 
ATOM      7  C6  BZF d   1      -1.581  -6.000  -2.888  0.00  0.00     0.022 A 
ATOM      8  C7  BZF d   1      -0.256  -5.813  -2.670  0.00  0.00     0.029 A 
ATOM      9  C7A BZF d   1       0.536  -5.603  -3.773  0.00  0.00     0.058 A 
ENDROOT
TORSDOF 0
ENDMDL
