MODEL 1
REMARK minimizedAffinity 7.78825283
REMARK minimizedRMSD -1
REMARK  0 active torsions:
REMARK  status: ('A' for Active; 'I' for Inactive)
ROOT
ATOM      1  O1  BZF d   1      -0.657   0.083   0.340  0.00  0.00    -0.204 OA
ATOM      2  C2  BZF d   1       0.678   0.439   0.363  0.00  0.00     0.174 A 
ATOM      3  C3  BZF d   1       1.447  -0.616   0.700  0.00  0.00    -0.012 A 
ATOM      4  C3A BZF d   1       0.545  -1.721   0.809  0.00  0.00    -0.107 A 
ATOM      5  C4  BZF d   1       0.712  -3.045   1.102  0.00  0.00     0.055 A 
ATOM      6  C5  BZF d   1      -0.384  -3.843   1.200  0.00  0.00    -0.016 A 
ATOM      7  C6  BZF d   1      -1.659  -3.351   1.017  0.00  0.00     0.022 A 
ATOM      8  C7  BZF d   1      -1.875  -2.046   0.719  0.00  0.00     0.029 A 
ATOM      9  C7A BZF d   1      -0.768  -1.244   0.587  0.00  0.00     0.058 A 
ENDROOT
TORSDOF 0
ENDMDL
