MODEL 1
REMARK minimizedAffinity -0.523408175
REMARK minimizedRMSD -1
REMARK  0 active torsions:
REMARK  status: ('A' for Active; 'I' for Inactive)
ROOT
ATOM      1  O1  BZF d   1      -1.970  -5.932  -4.432  0.00  0.00    -0.204 OA
ATOM      2  C2  BZF d   1      -2.087  -5.929  -3.056  0.00  0.00     0.174 A 
ATOM      3  C3  BZF d   1      -0.874  -5.999  -2.472  0.00  0.00    -0.012 A 
ATOM      4  C3A BZF d   1       0.066  -5.956  -3.550  0.00  0.00    -0.107 A 
ATOM      5  C4  BZF d   1       1.430  -5.974  -3.608  0.00  0.00     0.055 A 
ATOM      6  C5  BZF d   1       2.039  -5.992  -4.823  0.00  0.00    -0.016 A 
ATOM      7  C6  BZF d   1       1.317  -5.999  -5.998  0.00  0.00     0.022 A 
ATOM      8  C7  BZF d   1      -0.039  -5.976  -5.991  0.00  0.00     0.029 A 
ATOM      9  C7A BZF d   1      -0.657  -5.924  -4.766  0.00  0.00     0.058 A 
ENDROOT
TORSDOF 0
ENDMDL
