MODEL 1
REMARK minimizedAffinity 7.54605722
REMARK minimizedRMSD -1
REMARK  0 active torsions:
REMARK  status: ('A' for Active; 'I' for Inactive)
ROOT
ATOM      1  O1  BZF d   1      -5.706  -5.983  -0.260  0.00  0.00    -0.204 OA
ATOM      2  C2  BZF d   1      -5.340  -5.998  -1.592  0.00  0.00     0.174 A 
ATOM      3  C3  BZF d   1      -4.330  -5.135  -1.821  0.00  0.00    -0.012 A 
ATOM      4  C3A BZF d   1      -3.985  -4.610  -0.535  0.00  0.00    -0.107 A 
ATOM      5  C4  BZF d   1      -3.044  -3.718  -0.106  0.00  0.00     0.055 A 
ATOM      6  C5  BZF d   1      -3.017  -3.366   1.206  0.00  0.00    -0.016 A 
ATOM      7  C6  BZF d   1      -3.918  -3.882   2.115  0.00  0.00     0.022 A 
ATOM      8  C7  BZF d   1      -4.866  -4.774   1.738  0.00  0.00     0.029 A 
ATOM      9  C7A BZF d   1      -4.875  -5.157   0.419  0.00  0.00     0.058 A 
ENDROOT
TORSDOF 0
ENDMDL
