MODEL 1
REMARK minimizedAffinity 4.02501678
REMARK minimizedRMSD -1
REMARK  0 active torsions:
REMARK  status: ('A' for Active; 'I' for Inactive)
ROOT
ATOM      1  O1  BZF d   1      -2.661  -5.991  -4.150  0.00  0.00    -0.204 OA
ATOM      2  C2  BZF d   1      -2.657  -5.974  -2.769  0.00  0.00     0.174 A 
ATOM      3  C3  BZF d   1      -1.395  -5.999  -2.294  0.00  0.00    -0.012 A 
ATOM      4  C3A BZF d   1      -0.556  -5.941  -3.452  0.00  0.00    -0.107 A 
ATOM      5  C4  BZF d   1       0.798  -5.918  -3.630  0.00  0.00     0.055 A 
ATOM      6  C5  BZF d   1       1.298  -5.934  -4.894  0.00  0.00    -0.016 A 
ATOM      7  C6  BZF d   1       0.474  -5.978  -6.000  0.00  0.00     0.022 A 
ATOM      8  C7  BZF d   1      -0.875  -5.997  -5.873  0.00  0.00     0.029 A 
ATOM      9  C7A BZF d   1      -1.384  -5.947  -4.598  0.00  0.00     0.058 A 
ENDROOT
TORSDOF 0
ENDMDL
