MODEL 1
REMARK minimizedAffinity 0.917236328
REMARK minimizedRMSD -1
REMARK  0 active torsions:
REMARK  status: ('A' for Active; 'I' for Inactive)
ROOT
ATOM      1  O1  BZF d   1       2.004  -5.913  -4.433  0.00  0.00    -0.204 OA
ATOM      2  C2  BZF d   1       2.120  -5.993  -3.059  0.00  0.00     0.174 A 
ATOM      3  C3  BZF d   1       0.904  -5.985  -2.475  0.00  0.00    -0.012 A 
ATOM      4  C3A BZF d   1      -0.033  -5.988  -3.556  0.00  0.00    -0.107 A 
ATOM      5  C4  BZF d   1      -1.397  -5.997  -3.616  0.00  0.00     0.055 A 
ATOM      6  C5  BZF d   1      -2.005  -5.922  -4.829  0.00  0.00    -0.016 A 
ATOM      7  C6  BZF d   1      -1.282  -5.830  -5.999  0.00  0.00     0.022 A 
ATOM      8  C7  BZF d   1       0.074  -5.822  -5.991  0.00  0.00     0.029 A 
ATOM      9  C7A BZF d   1       0.691  -5.931  -4.769  0.00  0.00     0.058 A 
ENDROOT
TORSDOF 0
ENDMDL
