MODEL 1
REMARK minimizedAffinity 14.7454987
REMARK minimizedRMSD -1
REMARK  0 active torsions:
REMARK  status: ('A' for Active; 'I' for Inactive)
ROOT
ATOM      1  C   UNL d   1       1.235   1.886   1.838  0.00  0.00     0.077 C 
ATOM      2  C1  UNL d   1       0.575   2.508   0.644  0.00  0.00    -0.074 A 
ATOM      3  C2  UNL d   1      -0.669   2.054   0.193  0.00  0.00    -0.005 A 
ATOM      4  C3  UNL d   1      -1.275   2.649  -0.914  0.00  0.00     0.006 A 
ATOM      5  C4  UNL d   1      -0.644   3.701  -1.580  0.00  0.00    -0.005 A 
ATOM      6  C5  UNL d   1       0.599   4.168  -1.142  0.00  0.00    -0.074 A 
ATOM      7  C6  UNL d   1       1.286   5.304  -1.840  0.00  0.00     0.077 C 
ATOM      8  C7  UNL d   1       1.198   3.570  -0.025  0.00  0.00    -0.001 A 
ENDROOT
TORSDOF 0
ENDMDL
