MODEL 1
REMARK minimizedAffinity 9.03862953
REMARK minimizedRMSD -1
REMARK  0 active torsions:
REMARK  status: ('A' for Active; 'I' for Inactive)
ROOT
ATOM      1  C   UNL d   1      -2.061   5.630   0.421  0.00  0.00     0.077 C 
ATOM      2  C1  UNL d   1      -1.057   4.567   0.084  0.00  0.00    -0.074 A 
ATOM      3  C2  UNL d   1      -0.328   4.620  -1.108  0.00  0.00    -0.005 A 
ATOM      4  C3  UNL d   1       0.609   3.630  -1.404  0.00  0.00     0.006 A 
ATOM      5  C4  UNL d   1       0.826   2.579  -0.512  0.00  0.00    -0.005 A 
ATOM      6  C5  UNL d   1       0.106   2.510   0.685  0.00  0.00    -0.074 A 
ATOM      7  C6  UNL d   1       0.334   1.392   1.659  0.00  0.00     0.077 C 
ATOM      8  C7  UNL d   1      -0.828   3.512   0.978  0.00  0.00    -0.001 A 
ENDROOT
TORSDOF 0
ENDMDL
