MODEL 1
REMARK minimizedAffinity 6.36405897
REMARK minimizedRMSD -1
REMARK  0 active torsions:
REMARK  status: ('A' for Active; 'I' for Inactive)
ROOT
ATOM      1  C   UNL d   1       1.423   1.038   1.523  0.00  0.00     0.077 C 
ATOM      2  C1  UNL d   1       0.654   1.896   0.562  0.00  0.00    -0.074 A 
ATOM      3  C2  UNL d   1      -0.735   1.779   0.448  0.00  0.00    -0.005 A 
ATOM      4  C3  UNL d   1      -1.438   2.591  -0.443  0.00  0.00     0.006 A 
ATOM      5  C4  UNL d   1      -0.760   3.526  -1.226  0.00  0.00    -0.005 A 
ATOM      6  C5  UNL d   1       0.628   3.658  -1.124  0.00  0.00    -0.074 A 
ATOM      7  C6  UNL d   1       1.371   4.664  -1.952  0.00  0.00     0.077 C 
ATOM      8  C7  UNL d   1       1.327   2.844  -0.222  0.00  0.00    -0.001 A 
ENDROOT
TORSDOF 0
ENDMDL
