MODEL 1
REMARK minimizedAffinity 11.7112265
REMARK minimizedRMSD -1
REMARK  0 active torsions:
REMARK  status: ('A' for Active; 'I' for Inactive)
ROOT
ATOM      1  C   UNL d   1      -2.161   1.375   2.845  0.00  0.00     0.077 C 
ATOM      2  C1  UNL d   1      -0.818   1.804   2.336  0.00  0.00    -0.074 A 
ATOM      3  C2  UNL d   1       0.319   1.720   3.147  0.00  0.00    -0.005 A 
ATOM      4  C3  UNL d   1       1.564   2.114   2.656  0.00  0.00     0.006 A 
ATOM      5  C4  UNL d   1       1.685   2.596   1.352  0.00  0.00    -0.005 A 
ATOM      6  C5  UNL d   1       0.560   2.687   0.527  0.00  0.00    -0.074 A 
ATOM      7  C6  UNL d   1       0.674   3.193  -0.880  0.00  0.00     0.077 C 
ATOM      8  C7  UNL d   1      -0.687   2.282   1.024  0.00  0.00    -0.001 A 
ENDROOT
TORSDOF 0
ENDMDL
