MODEL 1
REMARK minimizedAffinity 11.5273771
REMARK minimizedRMSD -1
REMARK  0 active torsions:
REMARK  status: ('A' for Active; 'I' for Inactive)
ROOT
ATOM      1  C   UNL d   1       5.846  -5.872  -4.081  0.00  0.00     0.077 C 
ATOM      2  C1  UNL d   1       5.905  -5.104  -2.795  0.00  0.00    -0.074 A 
ATOM      3  C2  UNL d   1       5.923  -3.705  -2.792  0.00  0.00    -0.005 A 
ATOM      4  C3  UNL d   1       5.968  -3.005  -1.587  0.00  0.00     0.006 A 
ATOM      5  C4  UNL d   1       5.997  -3.694  -0.374  0.00  0.00    -0.005 A 
ATOM      6  C5  UNL d   1       5.979  -5.092  -0.357  0.00  0.00    -0.074 A 
ATOM      7  C6  UNL d   1       5.999  -5.848   0.938  0.00  0.00     0.077 C 
ATOM      8  C7  UNL d   1       5.926  -5.789  -1.572  0.00  0.00    -0.001 A 
ENDROOT
TORSDOF 0
ENDMDL
