MODEL 1
REMARK minimizedAffinity 16.0076962
REMARK minimizedRMSD -1
REMARK  0 active torsions:
REMARK  status: ('A' for Active; 'I' for Inactive)
ROOT
ATOM      1  C   UNL d   1       6.000  -6.000  -0.123  0.00  0.00     0.077 C 
ATOM      2  C1  UNL d   1       5.313  -5.743  -1.431  0.00  0.00    -0.074 A 
ATOM      3  C2  UNL d   1       5.999  -5.878  -2.642  0.00  0.00    -0.005 A 
ATOM      4  C3  UNL d   1       5.345  -5.646  -3.851  0.00  0.00     0.006 A 
ATOM      5  C4  UNL d   1       3.999  -5.276  -3.862  0.00  0.00    -0.005 A 
ATOM      6  C5  UNL d   1       3.296  -5.137  -2.661  0.00  0.00    -0.074 A 
ATOM      7  C6  UNL d   1       1.847  -4.751  -2.656  0.00  0.00     0.077 C 
ATOM      8  C7  UNL d   1       3.959  -5.380  -1.450  0.00  0.00    -0.001 A 
ENDROOT
TORSDOF 0
ENDMDL
