MODEL 1
REMARK minimizedAffinity 6.95033836
REMARK minimizedRMSD -1
REMARK  0 active torsions:
REMARK  status: ('A' for Active; 'I' for Inactive)
ROOT
ATOM      1  C   UNL d   1       5.609  -2.253   0.373  0.00  0.00     0.077 C 
ATOM      2  C1  UNL d   1       4.172  -2.103  -0.031  0.00  0.00    -0.074 A 
ATOM      3  C2  UNL d   1       3.612  -0.839  -0.240  0.00  0.00    -0.005 A 
ATOM      4  C3  UNL d   1       2.277  -0.716  -0.625  0.00  0.00     0.006 A 
ATOM      5  C4  UNL d   1       1.490  -1.854  -0.804  0.00  0.00    -0.005 A 
ATOM      6  C5  UNL d   1       2.033  -3.127  -0.601  0.00  0.00    -0.074 A 
ATOM      7  C6  UNL d   1       1.203  -4.361  -0.799  0.00  0.00     0.077 C 
ATOM      8  C7  UNL d   1       3.377  -3.242  -0.221  0.00  0.00    -0.001 A 
ENDROOT
TORSDOF 0
ENDMDL
