MODEL 1
REMARK minimizedAffinity 7.32486153
REMARK minimizedRMSD -1
REMARK  0 active torsions:
REMARK  status: ('A' for Active; 'I' for Inactive)
ROOT
ATOM      1  C   UNL d   1       0.807   1.639   0.783  0.00  0.00     0.077 C 
ATOM      2  C1  UNL d   1      -0.541   2.293   0.723  0.00  0.00    -0.074 A 
ATOM      3  C2  UNL d   1      -1.126   2.840   1.869  0.00  0.00    -0.005 A 
ATOM      4  C3  UNL d   1      -2.377   3.454   1.796  0.00  0.00     0.006 A 
ATOM      5  C4  UNL d   1      -3.053   3.527   0.578  0.00  0.00    -0.005 A 
ATOM      6  C5  UNL d   1      -2.483   2.987  -0.579  0.00  0.00    -0.074 A 
ATOM      7  C6  UNL d   1      -3.193   3.066  -1.898  0.00  0.00     0.077 C 
ATOM      8  C7  UNL d   1      -1.224   2.378  -0.499  0.00  0.00    -0.001 A 
ENDROOT
TORSDOF 0
ENDMDL
