MODEL 1
REMARK minimizedAffinity 8.16114807
REMARK minimizedRMSD -1
REMARK  3 active torsions:
REMARK  status: ('A' for Active; 'I' for Inactive)
REMARK    1  A    between atoms: C3'_2  and  C2'_3 
REMARK    2  A    between atoms: C2'_3  and  C1'_4 
REMARK    3  A    between atoms: C1'_4  and  C1_5 
ROOT
ATOM      1  C1  N4B d   1       0.186  -3.567   4.876  0.00  0.00    -0.075 A 
ATOM      2  C2  N4B d   1       0.810  -4.790   4.543  0.00  0.00     0.002 A 
ATOM      3  C3  N4B d   1       0.253  -5.977   4.950  0.00  0.00     0.002 A 
ATOM      4  C4  N4B d   1      -0.911  -5.966   5.704  0.00  0.00    -0.004 A 
ATOM      5  C5  N4B d   1      -1.520  -4.782   6.000  0.00  0.00     0.002 A 
ATOM      6  C6  N4B d   1      -0.974  -3.581   5.594  0.00  0.00     0.002 A 
ENDROOT
BRANCH   1   7
ATOM      7  C1' N4B d   1       0.803  -2.240   4.527  0.00  0.00     0.057 C 
BRANCH   7   8
ATOM      8  C2' N4B d   1       1.402  -2.320   3.126  0.00  0.00     0.009 C 
BRANCH   8   9
ATOM      9  C3' N4B d   1       1.912  -0.971   2.648  0.00  0.00     0.004 C 
ATOM     10  C4' N4B d   1       1.783  -0.793   1.165  0.00  0.00     0.003 C 
ENDBRANCH   8   9
ENDBRANCH   7   8
ENDBRANCH   1   7
TORSDOF 3
ENDMDL
