MODEL 1
REMARK minimizedAffinity 5.62036467
REMARK minimizedRMSD -1
REMARK  3 active torsions:
REMARK  status: ('A' for Active; 'I' for Inactive)
REMARK    1  A    between atoms: C3'_2  and  C2'_3 
REMARK    2  A    between atoms: C2'_3  and  C1'_4 
REMARK    3  A    between atoms: C1'_4  and  C1_5 
ROOT
ATOM      1  C1  N4B d   1      -0.218  -1.780  -1.189  0.00  0.00    -0.075 A 
ATOM      2  C2  N4B d   1       0.874  -1.672  -0.301  0.00  0.00     0.002 A 
ATOM      3  C3  N4B d   1       1.187  -0.458   0.259  0.00  0.00     0.002 A 
ATOM      4  C4  N4B d   1       0.437   0.662  -0.068  0.00  0.00    -0.004 A 
ATOM      5  C5  N4B d   1      -0.633   0.544  -0.907  0.00  0.00     0.002 A 
ATOM      6  C6  N4B d   1      -0.961  -0.671  -1.474  0.00  0.00     0.002 A 
ENDROOT
BRANCH   1   7
ATOM      7  C1' N4B d   1      -0.546  -3.068  -1.893  0.00  0.00     0.057 C 
BRANCH   7   8
ATOM      8  C2' N4B d   1      -1.143  -2.754  -3.261  0.00  0.00     0.009 C 
BRANCH   8   9
ATOM      9  C3' N4B d   1      -1.938  -3.923  -3.817  0.00  0.00     0.004 C 
ATOM     10  C4' N4B d   1      -1.905  -3.988  -5.315  0.00  0.00     0.003 C 
ENDBRANCH   8   9
ENDBRANCH   7   8
ENDBRANCH   1   7
TORSDOF 3
ENDMDL
