MODEL 1
REMARK minimizedAffinity 8.54070759
REMARK minimizedRMSD -1
REMARK  3 active torsions:
REMARK  status: ('A' for Active; 'I' for Inactive)
REMARK    1  A    between atoms: C3'_2  and  C2'_3 
REMARK    2  A    between atoms: C2'_3  and  C1'_4 
REMARK    3  A    between atoms: C1'_4  and  C1_5 
ROOT
ATOM      1  C1  N4B d   1       0.742  -0.537   0.118  0.00  0.00    -0.075 A 
ATOM      2  C2  N4B d   1       1.685  -1.360  -0.537  0.00  0.00     0.002 A 
ATOM      3  C3  N4B d   1       1.278  -2.215  -1.531  0.00  0.00     0.002 A 
ATOM      4  C4  N4B d   1      -0.064  -2.278  -1.874  0.00  0.00    -0.004 A 
ATOM      5  C5  N4B d   1      -0.965  -1.462  -1.254  0.00  0.00     0.002 A 
ATOM      6  C6  N4B d   1      -0.569  -0.595  -0.256  0.00  0.00     0.002 A 
ENDROOT
BRANCH   1   7
ATOM      7  C1' N4B d   1       1.126   0.351   1.270  0.00  0.00     0.057 C 
BRANCH   7   8
ATOM      8  C2' N4B d   1      -0.040   1.278   1.598  0.00  0.00     0.009 C 
BRANCH   8   9
ATOM      9  C3' N4B d   1      -0.108   1.604   3.080  0.00  0.00     0.004 C 
ATOM     10  C4' N4B d   1      -1.400   2.256   3.473  0.00  0.00     0.003 C 
ENDBRANCH   8   9
ENDBRANCH   7   8
ENDBRANCH   1   7
TORSDOF 3
ENDMDL
