MODEL 1
REMARK minimizedAffinity -3.98409438
REMARK minimizedRMSD -1
REMARK  3 active torsions:
REMARK  status: ('A' for Active; 'I' for Inactive)
REMARK    1  A    between atoms: C3'_2  and  C2'_3 
REMARK    2  A    between atoms: C2'_3  and  C1'_4 
REMARK    3  A    between atoms: C1'_4  and  C1_5 
ROOT
ATOM      1  C1  N4B d   1       0.204  -0.404  -0.483  0.00  0.00    -0.075 A 
ATOM      2  C2  N4B d   1       1.306  -0.082   0.339  0.00  0.00     0.002 A 
ATOM      3  C3  N4B d   1       1.107   0.577   1.527  0.00  0.00     0.002 A 
ATOM      4  C4  N4B d   1      -0.178   0.940   1.903  0.00  0.00    -0.004 A 
ATOM      5  C5  N4B d   1      -1.240   0.603   1.116  0.00  0.00     0.002 A 
ATOM      6  C6  N4B d   1      -1.055  -0.063  -0.079  0.00  0.00     0.002 A 
ENDROOT
BRANCH   1   7
ATOM      7  C1' N4B d   1       0.380  -1.047  -1.831  0.00  0.00     0.057 C 
BRANCH   7   8
ATOM      8  C2' N4B d   1       0.850   0.005  -2.831  0.00  0.00     0.009 C 
BRANCH   8   9
ATOM      9  C3' N4B d   1       0.409  -0.320  -4.248  0.00  0.00     0.004 C 
ATOM     10  C4' N4B d   1       0.684   0.795  -5.212  0.00  0.00     0.003 C 
ENDBRANCH   8   9
ENDBRANCH   7   8
ENDBRANCH   1   7
TORSDOF 3
ENDMDL
