MODEL 1
REMARK minimizedAffinity -5.30087996
REMARK minimizedRMSD -1
REMARK  3 active torsions:
REMARK  status: ('A' for Active; 'I' for Inactive)
REMARK    1  A    between atoms: C3'_2  and  C2'_3 
REMARK    2  A    between atoms: C2'_3  and  C1'_4 
REMARK    3  A    between atoms: C1'_4  and  C1_5 
ROOT
ATOM      1  C1  N4B d   1      -0.225  -0.232  -0.189  0.00  0.00    -0.075 A 
ATOM      2  C2  N4B d   1      -1.632  -0.229  -0.062  0.00  0.00     0.002 A 
ATOM      3  C3  N4B d   1      -2.233   0.562   0.887  0.00  0.00     0.002 A 
ATOM      4  C4  N4B d   1      -1.451   1.340   1.727  0.00  0.00    -0.004 A 
ATOM      5  C5  N4B d   1      -0.095   1.350   1.580  0.00  0.00     0.002 A 
ATOM      6  C6  N4B d   1       0.523   0.564   0.629  0.00  0.00     0.002 A 
ENDROOT
BRANCH   1   7
ATOM      7  C1' N4B d   1       0.482  -1.145  -1.153  0.00  0.00     0.057 C 
BRANCH   7   8
ATOM      8  C2' N4B d   1       1.453  -0.325  -1.998  0.00  0.00     0.009 C 
BRANCH   8   9
ATOM      9  C3' N4B d   1       1.071  -0.332  -3.469  0.00  0.00     0.004 C 
ATOM     10  C4' N4B d   1       0.714   1.031  -3.983  0.00  0.00     0.003 C 
ENDBRANCH   8   9
ENDBRANCH   7   8
ENDBRANCH   1   7
TORSDOF 3
ENDMDL
