MODEL 1
REMARK minimizedAffinity -2.98127413
REMARK minimizedRMSD -1
REMARK  3 active torsions:
REMARK  status: ('A' for Active; 'I' for Inactive)
REMARK    1  A    between atoms: C3'_2  and  C2'_3 
REMARK    2  A    between atoms: C2'_3  and  C1'_4 
REMARK    3  A    between atoms: C1'_4  and  C1_5 
ROOT
ATOM      1  C1  N4B d   1       0.381  -0.247  -1.414  0.00  0.00    -0.075 A 
ATOM      2  C2  N4B d   1      -1.028  -0.257  -1.326  0.00  0.00     0.002 A 
ATOM      3  C3  N4B d   1      -1.641  -0.084  -0.110  0.00  0.00     0.002 A 
ATOM      4  C4  N4B d   1      -0.869   0.081   1.030  0.00  0.00    -0.004 A 
ATOM      5  C5  N4B d   1       0.491   0.115   0.933  0.00  0.00     0.002 A 
ATOM      6  C6  N4B d   1       1.121  -0.053  -0.284  0.00  0.00     0.002 A 
ENDROOT
BRANCH   1   7
ATOM      7  C1' N4B d   1       1.098  -0.517  -2.709  0.00  0.00     0.057 C 
BRANCH   7   8
ATOM      8  C2' N4B d   1       2.086   0.613  -2.980  0.00  0.00     0.009 C 
BRANCH   8   9
ATOM      9  C3' N4B d   1       1.683   1.445  -4.185  0.00  0.00     0.004 C 
ATOM     10  C4' N4B d   1       0.428   0.948  -4.840  0.00  0.00     0.003 C 
ENDBRANCH   8   9
ENDBRANCH   7   8
ENDBRANCH   1   7
TORSDOF 3
ENDMDL
