MODEL 1
REMARK minimizedAffinity -3.12071609
REMARK minimizedRMSD -1
REMARK  3 active torsions:
REMARK  status: ('A' for Active; 'I' for Inactive)
REMARK    1  A    between atoms: C3'_2  and  C2'_3 
REMARK    2  A    between atoms: C2'_3  and  C1'_4 
REMARK    3  A    between atoms: C1'_4  and  C1_5 
ROOT
ATOM      1  C1  N4B d   1       0.319  -0.241  -0.722  0.00  0.00    -0.075 A 
ATOM      2  C2  N4B d   1       1.187   0.170   0.313  0.00  0.00     0.002 A 
ATOM      3  C3  N4B d   1       0.678   0.778   1.434  0.00  0.00     0.002 A 
ATOM      4  C4  N4B d   1      -0.687   1.001   1.534  0.00  0.00    -0.004 A 
ATOM      5  C5  N4B d   1      -1.521   0.577   0.542  0.00  0.00     0.002 A 
ATOM      6  C6  N4B d   1      -1.024  -0.038  -0.590  0.00  0.00     0.002 A 
ENDROOT
BRANCH   1   7
ATOM      7  C1' N4B d   1       0.836  -0.832  -2.005  0.00  0.00     0.057 C 
BRANCH   7   8
ATOM      8  C2' N4B d   1       2.149  -0.149  -2.377  0.00  0.00     0.009 C 
BRANCH   8   9
ATOM      9  C3' N4B d   1       2.119   0.410  -3.789  0.00  0.00     0.004 C 
ATOM     10  C4' N4B d   1       0.730   0.730  -4.258  0.00  0.00     0.003 C 
ENDBRANCH   8   9
ENDBRANCH   7   8
ENDBRANCH   1   7
TORSDOF 3
ENDMDL
