MODEL 1
REMARK minimizedAffinity -1.13687801
REMARK minimizedRMSD -1
REMARK  0 active torsions:
REMARK  status: ('A' for Active; 'I' for Inactive)
ROOT
ATOM      1  C   UNL d   1       1.582  -0.520   0.225  0.00  0.00     0.077 C 
ATOM      2  C1  UNL d   1       0.652   0.068  -0.794  0.00  0.00    -0.074 A 
ATOM      3  C2  UNL d   1      -0.252  -0.738  -1.492  0.00  0.00    -0.005 A 
ATOM      4  C3  UNL d   1      -1.118  -0.175  -2.430  0.00  0.00     0.006 A 
ATOM      5  C4  UNL d   1      -1.087   1.198  -2.679  0.00  0.00    -0.005 A 
ATOM      6  C5  UNL d   1      -0.190   2.020  -1.990  0.00  0.00    -0.074 A 
ATOM      7  C6  UNL d   1      -0.151   3.498  -2.239  0.00  0.00     0.077 C 
ATOM      8  C7  UNL d   1       0.672   1.447  -1.044  0.00  0.00    -0.001 A 
ENDROOT
TORSDOF 0
ENDMDL
