MODEL 1
REMARK minimizedAffinity -4.59579802
REMARK minimizedRMSD -1
REMARK  0 active torsions:
REMARK  status: ('A' for Active; 'I' for Inactive)
ROOT
ATOM      1  C   UNL d   1       1.895  -1.364  -1.821  0.00  0.00     0.077 C 
ATOM      2  C1  UNL d   1       1.080  -0.929  -0.640  0.00  0.00    -0.074 A 
ATOM      3  C2  UNL d   1      -0.240  -0.495  -0.799  0.00  0.00    -0.005 A 
ATOM      4  C3  UNL d   1      -0.990  -0.102   0.309  0.00  0.00     0.006 A 
ATOM      5  C4  UNL d   1      -0.428  -0.138   1.586  0.00  0.00    -0.005 A 
ATOM      6  C5  UNL d   1       0.890  -0.570   1.765  0.00  0.00    -0.074 A 
ATOM      7  C6  UNL d   1       1.506  -0.625   3.131  0.00  0.00     0.077 C 
ATOM      8  C7  UNL d   1       1.635  -0.970   0.646  0.00  0.00    -0.001 A 
ENDROOT
TORSDOF 0
ENDMDL
