MODEL 1
REMARK minimizedAffinity -4.22677994
REMARK minimizedRMSD -1
REMARK  0 active torsions:
REMARK  status: ('A' for Active; 'I' for Inactive)
ROOT
ATOM      1  C   UNL d   1      -1.433   0.566  -1.891  0.00  0.00     0.077 C 
ATOM      2  C1  UNL d   1      -0.219   0.017  -1.203  0.00  0.00    -0.074 A 
ATOM      3  C2  UNL d   1       0.772  -0.659  -1.922  0.00  0.00    -0.005 A 
ATOM      4  C3  UNL d   1       1.900  -1.156  -1.270  0.00  0.00     0.006 A 
ATOM      5  C4  UNL d   1       2.049  -0.981   0.107  0.00  0.00    -0.005 A 
ATOM      6  C5  UNL d   1       1.070  -0.306   0.843  0.00  0.00    -0.074 A 
ATOM      7  C6  UNL d   1       1.220  -0.101   2.321  0.00  0.00     0.077 C 
ATOM      8  C7  UNL d   1      -0.057   0.196   0.178  0.00  0.00    -0.001 A 
ENDROOT
TORSDOF 0
ENDMDL
