MODEL 1
REMARK minimizedAffinity -2.62995481
REMARK minimizedRMSD -1
REMARK  0 active torsions:
REMARK  status: ('A' for Active; 'I' for Inactive)
ROOT
ATOM      1  C   UNL d   1       0.755  -0.232   2.151  0.00  0.00     0.077 C 
ATOM      2  C1  UNL d   1       0.582  -0.272   0.662  0.00  0.00    -0.074 A 
ATOM      3  C2  UNL d   1       1.314  -1.168  -0.124  0.00  0.00    -0.005 A 
ATOM      4  C3  UNL d   1       1.135  -1.200  -1.507  0.00  0.00     0.006 A 
ATOM      5  C4  UNL d   1       0.224  -0.338  -2.117  0.00  0.00    -0.005 A 
ATOM      6  C5  UNL d   1      -0.518   0.565  -1.348  0.00  0.00    -0.074 A 
ATOM      7  C6  UNL d   1      -1.509   1.491  -1.987  0.00  0.00     0.077 C 
ATOM      8  C7  UNL d   1      -0.338   0.586   0.042  0.00  0.00    -0.001 A 
ENDROOT
TORSDOF 0
ENDMDL
