MODEL 1
REMARK minimizedAffinity -4.43793726
REMARK minimizedRMSD -1
REMARK  0 active torsions:
REMARK  status: ('A' for Active; 'I' for Inactive)
ROOT
ATOM      1  C   UNL d   1       2.247  -0.817   2.859  0.00  0.00     0.077 C 
ATOM      2  C1  UNL d   1       0.993  -0.570   2.074  0.00  0.00    -0.074 A 
ATOM      3  C2  UNL d   1      -0.266  -0.761   2.652  0.00  0.00    -0.005 A 
ATOM      4  C3  UNL d   1      -1.424  -0.518   1.912  0.00  0.00     0.006 A 
ATOM      5  C4  UNL d   1      -1.334  -0.082   0.590  0.00  0.00    -0.005 A 
ATOM      6  C5  UNL d   1      -0.084   0.116  -0.005  0.00  0.00    -0.074 A 
ATOM      7  C6  UNL d   1       0.030   0.593  -1.422  0.00  0.00     0.077 C 
ATOM      8  C7  UNL d   1       1.075  -0.124   0.747  0.00  0.00    -0.001 A 
ENDROOT
TORSDOF 0
ENDMDL
