MODEL 1
REMARK minimizedAffinity -0.659905612
REMARK minimizedRMSD -1
REMARK  0 active torsions:
REMARK  status: ('A' for Active; 'I' for Inactive)
ROOT
ATOM      1  C   UNL d   1       0.406  -1.127   2.869  0.00  0.00     0.077 C 
ATOM      2  C1  UNL d   1       0.260  -0.740   1.427  0.00  0.00    -0.074 A 
ATOM      3  C2  UNL d   1      -0.759   0.126   1.015  0.00  0.00    -0.005 A 
ATOM      4  C3  UNL d   1      -0.876   0.485  -0.327  0.00  0.00     0.006 A 
ATOM      5  C4  UNL d   1       0.022  -0.018  -1.270  0.00  0.00    -0.005 A 
ATOM      6  C5  UNL d   1       1.047  -0.883  -0.876  0.00  0.00    -0.074 A 
ATOM      7  C6  UNL d   1       2.027  -1.424  -1.875  0.00  0.00     0.077 C 
ATOM      8  C7  UNL d   1       1.163  -1.234   0.476  0.00  0.00    -0.001 A 
ENDROOT
TORSDOF 0
ENDMDL
