MODEL 1
REMARK minimizedAffinity -2.01837707
REMARK minimizedRMSD -1
REMARK  0 active torsions:
REMARK  status: ('A' for Active; 'I' for Inactive)
ROOT
ATOM      1  C   UNL d   1       1.391  -0.499   2.697  0.00  0.00     0.077 C 
ATOM      2  C1  UNL d   1       0.492  -0.253   1.522  0.00  0.00    -0.074 A 
ATOM      3  C2  UNL d   1      -0.793  -0.803   1.473  0.00  0.00    -0.005 A 
ATOM      4  C3  UNL d   1      -1.622  -0.558   0.378  0.00  0.00     0.006 A 
ATOM      5  C4  UNL d   1      -1.175   0.239  -0.677  0.00  0.00    -0.005 A 
ATOM      6  C5  UNL d   1       0.106   0.798  -0.645  0.00  0.00    -0.074 A 
ATOM      7  C6  UNL d   1       0.599   1.664  -1.766  0.00  0.00     0.077 C 
ATOM      8  C7  UNL d   1       0.931   0.552   0.462  0.00  0.00    -0.001 A 
ENDROOT
TORSDOF 0
ENDMDL
