MODEL 1
REMARK minimizedAffinity -4.97492647
REMARK minimizedRMSD -1
REMARK  0 active torsions:
REMARK  status: ('A' for Active; 'I' for Inactive)
ROOT
ATOM      1  C   UNL d   1       0.774  -0.718   3.117  0.00  0.00     0.077 C 
ATOM      2  C1  UNL d   1       0.906  -0.606   1.627  0.00  0.00    -0.074 A 
ATOM      3  C2  UNL d   1       1.942  -1.254   0.947  0.00  0.00    -0.005 A 
ATOM      4  C3  UNL d   1       2.046  -1.149  -0.440  0.00  0.00     0.006 A 
ATOM      5  C4  UNL d   1       1.117  -0.396  -1.160  0.00  0.00    -0.005 A 
ATOM      6  C5  UNL d   1       0.074   0.258  -0.496  0.00  0.00    -0.074 A 
ATOM      7  C6  UNL d   1      -0.938   1.063  -1.255  0.00  0.00     0.077 C 
ATOM      8  C7  UNL d   1      -0.028   0.142   0.897  0.00  0.00    -0.001 A 
ENDROOT
TORSDOF 0
ENDMDL
