MODEL 1
REMARK minimizedAffinity -5.48673058
REMARK minimizedRMSD -1
REMARK  0 active torsions:
REMARK  status: ('A' for Active; 'I' for Inactive)
ROOT
ATOM      1  C   UNL d   1       1.819  -0.708   2.642  0.00  0.00     0.077 C 
ATOM      2  C1  UNL d   1       0.639  -0.378   1.778  0.00  0.00    -0.074 A 
ATOM      3  C2  UNL d   1      -0.626  -0.905   2.058  0.00  0.00    -0.005 A 
ATOM      4  C3  UNL d   1      -1.717  -0.582   1.250  0.00  0.00     0.006 A 
ATOM      5  C4  UNL d   1      -1.554   0.269   0.156  0.00  0.00    -0.005 A 
ATOM      6  C5  UNL d   1      -0.297   0.806  -0.139  0.00  0.00    -0.074 A 
ATOM      7  C6  UNL d   1      -0.106   1.730  -1.305  0.00  0.00     0.077 C 
ATOM      8  C7  UNL d   1       0.793   0.482   0.682  0.00  0.00    -0.001 A 
ENDROOT
TORSDOF 0
ENDMDL
