MODEL 1
REMARK minimizedAffinity -3.97709775
REMARK minimizedRMSD -1
REMARK  0 active torsions:
REMARK  status: ('A' for Active; 'I' for Inactive)
ROOT
ATOM      1  C   UNL d   1       1.842  -1.581  -1.687  0.00  0.00     0.077 C 
ATOM      2  C1  UNL d   1       0.911  -1.089  -0.619  0.00  0.00    -0.074 A 
ATOM      3  C2  UNL d   1      -0.406  -0.729  -0.923  0.00  0.00    -0.005 A 
ATOM      4  C3  UNL d   1      -1.263  -0.283   0.083  0.00  0.00     0.006 A 
ATOM      5  C4  UNL d   1      -0.813  -0.192   1.400  0.00  0.00    -0.005 A 
ATOM      6  C5  UNL d   1       0.500  -0.549   1.723  0.00  0.00    -0.074 A 
ATOM      7  C6  UNL d   1       0.997  -0.466   3.136  0.00  0.00     0.077 C 
ATOM      8  C7  UNL d   1       1.353  -1.003   0.708  0.00  0.00    -0.001 A 
ENDROOT
TORSDOF 0
ENDMDL
