MODEL 1
REMARK minimizedAffinity -0.859352827
REMARK minimizedRMSD -1
REMARK  0 active torsions:
REMARK  status: ('A' for Active; 'I' for Inactive)
ROOT
ATOM      1  C   UNL d   1      -2.365   2.316  -3.134  0.00  0.00     0.020 A 
ATOM      2  C1  UNL d   1      -2.809   1.372  -2.209  0.00  0.00     0.020 A 
ATOM      3  C2  UNL d   1      -2.192   1.273  -0.961  0.00  0.00     0.034 A 
ATOM      4  C3  UNL d   1      -1.127   2.120  -0.633  0.00  0.00     0.017 A 
ATOM      5  C4  UNL d   1      -0.681   3.068  -1.562  0.00  0.00     0.017 A 
ATOM      6  C5  UNL d   1      -1.303   3.162  -2.811  0.00  0.00     0.034 A 
ATOM      7 Cl   UNL d   1       0.627   4.148  -1.230  0.00  0.00    -0.070 Cl
ATOM      8 Cl1  UNL d   1      -0.410   1.944   0.929  0.00  0.00    -0.070 Cl
ENDROOT
TORSDOF 0
ENDMDL
