MODEL 1
REMARK minimizedAffinity 3.42583609
REMARK minimizedRMSD -1
REMARK  0 active torsions:
REMARK  status: ('A' for Active; 'I' for Inactive)
ROOT
ATOM      1  C   UNL d   1       0.417   3.638  -0.356  0.00  0.00     0.020 A 
ATOM      2  C1  UNL d   1      -0.077   2.752   0.600  0.00  0.00     0.020 A 
ATOM      3  C2  UNL d   1      -1.024   1.791   0.238  0.00  0.00     0.034 A 
ATOM      4  C3  UNL d   1      -1.479   1.714  -1.083  0.00  0.00     0.017 A 
ATOM      5  C4  UNL d   1      -0.981   2.604  -2.042  0.00  0.00     0.017 A 
ATOM      6  C5  UNL d   1      -0.034   3.564  -1.675  0.00  0.00     0.034 A 
ATOM      7 Cl   UNL d   1      -1.494   2.570  -3.693  0.00  0.00    -0.070 Cl
ATOM      8 Cl1  UNL d   1      -2.649   0.500  -1.460  0.00  0.00    -0.070 Cl
ENDROOT
TORSDOF 0
ENDMDL
