MODEL 1
REMARK minimizedAffinity 7.90129375
REMARK minimizedRMSD -1
REMARK  0 active torsions:
REMARK  status: ('A' for Active; 'I' for Inactive)
ROOT
ATOM      1  C   UNL d   1      -0.691   2.012   2.387  0.00  0.00     0.020 A 
ATOM      2  C1  UNL d   1      -0.286   1.147   1.371  0.00  0.00     0.020 A 
ATOM      3  C2  UNL d   1      -0.116   1.628   0.071  0.00  0.00     0.034 A 
ATOM      4  C3  UNL d   1      -0.350   2.978  -0.216  0.00  0.00     0.017 A 
ATOM      5  C4  UNL d   1      -0.756   3.845   0.804  0.00  0.00     0.017 A 
ATOM      6  C5  UNL d   1      -0.926   3.358   2.104  0.00  0.00     0.034 A 
ATOM      7 Cl   UNL d   1      -1.065   5.523   0.527  0.00  0.00    -0.070 Cl
ATOM      8 Cl1  UNL d   1      -0.119   3.505  -1.846  0.00  0.00    -0.070 Cl
ENDROOT
TORSDOF 0
ENDMDL
