MODEL 1
REMARK minimizedAffinity 21.6957569
REMARK minimizedRMSD -1
REMARK  0 active torsions:
REMARK  status: ('A' for Active; 'I' for Inactive)
ROOT
ATOM      1  C   UNL d   1      -4.441   5.857   1.773  0.00  0.00     0.020 A 
ATOM      2  C1  UNL d   1      -5.589   6.000   0.995  0.00  0.00     0.020 A 
ATOM      3  C2  UNL d   1      -5.540   5.738  -0.376  0.00  0.00     0.034 A 
ATOM      4  C3  UNL d   1      -4.340   5.333  -0.973  0.00  0.00     0.017 A 
ATOM      5  C4  UNL d   1      -3.188   5.190  -0.190  0.00  0.00     0.017 A 
ATOM      6  C5  UNL d   1      -3.243   5.453   1.182  0.00  0.00     0.034 A 
ATOM      7 Cl   UNL d   1      -1.672   4.694  -0.855  0.00  0.00    -0.070 Cl
ATOM      8 Cl1  UNL d   1      -4.352   5.026  -2.673  0.00  0.00    -0.070 Cl
ENDROOT
TORSDOF 0
ENDMDL
