MODEL 1
REMARK minimizedAffinity 12.4839258
REMARK minimizedRMSD -1
REMARK  0 active torsions:
REMARK  status: ('A' for Active; 'I' for Inactive)
ROOT
ATOM      1  C   UNL d   1       0.320   2.238   1.370  0.00  0.00     0.020 A 
ATOM      2  C1  UNL d   1      -0.814   1.727   0.740  0.00  0.00     0.020 A 
ATOM      3  C2  UNL d   1      -1.140   2.141  -0.554  0.00  0.00     0.034 A 
ATOM      4  C3  UNL d   1      -0.332   3.069  -1.221  0.00  0.00     0.017 A 
ATOM      5  C4  UNL d   1       0.807   3.580  -0.588  0.00  0.00     0.017 A 
ATOM      6  C5  UNL d   1       1.129   3.162   0.707  0.00  0.00     0.034 A 
ATOM      7 Cl   UNL d   1       1.853   4.728  -1.347  0.00  0.00    -0.070 Cl
ATOM      8 Cl1  UNL d   1      -0.795   3.536  -2.819  0.00  0.00    -0.070 Cl
ENDROOT
TORSDOF 0
ENDMDL
