MODEL 1
REMARK minimizedAffinity 9.98173428
REMARK minimizedRMSD -1
REMARK  0 active torsions:
REMARK  status: ('A' for Active; 'I' for Inactive)
ROOT
ATOM      1  C   UNL d   1      -5.810   5.988   0.537  0.00  0.00     0.020 A 
ATOM      2  C1  UNL d   1      -4.972   6.000   1.651  0.00  0.00     0.020 A 
ATOM      3  C2  UNL d   1      -3.586   5.957   1.482  0.00  0.00     0.034 A 
ATOM      4  C3  UNL d   1      -3.035   5.902   0.197  0.00  0.00     0.017 A 
ATOM      5  C4  UNL d   1      -3.877   5.891  -0.920  0.00  0.00     0.017 A 
ATOM      6  C5  UNL d   1      -5.264   5.934  -0.746  0.00  0.00     0.034 A 
ATOM      7 Cl   UNL d   1      -3.271   5.824  -2.538  0.00  0.00    -0.070 Cl
ATOM      8 Cl1  UNL d   1      -1.313   5.852   0.063  0.00  0.00    -0.070 Cl
ENDROOT
TORSDOF 0
ENDMDL
