MODEL 1
REMARK minimizedAffinity -1.01591825
REMARK minimizedRMSD -1
REMARK  0 active torsions:
REMARK  status: ('A' for Active; 'I' for Inactive)
ROOT
ATOM      1  C   UNL d   1       0.792   3.604  -0.319  0.00  0.00     0.020 A 
ATOM      2  C1  UNL d   1      -0.411   3.171  -0.874  0.00  0.00     0.020 A 
ATOM      3  C2  UNL d   1      -1.374   2.563  -0.066  0.00  0.00     0.034 A 
ATOM      4  C3  UNL d   1      -1.136   2.386   1.302  0.00  0.00     0.017 A 
ATOM      5  C4  UNL d   1       0.073   2.821   1.858  0.00  0.00     0.017 A 
ATOM      6  C5  UNL d   1       1.034   3.429   1.044  0.00  0.00     0.034 A 
ATOM      7 Cl   UNL d   1       0.439   2.637   3.537  0.00  0.00    -0.070 Cl
ATOM      8 Cl1  UNL d   1      -2.371   1.627   2.241  0.00  0.00    -0.070 Cl
ENDROOT
TORSDOF 0
ENDMDL
