MODEL 1
REMARK minimizedAffinity 14.2397995
REMARK minimizedRMSD -1
REMARK  0 active torsions:
REMARK  status: ('A' for Active; 'I' for Inactive)
ROOT
ATOM      1  C   UNL d   1      -0.911   2.256   0.421  0.00  0.00     0.020 A 
ATOM      2  C1  UNL d   1       0.301   2.742   0.911  0.00  0.00     0.020 A 
ATOM      3  C2  UNL d   1       1.135   3.497   0.084  0.00  0.00     0.034 A 
ATOM      4  C3  UNL d   1       0.758   3.769  -1.236  0.00  0.00     0.017 A 
ATOM      5  C4  UNL d   1      -0.458   3.281  -1.727  0.00  0.00     0.017 A 
ATOM      6  C5  UNL d   1      -1.290   2.525  -0.894  0.00  0.00     0.034 A 
ATOM      7 Cl   UNL d   1      -0.991   3.575  -3.344  0.00  0.00    -0.070 Cl
ATOM      8 Cl1  UNL d   1       1.838   4.711  -2.202  0.00  0.00    -0.070 Cl
ENDROOT
TORSDOF 0
ENDMDL
