MODEL 1
REMARK minimizedAffinity 4.03817892
REMARK minimizedRMSD -1
REMARK  0 active torsions:
REMARK  status: ('A' for Active; 'I' for Inactive)
ROOT
ATOM      1  C   UNL d   1       0.488   4.048  -0.079  0.00  0.00     0.020 A 
ATOM      2  C1  UNL d   1      -0.037   5.335  -0.194  0.00  0.00     0.020 A 
ATOM      3  C2  UNL d   1      -1.343   5.596   0.224  0.00  0.00     0.034 A 
ATOM      4  C3  UNL d   1      -2.130   4.570   0.758  0.00  0.00     0.017 A 
ATOM      5  C4  UNL d   1      -1.603   3.278   0.874  0.00  0.00     0.017 A 
ATOM      6  C5  UNL d   1      -0.294   3.022   0.454  0.00  0.00     0.034 A 
ATOM      7 Cl   UNL d   1      -2.512   1.960   1.523  0.00  0.00    -0.070 Cl
ATOM      8 Cl1  UNL d   1      -3.737   4.965   1.255  0.00  0.00    -0.070 Cl
ENDROOT
TORSDOF 0
ENDMDL
