MODEL 1
REMARK minimizedAffinity 7.00968266
REMARK minimizedRMSD -1
REMARK  0 active torsions:
REMARK  status: ('A' for Active; 'I' for Inactive)
ROOT
ATOM      1  C   UNL d   1      -5.928  -3.004  -0.142  0.00  0.00     0.020 A 
ATOM      2  C1  UNL d   1      -5.281  -1.832   0.246  0.00  0.00     0.020 A 
ATOM      3  C2  UNL d   1      -4.703  -1.739   1.513  0.00  0.00     0.034 A 
ATOM      4  C3  UNL d   1      -4.770  -2.821   2.398  0.00  0.00     0.017 A 
ATOM      5  C4  UNL d   1      -5.420  -3.998   2.009  0.00  0.00     0.017 A 
ATOM      6  C5  UNL d   1      -5.997  -4.085   0.738  0.00  0.00     0.034 A 
ATOM      7 Cl   UNL d   1      -5.544  -5.376   3.045  0.00  0.00    -0.070 Cl
ATOM      8 Cl1  UNL d   1      -4.033  -2.638   3.950  0.00  0.00    -0.070 Cl
ENDROOT
TORSDOF 0
ENDMDL
