MODEL 1
REMARK minimizedAffinity -0.678100049
REMARK minimizedRMSD -1
REMARK  0 active torsions:
REMARK  status: ('A' for Active; 'I' for Inactive)
ROOT
ATOM      1  C   UNL d   1       0.164   3.417   0.426  0.00  0.00     0.020 A 
ATOM      2  C1  UNL d   1      -0.437   2.319  -0.187  0.00  0.00     0.020 A 
ATOM      3  C2  UNL d   1      -0.891   1.249   0.588  0.00  0.00     0.034 A 
ATOM      4  C3  UNL d   1      -0.744   1.275   1.980  0.00  0.00     0.017 A 
ATOM      5  C4  UNL d   1      -0.140   2.379   2.594  0.00  0.00     0.017 A 
ATOM      6  C5  UNL d   1       0.312   3.447   1.813  0.00  0.00     0.034 A 
ATOM      7 Cl   UNL d   1       0.076   2.484   4.305  0.00  0.00    -0.070 Cl
ATOM      8 Cl1  UNL d   1      -1.329  -0.082   2.875  0.00  0.00    -0.070 Cl
ENDROOT
TORSDOF 0
ENDMDL
