MODEL 1
REMARK minimizedAffinity 4.79264402
REMARK minimizedRMSD -1
REMARK  0 active torsions:
REMARK  status: ('A' for Active; 'I' for Inactive)
ROOT
ATOM      1  C   UNL d   1      -1.893  -1.556   4.243  0.00  0.00     0.020 A 
ATOM      2  C1  UNL d   1      -0.559  -1.158   4.163  0.00  0.00     0.020 A 
ATOM      3  C2  UNL d   1      -0.200  -0.075   3.358  0.00  0.00     0.034 A 
ATOM      4  C3  UNL d   1      -1.177   0.614   2.630  0.00  0.00     0.017 A 
ATOM      5  C4  UNL d   1      -2.516   0.214   2.711  0.00  0.00     0.017 A 
ATOM      6  C5  UNL d   1      -2.869  -0.871   3.518  0.00  0.00     0.034 A 
ATOM      7 Cl   UNL d   1      -3.777   1.015   1.842  0.00  0.00    -0.070 Cl
ATOM      8 Cl1  UNL d   1      -0.662   1.945   1.655  0.00  0.00    -0.070 Cl
ENDROOT
TORSDOF 0
ENDMDL
