MODEL 1
REMARK minimizedAffinity 2.76295972
REMARK minimizedRMSD -1
REMARK  0 active torsions:
REMARK  status: ('A' for Active; 'I' for Inactive)
ROOT
ATOM      1  C   UNL d   1      -0.646   2.802   1.041  0.00  0.00     0.020 A 
ATOM      2  C1  UNL d   1      -1.896   2.959   1.638  0.00  0.00     0.020 A 
ATOM      3  C2  UNL d   1      -2.432   1.931   2.417  0.00  0.00     0.034 A 
ATOM      4  C3  UNL d   1      -1.717   0.742   2.600  0.00  0.00     0.017 A 
ATOM      5  C4  UNL d   1      -0.463   0.585   2.000  0.00  0.00     0.017 A 
ATOM      6  C5  UNL d   1       0.069   1.618   1.222  0.00  0.00     0.034 A 
ATOM      7 Cl   UNL d   1       0.478  -0.854   2.181  0.00  0.00    -0.070 Cl
ATOM      8 Cl1  UNL d   1      -2.441  -0.487   3.576  0.00  0.00    -0.070 Cl
ENDROOT
TORSDOF 0
ENDMDL
