MODEL 1
REMARK minimizedAffinity -0.644781053
REMARK minimizedRMSD -1
REMARK  0 active torsions:
REMARK  status: ('A' for Active; 'I' for Inactive)
ROOT
ATOM      1  C   UNL d   1      -1.033   2.142   0.395  0.00  0.00     0.020 A 
ATOM      2  C1  UNL d   1      -0.871   2.199   1.779  0.00  0.00     0.020 A 
ATOM      3  C2  UNL d   1       0.041   3.094   2.340  0.00  0.00     0.034 A 
ATOM      4  C3  UNL d   1       0.796   3.938   1.516  0.00  0.00     0.017 A 
ATOM      5  C4  UNL d   1       0.634   3.880   0.127  0.00  0.00     0.017 A 
ATOM      6  C5  UNL d   1      -0.282   2.981  -0.429  0.00  0.00     0.034 A 
ATOM      7 Cl   UNL d   1       1.530   4.889  -0.953  0.00  0.00    -0.070 Cl
ATOM      8 Cl1  UNL d   1       1.906   5.021   2.278  0.00  0.00    -0.070 Cl
ENDROOT
TORSDOF 0
ENDMDL
