MODEL 1
REMARK minimizedAffinity 16.0575409
REMARK minimizedRMSD -1
REMARK  0 active torsions:
REMARK  status: ('A' for Active; 'I' for Inactive)
ROOT
ATOM      1  C   UNL d   1      -1.497   5.999  -0.797  0.00  0.00     0.020 A 
ATOM      2  C1  UNL d   1      -1.867   5.483   0.444  0.00  0.00     0.020 A 
ATOM      3  C2  UNL d   1      -1.325   4.276   0.888  0.00  0.00     0.034 A 
ATOM      4  C3  UNL d   1      -0.410   3.579   0.090  0.00  0.00     0.017 A 
ATOM      5  C4  UNL d   1      -0.039   4.098  -1.156  0.00  0.00     0.017 A 
ATOM      6  C5  UNL d   1      -0.585   5.308  -1.595  0.00  0.00     0.034 A 
ATOM      7 Cl   UNL d   1       1.084   3.296  -2.196  0.00  0.00    -0.070 Cl
ATOM      8 Cl1  UNL d   1       0.221   2.092   0.702  0.00  0.00    -0.070 Cl
ENDROOT
TORSDOF 0
ENDMDL
