MODEL 1
REMARK minimizedAffinity 0.679997504
REMARK minimizedRMSD -1
REMARK  0 active torsions:
REMARK  status: ('A' for Active; 'I' for Inactive)
ROOT
ATOM      1  C   UNL d   1      -0.099   3.741  -1.891  0.00  0.00     0.020 A 
ATOM      2  C1  UNL d   1      -0.891   2.596  -1.817  0.00  0.00     0.020 A 
ATOM      3  C2  UNL d   1      -1.091   1.965  -0.587  0.00  0.00     0.034 A 
ATOM      4  C3  UNL d   1      -0.499   2.479   0.573  0.00  0.00     0.017 A 
ATOM      5  C4  UNL d   1       0.295   3.628   0.496  0.00  0.00     0.017 A 
ATOM      6  C5  UNL d   1       0.493   4.256  -0.737  0.00  0.00     0.034 A 
ATOM      7 Cl   UNL d   1       1.058   4.321   1.884  0.00  0.00    -0.070 Cl
ATOM      8 Cl1  UNL d   1      -0.790   1.648   2.059  0.00  0.00    -0.070 Cl
ENDROOT
TORSDOF 0
ENDMDL
