MODEL 1
REMARK minimizedAffinity -3.36988997
REMARK minimizedRMSD -1
REMARK  0 active torsions:
REMARK  status: ('A' for Active; 'I' for Inactive)
ROOT
ATOM      1  C   UNL d   1      -0.222   3.362  -0.009  0.00  0.00     0.020 A 
ATOM      2  C1  UNL d   1       0.735   4.053   0.733  0.00  0.00     0.020 A 
ATOM      3  C2  UNL d   1       0.927   3.747   2.082  0.00  0.00     0.034 A 
ATOM      4  C3  UNL d   1       0.161   2.748   2.693  0.00  0.00     0.017 A 
ATOM      5  C4  UNL d   1      -0.799   2.055   1.948  0.00  0.00     0.017 A 
ATOM      6  C5  UNL d   1      -0.988   2.365   0.597  0.00  0.00     0.034 A 
ATOM      7 Cl   UNL d   1      -1.782   0.809   2.632  0.00  0.00    -0.070 Cl
ATOM      8 Cl1  UNL d   1       0.452   2.422   4.365  0.00  0.00    -0.070 Cl
ENDROOT
TORSDOF 0
ENDMDL
