MODEL 1
REMARK minimizedAffinity 6.15533876
REMARK minimizedRMSD -1
REMARK  0 active torsions:
REMARK  status: ('A' for Active; 'I' for Inactive)
ROOT
ATOM      1  C   UNL d   1      -2.056  -3.040   4.447  0.00  0.00     0.020 A 
ATOM      2  C1  UNL d   1      -1.093  -3.816   3.804  0.00  0.00     0.020 A 
ATOM      3  C2  UNL d   1      -0.243  -3.234   2.861  0.00  0.00     0.034 A 
ATOM      4  C3  UNL d   1      -0.356  -1.873   2.557  0.00  0.00     0.017 A 
ATOM      5  C4  UNL d   1      -1.323  -1.094   3.203  0.00  0.00     0.017 A 
ATOM      6  C5  UNL d   1      -2.171  -1.682   4.147  0.00  0.00     0.034 A 
ATOM      7 Cl   UNL d   1      -1.522   0.592   2.882  0.00  0.00    -0.070 Cl
ATOM      8 Cl1  UNL d   1       0.728  -1.219   1.381  0.00  0.00    -0.070 Cl
ENDROOT
TORSDOF 0
ENDMDL
