MODEL 1
REMARK minimizedAffinity 1.0435313
REMARK minimizedRMSD -1
REMARK  0 active torsions:
REMARK  status: ('A' for Active; 'I' for Inactive)
ROOT
ATOM      1  C   UNL d   1      -1.011   1.012   3.507  0.00  0.00     0.020 A 
ATOM      2  C1  UNL d   1      -1.059   0.341   2.285  0.00  0.00     0.020 A 
ATOM      3  C2  UNL d   1      -0.552   0.949   1.135  0.00  0.00     0.034 A 
ATOM      4  C3  UNL d   1       0.004   2.231   1.203  0.00  0.00     0.017 A 
ATOM      5  C4  UNL d   1       0.052   2.904   2.429  0.00  0.00     0.017 A 
ATOM      6  C5  UNL d   1      -0.457   2.291   3.579  0.00  0.00     0.034 A 
ATOM      7 Cl   UNL d   1       0.723   4.488   2.592  0.00  0.00    -0.070 Cl
ATOM      8 Cl1  UNL d   1       0.612   2.922  -0.259  0.00  0.00    -0.070 Cl
ENDROOT
TORSDOF 0
ENDMDL
