MODEL 1
REMARK minimizedAffinity 4.64438438
REMARK minimizedRMSD -1
REMARK  0 active torsions:
REMARK  status: ('A' for Active; 'I' for Inactive)
ROOT
ATOM      1  C   UNL d   1      -0.868   2.150   1.382  0.00  0.00     0.020 A 
ATOM      2  C1  UNL d   1      -2.177   1.922   1.806  0.00  0.00     0.020 A 
ATOM      3  C2  UNL d   1      -2.491   0.754   2.504  0.00  0.00     0.034 A 
ATOM      4  C3  UNL d   1      -1.496  -0.190   2.781  0.00  0.00     0.017 A 
ATOM      5  C4  UNL d   1      -0.182   0.040   2.355  0.00  0.00     0.017 A 
ATOM      6  C5  UNL d   1       0.127   1.211   1.656  0.00  0.00     0.034 A 
ATOM      7 Cl   UNL d   1       1.100  -1.079   2.659  0.00  0.00    -0.070 Cl
ATOM      8 Cl1  UNL d   1      -1.956  -1.611   3.649  0.00  0.00    -0.070 Cl
ENDROOT
TORSDOF 0
ENDMDL
