MODEL 1
REMARK minimizedAffinity -0.188361675
REMARK minimizedRMSD -1
REMARK  2 active torsions:
REMARK  status: ('A' for Active; 'I' for Inactive)
REMARK    1  A    between atoms: C2'_3  and  C1'_4 
REMARK    2  A    between atoms: C1'_4  and  C1_5 
ROOT
ATOM      1  C1  I4B d   1       0.107   0.250  -0.036  0.00  0.00    -0.075 A 
ATOM      2  C2  I4B d   1       0.035  -1.072  -0.397  0.00  0.00     0.003 A 
ATOM      3  C3  I4B d   1       1.188  -1.747  -0.866  0.00  0.00     0.002 A 
ATOM      4  C4  I4B d   1       2.373  -1.053  -1.005  0.00  0.00    -0.004 A 
ATOM      5  C5  I4B d   1       2.450   0.282  -0.617  0.00  0.00     0.002 A 
ATOM      6  C6  I4B d   1       1.313   0.935  -0.118  0.00  0.00     0.003 A 
ENDROOT
BRANCH   1   7
ATOM      7  C1' I4B d   1      -1.137   0.941   0.423  0.00  0.00     0.060 C 
BRANCH   7   8
ATOM      8  C2' I4B d   1      -1.220   0.800   1.930  0.00  0.00    -0.013 C 
ATOM      9  C4' I4B d   1      -1.335   2.145   2.597  0.00  0.00     0.013 C 
ATOM     10  C3' I4B d   1      -2.401  -0.066   2.250  0.00  0.00     0.013 C 
ENDBRANCH   7   8
ENDBRANCH   1   7
TORSDOF 2
ENDMDL
