MODEL 1
REMARK minimizedAffinity -2.55103636
REMARK minimizedRMSD -1
REMARK  2 active torsions:
REMARK  status: ('A' for Active; 'I' for Inactive)
REMARK    1  A    between atoms: C2'_3  and  C1'_4 
REMARK    2  A    between atoms: C1'_4  and  C1_5 
ROOT
ATOM      1  C1  I4B d   1      -0.036   0.148   0.001  0.00  0.00    -0.075 A 
ATOM      2  C2  I4B d   1       0.925   1.044  -0.395  0.00  0.00     0.003 A 
ATOM      3  C3  I4B d   1       2.157   0.584  -0.919  0.00  0.00     0.002 A 
ATOM      4  C4  I4B d   1       2.405  -0.772  -0.983  0.00  0.00    -0.004 A 
ATOM      5  C5  I4B d   1       1.420  -1.680  -0.603  0.00  0.00     0.002 A 
ATOM      6  C6  I4B d   1       0.188  -1.218  -0.120  0.00  0.00     0.003 A 
ENDROOT
BRANCH   1   7
ATOM      7  C1' I4B d   1      -1.312   0.668   0.581  0.00  0.00     0.060 C 
BRANCH   7   8
ATOM      8  C2' I4B d   1      -1.175   0.666   2.089  0.00  0.00    -0.013 C 
ATOM      9  C4' I4B d   1      -0.951   2.058   2.619  0.00  0.00     0.013 C 
ATOM     10  C3' I4B d   1      -2.419   0.060   2.667  0.00  0.00     0.013 C 
ENDBRANCH   7   8
ENDBRANCH   1   7
TORSDOF 2
ENDMDL
