MODEL 1
REMARK minimizedAffinity -3.05849552
REMARK minimizedRMSD -1
REMARK  2 active torsions:
REMARK  status: ('A' for Active; 'I' for Inactive)
REMARK    1  A    between atoms: C2'_3  and  C1'_4 
REMARK    2  A    between atoms: C1'_4  and  C1_5 
ROOT
ATOM      1  C1  I4B d   1       1.012   0.774  -0.516  0.00  0.00    -0.075 A 
ATOM      2  C2  I4B d   1       1.009  -0.558  -0.848  0.00  0.00     0.003 A 
ATOM      3  C3  I4B d   1       2.229  -1.239  -1.076  0.00  0.00     0.002 A 
ATOM      4  C4  I4B d   1       3.419  -0.542  -1.010  0.00  0.00    -0.004 A 
ATOM      5  C5  I4B d   1       3.422   0.803  -0.650  0.00  0.00     0.002 A 
ATOM      6  C6  I4B d   1       2.212   1.462  -0.390  0.00  0.00     0.003 A 
ENDROOT
BRANCH   1   7
ATOM      7  C1' I4B d   1      -0.297   1.470  -0.315  0.00  0.00     0.060 C 
BRANCH   7   8
ATOM      8  C2' I4B d   1      -0.827   1.081   1.050  0.00  0.00    -0.013 C 
ATOM      9  C4' I4B d   1      -1.025   2.293   1.923  0.00  0.00     0.013 C 
ATOM     10  C3' I4B d   1      -2.116   0.340   0.852  0.00  0.00     0.013 C 
ENDBRANCH   7   8
ENDBRANCH   1   7
TORSDOF 2
ENDMDL
