MODEL 1
REMARK minimizedAffinity -5.05923557
REMARK minimizedRMSD -1
REMARK  2 active torsions:
REMARK  status: ('A' for Active; 'I' for Inactive)
REMARK    1  A    between atoms: C2'_3  and  C1'_4 
REMARK    2  A    between atoms: C1'_4  and  C1_5 
ROOT
ATOM      1  C1  I4B d   1      -0.194   0.016  -0.007  0.00  0.00    -0.075 A 
ATOM      2  C2  I4B d   1       0.954   0.736  -0.225  0.00  0.00     0.003 A 
ATOM      3  C3  I4B d   1       2.153   0.075  -0.586  0.00  0.00     0.002 A 
ATOM      4  C4  I4B d   1       2.171  -1.303  -0.668  0.00  0.00    -0.004 A 
ATOM      5  C5  I4B d   1       1.001  -2.030  -0.469  0.00  0.00     0.002 A 
ATOM      6  C6  I4B d   1      -0.192  -1.366  -0.149  0.00  0.00     0.003 A 
ENDROOT
BRANCH   1   7
ATOM      7  C1' I4B d   1      -1.434   0.744   0.404  0.00  0.00     0.060 C 
BRANCH   7   8
ATOM      8  C2' I4B d   1      -1.408   0.894   1.912  0.00  0.00    -0.013 C 
ATOM      9  C4' I4B d   1      -1.249   2.337   2.313  0.00  0.00     0.013 C 
ATOM     10  C3' I4B d   1      -2.681   0.318   2.456  0.00  0.00     0.013 C 
ENDBRANCH   7   8
ENDBRANCH   1   7
TORSDOF 2
ENDMDL
