MODEL 1
REMARK minimizedAffinity -6.84784126
REMARK minimizedRMSD -1
REMARK  2 active torsions:
REMARK  status: ('A' for Active; 'I' for Inactive)
REMARK    1  A    between atoms: C2'_3  and  C1'_4 
REMARK    2  A    between atoms: C1'_4  and  C1_5 
ROOT
ATOM      1  C1  I4B d   1      -0.303   0.221   0.094  0.00  0.00    -0.075 A 
ATOM      2  C2  I4B d   1       0.620   1.163  -0.283  0.00  0.00     0.003 A 
ATOM      3  C3  I4B d   1       1.892   0.764  -0.762  0.00  0.00     0.002 A 
ATOM      4  C4  I4B d   1       2.213  -0.577  -0.800  0.00  0.00    -0.004 A 
ATOM      5  C5  I4B d   1       1.268  -1.532  -0.439  0.00  0.00     0.002 A 
ATOM      6  C6  I4B d   1      -0.003  -1.132  -0.001  0.00  0.00     0.003 A 
ENDROOT
BRANCH   1   7
ATOM      7  C1' I4B d   1      -1.624   0.678   0.627  0.00  0.00     0.060 C 
BRANCH   7   8
ATOM      8  C2' I4B d   1      -1.368   1.472   1.892  0.00  0.00    -0.013 C 
ATOM      9  C4' I4B d   1      -1.674   2.932   1.690  0.00  0.00     0.013 C 
ATOM     10  C3' I4B d   1      -2.212   0.887   2.984  0.00  0.00     0.013 C 
ENDBRANCH   7   8
ENDBRANCH   1   7
TORSDOF 2
ENDMDL
