MODEL 1
REMARK minimizedAffinity -3.19248056
REMARK minimizedRMSD -1
REMARK  2 active torsions:
REMARK  status: ('A' for Active; 'I' for Inactive)
REMARK    1  A    between atoms: C2'_3  and  C1'_4 
REMARK    2  A    between atoms: C1'_4  and  C1_5 
ROOT
ATOM      1  C1  I4B d   1      -0.227   0.202  -0.015  0.00  0.00    -0.075 A 
ATOM      2  C2  I4B d   1       0.059  -1.053   0.460  0.00  0.00     0.003 A 
ATOM      3  C3  I4B d   1       1.167  -1.773  -0.048  0.00  0.00     0.002 A 
ATOM      4  C4  I4B d   1       1.928  -1.224  -1.061  0.00  0.00    -0.004 A 
ATOM      5  C5  I4B d   1       1.650   0.058  -1.526  0.00  0.00     0.002 A 
ATOM      6  C6  I4B d   1       0.574   0.781  -0.991  0.00  0.00     0.003 A 
ENDROOT
BRANCH   1   7
ATOM      7  C1' I4B d   1      -1.424   0.920   0.521  0.00  0.00     0.060 C 
BRANCH   7   8
ATOM      8  C2' I4B d   1      -1.461   0.712   2.021  0.00  0.00    -0.013 C 
ATOM      9  C4' I4B d   1      -1.445   2.027   2.754  0.00  0.00     0.013 C 
ATOM     10  C3' I4B d   1      -2.694  -0.076   2.349  0.00  0.00     0.013 C 
ENDBRANCH   7   8
ENDBRANCH   1   7
TORSDOF 2
ENDMDL
