MODEL 1
REMARK minimizedAffinity -0.803147435
REMARK minimizedRMSD -1
REMARK  2 active torsions:
REMARK  status: ('A' for Active; 'I' for Inactive)
REMARK    1  A    between atoms: C2'_3  and  C1'_4 
REMARK    2  A    between atoms: C1'_4  and  C1_5 
ROOT
ATOM      1  C1  I4B d   1       0.826   0.256  -0.701  0.00  0.00    -0.075 A 
ATOM      2  C2  I4B d   1      -0.175   1.157  -0.437  0.00  0.00     0.003 A 
ATOM      3  C3  I4B d   1      -1.251   0.798   0.411  0.00  0.00     0.002 A 
ATOM      4  C4  I4B d   1      -1.312  -0.480   0.928  0.00  0.00    -0.004 A 
ATOM      5  C5  I4B d   1      -0.284  -1.384   0.677  0.00  0.00     0.002 A 
ATOM      6  C6  I4B d   1       0.798  -1.011  -0.133  0.00  0.00     0.003 A 
ENDROOT
BRANCH   1   7
ATOM      7  C1' I4B d   1       1.930   0.657  -1.627  0.00  0.00     0.060 C 
BRANCH   7   8
ATOM      8  C2' I4B d   1       2.668  -0.598  -2.046  0.00  0.00    -0.013 C 
ATOM      9  C4' I4B d   1       1.922  -1.332  -3.130  0.00  0.00     0.013 C 
ATOM     10  C3' I4B d   1       4.038  -0.199  -2.507  0.00  0.00     0.013 C 
ENDBRANCH   7   8
ENDBRANCH   1   7
TORSDOF 2
ENDMDL
