MODEL 1
REMARK minimizedAffinity -4.47558403
REMARK minimizedRMSD -1
REMARK  2 active torsions:
REMARK  status: ('A' for Active; 'I' for Inactive)
REMARK    1  A    between atoms: C2'_3  and  C1'_4 
REMARK    2  A    between atoms: C1'_4  and  C1_5 
ROOT
ATOM      1  C1  I4B d   1       0.263   0.163   0.207  0.00  0.00    -0.075 A 
ATOM      2  C2  I4B d   1       1.332   0.901  -0.234  0.00  0.00     0.003 A 
ATOM      3  C3  I4B d   1       2.538   0.257  -0.606  0.00  0.00     0.002 A 
ATOM      4  C4  I4B d   1       2.646  -1.112  -0.473  0.00  0.00    -0.004 A 
ATOM      5  C5  I4B d   1       1.553  -1.861  -0.046  0.00  0.00     0.002 A 
ATOM      6  C6  I4B d   1       0.350  -1.221   0.284  0.00  0.00     0.003 A 
ENDROOT
BRANCH   1   7
ATOM      7  C1' I4B d   1      -0.984   0.878   0.623  0.00  0.00     0.060 C 
BRANCH   7   8
ATOM      8  C2' I4B d   1      -1.211   0.604   2.096  0.00  0.00    -0.013 C 
ATOM      9  C4' I4B d   1      -0.718   1.746   2.945  0.00  0.00     0.013 C 
ATOM     10  C3' I4B d   1      -2.677   0.368   2.303  0.00  0.00     0.013 C 
ENDBRANCH   7   8
ENDBRANCH   1   7
TORSDOF 2
ENDMDL
