MODEL 1
REMARK minimizedAffinity -4.74605894
REMARK minimizedRMSD -1
REMARK  2 active torsions:
REMARK  status: ('A' for Active; 'I' for Inactive)
REMARK    1  A    between atoms: C2'_3  and  C1'_4 
REMARK    2  A    between atoms: C1'_4  and  C1_5 
ROOT
ATOM      1  C1  I4B d   1       0.689  -0.550  -0.310  0.00  0.00    -0.075 A 
ATOM      2  C2  I4B d   1       1.620   0.391   0.050  0.00  0.00     0.003 A 
ATOM      3  C3  I4B d   1       2.826   0.517  -0.682  0.00  0.00     0.002 A 
ATOM      4  C4  I4B d   1       3.080  -0.347  -1.727  0.00  0.00    -0.004 A 
ATOM      5  C5  I4B d   1       2.124  -1.286  -2.105  0.00  0.00     0.002 A 
ATOM      6  C6  I4B d   1       0.916  -1.381  -1.400  0.00  0.00     0.003 A 
ENDROOT
BRANCH   1   7
ATOM      7  C1' I4B d   1      -0.559  -0.678   0.505  0.00  0.00     0.060 C 
BRANCH   7   8
ATOM      8  C2' I4B d   1      -1.050   0.719   0.828  0.00  0.00    -0.013 C 
ATOM      9  C4' I4B d   1      -1.749   1.338  -0.354  0.00  0.00     0.013 C 
ATOM     10  C3' I4B d   1      -1.967   0.625   2.011  0.00  0.00     0.013 C 
ENDBRANCH   7   8
ENDBRANCH   1   7
TORSDOF 2
ENDMDL
