MODEL 1
REMARK minimizedAffinity -5.64375257
REMARK minimizedRMSD -1
REMARK  2 active torsions:
REMARK  status: ('A' for Active; 'I' for Inactive)
REMARK    1  A    between atoms: C2'_3  and  C1'_4 
REMARK    2  A    between atoms: C1'_4  and  C1_5 
ROOT
ATOM      1  C1  I4B d   1      -0.215   0.144  -0.144  0.00  0.00    -0.075 A 
ATOM      2  C2  I4B d   1       0.830   0.991  -0.416  0.00  0.00     0.003 A 
ATOM      3  C3  I4B d   1       2.088   0.469  -0.805  0.00  0.00     0.002 A 
ATOM      4  C4  I4B d   1       2.268  -0.898  -0.859  0.00  0.00    -0.004 A 
ATOM      5  C5  I4B d   1       1.201  -1.755  -0.605  0.00  0.00     0.002 A 
ATOM      6  C6  I4B d   1      -0.052  -1.230  -0.257  0.00  0.00     0.003 A 
ENDROOT
BRANCH   1   7
ATOM      7  C1' I4B d   1      -1.520   0.729   0.296  0.00  0.00     0.060 C 
BRANCH   7   8
ATOM      8  C2' I4B d   1      -1.531   0.758   1.811  0.00  0.00    -0.013 C 
ATOM      9  C4' I4B d   1      -1.322   2.155   2.331  0.00  0.00     0.013 C 
ATOM     10  C3' I4B d   1      -2.843   0.198   2.275  0.00  0.00     0.013 C 
ENDBRANCH   7   8
ENDBRANCH   1   7
TORSDOF 2
ENDMDL
