MODEL 1
REMARK minimizedAffinity -3.47188783
REMARK minimizedRMSD -1
REMARK  2 active torsions:
REMARK  status: ('A' for Active; 'I' for Inactive)
REMARK    1  A    between atoms: C2'_3  and  C1'_4 
REMARK    2  A    between atoms: C1'_4  and  C1_5 
ROOT
ATOM      1  C1  I4B d   1       0.833  -0.647  -0.173  0.00  0.00    -0.075 A 
ATOM      2  C2  I4B d   1       1.078  -1.415  -1.284  0.00  0.00     0.003 A 
ATOM      3  C3  I4B d   1       2.281  -1.252  -2.012  0.00  0.00     0.002 A 
ATOM      4  C4  I4B d   1       3.183  -0.281  -1.626  0.00  0.00    -0.004 A 
ATOM      5  C5  I4B d   1       2.943   0.481  -0.487  0.00  0.00     0.002 A 
ATOM      6  C6  I4B d   1       1.767   0.289   0.252  0.00  0.00     0.003 A 
ENDROOT
BRANCH   1   7
ATOM      7  C1' I4B d   1      -0.463  -0.822   0.553  0.00  0.00     0.060 C 
BRANCH   7   8
ATOM      8  C2' I4B d   1      -0.968   0.552   0.945  0.00  0.00    -0.013 C 
ATOM      9  C4' I4B d   1      -1.583   1.263  -0.232  0.00  0.00     0.013 C 
ATOM     10  C3' I4B d   1      -1.964   0.380   2.053  0.00  0.00     0.013 C 
ENDBRANCH   7   8
ENDBRANCH   1   7
TORSDOF 2
ENDMDL
