MODEL 1
REMARK minimizedAffinity 10.0521126
REMARK minimizedRMSD -1
REMARK  0 active torsions:
REMARK  status: ('A' for Active; 'I' for Inactive)
ROOT
ATOM      1  C   UNL d   1       0.404   2.697   2.334  0.00  0.00     0.078 C 
ATOM      2  C1  UNL d   1       0.080   3.211   0.964  0.00  0.00    -0.077 A 
ATOM      3  C2  UNL d   1       0.379   4.530   0.598  0.00  0.00    -0.001 A 
ATOM      4  C3  UNL d   1       0.062   4.998  -0.678  0.00  0.00     0.003 A 
ATOM      5  C4  UNL d   1      -0.556   4.155  -1.599  0.00  0.00    -0.005 A 
ATOM      6  C5  UNL d   1      -0.860   2.842  -1.244  0.00  0.00     0.003 A 
ATOM      7  C6  UNL d   1      -0.544   2.372   0.032  0.00  0.00    -0.001 A 
ENDROOT
TORSDOF 0
ENDMDL
