MODEL 1
REMARK minimizedAffinity 8.81207943
REMARK minimizedRMSD -1
REMARK  0 active torsions:
REMARK  status: ('A' for Active; 'I' for Inactive)
ROOT
ATOM      1  C   UNL d   1       2.446  -3.036   1.189  0.00  0.00     0.078 C 
ATOM      2  C1  UNL d   1       3.637  -3.072   0.279  0.00  0.00    -0.077 A 
ATOM      3  C2  UNL d   1       4.331  -4.265   0.046  0.00  0.00    -0.001 A 
ATOM      4  C3  UNL d   1       5.444  -4.281  -0.797  0.00  0.00     0.003 A 
ATOM      5  C4  UNL d   1       5.872  -3.107  -1.413  0.00  0.00    -0.005 A 
ATOM      6  C5  UNL d   1       5.189  -1.914  -1.186  0.00  0.00     0.003 A 
ATOM      7  C6  UNL d   1       4.076  -1.896  -0.343  0.00  0.00    -0.001 A 
ENDROOT
TORSDOF 0
ENDMDL
