MODEL 1
REMARK minimizedAffinity 5.01869583
REMARK minimizedRMSD -1
REMARK  0 active torsions:
REMARK  status: ('A' for Active; 'I' for Inactive)
ROOT
ATOM      1  C   UNL d   1       2.299  -4.162   0.615  0.00  0.00     0.078 C 
ATOM      2  C1  UNL d   1       3.489  -3.467   0.022  0.00  0.00    -0.077 A 
ATOM      3  C2  UNL d   1       3.410  -2.133  -0.397  0.00  0.00    -0.001 A 
ATOM      4  C3  UNL d   1       4.522  -1.502  -0.956  0.00  0.00     0.003 A 
ATOM      5  C4  UNL d   1       5.721  -2.197  -1.102  0.00  0.00    -0.005 A 
ATOM      6  C5  UNL d   1       5.809  -3.525  -0.689  0.00  0.00     0.003 A 
ATOM      7  C6  UNL d   1       4.697  -4.158  -0.130  0.00  0.00    -0.001 A 
ENDROOT
TORSDOF 0
ENDMDL
