MODEL 1
REMARK minimizedAffinity 1.74600685
REMARK minimizedRMSD -1
REMARK  0 active torsions:
REMARK  status: ('A' for Active; 'I' for Inactive)
ROOT
ATOM      1  C   UNL d   1      -3.079  -1.030  -1.534  0.00  0.00     0.078 C 
ATOM      2  C1  UNL d   1      -1.709  -1.071  -2.144  0.00  0.00    -0.077 A 
ATOM      3  C2  UNL d   1      -1.534  -1.333  -3.508  0.00  0.00    -0.001 A 
ATOM      4  C3  UNL d   1      -0.253  -1.378  -4.060  0.00  0.00     0.003 A 
ATOM      5  C4  UNL d   1       0.864  -1.162  -3.255  0.00  0.00    -0.005 A 
ATOM      6  C5  UNL d   1       0.700  -0.902  -1.896  0.00  0.00     0.003 A 
ATOM      7  C6  UNL d   1      -0.581  -0.857  -1.342  0.00  0.00    -0.001 A 
ENDROOT
TORSDOF 0
ENDMDL
