MODEL 1
REMARK minimizedAffinity 6.08146858
REMARK minimizedRMSD -1
REMARK  0 active torsions:
REMARK  status: ('A' for Active; 'I' for Inactive)
ROOT
ATOM      1  C   UNL d   1       0.693  -0.996   3.913  0.00  0.00     0.078 C 
ATOM      2  C1  UNL d   1       0.621   0.387   3.338  0.00  0.00    -0.077 A 
ATOM      3  C2  UNL d   1       1.764   1.191   3.251  0.00  0.00    -0.001 A 
ATOM      4  C3  UNL d   1       1.682   2.480   2.722  0.00  0.00     0.003 A 
ATOM      5  C4  UNL d   1       0.458   2.977   2.278  0.00  0.00    -0.005 A 
ATOM      6  C5  UNL d   1      -0.685   2.185   2.364  0.00  0.00     0.003 A 
ATOM      7  C6  UNL d   1      -0.605   0.896   2.892  0.00  0.00    -0.001 A 
ENDROOT
TORSDOF 0
ENDMDL
