MODEL 1
REMARK minimizedAffinity 10.5982218
REMARK minimizedRMSD -1
REMARK  0 active torsions:
REMARK  status: ('A' for Active; 'I' for Inactive)
ROOT
ATOM      1  C   UNL d   1       0.648  -1.193  -1.908  0.00  0.00     0.078 C 
ATOM      2  C1  UNL d   1      -0.720  -0.654  -1.610  0.00  0.00    -0.077 A 
ATOM      3  C2  UNL d   1      -1.859  -1.453  -1.764  0.00  0.00    -0.001 A 
ATOM      4  C3  UNL d   1      -3.126  -0.936  -1.492  0.00  0.00     0.003 A 
ATOM      5  C4  UNL d   1      -3.266   0.384  -1.065  0.00  0.00    -0.005 A 
ATOM      6  C5  UNL d   1      -2.139   1.187  -0.911  0.00  0.00     0.003 A 
ATOM      7  C6  UNL d   1      -0.870   0.671  -1.182  0.00  0.00    -0.001 A 
ENDROOT
TORSDOF 0
ENDMDL
