MODEL 1
REMARK minimizedAffinity 3.65528226
REMARK minimizedRMSD -1
REMARK  0 active torsions:
REMARK  status: ('A' for Active; 'I' for Inactive)
ROOT
ATOM      1  C   UNL d   1      -1.162   2.230   1.945  0.00  0.00     0.078 C 
ATOM      2  C1  UNL d   1      -1.034   3.170   0.784  0.00  0.00    -0.077 A 
ATOM      3  C2  UNL d   1      -0.460   2.750  -0.423  0.00  0.00    -0.001 A 
ATOM      4  C3  UNL d   1      -0.338   3.638  -1.493  0.00  0.00     0.003 A 
ATOM      5  C4  UNL d   1      -0.786   4.952  -1.366  0.00  0.00    -0.005 A 
ATOM      6  C5  UNL d   1      -1.356   5.379  -0.169  0.00  0.00     0.003 A 
ATOM      7  C6  UNL d   1      -1.479   4.492   0.902  0.00  0.00    -0.001 A 
ENDROOT
TORSDOF 0
ENDMDL
