MODEL 1
REMARK minimizedAffinity 6.74594116
REMARK minimizedRMSD -1
REMARK  0 active torsions:
REMARK  status: ('A' for Active; 'I' for Inactive)
ROOT
ATOM      1  C   UNL d   1      -0.116   3.868  -0.670  0.00  0.00     0.078 C 
ATOM      2  C1  UNL d   1       0.003   3.387   0.745  0.00  0.00    -0.077 A 
ATOM      3  C2  UNL d   1       1.237   3.394   1.408  0.00  0.00    -0.001 A 
ATOM      4  C3  UNL d   1       1.335   2.934   2.722  0.00  0.00     0.003 A 
ATOM      5  C4  UNL d   1       0.203   2.463   3.384  0.00  0.00    -0.005 A 
ATOM      6  C5  UNL d   1      -1.028   2.449   2.732  0.00  0.00     0.003 A 
ATOM      7  C6  UNL d   1      -1.128   2.909   1.418  0.00  0.00    -0.001 A 
ENDROOT
TORSDOF 0
ENDMDL
