MODEL 1
REMARK minimizedAffinity -4.08121252
REMARK minimizedRMSD -1
REMARK  0 active torsions:
REMARK  status: ('A' for Active; 'I' for Inactive)
ROOT
ATOM      1  C4' PXY d   1       1.088  -5.838   0.921  0.00  0.00     0.077 C 
ATOM      2  C1' PXY d   1       0.708  -0.306  -0.713  0.00  0.00     0.077 C 
ATOM      3  C1  PXY d   1       0.796  -1.756  -0.279  0.00  0.00    -0.082 A 
ATOM      4  C2  PXY d   1       1.981  -2.328  -0.144  0.00  0.00     0.003 A 
ATOM      5  C3  PXY d   1       2.078  -3.647   0.217  0.00  0.00     0.003 A 
ATOM      6  C4  PXY d   1       0.951  -4.374   0.494  0.00  0.00    -0.082 A 
ATOM      7  C5  PXY d   1      -0.262  -3.795   0.369  0.00  0.00     0.003 A 
ATOM      8  C6  PXY d   1      -0.340  -2.467  -0.039  0.00  0.00     0.003 A 
ENDROOT
TORSDOF 0
ENDMDL
