MODEL 1
REMARK minimizedAffinity -3.58210254
REMARK minimizedRMSD -1
REMARK  0 active torsions:
REMARK  status: ('A' for Active; 'I' for Inactive)
ROOT
ATOM      1  C4' PXY d   1       0.707  -0.357  -1.146  0.00  0.00     0.077 C 
ATOM      2  C1' PXY d   1       0.768  -5.554   1.383  0.00  0.00     0.077 C 
ATOM      3  C1  PXY d   1       0.739  -4.192   0.718  0.00  0.00    -0.082 A 
ATOM      4  C2  PXY d   1       1.839  -3.714   0.159  0.00  0.00     0.003 A 
ATOM      5  C3  PXY d   1       1.839  -2.470  -0.418  0.00  0.00     0.003 A 
ATOM      6  C4  PXY d   1       0.687  -1.731  -0.472  0.00  0.00    -0.082 A 
ATOM      7  C5  PXY d   1      -0.442  -2.217   0.086  0.00  0.00     0.003 A 
ATOM      8  C6  PXY d   1      -0.410  -3.464   0.704  0.00  0.00     0.003 A 
ENDROOT
TORSDOF 0
ENDMDL
