MODEL 1
REMARK minimizedAffinity -3.96535778
REMARK minimizedRMSD -1
REMARK  0 active torsions:
REMARK  status: ('A' for Active; 'I' for Inactive)
ROOT
ATOM      1  C4' PXY d   1       0.661  -5.470   1.168  0.00  0.00     0.077 C 
ATOM      2  C1' PXY d   1       1.352  -0.404  -1.528  0.00  0.00     0.077 C 
ATOM      3  C1  PXY d   1       1.159  -1.729  -0.817  0.00  0.00    -0.082 A 
ATOM      4  C2  PXY d   1       2.216  -2.423  -0.429  0.00  0.00     0.003 A 
ATOM      5  C3  PXY d   1       2.060  -3.638   0.187  0.00  0.00     0.003 A 
ATOM      6  C4  PXY d   1       0.808  -4.123   0.455  0.00  0.00    -0.082 A 
ATOM      7  C5  PXY d   1      -0.276  -3.416   0.072  0.00  0.00     0.003 A 
ATOM      8  C6  PXY d   1      -0.096  -2.204  -0.589  0.00  0.00     0.003 A 
ENDROOT
TORSDOF 0
ENDMDL
