MODEL 1
REMARK minimizedAffinity -4.69534349
REMARK minimizedRMSD -1
REMARK  0 active torsions:
REMARK  status: ('A' for Active; 'I' for Inactive)
ROOT
ATOM      1  C4' PXY d   1       0.225  -3.941   0.675  0.00  0.00     0.077 C 
ATOM      2  C1' PXY d   1       3.344  -0.031  -2.224  0.00  0.00     0.077 C 
ATOM      3  C1  PXY d   1       2.519  -1.047  -1.458  0.00  0.00    -0.082 A 
ATOM      4  C2  PXY d   1       3.037  -2.231  -1.175  0.00  0.00     0.003 A 
ATOM      5  C3  PXY d   1       2.294  -3.173  -0.511  0.00  0.00     0.003 A 
ATOM      6  C4  PXY d   1       1.025  -2.881  -0.088  0.00  0.00    -0.082 A 
ATOM      7  C5  PXY d   1       0.492  -1.672  -0.364  0.00  0.00     0.003 A 
ATOM      8  C6  PXY d   1       1.249  -0.744  -1.074  0.00  0.00     0.003 A 
ENDROOT
TORSDOF 0
ENDMDL
