MODEL 1
REMARK minimizedAffinity 0.735411227
REMARK minimizedRMSD -1
REMARK  0 active torsions:
REMARK  status: ('A' for Active; 'I' for Inactive)
ROOT
ATOM      1  C4' PXY d   1      -0.192   1.956  -1.864  0.00  0.00     0.077 C 
ATOM      2  C1' PXY d   1       2.643  -2.938  -0.669  0.00  0.00     0.077 C 
ATOM      3  C1  PXY d   1       1.899  -1.658  -0.995  0.00  0.00    -0.082 A 
ATOM      4  C2  PXY d   1       1.964  -0.634  -0.160  0.00  0.00     0.003 A 
ATOM      5  C3  PXY d   1       1.272   0.521  -0.424  0.00  0.00     0.003 A 
ATOM      6  C4  PXY d   1       0.550   0.647  -1.580  0.00  0.00    -0.082 A 
ATOM      7  C5  PXY d   1       0.488  -0.390  -2.442  0.00  0.00     0.003 A 
ATOM      8  C6  PXY d   1       1.164  -1.568  -2.136  0.00  0.00     0.003 A 
ENDROOT
TORSDOF 0
ENDMDL
