MODEL 1
REMARK minimizedAffinity 3.33982515
REMARK minimizedRMSD -1
REMARK  0 active torsions:
REMARK  status: ('A' for Active; 'I' for Inactive)
ROOT
ATOM      1  C4' PXY d   1      -0.277  -0.678  -4.846  0.00  0.00     0.077 C 
ATOM      2  C1' PXY d   1       1.291  -0.872   0.714  0.00  0.00     0.077 C 
ATOM      3  C1  PXY d   1       0.883  -0.834  -0.745  0.00  0.00    -0.082 A 
ATOM      4  C2  PXY d   1       0.859   0.323  -1.388  0.00  0.00     0.003 A 
ATOM      5  C3  PXY d   1       0.462   0.380  -2.699  0.00  0.00     0.003 A 
ATOM      6  C4  PXY d   1       0.137  -0.765  -3.375  0.00  0.00    -0.082 A 
ATOM      7  C5  PXY d   1       0.169  -1.951  -2.730  0.00  0.00     0.003 A 
ATOM      8  C6  PXY d   1       0.536  -1.982  -1.387  0.00  0.00     0.003 A 
ENDROOT
TORSDOF 0
ENDMDL
