MODEL 1
REMARK minimizedAffinity -4.03698158
REMARK minimizedRMSD -1
REMARK  0 active torsions:
REMARK  status: ('A' for Active; 'I' for Inactive)
ROOT
ATOM      1  C4' PXY d   1       0.651  -0.269  -1.527  0.00  0.00     0.077 C 
ATOM      2  C1' PXY d   1       0.981  -5.205   1.464  0.00  0.00     0.077 C 
ATOM      3  C1  PXY d   1       0.882  -3.911   0.679  0.00  0.00    -0.082 A 
ATOM      4  C2  PXY d   1       1.909  -3.508  -0.050  0.00  0.00     0.003 A 
ATOM      5  C3  PXY d   1       1.848  -2.325  -0.740  0.00  0.00     0.003 A 
ATOM      6  C4  PXY d   1       0.704  -1.573  -0.726  0.00  0.00    -0.082 A 
ATOM      7  C5  PXY d   1      -0.353  -1.984   0.006  0.00  0.00     0.003 A 
ATOM      8  C6  PXY d   1      -0.256  -3.167   0.733  0.00  0.00     0.003 A 
ENDROOT
TORSDOF 0
ENDMDL
