MODEL 1
REMARK minimizedAffinity 8.11200523
REMARK minimizedRMSD -1
REMARK  0 active torsions:
REMARK  status: ('A' for Active; 'I' for Inactive)
ROOT
ATOM      1  C4' PXY d   1       2.651  -0.650  -0.447  0.00  0.00     0.077 C 
ATOM      2  C1' PXY d   1       1.162  -6.000   1.157  0.00  0.00     0.077 C 
ATOM      3  C1  PXY d   1       1.556  -4.594   0.749  0.00  0.00    -0.082 A 
ATOM      4  C2  PXY d   1       1.002  -4.044  -0.319  0.00  0.00     0.003 A 
ATOM      5  C3  PXY d   1       1.371  -2.785  -0.721  0.00  0.00     0.003 A 
ATOM      6  C4  PXY d   1       2.276  -2.063   0.008  0.00  0.00    -0.082 A 
ATOM      7  C5  PXY d   1       2.838  -2.613   1.105  0.00  0.00     0.003 A 
ATOM      8  C6  PXY d   1       2.481  -3.908   1.473  0.00  0.00     0.003 A 
ENDROOT
TORSDOF 0
ENDMDL
