MODEL 1
REMARK minimizedAffinity -6.95738411
REMARK minimizedRMSD -1
REMARK  0 active torsions:
REMARK  status: ('A' for Active; 'I' for Inactive)
ROOT
ATOM      1  C4' PXY d   1       0.781   0.013  -0.772  0.00  0.00     0.077 C 
ATOM      2  C1' PXY d   1       1.000  -5.558   0.753  0.00  0.00     0.077 C 
ATOM      3  C1  PXY d   1       0.931  -4.099   0.348  0.00  0.00    -0.082 A 
ATOM      4  C2  PXY d   1       2.049  -3.427   0.130  0.00  0.00     0.003 A 
ATOM      5  C3  PXY d   1       2.006  -2.098  -0.205  0.00  0.00     0.003 A 
ATOM      6  C4  PXY d   1       0.803  -1.464  -0.371  0.00  0.00    -0.082 A 
ATOM      7  C5  PXY d   1      -0.343  -2.146  -0.161  0.00  0.00     0.003 A 
ATOM      8  C6  PXY d   1      -0.276  -3.483   0.219  0.00  0.00     0.003 A 
ENDROOT
TORSDOF 0
ENDMDL
