MODEL 1
REMARK minimizedAffinity 3.22128201
REMARK minimizedRMSD -1
REMARK  0 active torsions:
REMARK  status: ('A' for Active; 'I' for Inactive)
ROOT
ATOM      1  C4' PXY d   1       1.564  -4.723   0.675  0.00  0.00     0.077 C 
ATOM      2  C1' PXY d   1       0.419   0.467  -1.599  0.00  0.00     0.077 C 
ATOM      3  C1  PXY d   1       0.729  -0.896  -1.011  0.00  0.00    -0.082 A 
ATOM      4  C2  PXY d   1      -0.223  -1.572  -0.389  0.00  0.00     0.003 A 
ATOM      5  C3  PXY d   1       0.048  -2.791   0.176  0.00  0.00     0.003 A 
ATOM      6  C4  PXY d   1       1.294  -3.348   0.058  0.00  0.00    -0.082 A 
ATOM      7  C5  PXY d   1       2.268  -2.669  -0.584  0.00  0.00     0.003 A 
ATOM      8  C6  PXY d   1       1.983  -1.415  -1.115  0.00  0.00     0.003 A 
ENDROOT
TORSDOF 0
ENDMDL
