MODEL 1
REMARK minimizedAffinity -4.51348877
REMARK minimizedRMSD -1
REMARK  0 active torsions:
REMARK  status: ('A' for Active; 'I' for Inactive)
ROOT
ATOM      1  C4' PXY d   1       1.457  -5.701   1.229  0.00  0.00     0.077 C 
ATOM      2  C1' PXY d   1       0.805  -0.371  -0.909  0.00  0.00     0.077 C 
ATOM      3  C1  PXY d   1       0.965  -1.767  -0.341  0.00  0.00    -0.082 A 
ATOM      4  C2  PXY d   1       2.162  -2.329  -0.315  0.00  0.00     0.003 A 
ATOM      5  C3  PXY d   1       2.320  -3.604   0.165  0.00  0.00     0.003 A 
ATOM      6  C4  PXY d   1       1.250  -4.290   0.674  0.00  0.00    -0.082 A 
ATOM      7  C5  PXY d   1       0.027  -3.719   0.661  0.00  0.00     0.003 A 
ATOM      8  C6  PXY d   1      -0.119  -2.440   0.131  0.00  0.00     0.003 A 
ENDROOT
TORSDOF 0
ENDMDL
