MODEL 1
REMARK minimizedAffinity -2.69575
REMARK minimizedRMSD -1
REMARK  0 active torsions:
REMARK  status: ('A' for Active; 'I' for Inactive)
ROOT
ATOM      1  C4' PXY d   1       0.635   0.251  -1.013  0.00  0.00     0.077 C 
ATOM      2  C1' PXY d   1       0.596  -5.145   1.059  0.00  0.00     0.077 C 
ATOM      3  C1  PXY d   1       0.594  -3.732   0.511  0.00  0.00    -0.082 A 
ATOM      4  C2  PXY d   1       1.744  -3.125   0.262  0.00  0.00     0.003 A 
ATOM      5  C3  PXY d   1       1.761  -1.836  -0.204  0.00  0.00     0.003 A 
ATOM      6  C4  PXY d   1       0.589  -1.179  -0.468  0.00  0.00    -0.082 A 
ATOM      7  C5  PXY d   1      -0.588  -1.795  -0.227  0.00  0.00     0.003 A 
ATOM      8  C6  PXY d   1      -0.584  -3.089   0.285  0.00  0.00     0.003 A 
ENDROOT
TORSDOF 0
ENDMDL
