MODEL 1
REMARK minimizedAffinity 4.17651749
REMARK minimizedRMSD -1
REMARK  0 active torsions:
REMARK  status: ('A' for Active; 'I' for Inactive)
ROOT
ATOM      1  C4' PXY d   1       0.343   1.182  -1.484  0.00  0.00     0.077 C 
ATOM      2  C1' PXY d   1       2.166  -4.091   0.027  0.00  0.00     0.077 C 
ATOM      3  C1  PXY d   1       1.676  -2.713  -0.371  0.00  0.00    -0.082 A 
ATOM      4  C2  PXY d   1       2.545  -1.804  -0.784  0.00  0.00     0.003 A 
ATOM      5  C3  PXY d   1       2.123  -0.542  -1.118  0.00  0.00     0.003 A 
ATOM      6  C4  PXY d   1       0.792  -0.225  -1.080  0.00  0.00    -0.082 A 
ATOM      7  C5  PXY d   1      -0.102  -1.150  -0.671  0.00  0.00     0.003 A 
ATOM      8  C6  PXY d   1       0.352  -2.412  -0.297  0.00  0.00     0.003 A 
ENDROOT
TORSDOF 0
ENDMDL
