MODEL 1
REMARK minimizedAffinity -0.822808325
REMARK minimizedRMSD -1
REMARK  0 active torsions:
REMARK  status: ('A' for Active; 'I' for Inactive)
ROOT
ATOM      1  C4' PXY d   1      -5.999  -0.728   1.556  0.00  0.00     0.077 C 
ATOM      2  C1' PXY d   1      -1.982   0.291   5.586  0.00  0.00     0.077 C 
ATOM      3  C1  PXY d   1      -3.026   0.022   4.521  0.00  0.00    -0.082 A 
ATOM      4  C2  PXY d   1      -4.243   0.524   4.656  0.00  0.00     0.003 A 
ATOM      5  C3  PXY d   1      -5.209   0.263   3.717  0.00  0.00     0.003 A 
ATOM      6  C4  PXY d   1      -4.911  -0.474   2.603  0.00  0.00    -0.082 A 
ATOM      7  C5  PXY d   1      -3.668  -0.980   2.452  0.00  0.00     0.003 A 
ATOM      8  C6  PXY d   1      -2.714  -0.739   3.437  0.00  0.00     0.003 A 
ENDROOT
TORSDOF 0
ENDMDL
