MODEL 1
REMARK minimizedAffinity 0.425894618
REMARK minimizedRMSD -1
REMARK  0 active torsions:
REMARK  status: ('A' for Active; 'I' for Inactive)
ROOT
ATOM      1  C4' PXY d   1       1.480  -5.175   1.273  0.00  0.00     0.077 C 
ATOM      2  C1' PXY d   1       0.736  -0.013  -1.221  0.00  0.00     0.077 C 
ATOM      3  C1  PXY d   1       0.941  -1.369  -0.575  0.00  0.00    -0.082 A 
ATOM      4  C2  PXY d   1      -0.079  -1.976   0.010  0.00  0.00     0.003 A 
ATOM      5  C3  PXY d   1       0.097  -3.188   0.628  0.00  0.00     0.003 A 
ATOM      6  C4  PXY d   1       1.316  -3.809   0.599  0.00  0.00    -0.082 A 
ATOM      7  C5  PXY d   1       2.359  -3.201  -0.005  0.00  0.00     0.003 A 
ATOM      8  C6  PXY d   1       2.170  -1.953  -0.590  0.00  0.00     0.003 A 
ENDROOT
TORSDOF 0
ENDMDL
