MODEL 1
REMARK minimizedAffinity -3.14961553
REMARK minimizedRMSD -1
REMARK  0 active torsions:
REMARK  status: ('A' for Active; 'I' for Inactive)
ROOT
ATOM      1  C4' PXY d   1       0.478  -4.800   0.642  0.00  0.00     0.077 C 
ATOM      2  C1' PXY d   1       0.567   0.726  -1.053  0.00  0.00     0.077 C 
ATOM      3  C1  PXY d   1       0.531  -0.722  -0.606  0.00  0.00    -0.082 A 
ATOM      4  C2  PXY d   1       1.635  -1.295  -0.154  0.00  0.00     0.003 A 
ATOM      5  C3  PXY d   1       1.627  -2.613   0.224  0.00  0.00     0.003 A 
ATOM      6  C4  PXY d   1       0.466  -3.337   0.189  0.00  0.00    -0.082 A 
ATOM      7  C5  PXY d   1      -0.667  -2.757  -0.260  0.00  0.00     0.003 A 
ATOM      8  C6  PXY d   1      -0.629  -1.429  -0.678  0.00  0.00     0.003 A 
ENDROOT
TORSDOF 0
ENDMDL
