MODEL 1
REMARK minimizedAffinity -0.964587867
REMARK minimizedRMSD -1
REMARK  0 active torsions:
REMARK  status: ('A' for Active; 'I' for Inactive)
ROOT
ATOM      1  C4' PXY d   1      -3.261   3.302  -0.386  0.00  0.00     0.077 C 
ATOM      2  C1' PXY d   1      -4.926  -1.185   2.855  0.00  0.00     0.077 C 
ATOM      3  C1  PXY d   1      -4.489  -0.016   1.994  0.00  0.00    -0.082 A 
ATOM      4  C2  PXY d   1      -3.864   1.008   2.551  0.00  0.00     0.003 A 
ATOM      5  C3  PXY d   1      -3.491   2.088   1.793  0.00  0.00     0.003 A 
ATOM      6  C4  PXY d   1      -3.712   2.096   0.442  0.00  0.00    -0.082 A 
ATOM      7  C5  PXY d   1      -4.340   1.050  -0.135  0.00  0.00     0.003 A 
ATOM      8  C6  PXY d   1      -4.748  -0.018   0.658  0.00  0.00     0.003 A 
ENDROOT
TORSDOF 0
ENDMDL
