MODEL 1
REMARK minimizedAffinity 1.9443177
REMARK minimizedRMSD -1
REMARK  0 active torsions:
REMARK  status: ('A' for Active; 'I' for Inactive)
ROOT
ATOM      1  C4' PXY d   1       3.026  -0.886  -0.801  0.00  0.00     0.077 C 
ATOM      2  C1' PXY d   1       1.320  -6.000   1.286  0.00  0.00     0.077 C 
ATOM      3  C1  PXY d   1       1.770  -4.655   0.750  0.00  0.00    -0.082 A 
ATOM      4  C2  PXY d   1       1.294  -4.217  -0.404  0.00  0.00     0.003 A 
ATOM      5  C3  PXY d   1       1.715  -3.018  -0.918  0.00  0.00     0.003 A 
ATOM      6  C4  PXY d   1       2.592  -2.234  -0.218  0.00  0.00    -0.082 A 
ATOM      7  C5  PXY d   1       3.074  -2.668   0.966  0.00  0.00     0.003 A 
ATOM      8  C6  PXY d   1       2.666  -3.907   1.451  0.00  0.00     0.003 A 
ENDROOT
TORSDOF 0
ENDMDL
