MODEL 1
REMARK minimizedAffinity -5.63042259
REMARK minimizedRMSD -1
REMARK  0 active torsions:
REMARK  status: ('A' for Active; 'I' for Inactive)
ROOT
ATOM      1  C4' PXY d   1       0.870  -0.443  -0.567  0.00  0.00     0.077 C 
ATOM      2  C1' PXY d   1       1.304  -5.952   1.129  0.00  0.00     0.077 C 
ATOM      3  C1  PXY d   1       1.202  -4.505   0.689  0.00  0.00    -0.082 A 
ATOM      4  C2  PXY d   1       0.012  -3.942   0.563  0.00  0.00     0.003 A 
ATOM      5  C3  PXY d   1      -0.100  -2.644   0.135  0.00  0.00     0.003 A 
ATOM      6  C4  PXY d   1       1.021  -1.899  -0.116  0.00  0.00    -0.082 A 
ATOM      7  C5  PXY d   1       2.239  -2.463   0.020  0.00  0.00     0.003 A 
ATOM      8  C6  PXY d   1       2.330  -3.794   0.416  0.00  0.00     0.003 A 
ENDROOT
TORSDOF 0
ENDMDL
