MODEL 1
REMARK minimizedAffinity -5.4374094
REMARK minimizedRMSD -1
REMARK  0 active torsions:
REMARK  status: ('A' for Active; 'I' for Inactive)
ROOT
ATOM      1  C4' PXY d   1       0.702   0.223  -1.428  0.00  0.00     0.077 C 
ATOM      2  C1' PXY d   1       0.518  -4.748   1.516  0.00  0.00     0.077 C 
ATOM      3  C1  PXY d   1       0.579  -3.443   0.747  0.00  0.00    -0.082 A 
ATOM      4  C2  PXY d   1      -0.530  -2.749   0.547  0.00  0.00     0.003 A 
ATOM      5  C3  PXY d   1      -0.498  -1.583  -0.174  0.00  0.00     0.003 A 
ATOM      6  C4  PXY d   1       0.689  -1.095  -0.649  0.00  0.00    -0.082 A 
ATOM      7  C5  PXY d   1       1.826  -1.792  -0.441  0.00  0.00     0.003 A 
ATOM      8  C6  PXY d   1       1.766  -2.994   0.258  0.00  0.00     0.003 A 
ENDROOT
TORSDOF 0
ENDMDL
