MODEL 1
REMARK minimizedAffinity -5.07261562
REMARK minimizedRMSD -1
REMARK  0 active torsions:
REMARK  status: ('A' for Active; 'I' for Inactive)
ROOT
ATOM      1  C1  BNZ d   1      -1.958   0.368   2.237  0.00  0.00     0.000 A 
ATOM      2  C2  BNZ d   1      -1.621  -0.746   1.515  0.00  0.00     0.000 A 
ATOM      3  C3  BNZ d   1      -0.475  -0.776   0.770  0.00  0.00     0.000 A 
ATOM      4  C4  BNZ d   1       0.310   0.319   0.716  0.00  0.00     0.000 A 
ATOM      5  C5  BNZ d   1      -0.021   1.453   1.431  0.00  0.00     0.000 A 
ATOM      6  C6  BNZ d   1      -1.155   1.467   2.210  0.00  0.00     0.000 A 
ENDROOT
TORSDOF 0
ENDMDL
