MODEL 1
REMARK minimizedAffinity -3.46160245
REMARK minimizedRMSD -1
REMARK  0 active torsions:
REMARK  status: ('A' for Active; 'I' for Inactive)
ROOT
ATOM      1  C1  BNZ d   1      -0.499   1.515   1.902  0.00  0.00     0.000 A 
ATOM      2  C2  BNZ d   1      -1.798   1.899   2.103  0.00  0.00     0.000 A 
ATOM      3  C3  BNZ d   1      -2.747   0.988   2.476  0.00  0.00     0.000 A 
ATOM      4  C4  BNZ d   1      -2.405  -0.310   2.607  0.00  0.00     0.000 A 
ATOM      5  C5  BNZ d   1      -1.101  -0.714   2.399  0.00  0.00     0.000 A 
ATOM      6  C6  BNZ d   1      -0.140   0.212   2.062  0.00  0.00     0.000 A 
ENDROOT
TORSDOF 0
ENDMDL
