MODEL 1
REMARK minimizedAffinity -3.00789356
REMARK minimizedRMSD -1
REMARK  0 active torsions:
REMARK  status: ('A' for Active; 'I' for Inactive)
ROOT
ATOM      1  C1  BNZ d   1      -1.723   0.137   1.935  0.00  0.00     0.000 A 
ATOM      2  C2  BNZ d   1      -0.591  -0.572   1.634  0.00  0.00     0.000 A 
ATOM      3  C3  BNZ d   1       0.532   0.062   1.181  0.00  0.00     0.000 A 
ATOM      4  C4  BNZ d   1       0.509   1.397   0.992  0.00  0.00     0.000 A 
ATOM      5  C5  BNZ d   1      -0.628   2.125   1.282  0.00  0.00     0.000 A 
ATOM      6  C6  BNZ d   1      -1.744   1.488   1.775  0.00  0.00     0.000 A 
ENDROOT
TORSDOF 0
ENDMDL
