MODEL 1
REMARK minimizedAffinity -1.8042891
REMARK minimizedRMSD -1
REMARK  0 active torsions:
REMARK  status: ('A' for Active; 'I' for Inactive)
ROOT
ATOM      1  C1  BNZ d   1      -2.051   0.213   1.756  0.00  0.00     0.000 A 
ATOM      2  C2  BNZ d   1      -3.130   0.139   2.596  0.00  0.00     0.000 A 
ATOM      3  C3  BNZ d   1      -3.485   1.205   3.375  0.00  0.00     0.000 A 
ATOM      4  C4  BNZ d   1      -2.737   2.327   3.344  0.00  0.00     0.000 A 
ATOM      5  C5  BNZ d   1      -1.641   2.413   2.510  0.00  0.00     0.000 A 
ATOM      6  C6  BNZ d   1      -1.310   1.353   1.698  0.00  0.00     0.000 A 
ENDROOT
TORSDOF 0
ENDMDL
