MODEL 1
REMARK minimizedAffinity -4.64096165
REMARK minimizedRMSD -1
REMARK  0 active torsions:
REMARK  status: ('A' for Active; 'I' for Inactive)
ROOT
ATOM      1  C1  BNZ d   1      -1.762   1.333   2.848  0.00  0.00     0.000 A 
ATOM      2  C2  BNZ d   1      -0.788   0.675   2.145  0.00  0.00     0.000 A 
ATOM      3  C3  BNZ d   1      -0.018   1.336   1.229  0.00  0.00     0.000 A 
ATOM      4  C4  BNZ d   1      -0.250   2.642   0.988  0.00  0.00     0.000 A 
ATOM      5  C5  BNZ d   1      -1.234   3.318   1.682  0.00  0.00     0.000 A 
ATOM      6  C6  BNZ d   1      -1.981   2.659   2.632  0.00  0.00     0.000 A 
ENDROOT
TORSDOF 0
ENDMDL
