MODEL 1
REMARK minimizedAffinity 0.281339616
REMARK minimizedRMSD -1
REMARK  0 active torsions:
REMARK  status: ('A' for Active; 'I' for Inactive)
ROOT
ATOM      1  C1  BNZ d   1       1.095   0.013   0.760  0.00  0.00     0.000 A 
ATOM      2  C2  BNZ d   1       0.200  -0.774   1.434  0.00  0.00     0.000 A 
ATOM      3  C3  BNZ d   1      -0.851  -0.219   2.108  0.00  0.00     0.000 A 
ATOM      4  C4  BNZ d   1      -0.984   1.123   2.140  0.00  0.00     0.000 A 
ATOM      5  C5  BNZ d   1      -0.086   1.930   1.472  0.00  0.00     0.000 A 
ATOM      6  C6  BNZ d   1       0.950   1.366   0.763  0.00  0.00     0.000 A 
ENDROOT
TORSDOF 0
ENDMDL
