MODEL 1
REMARK minimizedAffinity -4.76050949
REMARK minimizedRMSD -1
REMARK  0 active torsions:
REMARK  status: ('A' for Active; 'I' for Inactive)
ROOT
ATOM      1  C1  BNZ d   1       0.737   0.561   0.619  0.00  0.00     0.000 A 
ATOM      2  C2  BNZ d   1      -0.381  -0.219   0.749  0.00  0.00     0.000 A 
ATOM      3  C3  BNZ d   1      -1.394   0.146   1.592  0.00  0.00     0.000 A 
ATOM      4  C4  BNZ d   1      -1.270   1.267   2.331  0.00  0.00     0.000 A 
ATOM      5  C5  BNZ d   1      -0.145   2.058   2.218  0.00  0.00     0.000 A 
ATOM      6  C6  BNZ d   1       0.855   1.709   1.340  0.00  0.00     0.000 A 
ENDROOT
TORSDOF 0
ENDMDL
