MODEL 1
REMARK minimizedAffinity -1.81457102
REMARK minimizedRMSD -1
REMARK  0 active torsions:
REMARK  status: ('A' for Active; 'I' for Inactive)
ROOT
ATOM      1  C1  BNZ d   1      -0.426   0.757   1.314  0.00  0.00     0.000 A 
ATOM      2  C2  BNZ d   1      -0.460   2.098   1.593  0.00  0.00     0.000 A 
ATOM      3  C3  BNZ d   1      -1.389   2.610   2.455  0.00  0.00     0.000 A 
ATOM      4  C4  BNZ d   1      -2.306   1.789   3.006  0.00  0.00     0.000 A 
ATOM      5  C5  BNZ d   1      -2.290   0.436   2.728  0.00  0.00     0.000 A 
ATOM      6  C6  BNZ d   1      -1.330  -0.082   1.890  0.00  0.00     0.000 A 
ENDROOT
TORSDOF 0
ENDMDL
