MODEL 1
REMARK minimizedAffinity -5.21457434
REMARK minimizedRMSD -1
REMARK  0 active torsions:
REMARK  status: ('A' for Active; 'I' for Inactive)
ROOT
ATOM      1  C1  BNZ d   1      -0.071   0.115   1.172  0.00  0.00     0.000 A 
ATOM      2  C2  BNZ d   1      -1.112  -0.694   1.544  0.00  0.00     0.000 A 
ATOM      3  C3  BNZ d   1      -2.288  -0.160   1.992  0.00  0.00     0.000 A 
ATOM      4  C4  BNZ d   1      -2.407   1.179   2.107  0.00  0.00     0.000 A 
ATOM      5  C5  BNZ d   1      -1.363   2.007   1.745  0.00  0.00     0.000 A 
ATOM      6  C6  BNZ d   1      -0.195   1.468   1.257  0.00  0.00     0.000 A 
ENDROOT
TORSDOF 0
ENDMDL
