MODEL 1
REMARK minimizedAffinity -4.26213503
REMARK minimizedRMSD -1
REMARK  0 active torsions:
REMARK  status: ('A' for Active; 'I' for Inactive)
ROOT
ATOM      1  C1  BNZ d   1      -2.558   1.860   2.577  0.00  0.00     0.000 A 
ATOM      2  C2  BNZ d   1      -2.545   0.496   2.448  0.00  0.00     0.000 A 
ATOM      3  C3  BNZ d   1      -1.528  -0.134   1.788  0.00  0.00     0.000 A 
ATOM      4  C4  BNZ d   1      -0.548   0.600   1.224  0.00  0.00     0.000 A 
ATOM      5  C5  BNZ d   1      -0.552   1.976   1.338  0.00  0.00     0.000 A 
ATOM      6  C6  BNZ d   1      -1.557   2.605   2.036  0.00  0.00     0.000 A 
ENDROOT
TORSDOF 0
ENDMDL
