MODEL 1
REMARK minimizedAffinity -2.56885815
REMARK minimizedRMSD -1
REMARK  0 active torsions:
REMARK  status: ('A' for Active; 'I' for Inactive)
ROOT
ATOM      1  C1  BNZ d   1      -1.013   2.257   2.352  0.00  0.00     0.000 A 
ATOM      2  C2  BNZ d   1      -2.214   2.601   2.913  0.00  0.00     0.000 A 
ATOM      3  C3  BNZ d   1      -3.194   1.666   3.099  0.00  0.00     0.000 A 
ATOM      4  C4  BNZ d   1      -2.987   0.398   2.689  0.00  0.00     0.000 A 
ATOM      5  C5  BNZ d   1      -1.785   0.037   2.113  0.00  0.00     0.000 A 
ATOM      6  C6  BNZ d   1      -0.787   0.973   1.962  0.00  0.00     0.000 A 
ENDROOT
TORSDOF 0
ENDMDL
