MODEL 1
REMARK minimizedAffinity -3.00915909
REMARK minimizedRMSD -1
REMARK  0 active torsions:
REMARK  status: ('A' for Active; 'I' for Inactive)
ROOT
ATOM      1  C1  BNZ d   1      -1.378   2.434   2.589  0.00  0.00     0.000 A 
ATOM      2  C2  BNZ d   1      -0.365   2.280   1.680  0.00  0.00     0.000 A 
ATOM      3  C3  BNZ d   1      -0.080   1.052   1.151  0.00  0.00     0.000 A 
ATOM      4  C4  BNZ d   1      -0.780  -0.025   1.561  0.00  0.00     0.000 A 
ATOM      5  C5  BNZ d   1      -1.798   0.112   2.484  0.00  0.00     0.000 A 
ATOM      6  C6  BNZ d   1      -2.107   1.356   2.985  0.00  0.00     0.000 A 
ENDROOT
TORSDOF 0
ENDMDL
