MODEL 1
REMARK minimizedAffinity -1.79324591
REMARK minimizedRMSD -1
REMARK  0 active torsions:
REMARK  status: ('A' for Active; 'I' for Inactive)
ROOT
ATOM      1  C1  BNZ d   1      -2.040   2.830   2.218  0.00  0.00     0.000 A 
ATOM      2  C2  BNZ d   1      -1.168   3.091   1.194  0.00  0.00     0.000 A 
ATOM      3  C3  BNZ d   1      -0.361   2.108   0.694  0.00  0.00     0.000 A 
ATOM      4  C4  BNZ d   1      -0.398   0.877   1.243  0.00  0.00     0.000 A 
ATOM      5  C5  BNZ d   1      -1.265   0.600   2.281  0.00  0.00     0.000 A 
ATOM      6  C6  BNZ d   1      -2.104   1.582   2.757  0.00  0.00     0.000 A 
ENDROOT
TORSDOF 0
ENDMDL
