MODEL 1
REMARK minimizedAffinity -4.7207799
REMARK minimizedRMSD -1
REMARK  2 active torsions:
REMARK  status: ('A' for Active; 'I' for Inactive)
REMARK    1  A    between atoms: C1_2  and  C2_3 
REMARK    2  A    between atoms: C2_3  and  C3_4 
ROOT
ATOM      1  C3  UNL d   1       0.090  -0.083  -0.019  0.00  0.00    -0.075 A 
ATOM      2  C4  UNL d   1      -0.979   0.551   0.629  0.00  0.00     0.002 A 
ATOM      3  C5  UNL d   1      -0.925   1.915   0.915  0.00  0.00     0.002 A 
ATOM      4  C6  UNL d   1       0.200   2.659   0.567  0.00  0.00    -0.004 A 
ATOM      5  C7  UNL d   1       1.275   2.036  -0.063  0.00  0.00     0.002 A 
ATOM      6  C8  UNL d   1       1.222   0.672  -0.355  0.00  0.00     0.002 A 
ENDROOT
BRANCH   1   7
ATOM      7  C2  UNL d   1       0.026  -1.554  -0.358  0.00  0.00     0.056 C 
BRANCH   7   8
ATOM      8  C1  UNL d   1       0.038  -1.848  -1.862  0.00  0.00     0.007 C 
ATOM      9  C   UNL d   1      -0.356  -3.281  -2.196  0.00  0.00     0.009 C 
ENDBRANCH   7   8
ENDBRANCH   1   7
TORSDOF 2
ENDMDL
