MODEL 1
REMARK minimizedAffinity -4.66179895
REMARK minimizedRMSD -1
REMARK  2 active torsions:
REMARK  status: ('A' for Active; 'I' for Inactive)
REMARK    1  A    between atoms: C1_2  and  C2_3 
REMARK    2  A    between atoms: C2_3  and  C3_4 
ROOT
ATOM      1  C3  UNL d   1       0.011  -0.226   0.114  0.00  0.00    -0.075 A 
ATOM      2  C4  UNL d   1       0.876   0.850  -0.132  0.00  0.00     0.002 A 
ATOM      3  C5  UNL d   1       0.450   2.163   0.070  0.00  0.00     0.002 A 
ATOM      4  C6  UNL d   1      -0.847   2.417   0.510  0.00  0.00    -0.004 A 
ATOM      5  C7  UNL d   1      -1.721   1.357   0.743  0.00  0.00     0.002 A 
ATOM      6  C8  UNL d   1      -1.295   0.042   0.545  0.00  0.00     0.002 A 
ENDROOT
BRANCH   1   7
ATOM      7  C2  UNL d   1       0.476  -1.650  -0.074  0.00  0.00     0.056 C 
BRANCH   7   8
ATOM      8  C1  UNL d   1      -0.573  -2.569  -0.709  0.00  0.00     0.007 C 
ATOM      9  C   UNL d   1      -0.172  -3.074  -2.089  0.00  0.00     0.009 C 
ENDBRANCH   7   8
ENDBRANCH   1   7
TORSDOF 2
ENDMDL
