MODEL 1
REMARK minimizedAffinity -2.46987581
REMARK minimizedRMSD -1
REMARK  2 active torsions:
REMARK  status: ('A' for Active; 'I' for Inactive)
REMARK    1  A    between atoms: C1_2  and  C2_3 
REMARK    2  A    between atoms: C2_3  and  C3_4 
ROOT
ATOM      1  C3  UNL d   1      -0.157  -1.112  -0.815  0.00  0.00    -0.075 A 
ATOM      2  C4  UNL d   1       0.425  -0.712   0.397  0.00  0.00     0.002 A 
ATOM      3  C5  UNL d   1      -0.119   0.343   1.130  0.00  0.00     0.002 A 
ATOM      4  C6  UNL d   1      -1.243   1.017   0.657  0.00  0.00    -0.004 A 
ATOM      5  C7  UNL d   1      -1.820   0.639  -0.554  0.00  0.00     0.002 A 
ATOM      6  C8  UNL d   1      -1.280  -0.420  -1.287  0.00  0.00     0.002 A 
ENDROOT
BRANCH   1   7
ATOM      7  C2  UNL d   1       0.410  -2.272  -1.598  0.00  0.00     0.056 C 
BRANCH   7   8
ATOM      8  C1  UNL d   1      -0.588  -3.411  -1.836  0.00  0.00     0.007 C 
ATOM      9  C   UNL d   1      -1.348  -3.815  -0.580  0.00  0.00     0.009 C 
ENDBRANCH   7   8
ENDBRANCH   1   7
TORSDOF 2
ENDMDL
