MODEL 1
REMARK minimizedAffinity -4.5924449
REMARK minimizedRMSD -1
REMARK  2 active torsions:
REMARK  status: ('A' for Active; 'I' for Inactive)
REMARK    1  A    between atoms: C1_2  and  C2_3 
REMARK    2  A    between atoms: C2_3  and  C3_4 
ROOT
ATOM      1  C3  UNL d   1      -0.296  -0.368   0.168  0.00  0.00    -0.075 A 
ATOM      2  C4  UNL d   1      -1.566  -0.040   0.664  0.00  0.00     0.002 A 
ATOM      3  C5  UNL d   1      -1.925   1.293   0.866  0.00  0.00     0.002 A 
ATOM      4  C6  UNL d   1      -1.018   2.312   0.586  0.00  0.00    -0.004 A 
ATOM      5  C7  UNL d   1       0.253   1.997   0.109  0.00  0.00     0.002 A 
ATOM      6  C8  UNL d   1       0.613   0.665  -0.099  0.00  0.00     0.002 A 
ENDROOT
BRANCH   1   7
ATOM      7  C2  UNL d   1       0.088  -1.807  -0.081  0.00  0.00     0.056 C 
BRANCH   7   8
ATOM      8  C1  UNL d   1      -0.269  -2.314  -1.482  0.00  0.00     0.007 C 
ATOM      9  C   UNL d   1      -0.805  -3.739  -1.485  0.00  0.00     0.009 C 
ENDBRANCH   7   8
ENDBRANCH   1   7
TORSDOF 2
ENDMDL
