MODEL 1
REMARK minimizedAffinity -3.20463562
REMARK minimizedRMSD -1
REMARK  2 active torsions:
REMARK  status: ('A' for Active; 'I' for Inactive)
REMARK    1  A    between atoms: C1_2  and  C2_3 
REMARK    2  A    between atoms: C2_3  and  C3_4 
ROOT
ATOM      1  C3  UNL d   1       0.144  -1.460  -0.919  0.00  0.00    -0.075 A 
ATOM      2  C4  UNL d   1       0.034  -1.575   0.474  0.00  0.00     0.002 A 
ATOM      3  C5  UNL d   1      -0.311  -0.469   1.251  0.00  0.00     0.002 A 
ATOM      4  C6  UNL d   1      -0.540   0.766   0.648  0.00  0.00    -0.004 A 
ATOM      5  C7  UNL d   1      -0.417   0.896  -0.733  0.00  0.00     0.002 A 
ATOM      6  C8  UNL d   1      -0.076  -0.210  -1.514  0.00  0.00     0.002 A 
ENDROOT
BRANCH   1   7
ATOM      7  C2  UNL d   1       0.488  -2.659  -1.769  0.00  0.00     0.056 C 
BRANCH   7   8
ATOM      8  C1  UNL d   1      -0.593  -3.745  -1.782  0.00  0.00     0.007 C 
ATOM      9  C   UNL d   1      -1.935  -3.250  -2.305  0.00  0.00     0.009 C 
ENDBRANCH   7   8
ENDBRANCH   1   7
TORSDOF 2
ENDMDL
