MODEL 1
REMARK minimizedAffinity -3.36737299
REMARK minimizedRMSD -1
REMARK  2 active torsions:
REMARK  status: ('A' for Active; 'I' for Inactive)
REMARK    1  A    between atoms: C1_2  and  C2_3 
REMARK    2  A    between atoms: C2_3  and  C3_4 
ROOT
ATOM      1  C3  UNL d   1      -0.436  -1.756  -1.693  0.00  0.00    -0.075 A 
ATOM      2  C4  UNL d   1      -0.050  -2.090  -0.387  0.00  0.00     0.002 A 
ATOM      3  C5  UNL d   1      -0.101  -1.138   0.632  0.00  0.00     0.002 A 
ATOM      4  C6  UNL d   1      -0.528   0.159   0.356  0.00  0.00    -0.004 A 
ATOM      5  C7  UNL d   1      -0.898   0.506  -0.942  0.00  0.00     0.002 A 
ATOM      6  C8  UNL d   1      -0.852  -0.446  -1.962  0.00  0.00     0.002 A 
ENDROOT
BRANCH   1   7
ATOM      7  C2  UNL d   1      -0.411  -2.790  -2.794  0.00  0.00     0.056 C 
BRANCH   7   8
ATOM      8  C1  UNL d   1      -0.825  -4.194  -2.340  0.00  0.00     0.007 C 
ATOM      9  C   UNL d   1      -2.181  -4.225  -1.648  0.00  0.00     0.009 C 
ENDBRANCH   7   8
ENDBRANCH   1   7
TORSDOF 2
ENDMDL
