MODEL 1
REMARK minimizedAffinity -2.2632966
REMARK minimizedRMSD -1
REMARK  2 active torsions:
REMARK  status: ('A' for Active; 'I' for Inactive)
REMARK    1  A    between atoms: C1_2  and  C2_3 
REMARK    2  A    between atoms: C2_3  and  C3_4 
ROOT
ATOM      1  C3  UNL d   1       0.732   1.059   0.224  0.00  0.00    -0.075 A 
ATOM      2  C4  UNL d   1       2.126   1.001   0.366  0.00  0.00     0.002 A 
ATOM      3  C5  UNL d   1       2.819   2.043   0.984  0.00  0.00     0.002 A 
ATOM      4  C6  UNL d   1       2.130   3.158   1.457  0.00  0.00    -0.004 A 
ATOM      5  C7  UNL d   1       0.747   3.234   1.306  0.00  0.00     0.002 A 
ATOM      6  C8  UNL d   1       0.051   2.191   0.692  0.00  0.00     0.002 A 
ENDROOT
BRANCH   1   7
ATOM      7  C2  UNL d   1      -0.027  -0.078  -0.417  0.00  0.00     0.056 C 
BRANCH   7   8
ATOM      8  C1  UNL d   1      -0.144  -1.325   0.465  0.00  0.00     0.007 C 
ATOM      9  C   UNL d   1      -0.957  -2.441  -0.178  0.00  0.00     0.009 C 
ENDBRANCH   7   8
ENDBRANCH   1   7
TORSDOF 2
ENDMDL
