MODEL 1
REMARK minimizedAffinity -4.22412109
REMARK minimizedRMSD -1
REMARK  2 active torsions:
REMARK  status: ('A' for Active; 'I' for Inactive)
REMARK    1  A    between atoms: C1_2  and  C2_3 
REMARK    2  A    between atoms: C2_3  and  C3_4 
ROOT
ATOM      1  C3  UNL d   1      -0.517  -0.874  -0.229  0.00  0.00    -0.075 A 
ATOM      2  C4  UNL d   1      -1.744  -0.452  -0.760  0.00  0.00     0.002 A 
ATOM      3  C5  UNL d   1      -2.255   0.809  -0.449  0.00  0.00     0.002 A 
ATOM      4  C6  UNL d   1      -1.551   1.657   0.403  0.00  0.00    -0.004 A 
ATOM      5  C7  UNL d   1      -0.338   1.242   0.949  0.00  0.00     0.002 A 
ATOM      6  C8  UNL d   1       0.177  -0.017   0.636  0.00  0.00     0.002 A 
ENDROOT
BRANCH   1   7
ATOM      7  C2  UNL d   1       0.056  -2.225  -0.585  0.00  0.00     0.056 C 
BRANCH   7   8
ATOM      8  C1  UNL d   1      -0.993  -3.247  -1.037  0.00  0.00     0.007 C 
ATOM      9  C   UNL d   1      -0.773  -3.745  -2.459  0.00  0.00     0.009 C 
ENDBRANCH   7   8
ENDBRANCH   1   7
TORSDOF 2
ENDMDL
