MODEL 1
REMARK minimizedAffinity -3.25653982
REMARK minimizedRMSD -1
REMARK  2 active torsions:
REMARK  status: ('A' for Active; 'I' for Inactive)
REMARK    1  A    between atoms: C1_2  and  C2_3 
REMARK    2  A    between atoms: C2_3  and  C3_4 
ROOT
ATOM      1  C3  UNL d   1       0.157   0.247   0.225  0.00  0.00    -0.075 A 
ATOM      2  C4  UNL d   1      -0.905   1.144   0.412  0.00  0.00     0.002 A 
ATOM      3  C5  UNL d   1      -0.748   2.499   0.119  0.00  0.00     0.002 A 
ATOM      4  C6  UNL d   1       0.472   2.975  -0.354  0.00  0.00    -0.004 A 
ATOM      5  C7  UNL d   1       1.539   2.097  -0.528  0.00  0.00     0.002 A 
ATOM      6  C8  UNL d   1       1.384   0.740  -0.239  0.00  0.00     0.002 A 
ENDROOT
BRANCH   1   7
ATOM      7  C2  UNL d   1      -0.015  -1.225   0.513  0.00  0.00     0.056 C 
BRANCH   7   8
ATOM      8  C1  UNL d   1      -0.095  -2.101  -0.742  0.00  0.00     0.007 C 
ATOM      9  C   UNL d   1      -1.031  -3.291  -0.585  0.00  0.00     0.009 C 
ENDBRANCH   7   8
ENDBRANCH   1   7
TORSDOF 2
ENDMDL
