MODEL 1
REMARK minimizedAffinity -1.13841832
REMARK minimizedRMSD -1
REMARK  2 active torsions:
REMARK  status: ('A' for Active; 'I' for Inactive)
REMARK    1  A    between atoms: C1_2  and  C2_3 
REMARK    2  A    between atoms: C2_3  and  C3_4 
ROOT
ATOM      1  C3  UNL d   1       0.279   0.285   0.127  0.00  0.00    -0.075 A 
ATOM      2  C4  UNL d   1      -0.854   1.060   0.418  0.00  0.00     0.002 A 
ATOM      3  C5  UNL d   1      -0.721   2.305   1.033  0.00  0.00     0.002 A 
ATOM      4  C6  UNL d   1       0.541   2.786   1.375  0.00  0.00    -0.004 A 
ATOM      5  C7  UNL d   1       1.671   2.018   1.105  0.00  0.00     0.002 A 
ATOM      6  C8  UNL d   1       1.542   0.774   0.486  0.00  0.00     0.002 A 
ENDROOT
BRANCH   1   7
ATOM      7  C2  UNL d   1       0.144  -1.050  -0.565  0.00  0.00     0.056 C 
BRANCH   7   8
ATOM      8  C1  UNL d   1       0.102  -2.247   0.391  0.00  0.00     0.007 C 
ATOM      9  C   UNL d   1      -0.773  -3.386  -0.113  0.00  0.00     0.009 C 
ENDBRANCH   7   8
ENDBRANCH   1   7
TORSDOF 2
ENDMDL
