MODEL 1
REMARK minimizedAffinity 0.680882692
REMARK minimizedRMSD -1
REMARK  1 active torsions:
REMARK  status: ('A' for Active; 'I' for Inactive)
REMARK    1  A    between atoms: C1_2  and  C2_3 
ROOT
ATOM      1  C2  UNL d   1       0.088   1.042   0.702  0.00  0.00    -0.077 A 
ATOM      2  C3  UNL d   1      -1.084   0.546   0.114  0.00  0.00     0.002 A 
ATOM      3  C4  UNL d   1      -1.067  -0.664  -0.583  0.00  0.00     0.002 A 
ATOM      4  C5  UNL d   1       0.117  -1.389  -0.695  0.00  0.00    -0.004 A 
ATOM      5  C6  UNL d   1       1.288  -0.903  -0.116  0.00  0.00     0.002 A 
ATOM      6  C7  UNL d   1       1.274   0.306   0.580  0.00  0.00     0.002 A 
ENDROOT
BRANCH   1   7
ATOM      7  C1  UNL d   1       0.061   2.322   1.496  0.00  0.00     0.055 C 
ATOM      8  C   UNL d   1      -0.634   2.127   2.836  0.00  0.00     0.019 C 
ENDBRANCH   1   7
TORSDOF 1
ENDMDL
