MODEL 1
REMARK minimizedAffinity -4.70687914
REMARK minimizedRMSD -1
REMARK  1 active torsions:
REMARK  status: ('A' for Active; 'I' for Inactive)
REMARK    1  A    between atoms: C1_2  and  C2_3 
ROOT
ATOM      1  C2  UNL d   1      -0.270  -0.078  -1.300  0.00  0.00    -0.077 A 
ATOM      2  C3  UNL d   1      -1.523   0.228  -0.751  0.00  0.00     0.002 A 
ATOM      3  C4  UNL d   1      -1.674   0.366   0.630  0.00  0.00     0.002 A 
ATOM      4  C5  UNL d   1      -0.576   0.205   1.472  0.00  0.00    -0.004 A 
ATOM      5  C6  UNL d   1       0.674  -0.101   0.935  0.00  0.00     0.002 A 
ATOM      6  C7  UNL d   1       0.826  -0.241  -0.445  0.00  0.00     0.002 A 
ENDROOT
BRANCH   1   7
ATOM      7  C1  UNL d   1      -0.096  -0.178  -2.793  0.00  0.00     0.055 C 
ATOM      8  C   UNL d   1       1.376  -0.169  -3.180  0.00  0.00     0.019 C 
ENDBRANCH   1   7
TORSDOF 1
ENDMDL
