MODEL 1
REMARK minimizedAffinity -3.6068449
REMARK minimizedRMSD -1
REMARK  1 active torsions:
REMARK  status: ('A' for Active; 'I' for Inactive)
REMARK    1  A    between atoms: C1_2  and  C2_3 
ROOT
ATOM      1  C2  UNL d   1       0.812   0.216   1.620  0.00  0.00    -0.077 A 
ATOM      2  C3  UNL d   1       0.280   0.967   2.678  0.00  0.00     0.002 A 
ATOM      3  C4  UNL d   1      -1.102   1.112   2.816  0.00  0.00     0.002 A 
ATOM      4  C5  UNL d   1      -1.963   0.505   1.904  0.00  0.00    -0.004 A 
ATOM      5  C6  UNL d   1      -1.443  -0.242   0.848  0.00  0.00     0.002 A 
ATOM      6  C7  UNL d   1      -0.062  -0.387   0.707  0.00  0.00     0.002 A 
ENDROOT
BRANCH   1   7
ATOM      7  C1  UNL d   1       2.300   0.018   1.498  0.00  0.00     0.055 C 
ATOM      8  C   UNL d   1       2.640  -1.425   1.153  0.00  0.00     0.019 C 
ENDBRANCH   1   7
TORSDOF 1
ENDMDL
