MODEL 1
REMARK minimizedAffinity -1.65255213
REMARK minimizedRMSD -1
REMARK  1 active torsions:
REMARK  status: ('A' for Active; 'I' for Inactive)
REMARK    1  A    between atoms: C1_2  and  C2_3 
ROOT
ATOM      1  C2  UNL d   1       0.325   1.622   3.439  0.00  0.00    -0.077 A 
ATOM      2  C3  UNL d   1       0.550   1.021   4.685  0.00  0.00     0.002 A 
ATOM      3  C4  UNL d   1       0.071  -0.265   4.945  0.00  0.00     0.002 A 
ATOM      4  C5  UNL d   1      -0.631  -0.961   3.964  0.00  0.00    -0.004 A 
ATOM      5  C6  UNL d   1      -0.863  -0.370   2.722  0.00  0.00     0.002 A 
ATOM      6  C7  UNL d   1      -0.386   0.915   2.461  0.00  0.00     0.002 A 
ENDROOT
BRANCH   1   7
ATOM      7  C1  UNL d   1       0.883   2.989   3.139  0.00  0.00     0.055 C 
ATOM      8  C   UNL d   1       2.402   2.961   3.055  0.00  0.00     0.019 C 
ENDBRANCH   1   7
TORSDOF 1
ENDMDL
