MODEL 1
REMARK minimizedAffinity 7.0193553
REMARK minimizedRMSD -1
REMARK  1 active torsions:
REMARK  status: ('A' for Active; 'I' for Inactive)
REMARK    1  A    between atoms: C1_2  and  C2_3 
ROOT
ATOM      1  C2  UNL d   1       1.908  -2.284   4.142  0.00  0.00    -0.077 A 
ATOM      2  C3  UNL d   1       2.611  -3.077   3.224  0.00  0.00     0.002 A 
ATOM      3  C4  UNL d   1       2.678  -2.708   1.879  0.00  0.00     0.002 A 
ATOM      4  C5  UNL d   1       2.049  -1.545   1.442  0.00  0.00    -0.004 A 
ATOM      5  C6  UNL d   1       1.345  -0.751   2.347  0.00  0.00     0.002 A 
ATOM      6  C7  UNL d   1       1.276  -1.119   3.691  0.00  0.00     0.002 A 
ENDROOT
BRANCH   1   7
ATOM      7  C1  UNL d   1       1.875  -2.654   5.602  0.00  0.00     0.055 C 
ATOM      8  C   UNL d   1       3.102  -3.464   5.996  0.00  0.00     0.019 C 
ENDBRANCH   1   7
TORSDOF 1
ENDMDL
