MODEL 1
REMARK minimizedAffinity 10.7686062
REMARK minimizedRMSD -1
REMARK  1 active torsions:
REMARK  status: ('A' for Active; 'I' for Inactive)
REMARK    1  A    between atoms: C1_2  and  C2_3 
ROOT
ATOM      1  C2  UNL d   1      -0.138  -5.046  -0.569  0.00  0.00    -0.077 A 
ATOM      2  C3  UNL d   1       0.833  -4.562   0.319  0.00  0.00     0.002 A 
ATOM      3  C4  UNL d   1       2.136  -4.321  -0.122  0.00  0.00     0.002 A 
ATOM      4  C5  UNL d   1       2.478  -4.556  -1.452  0.00  0.00    -0.004 A 
ATOM      5  C6  UNL d   1       1.520  -5.039  -2.342  0.00  0.00     0.002 A 
ATOM      6  C7  UNL d   1       0.218  -5.282  -1.903  0.00  0.00     0.002 A 
ENDROOT
BRANCH   1   7
ATOM      7  C1  UNL d   1      -1.556  -5.261  -0.107  0.00  0.00     0.055 C 
ATOM      8  C   UNL d   1      -2.222  -3.944   0.264  0.00  0.00     0.019 C 
ENDBRANCH   1   7
TORSDOF 1
ENDMDL
