MODEL 1
REMARK minimizedAffinity 7.52804184
REMARK minimizedRMSD -1
REMARK  1 active torsions:
REMARK  status: ('A' for Active; 'I' for Inactive)
REMARK    1  A    between atoms: C1_2  and  C2_3 
ROOT
ATOM      1  C2  UNL d   1      -3.290   2.043  -2.769  0.00  0.00    -0.077 A 
ATOM      2  C3  UNL d   1      -3.176   2.328  -4.136  0.00  0.00     0.002 A 
ATOM      3  C4  UNL d   1      -3.667   3.529  -4.651  0.00  0.00     0.002 A 
ATOM      4  C5  UNL d   1      -4.270   4.457  -3.804  0.00  0.00    -0.004 A 
ATOM      5  C6  UNL d   1      -4.390   4.182  -2.442  0.00  0.00     0.002 A 
ATOM      6  C7  UNL d   1      -3.902   2.980  -1.927  0.00  0.00     0.002 A 
ENDROOT
BRANCH   1   7
ATOM      7  C1  UNL d   1      -2.717   0.769  -2.204  0.00  0.00     0.055 C 
ATOM      8  C   UNL d   1      -1.649   1.058  -1.159  0.00  0.00     0.019 C 
ENDBRANCH   1   7
TORSDOF 1
ENDMDL
