MODEL 1
REMARK minimizedAffinity 2.84820247
REMARK minimizedRMSD -1
REMARK  1 active torsions:
REMARK  status: ('A' for Active; 'I' for Inactive)
REMARK    1  A    between atoms: C1_2  and  C2_3 
ROOT
ATOM      1  C2  UNL d   1      -3.814   2.598  -4.025  0.00  0.00    -0.077 A 
ATOM      2  C3  UNL d   1      -4.041   3.736  -3.238  0.00  0.00     0.002 A 
ATOM      3  C4  UNL d   1      -4.097   5.001  -3.826  0.00  0.00     0.002 A 
ATOM      4  C5  UNL d   1      -3.932   5.139  -5.203  0.00  0.00    -0.004 A 
ATOM      5  C6  UNL d   1      -3.704   4.014  -5.993  0.00  0.00     0.002 A 
ATOM      6  C7  UNL d   1      -3.646   2.748  -5.407  0.00  0.00     0.002 A 
ENDROOT
BRANCH   1   7
ATOM      7  C1  UNL d   1      -3.802   1.228  -3.399  0.00  0.00     0.055 C 
ATOM      8  C   UNL d   1      -2.669   1.089  -2.392  0.00  0.00     0.019 C 
ENDBRANCH   1   7
TORSDOF 1
ENDMDL
