MODEL 1
REMARK minimizedAffinity 10.219841
REMARK minimizedRMSD -1
REMARK  1 active torsions:
REMARK  status: ('A' for Active; 'I' for Inactive)
REMARK    1  A    between atoms: C1_2  and  C2_3 
ROOT
ATOM      1  C2  UNL d   1       0.446  -2.761   1.376  0.00  0.00    -0.077 A 
ATOM      2  C3  UNL d   1      -0.795  -2.113   1.452  0.00  0.00     0.002 A 
ATOM      3  C4  UNL d   1      -1.934  -2.701   0.899  0.00  0.00     0.002 A 
ATOM      4  C5  UNL d   1      -1.844  -3.941   0.270  0.00  0.00    -0.004 A 
ATOM      5  C6  UNL d   1      -0.614  -4.592   0.188  0.00  0.00     0.002 A 
ATOM      6  C7  UNL d   1       0.525  -4.005   0.739  0.00  0.00     0.002 A 
ENDROOT
BRANCH   1   7
ATOM      7  C1  UNL d   1       1.666  -2.151   2.016  0.00  0.00     0.055 C 
ATOM      8  C   UNL d   1       1.327  -0.845   2.721  0.00  0.00     0.019 C 
ENDBRANCH   1   7
TORSDOF 1
ENDMDL
