MODEL 1
REMARK minimizedAffinity 6.75522614
REMARK minimizedRMSD -1
REMARK  1 active torsions:
REMARK  status: ('A' for Active; 'I' for Inactive)
REMARK    1  A    between atoms: C1_2  and  C2_3 
ROOT
ATOM      1  C2  UNL d   1       1.738  -1.993   4.627  0.00  0.00    -0.077 A 
ATOM      2  C3  UNL d   1       2.294  -2.628   3.508  0.00  0.00     0.002 A 
ATOM      3  C4  UNL d   1       2.203  -2.040   2.245  0.00  0.00     0.002 A 
ATOM      4  C5  UNL d   1       1.560  -0.814   2.090  0.00  0.00    -0.004 A 
ATOM      5  C6  UNL d   1       1.002  -0.175   3.197  0.00  0.00     0.002 A 
ATOM      6  C7  UNL d   1       1.092  -0.762   4.460  0.00  0.00     0.002 A 
ENDROOT
BRANCH   1   7
ATOM      7  C1  UNL d   1       1.879  -2.602   5.998  0.00  0.00     0.055 C 
ATOM      8  C   UNL d   1       2.894  -3.735   5.999  0.00  0.00     0.019 C 
ENDBRANCH   1   7
TORSDOF 1
ENDMDL
