MODEL 1
REMARK minimizedAffinity 16.4109764
REMARK minimizedRMSD -1
REMARK  0 active torsions:
REMARK  status: ('A' for Active; 'I' for Inactive)
ROOT
ATOM      1  N1  IND d   1      -1.135   1.893  -2.378  0.00  0.00    -0.196 N 
ATOM      2  C2  IND d   1      -1.905   2.787  -3.069  0.00  0.00     0.054 A 
ATOM      3  C3  IND d   1      -3.138   2.277  -3.286  0.00  0.00    -0.031 A 
ATOM      4  C4  IND d   1      -4.142   0.038  -2.508  0.00  0.00     0.051 A 
ATOM      5  C5  IND d   1      -3.812  -1.130  -1.878  0.00  0.00    -0.031 A 
ATOM      6  C6  IND d   1      -2.548  -1.353  -1.371  0.00  0.00     0.015 A 
ATOM      7  C7  IND d   1      -1.566  -0.408  -1.464  0.00  0.00    -0.016 A 
ATOM      8  C8  IND d   1      -1.895   0.776  -2.109  0.00  0.00    -0.047 A 
ATOM      9  C9  IND d   1      -3.164   0.991  -2.664  0.00  0.00    -0.096 A 
ATOM     10  HN1 IND d   1      -0.314   2.009  -2.151  0.00  0.00     0.298 HD
ENDROOT
TORSDOF 0
ENDMDL
