MODEL 1
REMARK minimizedAffinity 12.4940863
REMARK minimizedRMSD -1
REMARK  0 active torsions:
REMARK  status: ('A' for Active; 'I' for Inactive)
ROOT
ATOM      1  N1  IND d   1      -0.989   1.496  -2.096  0.00  0.00    -0.196 N 
ATOM      2  C2  IND d   1      -1.547   2.483  -2.861  0.00  0.00     0.054 A 
ATOM      3  C3  IND d   1      -2.862   2.238  -3.059  0.00  0.00    -0.031 A 
ATOM      4  C4  IND d   1      -4.327   0.332  -2.139  0.00  0.00     0.051 A 
ATOM      5  C5  IND d   1      -4.259  -0.830  -1.422  0.00  0.00    -0.031 A 
ATOM      6  C6  IND d   1      -3.074  -1.283  -0.880  0.00  0.00     0.015 A 
ATOM      7  C7  IND d   1      -1.910  -0.583  -1.026  0.00  0.00    -0.016 A 
ATOM      8  C8  IND d   1      -1.974   0.594  -1.759  0.00  0.00    -0.047 A 
ATOM      9  C9  IND d   1      -3.166   1.037  -2.347  0.00  0.00    -0.096 A 
ATOM     10  HN1 IND d   1      -0.163   1.447  -1.864  0.00  0.00     0.298 HD
ENDROOT
TORSDOF 0
ENDMDL
