MODEL 1
REMARK minimizedAffinity 11.8670225
REMARK minimizedRMSD -1
REMARK  0 active torsions:
REMARK  status: ('A' for Active; 'I' for Inactive)
ROOT
ATOM      1  N1  IND d   1       2.240  -0.383   3.203  0.00  0.00    -0.196 N 
ATOM      2  C2  IND d   1       2.940  -1.099   4.134  0.00  0.00     0.054 A 
ATOM      3  C3  IND d   1       2.958  -2.410   3.803  0.00  0.00    -0.031 A 
ATOM      4  C4  IND d   1       1.993  -3.587   1.727  0.00  0.00     0.051 A 
ATOM      5  C5  IND d   1       1.237  -3.357   0.613  0.00  0.00    -0.031 A 
ATOM      6  C6  IND d   1       0.768  -2.098   0.297  0.00  0.00     0.015 A 
ATOM      7  C7  IND d   1       1.050  -1.015   1.081  0.00  0.00    -0.016 A 
ATOM      8  C8  IND d   1       1.813  -1.246   2.217  0.00  0.00    -0.047 A 
ATOM      9  C9  IND d   1       2.255  -2.529   2.566  0.00  0.00    -0.096 A 
ATOM     10  HN1 IND d   1       2.091   0.463   3.228  0.00  0.00     0.298 HD
ENDROOT
TORSDOF 0
ENDMDL
