MODEL 1
REMARK minimizedAffinity 6.50706482
REMARK minimizedRMSD -1
REMARK  0 active torsions:
REMARK  status: ('A' for Active; 'I' for Inactive)
ROOT
ATOM      1  N1  IND d   1       5.155   3.801  -5.613  0.00  0.00    -0.196 N 
ATOM      2  C2  IND d   1       5.844   4.969  -5.789  0.00  0.00     0.054 A 
ATOM      3  C3  IND d   1       4.987   5.993  -5.998  0.00  0.00    -0.031 A 
ATOM      4  C4  IND d   1       2.412   5.999  -5.992  0.00  0.00     0.051 A 
ATOM      5  C5  IND d   1       1.333   5.165  -5.910  0.00  0.00    -0.031 A 
ATOM      6  C6  IND d   1       1.476   3.805  -5.719  0.00  0.00     0.015 A 
ATOM      7  C7  IND d   1       2.708   3.230  -5.590  0.00  0.00    -0.016 A 
ATOM      8  C8  IND d   1       3.806   4.073  -5.679  0.00  0.00    -0.047 A 
ATOM      9  C9  IND d   1       3.669   5.447  -5.916  0.00  0.00    -0.096 A 
ATOM     10  HN1 IND d   1       5.505   3.027  -5.483  0.00  0.00     0.298 HD
ENDROOT
TORSDOF 0
ENDMDL
