MODEL 1
REMARK minimizedAffinity 13.2609873
REMARK minimizedRMSD -1
REMARK  0 active torsions:
REMARK  status: ('A' for Active; 'I' for Inactive)
ROOT
ATOM      1  N1  IND d   1       5.866   4.836  -5.430  0.00  0.00    -0.196 N 
ATOM      2  C2  IND d   1       4.909   5.727  -5.828  0.00  0.00     0.054 A 
ATOM      3  C3  IND d   1       3.724   5.098  -6.000  0.00  0.00    -0.031 A 
ATOM      4  C4  IND d   1       3.106   2.633  -5.588  0.00  0.00     0.051 A 
ATOM      5  C5  IND d   1       3.654   1.426  -5.254  0.00  0.00    -0.031 A 
ATOM      6  C6  IND d   1       4.994   1.292  -4.954  0.00  0.00     0.015 A 
ATOM      7  C7  IND d   1       5.837   2.367  -4.964  0.00  0.00    -0.016 A 
ATOM      8  C8  IND d   1       5.286   3.593  -5.309  0.00  0.00    -0.047 A 
ATOM      9  C9  IND d   1       3.935   3.727  -5.657  0.00  0.00    -0.096 A 
ATOM     10  HN1 IND d   1       6.693   5.021  -5.280  0.00  0.00     0.298 HD
ENDROOT
TORSDOF 0
ENDMDL
