MODEL 1
REMARK minimizedAffinity 20.0775852
REMARK minimizedRMSD -1
REMARK  0 active torsions:
REMARK  status: ('A' for Active; 'I' for Inactive)
ROOT
ATOM      1  N1  IND d   1       2.376  -1.305   4.096  0.00  0.00    -0.196 N 
ATOM      2  C2  IND d   1       3.509  -1.956   4.498  0.00  0.00     0.054 A 
ATOM      3  C3  IND d   1       3.953  -2.776   3.520  0.00  0.00    -0.031 A 
ATOM      4  C4  IND d   1       3.034  -3.132   1.141  0.00  0.00     0.051 A 
ATOM      5  C5  IND d   1       1.993  -2.786   0.326  0.00  0.00    -0.031 A 
ATOM      6  C6  IND d   1       1.008  -1.909   0.733  0.00  0.00     0.015 A 
ATOM      7  C7  IND d   1       1.034  -1.334   1.972  0.00  0.00    -0.016 A 
ATOM      8  C8  IND d   1       2.086  -1.688   2.805  0.00  0.00    -0.047 A 
ATOM      9  C9  IND d   1       3.065  -2.610   2.413  0.00  0.00    -0.096 A 
ATOM     10  HN1 IND d   1       1.921  -0.750   4.570  0.00  0.00     0.298 HD
ENDROOT
TORSDOF 0
ENDMDL
