MODEL 1
REMARK minimizedAffinity 6.94566917
REMARK minimizedRMSD -1
REMARK  0 active torsions:
REMARK  status: ('A' for Active; 'I' for Inactive)
ROOT
ATOM      1  N1  IND d   1       0.751   5.229  -4.151  0.00  0.00    -0.196 N 
ATOM      2  C2  IND d   1       1.629   5.297  -5.197  0.00  0.00     0.054 A 
ATOM      3  C3  IND d   1       1.489   4.218  -5.999  0.00  0.00    -0.031 A 
ATOM      4  C4  IND d   1      -0.185   2.269  -5.842  0.00  0.00     0.051 A 
ATOM      5  C5  IND d   1      -1.162   1.750  -5.039  0.00  0.00    -0.031 A 
ATOM      6  C6  IND d   1      -1.561   2.378  -3.877  0.00  0.00     0.015 A 
ATOM      7  C7  IND d   1      -1.003   3.560  -3.479  0.00  0.00    -0.016 A 
ATOM      8  C8  IND d   1      -0.006   4.086  -4.288  0.00  0.00    -0.047 A 
ATOM      9  C9  IND d   1       0.432   3.432  -5.446  0.00  0.00    -0.096 A 
ATOM     10  HN1 IND d   1       0.683   5.803  -3.515  0.00  0.00     0.298 HD
ENDROOT
TORSDOF 0
ENDMDL
