MODEL 1
REMARK minimizedAffinity 12.8152456
REMARK minimizedRMSD -1
REMARK  0 active torsions:
REMARK  status: ('A' for Active; 'I' for Inactive)
ROOT
ATOM      1  N1  IND d   1      -2.101   5.666  -5.124  0.00  0.00    -0.196 N 
ATOM      2  C2  IND d   1      -3.341   5.999  -4.654  0.00  0.00     0.054 A 
ATOM      3  C3  IND d   1      -3.809   5.031  -3.835  0.00  0.00    -0.031 A 
ATOM      4  C4  IND d   1      -2.667   2.864  -3.043  0.00  0.00     0.051 A 
ATOM      5  C5  IND d   1      -1.543   2.109  -3.230  0.00  0.00    -0.031 A 
ATOM      6  C6  IND d   1      -0.527   2.510  -4.072  0.00  0.00     0.015 A 
ATOM      7  C7  IND d   1      -0.591   3.692  -4.754  0.00  0.00    -0.016 A 
ATOM      8  C8  IND d   1      -1.733   4.459  -4.572  0.00  0.00    -0.047 A 
ATOM      9  C9  IND d   1      -2.787   4.037  -3.751  0.00  0.00    -0.096 A 
ATOM     10  HN1 IND d   1      -1.630   6.132  -5.671  0.00  0.00     0.298 HD
ENDROOT
TORSDOF 0
ENDMDL
