MODEL 1
REMARK minimizedAffinity -1.43795311
REMARK minimizedRMSD -1
REMARK  2 active torsions:
REMARK  status: ('A' for Active; 'I' for Inactive)
REMARK    1  A    between atoms: C2'_3  and  C1'_4 
REMARK    2  A    between atoms: C1'_4  and  C1_5 
ROOT
ATOM      1  C1  I4B d   1       3.030  -3.687  -4.037  0.00  0.00    -0.075 A 
ATOM      2  C2  I4B d   1       3.758  -4.088  -2.944  0.00  0.00     0.003 A 
ATOM      3  C3  I4B d   1       3.099  -4.522  -1.768  0.00  0.00     0.002 A 
ATOM      4  C4  I4B d   1       1.720  -4.492  -1.712  0.00  0.00    -0.004 A 
ATOM      5  C5  I4B d   1       0.983  -4.108  -2.828  0.00  0.00     0.002 A 
ATOM      6  C6  I4B d   1       1.642  -3.715  -4.003  0.00  0.00     0.003 A 
ENDROOT
BRANCH   1   7
ATOM      7  C1' I4B d   1       3.758  -3.203  -5.250  0.00  0.00     0.060 C 
BRANCH   7   8
ATOM      8  C2' I4B d   1       5.234  -3.486  -5.053  0.00  0.00    -0.013 C 
ATOM      9  C4' I4B d   1       5.716  -4.554  -5.998  0.00  0.00     0.013 C 
ATOM     10  C3' I4B d   1       5.982  -2.202  -5.258  0.00  0.00     0.013 C 
ENDBRANCH   7   8
ENDBRANCH   1   7
TORSDOF 2
ENDMDL
