MODEL 1
REMARK minimizedAffinity -1.94069278
REMARK minimizedRMSD -1
REMARK  2 active torsions:
REMARK  status: ('A' for Active; 'I' for Inactive)
REMARK    1  A    between atoms: C2'_3  and  C1'_4 
REMARK    2  A    between atoms: C1'_4  and  C1_5 
ROOT
ATOM      1  C1  I4B d   1      -2.782   1.988  -3.019  0.00  0.00    -0.075 A 
ATOM      2  C2  I4B d   1      -3.737   1.090  -3.425  0.00  0.00     0.003 A 
ATOM      3  C3  I4B d   1      -5.024   1.542  -3.805  0.00  0.00     0.002 A 
ATOM      4  C4  I4B d   1      -5.326   2.886  -3.717  0.00  0.00    -0.004 A 
ATOM      5  C5  I4B d   1      -4.349   3.797  -3.327  0.00  0.00     0.002 A 
ATOM      6  C6  I4B d   1      -3.065   3.347  -2.988  0.00  0.00     0.003 A 
ENDROOT
BRANCH   1   7
ATOM      7  C1' I4B d   1      -1.443   1.473  -2.593  0.00  0.00     0.060 C 
BRANCH   7   8
ATOM      8  C2' I4B d   1      -0.448   1.800  -3.687  0.00  0.00    -0.013 C 
ATOM      9  C4' I4B d   1       0.462   2.928  -3.278  0.00  0.00     0.013 C 
ATOM     10  C3' I4B d   1       0.334   0.556  -3.988  0.00  0.00     0.013 C 
ENDBRANCH   7   8
ENDBRANCH   1   7
TORSDOF 2
ENDMDL
