MODEL 1
REMARK minimizedAffinity 15.9667253
REMARK minimizedRMSD -1
REMARK  2 active torsions:
REMARK  status: ('A' for Active; 'I' for Inactive)
REMARK    1  A    between atoms: C2'_3  and  C1'_4 
REMARK    2  A    between atoms: C1'_4  and  C1_5 
ROOT
ATOM      1  C1  I4B d   1       2.160  -1.851   2.978  0.00  0.00    -0.075 A 
ATOM      2  C2  I4B d   1       2.385  -2.597   4.108  0.00  0.00     0.003 A 
ATOM      3  C3  I4B d   1       3.342  -3.641   4.095  0.00  0.00     0.002 A 
ATOM      4  C4  I4B d   1       4.009  -3.936   2.923  0.00  0.00    -0.004 A 
ATOM      5  C5  I4B d   1       3.796  -3.164   1.785  0.00  0.00     0.002 A 
ATOM      6  C6  I4B d   1       2.875  -2.107   1.815  0.00  0.00     0.003 A 
ENDROOT
BRANCH   1   7
ATOM      7  C1' I4B d   1       1.119  -0.778   3.018  0.00  0.00     0.060 C 
BRANCH   7   8
ATOM      8  C2' I4B d   1       0.699  -0.481   1.593  0.00  0.00    -0.013 C 
ATOM      9  C4' I4B d   1      -0.342  -1.460   1.117  0.00  0.00     0.013 C 
ATOM     10  C3' I4B d   1       0.182   0.926   1.546  0.00  0.00     0.013 C 
ENDBRANCH   7   8
ENDBRANCH   1   7
TORSDOF 2
ENDMDL
