MODEL 1
REMARK minimizedAffinity 13.6761446
REMARK minimizedRMSD -1
REMARK  2 active torsions:
REMARK  status: ('A' for Active; 'I' for Inactive)
REMARK    1  A    between atoms: C2'_3  and  C1'_4 
REMARK    2  A    between atoms: C1'_4  and  C1_5 
ROOT
ATOM      1  C1  I4B d   1       3.988  -3.508  -5.184  0.00  0.00    -0.075 A 
ATOM      2  C2  I4B d   1       3.585  -4.647  -4.533  0.00  0.00     0.003 A 
ATOM      3  C3  I4B d   1       4.398  -5.805  -4.552  0.00  0.00     0.002 A 
ATOM      4  C4  I4B d   1       5.576  -5.797  -5.272  0.00  0.00    -0.004 A 
ATOM      5  C5  I4B d   1       5.994  -4.634  -5.913  0.00  0.00     0.002 A 
ATOM      6  C6  I4B d   1       5.202  -3.478  -5.858  0.00  0.00     0.003 A 
ENDROOT
BRANCH   1   7
ATOM      7  C1' I4B d   1       3.089  -2.312  -5.170  0.00  0.00     0.060 C 
BRANCH   7   8
ATOM      8  C2' I4B d   1       2.549  -2.150  -3.764  0.00  0.00    -0.013 C 
ATOM      9  C4' I4B d   1       2.236  -0.708  -3.463  0.00  0.00     0.013 C 
ATOM     10  C3' I4B d   1       1.326  -3.008  -3.635  0.00  0.00     0.013 C 
ENDBRANCH   7   8
ENDBRANCH   1   7
TORSDOF 2
ENDMDL
