MODEL 1
REMARK minimizedAffinity 8.52198029
REMARK minimizedRMSD -1
REMARK  2 active torsions:
REMARK  status: ('A' for Active; 'I' for Inactive)
REMARK    1  A    between atoms: C2'_3  and  C1'_4 
REMARK    2  A    between atoms: C1'_4  and  C1_5 
ROOT
ATOM      1  C1  I4B d   1       3.939  -3.161   2.606  0.00  0.00    -0.075 A 
ATOM      2  C2  I4B d   1       3.441  -2.113   1.873  0.00  0.00     0.003 A 
ATOM      3  C3  I4B d   1       2.470  -1.248   2.435  0.00  0.00     0.002 A 
ATOM      4  C4  I4B d   1       1.992  -1.497   3.705  0.00  0.00    -0.004 A 
ATOM      5  C5  I4B d   1       2.515  -2.546   4.455  0.00  0.00     0.002 A 
ATOM      6  C6  I4B d   1       3.504  -3.376   3.907  0.00  0.00     0.003 A 
ENDROOT
BRANCH   1   7
ATOM      7  C1' I4B d   1       4.939  -4.074   1.970  0.00  0.00     0.060 C 
BRANCH   7   8
ATOM      8  C2' I4B d   1       4.327  -4.622   0.697  0.00  0.00    -0.013 C 
ATOM      9  C4' I4B d   1       5.254  -5.601   0.024  0.00  0.00     0.013 C 
ATOM     10  C3' I4B d   1       3.022  -5.269   1.052  0.00  0.00     0.013 C 
ENDBRANCH   7   8
ENDBRANCH   1   7
TORSDOF 2
ENDMDL
