MODEL 1
REMARK minimizedAffinity 6.30522633
REMARK minimizedRMSD -1
REMARK  2 active torsions:
REMARK  status: ('A' for Active; 'I' for Inactive)
REMARK    1  A    between atoms: C2'_3  and  C1'_4 
REMARK    2  A    between atoms: C1'_4  and  C1_5 
ROOT
ATOM      1  C1  I4B d   1      -1.028  -3.021  -0.236  0.00  0.00    -0.075 A 
ATOM      2  C2  I4B d   1      -0.138  -3.944  -0.726  0.00  0.00     0.003 A 
ATOM      3  C3  I4B d   1      -0.346  -5.326  -0.499  0.00  0.00     0.002 A 
ATOM      4  C4  I4B d   1      -1.423  -5.735   0.262  0.00  0.00    -0.004 A 
ATOM      5  C5  I4B d   1      -2.337  -4.799   0.738  0.00  0.00     0.002 A 
ATOM      6  C6  I4B d   1      -2.145  -3.434   0.477  0.00  0.00     0.003 A 
ENDROOT
BRANCH   1   7
ATOM      7  C1' I4B d   1      -0.759  -1.568  -0.467  0.00  0.00     0.060 C 
BRANCH   7   8
ATOM      8  C2' I4B d   1      -0.810  -1.315  -1.960  0.00  0.00    -0.013 C 
ATOM      9  C4' I4B d   1      -1.166   0.118  -2.258  0.00  0.00     0.013 C 
ATOM     10  C3' I4B d   1       0.527  -1.672  -2.536  0.00  0.00     0.013 C 
ENDBRANCH   7   8
ENDBRANCH   1   7
TORSDOF 2
ENDMDL
