MODEL 1
REMARK minimizedAffinity 4.77263737
REMARK minimizedRMSD -1
REMARK  0 active torsions:
REMARK  status: ('A' for Active; 'I' for Inactive)
ROOT
ATOM      1  C   UNL d   1       2.423  -4.059   1.793  0.00  0.00     0.124 A 
ATOM      2  C1  UNL d   1       2.516  -2.859   1.103  0.00  0.00     0.062 A 
ATOM      3  C2  UNL d   1       1.582  -1.851   1.322  0.00  0.00     0.162 A 
ATOM      4  C3  UNL d   1       0.546  -2.039   2.237  0.00  0.00    -0.034 A 
ATOM      5  C4  UNL d   1       0.458  -3.249   2.927  0.00  0.00     0.162 A 
ATOM      6  C5  UNL d   1       1.394  -4.253   2.704  0.00  0.00     0.062 A 
ATOM      7  F   UNL d   1       1.302  -5.413   3.372  0.00  0.00    -0.097 F 
ATOM      8  F1  UNL d   1      -0.526  -3.463   3.814  0.00  0.00    -0.096 F 
ATOM      9  I   UNL d   1      -0.854  -0.534   2.568  0.00  0.00    -0.060 I 
ATOM     10  F2  UNL d   1       1.696  -0.701   0.641  0.00  0.00    -0.096 F 
ATOM     11  F3  UNL d   1       3.509  -2.669   0.222  0.00  0.00    -0.097 F 
ATOM     12  F4  UNL d   1       3.323  -5.028   1.580  0.00  0.00    -0.092 F 
ENDROOT
TORSDOF 0
ENDMDL
