MODEL 1
REMARK minimizedAffinity 15.0673542
REMARK minimizedRMSD -1
REMARK  0 active torsions:
REMARK  status: ('A' for Active; 'I' for Inactive)
ROOT
ATOM      1  C   UNL d   1       0.275  -2.655   2.668  0.00  0.00     0.124 A 
ATOM      2  C1  UNL d   1       1.257  -3.064   1.777  0.00  0.00     0.062 A 
ATOM      3  C2  UNL d   1       1.945  -2.125   1.013  0.00  0.00     0.162 A 
ATOM      4  C3  UNL d   1       1.653  -0.767   1.138  0.00  0.00    -0.034 A 
ATOM      5  C4  UNL d   1       0.662  -0.363   2.035  0.00  0.00     0.162 A 
ATOM      6  C5  UNL d   1      -0.022  -1.305   2.796  0.00  0.00     0.062 A 
ATOM      7  F   UNL d   1      -0.971  -0.908   3.656  0.00  0.00    -0.097 F 
ATOM      8  F1  UNL d   1       0.356   0.935   2.179  0.00  0.00    -0.096 F 
ATOM      9  I   UNL d   1       2.678   0.640  -0.003  0.00  0.00    -0.060 I 
ATOM     10  F2  UNL d   1       2.889  -2.549   0.160  0.00  0.00    -0.096 F 
ATOM     11  F3  UNL d   1       1.545  -4.368   1.651  0.00  0.00    -0.097 F 
ATOM     12  F4  UNL d   1      -0.386  -3.560   3.401  0.00  0.00    -0.092 F 
ENDROOT
TORSDOF 0
ENDMDL
