MODEL 1
REMARK minimizedAffinity 18.4291153
REMARK minimizedRMSD -1
REMARK  0 active torsions:
REMARK  status: ('A' for Active; 'I' for Inactive)
ROOT
ATOM      1  C   UNL d   1      -0.801   2.835  -4.115  0.00  0.00     0.124 A 
ATOM      2  C1  UNL d   1      -1.700   3.274  -3.154  0.00  0.00     0.062 A 
ATOM      3  C2  UNL d   1      -3.006   2.794  -3.146  0.00  0.00     0.162 A 
ATOM      4  C3  UNL d   1      -3.421   1.867  -4.102  0.00  0.00    -0.034 A 
ATOM      5  C4  UNL d   1      -2.511   1.430  -5.066  0.00  0.00     0.162 A 
ATOM      6  C5  UNL d   1      -1.207   1.913  -5.070  0.00  0.00     0.062 A 
ATOM      7  F   UNL d   1      -0.339   1.487  -6.000  0.00  0.00    -0.097 F 
ATOM      8  F1  UNL d   1      -2.877   0.539  -6.000  0.00  0.00    -0.096 F 
ATOM      9  I   UNL d   1      -5.374   1.147  -4.093  0.00  0.00    -0.060 I 
ATOM     10  F2  UNL d   1      -3.854   3.237  -2.205  0.00  0.00    -0.096 F 
ATOM     11  F3  UNL d   1      -1.310   4.165  -2.231  0.00  0.00    -0.097 F 
ATOM     12  F4  UNL d   1       0.455   3.299  -4.122  0.00  0.00    -0.092 F 
ENDROOT
TORSDOF 0
ENDMDL
