MODEL 1
REMARK minimizedAffinity 2.2305932
REMARK minimizedRMSD -1
REMARK  0 active torsions:
REMARK  status: ('A' for Active; 'I' for Inactive)
ROOT
ATOM      1  C   UNL d   1      -4.522   2.561   4.899  0.00  0.00     0.124 A 
ATOM      2  C1  UNL d   1      -4.788   3.809   5.446  0.00  0.00     0.062 A 
ATOM      3  C2  UNL d   1      -3.802   4.791   5.461  0.00  0.00     0.162 A 
ATOM      4  C3  UNL d   1      -2.541   4.531   4.926  0.00  0.00    -0.034 A 
ATOM      5  C4  UNL d   1      -2.280   3.274   4.378  0.00  0.00     0.162 A 
ATOM      6  C5  UNL d   1      -3.269   2.295   4.366  0.00  0.00     0.062 A 
ATOM      7  F   UNL d   1      -3.010   1.090   3.837  0.00  0.00    -0.097 F 
ATOM      8  F1  UNL d   1      -1.079   2.989   3.855  0.00  0.00    -0.096 F 
ATOM      9  I   UNL d   1      -1.064   5.997   4.945  0.00  0.00    -0.060 I 
ATOM     10  F2  UNL d   1      -4.087   5.988   5.996  0.00  0.00    -0.096 F 
ATOM     11  F3  UNL d   1      -5.997   4.068   5.963  0.00  0.00    -0.097 F 
ATOM     12  F4  UNL d   1      -5.472   1.617   4.887  0.00  0.00    -0.092 F 
ENDROOT
TORSDOF 0
ENDMDL
