MODEL 1
REMARK minimizedAffinity 18.0798683
REMARK minimizedRMSD -1
REMARK  0 active torsions:
REMARK  status: ('A' for Active; 'I' for Inactive)
ROOT
ATOM      1  C   UNL d   1      -0.292  -1.968   1.072  0.00  0.00     0.124 A 
ATOM      2  C1  UNL d   1      -1.249  -1.616   0.129  0.00  0.00     0.062 A 
ATOM      3  C2  UNL d   1      -0.862  -1.061  -1.087  0.00  0.00     0.162 A 
ATOM      4  C3  UNL d   1       0.488  -0.855  -1.369  0.00  0.00    -0.034 A 
ATOM      5  C4  UNL d   1       1.445  -1.211  -0.416  0.00  0.00     0.162 A 
ATOM      6  C5  UNL d   1       1.053  -1.765   0.798  0.00  0.00     0.062 A 
ATOM      7  F   UNL d   1       1.979  -2.105   1.707  0.00  0.00    -0.097 F 
ATOM      8  F1  UNL d   1       2.752  -1.027  -0.655  0.00  0.00    -0.096 F 
ATOM      9  I   UNL d   1       1.070  -0.026  -3.187  0.00  0.00    -0.060 I 
ATOM     10  F2  UNL d   1      -1.808  -0.730  -1.979  0.00  0.00    -0.096 F 
ATOM     11  F3  UNL d   1      -2.549  -1.810   0.392  0.00  0.00    -0.097 F 
ATOM     12  F4  UNL d   1      -0.667  -2.501   2.242  0.00  0.00    -0.092 F 
ENDROOT
TORSDOF 0
ENDMDL
