MODEL 1
REMARK minimizedAffinity 11.8432064
REMARK minimizedRMSD -1
REMARK  0 active torsions:
REMARK  status: ('A' for Active; 'I' for Inactive)
ROOT
ATOM      1  C   UNL d   1       0.642  -1.434   2.583  0.00  0.00     0.124 A 
ATOM      2  C1  UNL d   1       0.431  -1.827   1.268  0.00  0.00     0.062 A 
ATOM      3  C2  UNL d   1       1.497  -1.887   0.375  0.00  0.00     0.162 A 
ATOM      4  C3  UNL d   1       2.785  -1.554   0.794  0.00  0.00    -0.034 A 
ATOM      5  C4  UNL d   1       2.990  -1.159   2.118  0.00  0.00     0.162 A 
ATOM      6  C5  UNL d   1       1.921  -1.101   3.006  0.00  0.00     0.062 A 
ATOM      7  F   UNL d   1       2.127  -0.721   4.276  0.00  0.00    -0.097 F 
ATOM      8  F1  UNL d   1       4.215  -0.832   2.554  0.00  0.00    -0.096 F 
ATOM      9  I   UNL d   1       4.382  -1.642  -0.537  0.00  0.00    -0.060 I 
ATOM     10  F2  UNL d   1       1.263  -2.269  -0.889  0.00  0.00    -0.096 F 
ATOM     11  F3  UNL d   1      -0.804  -2.149   0.856  0.00  0.00    -0.097 F 
ATOM     12  F4  UNL d   1      -0.386  -1.377   3.439  0.00  0.00    -0.092 F 
ENDROOT
TORSDOF 0
ENDMDL
