MODEL 1
REMARK minimizedAffinity 15.9642191
REMARK minimizedRMSD -1
REMARK  0 active torsions:
REMARK  status: ('A' for Active; 'I' for Inactive)
ROOT
ATOM      1  C   UNL d   1      -2.493   3.652  -3.875  0.00  0.00     0.124 A 
ATOM      2  C1  UNL d   1      -2.018   2.431  -4.334  0.00  0.00     0.062 A 
ATOM      3  C2  UNL d   1      -2.885   1.526  -4.939  0.00  0.00     0.162 A 
ATOM      4  C3  UNL d   1      -4.236   1.839  -5.090  0.00  0.00    -0.034 A 
ATOM      5  C4  UNL d   1      -4.706   3.068  -4.625  0.00  0.00     0.162 A 
ATOM      6  C5  UNL d   1      -3.836   3.969  -4.021  0.00  0.00     0.062 A 
ATOM      7  F   UNL d   1      -4.296   5.149  -3.578  0.00  0.00    -0.097 F 
ATOM      8  F1  UNL d   1      -5.999   3.401  -4.754  0.00  0.00    -0.096 F 
ATOM      9  I   UNL d   1      -5.536   0.488  -5.995  0.00  0.00    -0.060 I 
ATOM     10  F2  UNL d   1      -2.400   0.353  -5.373  0.00  0.00    -0.096 F 
ATOM     11  F3  UNL d   1      -0.721   2.121  -4.193  0.00  0.00    -0.097 F 
ATOM     12  F4  UNL d   1      -1.656   4.520  -3.292  0.00  0.00    -0.092 F 
ENDROOT
TORSDOF 0
ENDMDL
