MODEL 1
REMARK minimizedAffinity -3.26087594
REMARK minimizedRMSD -1
REMARK  0 active torsions:
REMARK  status: ('A' for Active; 'I' for Inactive)
ROOT
ATOM      1  C1  BNZ d   1       0.149  -0.594  -2.380  0.00  0.00     0.000 A 
ATOM      2  C2  BNZ d   1       0.520  -1.737  -3.036  0.00  0.00     0.000 A 
ATOM      3  C3  BNZ d   1       1.692  -1.793  -3.738  0.00  0.00     0.000 A 
ATOM      4  C4  BNZ d   1       2.470  -0.695  -3.816  0.00  0.00     0.000 A 
ATOM      5  C5  BNZ d   1       2.105   0.469  -3.168  0.00  0.00     0.000 A 
ATOM      6  C6  BNZ d   1       0.944   0.509  -2.431  0.00  0.00     0.000 A 
ENDROOT
TORSDOF 0
ENDMDL
