MODEL 1
REMARK minimizedAffinity -2.34666753
REMARK minimizedRMSD -1
REMARK  0 active torsions:
REMARK  status: ('A' for Active; 'I' for Inactive)
ROOT
ATOM      1  C1  BNZ d   1       1.311  -0.789   1.635  0.00  0.00     0.000 A 
ATOM      2  C2  BNZ d   1       0.108  -0.644   0.998  0.00  0.00     0.000 A 
ATOM      3  C3  BNZ d   1      -0.039   0.252  -0.025  0.00  0.00     0.000 A 
ATOM      4  C4  BNZ d   1       1.005   1.028  -0.381  0.00  0.00     0.000 A 
ATOM      5  C5  BNZ d   1       2.222   0.900   0.258  0.00  0.00     0.000 A 
ATOM      6  C6  BNZ d   1       2.376  -0.030   1.261  0.00  0.00     0.000 A 
ENDROOT
TORSDOF 0
ENDMDL
