MODEL 1
REMARK minimizedAffinity -5.35208416
REMARK minimizedRMSD -1
REMARK  0 active torsions:
REMARK  status: ('A' for Active; 'I' for Inactive)
ROOT
ATOM      1  C1  BNZ d   1       0.044  -0.082   1.645  0.00  0.00     0.000 A 
ATOM      2  C2  BNZ d   1      -0.945  -0.152   0.700  0.00  0.00     0.000 A 
ATOM      3  C3  BNZ d   1      -2.263  -0.098   1.061  0.00  0.00     0.000 A 
ATOM      4  C4  BNZ d   1      -2.590  -0.014   2.366  0.00  0.00     0.000 A 
ATOM      5  C5  BNZ d   1      -1.605   0.049   3.331  0.00  0.00     0.000 A 
ATOM      6  C6  BNZ d   1      -0.279   0.033   2.962  0.00  0.00     0.000 A 
ENDROOT
TORSDOF 0
ENDMDL
