MODEL 1
REMARK minimizedAffinity -4.16979933
REMARK minimizedRMSD -1
REMARK  0 active torsions:
REMARK  status: ('A' for Active; 'I' for Inactive)
ROOT
ATOM      1  C1  BNZ d   1       3.539   4.003  -6.000  0.00  0.00     0.000 A 
ATOM      2  C2  BNZ d   1       2.826   3.112  -5.242  0.00  0.00     0.000 A 
ATOM      3  C3  BNZ d   1       3.464   2.181  -4.471  0.00  0.00     0.000 A 
ATOM      4  C4  BNZ d   1       4.811   2.115  -4.490  0.00  0.00     0.000 A 
ATOM      5  C5  BNZ d   1       5.544   3.000  -5.255  0.00  0.00     0.000 A 
ATOM      6  C6  BNZ d   1       4.900   3.961  -6.000  0.00  0.00     0.000 A 
ENDROOT
TORSDOF 0
ENDMDL
