MODEL 1
REMARK minimizedAffinity -2.85157132
REMARK minimizedRMSD -1
REMARK  0 active torsions:
REMARK  status: ('A' for Active; 'I' for Inactive)
ROOT
ATOM      1  C1  BNZ d   1       0.708   0.167   0.143  0.00  0.00     0.000 A 
ATOM      2  C2  BNZ d   1      -0.030  -0.235   1.224  0.00  0.00     0.000 A 
ATOM      3  C3  BNZ d   1      -1.395  -0.269   1.166  0.00  0.00     0.000 A 
ATOM      4  C4  BNZ d   1      -2.022   0.138   0.043  0.00  0.00     0.000 A 
ATOM      5  C5  BNZ d   1      -1.292   0.555  -1.052  0.00  0.00     0.000 A 
ATOM      6  C6  BNZ d   1       0.083   0.551  -1.004  0.00  0.00     0.000 A 
ENDROOT
TORSDOF 0
ENDMDL
