MODEL 1
REMARK minimizedAffinity -3.59057665
REMARK minimizedRMSD -1
REMARK  0 active torsions:
REMARK  status: ('A' for Active; 'I' for Inactive)
ROOT
ATOM      1  C1  BNZ d   1       0.812   0.517  -0.015  0.00  0.00     0.000 A 
ATOM      2  C2  BNZ d   1       0.787   0.072   1.280  0.00  0.00     0.000 A 
ATOM      3  C3  BNZ d   1      -0.362  -0.429   1.825  0.00  0.00     0.000 A 
ATOM      4  C4  BNZ d   1      -1.492  -0.448   1.090  0.00  0.00     0.000 A 
ATOM      5  C5  BNZ d   1      -1.485   0.006  -0.214  0.00  0.00     0.000 A 
ATOM      6  C6  BNZ d   1      -0.318   0.474  -0.773  0.00  0.00     0.000 A 
ENDROOT
TORSDOF 0
ENDMDL
