MODEL 1
REMARK minimizedAffinity -4.95021152
REMARK minimizedRMSD -1
REMARK  0 active torsions:
REMARK  status: ('A' for Active; 'I' for Inactive)
ROOT
ATOM      1  C1  BNZ d   1       0.680   0.538   0.729  0.00  0.00     0.000 A 
ATOM      2  C2  BNZ d   1       0.060   0.351   1.935  0.00  0.00     0.000 A 
ATOM      3  C3  BNZ d   1      -1.303   0.297   2.020  0.00  0.00     0.000 A 
ATOM      4  C4  BNZ d   1      -2.044   0.470   0.907  0.00  0.00     0.000 A 
ATOM      5  C5  BNZ d   1      -1.434   0.670  -0.315  0.00  0.00     0.000 A 
ATOM      6  C6  BNZ d   1      -0.061   0.685  -0.403  0.00  0.00     0.000 A 
ENDROOT
TORSDOF 0
ENDMDL
