MODEL 1
REMARK minimizedAffinity -4.44866228
REMARK minimizedRMSD -1
REMARK  0 active torsions:
REMARK  status: ('A' for Active; 'I' for Inactive)
ROOT
ATOM      1  C1  BNZ d   1      -0.533  -0.437   3.242  0.00  0.00     0.000 A 
ATOM      2  C2  BNZ d   1      -1.242   0.194   2.255  0.00  0.00     0.000 A 
ATOM      3  C3  BNZ d   1      -0.716   0.346   1.003  0.00  0.00     0.000 A 
ATOM      4  C4  BNZ d   1       0.533  -0.098   0.750  0.00  0.00     0.000 A 
ATOM      5  C5  BNZ d   1       1.264  -0.729   1.737  0.00  0.00     0.000 A 
ATOM      6  C6  BNZ d   1       0.715  -0.914   2.986  0.00  0.00     0.000 A 
ENDROOT
TORSDOF 0
ENDMDL
