MODEL 1
REMARK minimizedAffinity -2.90968108
REMARK minimizedRMSD -1
REMARK  0 active torsions:
REMARK  status: ('A' for Active; 'I' for Inactive)
ROOT
ATOM      1  C1  BNZ d   1      -0.220   0.488  -3.232  0.00  0.00     0.000 A 
ATOM      2  C2  BNZ d   1       0.256  -0.617  -3.886  0.00  0.00     0.000 A 
ATOM      3  C3  BNZ d   1       1.104  -1.489  -3.262  0.00  0.00     0.000 A 
ATOM      4  C4  BNZ d   1       1.506  -1.233  -2.001  0.00  0.00     0.000 A 
ATOM      5  C5  BNZ d   1       1.043  -0.118  -1.331  0.00  0.00     0.000 A 
ATOM      6  C6  BNZ d   1       0.159   0.736  -1.949  0.00  0.00     0.000 A 
ENDROOT
TORSDOF 0
ENDMDL
