MODEL 1
REMARK minimizedAffinity -4.91346359
REMARK minimizedRMSD -1
REMARK  0 active torsions:
REMARK  status: ('A' for Active; 'I' for Inactive)
ROOT
ATOM      1  C1  BNZ d   1      -0.538   0.050  -0.005  0.00  0.00     0.000 A 
ATOM      2  C2  BNZ d   1       0.710   0.513   0.314  0.00  0.00     0.000 A 
ATOM      3  C3  BNZ d   1       1.233   0.314   1.562  0.00  0.00     0.000 A 
ATOM      4  C4  BNZ d   1       0.492  -0.311   2.499  0.00  0.00     0.000 A 
ATOM      5  C5  BNZ d   1      -0.772  -0.775   2.196  0.00  0.00     0.000 A 
ATOM      6  C6  BNZ d   1      -1.280  -0.608   0.928  0.00  0.00     0.000 A 
ENDROOT
TORSDOF 0
ENDMDL
