MODEL 1
REMARK minimizedAffinity -5.13315392
REMARK minimizedRMSD -1
REMARK  0 active torsions:
REMARK  status: ('A' for Active; 'I' for Inactive)
ROOT
ATOM      1  C1  BNZ d   1      -1.053  -0.285   0.621  0.00  0.00     0.000 A 
ATOM      2  C2  BNZ d   1      -1.657  -0.367   1.847  0.00  0.00     0.000 A 
ATOM      3  C3  BNZ d   1      -0.944  -0.151   2.994  0.00  0.00     0.000 A 
ATOM      4  C4  BNZ d   1       0.377   0.108   2.914  0.00  0.00     0.000 A 
ATOM      5  C5  BNZ d   1       1.002   0.185   1.686  0.00  0.00     0.000 A 
ATOM      6  C6  BNZ d   1       0.273   0.005   0.532  0.00  0.00     0.000 A 
ENDROOT
TORSDOF 0
ENDMDL
