MODEL 1
REMARK minimizedAffinity -4.91350603
REMARK minimizedRMSD -1
REMARK  0 active torsions:
REMARK  status: ('A' for Active; 'I' for Inactive)
ROOT
ATOM      1  C1  BNZ d   1      -2.917   0.253   2.066  0.00  0.00     0.000 A 
ATOM      2  C2  BNZ d   1      -2.126   0.040   3.164  0.00  0.00     0.000 A 
ATOM      3  C3  BNZ d   1      -0.814  -0.315   3.022  0.00  0.00     0.000 A 
ATOM      4  C4  BNZ d   1      -0.305  -0.495   1.787  0.00  0.00     0.000 A 
ATOM      5  C5  BNZ d   1      -1.092  -0.293   0.670  0.00  0.00     0.000 A 
ATOM      6  C6  BNZ d   1      -2.402   0.102   0.815  0.00  0.00     0.000 A 
ENDROOT
TORSDOF 0
ENDMDL
