MODEL 1
REMARK minimizedAffinity -4.4238224
REMARK minimizedRMSD -1
REMARK  0 active torsions:
REMARK  status: ('A' for Active; 'I' for Inactive)
ROOT
ATOM      1  C1  BNZ d   1      -1.023  -0.528   1.978  0.00  0.00     0.000 A 
ATOM      2  C2  BNZ d   1      -2.359  -0.227   2.010  0.00  0.00     0.000 A 
ATOM      3  C3  BNZ d   1      -2.988   0.285   0.910  0.00  0.00     0.000 A 
ATOM      4  C4  BNZ d   1      -2.274   0.533  -0.206  0.00  0.00     0.000 A 
ATOM      5  C5  BNZ d   1      -0.924   0.244  -0.252  0.00  0.00     0.000 A 
ATOM      6  C6  BNZ d   1      -0.303  -0.308   0.844  0.00  0.00     0.000 A 
ENDROOT
TORSDOF 0
ENDMDL
