MODEL 1
REMARK minimizedAffinity -3.69504023
REMARK minimizedRMSD -1
REMARK  0 active torsions:
REMARK  status: ('A' for Active; 'I' for Inactive)
ROOT
ATOM      1  C1  BNZ d   1      -1.234  -0.102   3.231  0.00  0.00     0.000 A 
ATOM      2  C2  BNZ d   1      -2.364   0.667   3.152  0.00  0.00     0.000 A 
ATOM      3  C3  BNZ d   1      -3.047   0.789   1.974  0.00  0.00     0.000 A 
ATOM      4  C4  BNZ d   1      -2.576   0.176   0.869  0.00  0.00     0.000 A 
ATOM      5  C5  BNZ d   1      -1.433  -0.595   0.930  0.00  0.00     0.000 A 
ATOM      6  C6  BNZ d   1      -0.770  -0.747   2.126  0.00  0.00     0.000 A 
ENDROOT
TORSDOF 0
ENDMDL
