MODEL 1
REMARK minimizedAffinity -4.25774908
REMARK minimizedRMSD -1
REMARK  0 active torsions:
REMARK  status: ('A' for Active; 'I' for Inactive)
ROOT
ATOM      1  C1  BNZ d   1      -2.225  -0.357   0.955  0.00  0.00     0.000 A 
ATOM      2  C2  BNZ d   1      -1.130  -1.136   1.216  0.00  0.00     0.000 A 
ATOM      3  C3  BNZ d   1      -0.674  -1.295   2.495  0.00  0.00     0.000 A 
ATOM      4  C4  BNZ d   1      -1.288  -0.645   3.504  0.00  0.00     0.000 A 
ATOM      5  C5  BNZ d   1      -2.389   0.151   3.255  0.00  0.00     0.000 A 
ATOM      6  C6  BNZ d   1      -2.868   0.278   1.972  0.00  0.00     0.000 A 
ENDROOT
TORSDOF 0
ENDMDL
