MODEL 1
REMARK minimizedAffinity -4.15666294
REMARK minimizedRMSD -1
REMARK  0 active torsions:
REMARK  status: ('A' for Active; 'I' for Inactive)
ROOT
ATOM      1  C1  BNZ d   1      -0.538  -0.154   0.556  0.00  0.00     0.000 A 
ATOM      2  C2  BNZ d   1      -1.881   0.112   0.548  0.00  0.00     0.000 A 
ATOM      3  C3  BNZ d   1      -2.573   0.255   1.718  0.00  0.00     0.000 A 
ATOM      4  C4  BNZ d   1      -1.930   0.092   2.892  0.00  0.00     0.000 A 
ATOM      5  C5  BNZ d   1      -0.578  -0.185   2.917  0.00  0.00     0.000 A 
ATOM      6  C6  BNZ d   1       0.123  -0.290   1.737  0.00  0.00     0.000 A 
ENDROOT
TORSDOF 0
ENDMDL
