MODEL 1
REMARK minimizedAffinity 2.56550097
REMARK minimizedRMSD -1
REMARK  1 active torsions:
REMARK  status: ('A' for Active; 'I' for Inactive)
REMARK    1  A    between atoms: C1_2  and  C2_3 
ROOT
ATOM      1  C2  UNL d   1      -2.454   1.448  -0.015  0.00  0.00    -0.073 A 
ATOM      2  C3  UNL d   1      -2.392   0.214   0.641  0.00  0.00    -0.002 A 
ATOM      3  C4  UNL d   1      -1.195  -0.223   1.210  0.00  0.00     0.004 A 
ATOM      4  C5  UNL d   1      -0.051   0.571   1.135  0.00  0.00    -0.004 A 
ATOM      5  C6  UNL d   1      -0.096   1.813   0.494  0.00  0.00    -0.075 A 
ATOM      6  C7  UNL d   1       1.127   2.679   0.402  0.00  0.00     0.076 C 
ATOM      7  C8  UNL d   1      -1.301   2.244  -0.077  0.00  0.00     0.001 A 
ENDROOT
BRANCH   1   8
ATOM      8  C1  UNL d   1      -3.746   1.927  -0.625  0.00  0.00     0.053 C 
ATOM      9  C   UNL d   1      -4.948   1.571   0.234  0.00  0.00     0.018 C 
ENDBRANCH   1   8
TORSDOF 1
ENDMDL
