MODEL 1
REMARK minimizedAffinity 1.37239933
REMARK minimizedRMSD -1
REMARK  1 active torsions:
REMARK  status: ('A' for Active; 'I' for Inactive)
REMARK    1  A    between atoms: C1_2  and  C2_3 
ROOT
ATOM      1  C2  UNL d   1      -0.837   1.201   1.287  0.00  0.00    -0.073 A 
ATOM      2  C3  UNL d   1      -0.997   2.334   0.481  0.00  0.00    -0.002 A 
ATOM      3  C4  UNL d   1      -2.229   2.610  -0.112  0.00  0.00     0.004 A 
ATOM      4  C5  UNL d   1      -3.316   1.761   0.100  0.00  0.00    -0.004 A 
ATOM      5  C6  UNL d   1      -3.179   0.630   0.911  0.00  0.00    -0.075 A 
ATOM      6  C7  UNL d   1      -4.337  -0.294   1.148  0.00  0.00     0.076 C 
ATOM      7  C8  UNL d   1      -1.937   0.359   1.501  0.00  0.00     0.001 A 
ENDROOT
BRANCH   1   8
ATOM      8  C1  UNL d   1       0.491   0.903   1.934  0.00  0.00     0.053 C 
ATOM      9  C   UNL d   1       1.657   1.412   1.102  0.00  0.00     0.018 C 
ENDBRANCH   1   8
TORSDOF 1
ENDMDL
