MODEL 1
REMARK minimizedAffinity 2.54153514
REMARK minimizedRMSD -1
REMARK  1 active torsions:
REMARK  status: ('A' for Active; 'I' for Inactive)
REMARK    1  A    between atoms: C1_2  and  C2_3 
ROOT
ATOM      1  C2  UNL d   1       4.906   5.512   3.032  0.00  0.00    -0.073 A 
ATOM      2  C3  UNL d   1       5.159   6.000   1.745  0.00  0.00    -0.002 A 
ATOM      3  C4  UNL d   1       4.406   5.550   0.660  0.00  0.00     0.004 A 
ATOM      4  C5  UNL d   1       3.389   4.615   0.850  0.00  0.00    -0.004 A 
ATOM      5  C6  UNL d   1       3.113   4.124   2.131  0.00  0.00    -0.075 A 
ATOM      6  C7  UNL d   1       2.024   3.117   2.352  0.00  0.00     0.076 C 
ATOM      7  C8  UNL d   1       3.876   4.579   3.215  0.00  0.00     0.001 A 
ENDROOT
BRANCH   1   8
ATOM      8  C1  UNL d   1       5.713   5.999   4.208  0.00  0.00     0.053 C 
ATOM      9  C   UNL d   1       4.905   5.990   5.496  0.00  0.00     0.018 C 
ENDBRANCH   1   8
TORSDOF 1
ENDMDL
