MODEL 1
REMARK minimizedAffinity 3.16110349
REMARK minimizedRMSD -1
REMARK  1 active torsions:
REMARK  status: ('A' for Active; 'I' for Inactive)
REMARK    1  A    between atoms: C1_2  and  C2_3 
ROOT
ATOM      1  C2  UNL d   1      -1.169  -4.436   2.140  0.00  0.00    -0.073 A 
ATOM      2  C3  UNL d   1      -1.225  -3.184   2.762  0.00  0.00    -0.002 A 
ATOM      3  C4  UNL d   1      -1.910  -2.128   2.159  0.00  0.00     0.004 A 
ATOM      4  C5  UNL d   1      -2.551  -2.315   0.935  0.00  0.00    -0.004 A 
ATOM      5  C6  UNL d   1      -2.517  -3.563   0.304  0.00  0.00    -0.075 A 
ATOM      6  C7  UNL d   1      -3.200  -3.779  -1.015  0.00  0.00     0.076 C 
ATOM      7  C8  UNL d   1      -1.825  -4.617   0.914  0.00  0.00     0.001 A 
ENDROOT
BRANCH   1   8
ATOM      8  C1  UNL d   1      -0.436  -5.581   2.790  0.00  0.00     0.053 C 
ATOM      9  C   UNL d   1       0.139  -5.195   4.143  0.00  0.00     0.018 C 
ENDBRANCH   1   8
TORSDOF 1
ENDMDL
