MODEL 1
REMARK minimizedAffinity 4.50246286
REMARK minimizedRMSD -1
REMARK  1 active torsions:
REMARK  status: ('A' for Active; 'I' for Inactive)
REMARK    1  A    between atoms: C1_2  and  C2_3 
ROOT
ATOM      1  C2  UNL d   1       2.010   2.779   2.418  0.00  0.00    -0.073 A 
ATOM      2  C3  UNL d   1       1.965   1.794   1.425  0.00  0.00    -0.002 A 
ATOM      3  C4  UNL d   1       0.744   1.248   1.028  0.00  0.00     0.004 A 
ATOM      4  C5  UNL d   1      -0.444   1.686   1.614  0.00  0.00    -0.004 A 
ATOM      5  C6  UNL d   1      -0.421   2.678   2.600  0.00  0.00    -0.075 A 
ATOM      6  C7  UNL d   1      -1.689   3.158   3.241  0.00  0.00     0.076 C 
ATOM      7  C8  UNL d   1       0.810   3.219   2.995  0.00  0.00     0.001 A 
ENDROOT
BRANCH   1   8
ATOM      8  C1  UNL d   1       3.326   3.376   2.845  0.00  0.00     0.053 C 
ATOM      9  C   UNL d   1       3.405   4.863   2.536  0.00  0.00     0.018 C 
ENDBRANCH   1   8
TORSDOF 1
ENDMDL
