MODEL 1
REMARK minimizedAffinity 3.41272855
REMARK minimizedRMSD -1
REMARK  1 active torsions:
REMARK  status: ('A' for Active; 'I' for Inactive)
REMARK    1  A    between atoms: C1_2  and  C2_3 
ROOT
ATOM      1  C2  UNL d   1       2.037   5.074   1.890  0.00  0.00    -0.073 A 
ATOM      2  C3  UNL d   1       2.245   5.065   3.274  0.00  0.00    -0.002 A 
ATOM      3  C4  UNL d   1       1.514   4.201   4.091  0.00  0.00     0.004 A 
ATOM      4  C5  UNL d   1       0.574   3.334   3.533  0.00  0.00    -0.004 A 
ATOM      5  C6  UNL d   1       0.361   3.320   2.151  0.00  0.00    -0.075 A 
ATOM      6  C7  UNL d   1      -0.648   2.395   1.535  0.00  0.00     0.076 C 
ATOM      7  C8  UNL d   1       1.097   4.192   1.338  0.00  0.00     0.001 A 
ENDROOT
BRANCH   1   8
ATOM      8  C1  UNL d   1       2.829   6.000   1.004  0.00  0.00     0.053 C 
ATOM      9  C   UNL d   1       4.308   6.000   1.355  0.00  0.00     0.018 C 
ENDBRANCH   1   8
TORSDOF 1
ENDMDL
