MODEL 1
REMARK minimizedAffinity 6.63840008
REMARK minimizedRMSD -1
REMARK  1 active torsions:
REMARK  status: ('A' for Active; 'I' for Inactive)
REMARK    1  A    between atoms: C1_2  and  C2_3 
ROOT
ATOM      1  C2  UNL d   1       0.565   1.451  -0.008  0.00  0.00    -0.073 A 
ATOM      2  C3  UNL d   1       1.795   0.950   0.433  0.00  0.00    -0.002 A 
ATOM      3  C4  UNL d   1       2.855   0.796  -0.462  0.00  0.00     0.004 A 
ATOM      4  C5  UNL d   1       2.699   1.148  -1.803  0.00  0.00    -0.004 A 
ATOM      5  C6  UNL d   1       1.481   1.661  -2.260  0.00  0.00    -0.075 A 
ATOM      6  C7  UNL d   1       1.295   2.042  -3.699  0.00  0.00     0.076 C 
ATOM      7  C8  UNL d   1       0.420   1.810  -1.356  0.00  0.00     0.001 A 
ENDROOT
BRANCH   1   8
ATOM      8  C1  UNL d   1      -0.580   1.624   0.956  0.00  0.00     0.053 C 
ATOM      9  C   UNL d   1      -1.438   0.373   1.053  0.00  0.00     0.018 C 
ENDBRANCH   1   8
TORSDOF 1
ENDMDL
