MODEL 1
REMARK minimizedAffinity -3.35593724
REMARK minimizedRMSD -1
REMARK  1 active torsions:
REMARK  status: ('A' for Active; 'I' for Inactive)
REMARK    1  A    between atoms: C1_2  and  C2_3 
ROOT
ATOM      1  C2  UNL d   1      -1.039   0.904   0.662  0.00  0.00    -0.073 A 
ATOM      2  C3  UNL d   1      -1.289   1.719   1.772  0.00  0.00    -0.002 A 
ATOM      3  C4  UNL d   1      -0.233   2.193   2.550  0.00  0.00     0.004 A 
ATOM      4  C5  UNL d   1       1.083   1.863   2.224  0.00  0.00    -0.004 A 
ATOM      5  C6  UNL d   1       1.354   1.060   1.112  0.00  0.00    -0.075 A 
ATOM      6  C7  UNL d   1       2.763   0.695   0.749  0.00  0.00     0.076 C 
ATOM      7  C8  UNL d   1       0.287   0.586   0.336  0.00  0.00     0.001 A 
ENDROOT
BRANCH   1   8
ATOM      8  C1  UNL d   1      -2.176   0.396  -0.186  0.00  0.00     0.053 C 
ATOM      9  C   UNL d   1      -3.165  -0.429   0.622  0.00  0.00     0.018 C 
ENDBRANCH   1   8
TORSDOF 1
ENDMDL
