MODEL 1
REMARK minimizedAffinity 7.59684849
REMARK minimizedRMSD -1
REMARK  1 active torsions:
REMARK  status: ('A' for Active; 'I' for Inactive)
REMARK    1  A    between atoms: C1_2  and  C2_3 
ROOT
ATOM      1  C2  UNL d   1      -1.204  -5.998   2.686  0.00  0.00    -0.073 A 
ATOM      2  C3  UNL d   1      -0.944  -5.977   4.061  0.00  0.00    -0.002 A 
ATOM      3  C4  UNL d   1       0.370  -5.970   4.530  0.00  0.00     0.004 A 
ATOM      4  C5  UNL d   1       1.436  -5.977   3.630  0.00  0.00    -0.004 A 
ATOM      5  C6  UNL d   1       1.197  -5.986   2.252  0.00  0.00    -0.075 A 
ATOM      6  C7  UNL d   1       2.333  -5.996   1.272  0.00  0.00     0.076 C 
ATOM      7  C8  UNL d   1      -0.126  -5.996   1.789  0.00  0.00     0.001 A 
ENDROOT
BRANCH   1   8
ATOM      8  C1  UNL d   1      -2.622  -5.999   2.175  0.00  0.00     0.053 C 
ATOM      9  C   UNL d   1      -2.685  -5.801   0.669  0.00  0.00     0.018 C 
ENDBRANCH   1   8
TORSDOF 1
ENDMDL
