MODEL 1
REMARK minimizedAffinity 3.40844345
REMARK minimizedRMSD -1
REMARK  1 active torsions:
REMARK  status: ('A' for Active; 'I' for Inactive)
REMARK    1  A    between atoms: C1_2  and  C2_3 
ROOT
ATOM      1  C2  UNL d   1      -1.035   0.935   0.823  0.00  0.00    -0.073 A 
ATOM      2  C3  UNL d   1       0.186   0.521   0.279  0.00  0.00    -0.002 A 
ATOM      3  C4  UNL d   1       1.388   1.024   0.780  0.00  0.00     0.004 A 
ATOM      4  C5  UNL d   1       1.381   1.937   1.834  0.00  0.00    -0.004 A 
ATOM      5  C6  UNL d   1       0.172   2.354   2.399  0.00  0.00    -0.075 A 
ATOM      6  C7  UNL d   1       0.148   3.338   3.531  0.00  0.00     0.076 C 
ATOM      7  C8  UNL d   1      -1.031   1.847   1.888  0.00  0.00     0.001 A 
ENDROOT
BRANCH   1   8
ATOM      8  C1  UNL d   1      -2.335   0.390   0.290  0.00  0.00     0.053 C 
ATOM      9  C   UNL d   1      -2.757  -0.882   1.007  0.00  0.00     0.018 C 
ENDBRANCH   1   8
TORSDOF 1
ENDMDL
