MODEL 1
REMARK minimizedAffinity 3.16781306
REMARK minimizedRMSD -1
REMARK  1 active torsions:
REMARK  status: ('A' for Active; 'I' for Inactive)
REMARK    1  A    between atoms: C1_2  and  C2_3 
ROOT
ATOM      1  C2  UNL d   1       1.297   1.454  -0.015  0.00  0.00    -0.073 A 
ATOM      2  C3  UNL d   1      -0.065   1.229  -0.242  0.00  0.00    -0.002 A 
ATOM      3  C4  UNL d   1      -1.006   1.561   0.733  0.00  0.00     0.004 A 
ATOM      4  C5  UNL d   1      -0.597   2.126   1.940  0.00  0.00    -0.004 A 
ATOM      5  C6  UNL d   1       0.759   2.370   2.181  0.00  0.00    -0.075 A 
ATOM      6  C7  UNL d   1       1.216   2.976   3.476  0.00  0.00     0.076 C 
ATOM      7  C8  UNL d   1       1.699   2.032   1.198  0.00  0.00     0.001 A 
ENDROOT
BRANCH   1   8
ATOM      8  C1  UNL d   1       2.317   1.104  -1.068  0.00  0.00     0.053 C 
ATOM      9  C   UNL d   1       1.874   1.534  -2.457  0.00  0.00     0.018 C 
ENDBRANCH   1   8
TORSDOF 1
ENDMDL
