MODEL 1
REMARK minimizedAffinity 12.1881056
REMARK minimizedRMSD -1
REMARK  1 active torsions:
REMARK  status: ('A' for Active; 'I' for Inactive)
REMARK    1  A    between atoms: C1_2  and  C2_3 
ROOT
ATOM      1  C2  UNL d   1      -2.708  -5.221  -0.896  0.00  0.00    -0.073 A 
ATOM      2  C3  UNL d   1      -3.326  -3.973  -1.032  0.00  0.00    -0.002 A 
ATOM      3  C4  UNL d   1      -3.216  -3.258  -2.226  0.00  0.00     0.004 A 
ATOM      4  C5  UNL d   1      -2.493  -3.785  -3.296  0.00  0.00    -0.004 A 
ATOM      5  C6  UNL d   1      -1.878  -5.036  -3.183  0.00  0.00    -0.075 A 
ATOM      6  C7  UNL d   1      -1.095  -5.616  -4.324  0.00  0.00     0.076 C 
ATOM      7  C8  UNL d   1      -1.991  -5.747  -1.981  0.00  0.00     0.001 A 
ENDROOT
BRANCH   1   8
ATOM      8  C1  UNL d   1      -2.829  -6.000   0.388  0.00  0.00     0.053 C 
ATOM      9  C   UNL d   1      -1.533  -5.996   1.182  0.00  0.00     0.018 C 
ENDBRANCH   1   8
TORSDOF 1
ENDMDL
