MODEL 1
REMARK minimizedAffinity -2.4212153
REMARK minimizedRMSD -1
REMARK  0 active torsions:
REMARK  status: ('A' for Active; 'I' for Inactive)
ROOT
ATOM      1  C   UNL d   1      -1.881   0.224   1.669  0.00  0.00    -0.002 A 
ATOM      2  C1  UNL d   1      -0.731  -0.084   2.382  0.00  0.00     0.010 A 
ATOM      3  C2  UNL d   1       0.480  -0.295   1.719  0.00  0.00     0.041 A 
ATOM      4  C3  UNL d   1       0.516  -0.188   0.315  0.00  0.00    -0.075 A 
ATOM      5  S   UNL d   1       1.887  -0.403  -0.708  0.00  0.00     0.015 SA
ATOM      6  C4  UNL d   1       0.978  -0.091  -2.116  0.00  0.00     0.022 A 
ATOM      7  C5  UNL d   1      -0.340   0.173  -1.831  0.00  0.00     0.026 A 
ATOM      8  C6  UNL d   1      -0.628   0.122  -0.425  0.00  0.00    -0.082 A 
ATOM      9  C7  UNL d   1      -1.841   0.330   0.276  0.00  0.00     0.045 A 
ENDROOT
TORSDOF 0
ENDMDL
