MODEL 1
REMARK minimizedAffinity 3.88239241
REMARK minimizedRMSD -1
REMARK  0 active torsions:
REMARK  status: ('A' for Active; 'I' for Inactive)
ROOT
ATOM      1  C   UNL d   1      -1.001  -0.030   0.880  0.00  0.00    -0.002 A 
ATOM      2  C1  UNL d   1      -1.990   0.682   0.216  0.00  0.00     0.010 A 
ATOM      3  C2  UNL d   1      -1.872   0.959  -1.147  0.00  0.00     0.041 A 
ATOM      4  C3  UNL d   1      -0.734   0.502  -1.840  0.00  0.00    -0.075 A 
ATOM      5  S   UNL d   1      -0.376   0.722  -3.512  0.00  0.00     0.015 SA
ATOM      6  C4  UNL d   1       1.097  -0.125  -3.385  0.00  0.00     0.022 A 
ATOM      7  C5  UNL d   1       1.327  -0.572  -2.105  0.00  0.00     0.026 A 
ATOM      8  C6  UNL d   1       0.275  -0.218  -1.194  0.00  0.00    -0.082 A 
ATOM      9  C7  UNL d   1       0.127  -0.482   0.189  0.00  0.00     0.045 A 
ENDROOT
TORSDOF 0
ENDMDL
