MODEL 1
REMARK minimizedAffinity -2.51709294
REMARK minimizedRMSD -1
REMARK  0 active torsions:
REMARK  status: ('A' for Active; 'I' for Inactive)
ROOT
ATOM      1  C   UNL d   1      -1.902   1.307   0.772  0.00  0.00    -0.002 A 
ATOM      2  C1  UNL d   1      -1.938  -0.072   0.922  0.00  0.00     0.010 A 
ATOM      3  C2  UNL d   1      -1.111  -0.892   0.152  0.00  0.00     0.041 A 
ATOM      4  C3  UNL d   1      -0.237  -0.296  -0.779  0.00  0.00    -0.075 A 
ATOM      5  S   UNL d   1       0.869  -1.101  -1.829  0.00  0.00     0.015 SA
ATOM      6  C4  UNL d   1       1.415   0.367  -2.501  0.00  0.00     0.022 A 
ATOM      7  C5  UNL d   1       0.781   1.454  -1.949  0.00  0.00     0.026 A 
ATOM      8  C6  UNL d   1      -0.182   1.090  -0.947  0.00  0.00    -0.082 A 
ATOM      9  C7  UNL d   1      -1.034   1.894  -0.152  0.00  0.00     0.045 A 
ENDROOT
TORSDOF 0
ENDMDL
