MODEL 1
REMARK minimizedAffinity 1.17925072
REMARK minimizedRMSD -1
REMARK  0 active torsions:
REMARK  status: ('A' for Active; 'I' for Inactive)
ROOT
ATOM      1  C   UNL d   1       0.007  -0.790   0.317  0.00  0.00    -0.002 A 
ATOM      2  C1  UNL d   1      -0.604   0.456   0.284  0.00  0.00     0.010 A 
ATOM      3  C2  UNL d   1      -0.577   1.229  -0.879  0.00  0.00     0.041 A 
ATOM      4  C3  UNL d   1       0.079   0.723  -2.019  0.00  0.00    -0.075 A 
ATOM      5  S   UNL d   1       0.238   1.492  -3.553  0.00  0.00     0.015 SA
ATOM      6  C4  UNL d   1       1.119   0.185  -4.201  0.00  0.00     0.022 A 
ATOM      7  C5  UNL d   1       1.297  -0.822  -3.282  0.00  0.00     0.026 A 
ATOM      8  C6  UNL d   1       0.700  -0.529  -2.010  0.00  0.00    -0.082 A 
ATOM      9  C7  UNL d   1       0.656  -1.288  -0.816  0.00  0.00     0.045 A 
ENDROOT
TORSDOF 0
ENDMDL
