MODEL 1
REMARK minimizedAffinity 1.40472865
REMARK minimizedRMSD -1
REMARK  0 active torsions:
REMARK  status: ('A' for Active; 'I' for Inactive)
ROOT
ATOM      1  C   UNL d   1       1.391   0.264  -4.356  0.00  0.00    -0.002 A 
ATOM      2  C1  UNL d   1       0.034   0.025  -4.524  0.00  0.00     0.010 A 
ATOM      3  C2  UNL d   1      -0.783  -0.235  -3.422  0.00  0.00     0.041 A 
ATOM      4  C3  UNL d   1      -0.208  -0.248  -2.136  0.00  0.00    -0.075 A 
ATOM      5  S   UNL d   1      -1.014  -0.542  -0.640  0.00  0.00     0.015 SA
ATOM      6  C4  UNL d   1       0.423  -0.356   0.257  0.00  0.00     0.022 A 
ATOM      7  C5  UNL d   1       1.501  -0.077  -0.549  0.00  0.00     0.026 A 
ATOM      8  C6  UNL d   1       1.155  -0.009  -1.941  0.00  0.00    -0.082 A 
ATOM      9  C7  UNL d   1       1.957   0.250  -3.079  0.00  0.00     0.045 A 
ENDROOT
TORSDOF 0
ENDMDL
