MODEL 1
REMARK minimizedAffinity -3.67700958
REMARK minimizedRMSD -1
REMARK  0 active torsions:
REMARK  status: ('A' for Active; 'I' for Inactive)
ROOT
ATOM      1  C   UNL d   1       0.319  -0.405   3.532  0.00  0.00    -0.002 A 
ATOM      2  C1  UNL d   1       1.450  -0.843   2.858  0.00  0.00     0.010 A 
ATOM      3  C2  UNL d   1       1.513  -0.785   1.465  0.00  0.00     0.041 A 
ATOM      4  C3  UNL d   1       0.411  -0.271   0.753  0.00  0.00    -0.075 A 
ATOM      5  S   UNL d   1       0.265  -0.103  -0.957  0.00  0.00     0.015 SA
ATOM      6  C4  UNL d   1      -1.302   0.556  -0.833  0.00  0.00     0.022 A 
ATOM      7  C5  UNL d   1      -1.719   0.652   0.474  0.00  0.00     0.026 A 
ATOM      8  C6  UNL d   1      -0.738   0.177   1.409  0.00  0.00    -0.082 A 
ATOM      9  C7  UNL d   1      -0.773   0.104   2.823  0.00  0.00     0.045 A 
ENDROOT
TORSDOF 0
ENDMDL
