MODEL 1
REMARK minimizedAffinity -0.014917112
REMARK minimizedRMSD -1
REMARK  2 active torsions:
REMARK  status: ('A' for Active; 'I' for Inactive)
REMARK    1  A    between atoms: C1_2  and  C2_3 
REMARK    2  A    between atoms: C2_3  and  C3_4 
ROOT
ATOM      1  C3  UNL d   1      -5.326  -3.214  -3.558  0.00  0.00    -0.075 A 
ATOM      2  C4  UNL d   1      -5.972  -3.705  -4.701  0.00  0.00     0.002 A 
ATOM      3  C5  UNL d   1      -5.357  -4.664  -5.506  0.00  0.00     0.002 A 
ATOM      4  C6  UNL d   1      -4.086  -5.136  -5.184  0.00  0.00    -0.004 A 
ATOM      5  C7  UNL d   1      -3.428  -4.643  -4.060  0.00  0.00     0.002 A 
ATOM      6  C8  UNL d   1      -4.043  -3.686  -3.250  0.00  0.00     0.002 A 
ENDROOT
BRANCH   1   7
ATOM      7  C2  UNL d   1      -5.999  -2.198  -2.666  0.00  0.00     0.056 C 
BRANCH   7   8
ATOM      8  C1  UNL d   1      -5.645  -0.745  -2.998  0.00  0.00     0.007 C 
ATOM      9  C   UNL d   1      -5.999  -0.351  -4.426  0.00  0.00     0.009 C 
ENDBRANCH   7   8
ENDBRANCH   1   7
TORSDOF 2
ENDMDL
