MODEL 1
REMARK minimizedAffinity 1.62361073
REMARK minimizedRMSD -1
REMARK  2 active torsions:
REMARK  status: ('A' for Active; 'I' for Inactive)
REMARK    1  A    between atoms: C1_2  and  C2_3 
REMARK    2  A    between atoms: C2_3  and  C3_4 
ROOT
ATOM      1  C3  UNL d   1      -3.814  -3.665  -3.571  0.00  0.00    -0.075 A 
ATOM      2  C4  UNL d   1      -5.159  -3.277  -3.488  0.00  0.00     0.002 A 
ATOM      3  C5  UNL d   1      -6.000  -3.398  -4.595  0.00  0.00     0.002 A 
ATOM      4  C6  UNL d   1      -5.506  -3.897  -5.798  0.00  0.00    -0.004 A 
ATOM      5  C7  UNL d   1      -4.167  -4.270  -5.896  0.00  0.00     0.002 A 
ATOM      6  C8  UNL d   1      -3.325  -4.155  -4.789  0.00  0.00     0.002 A 
ENDROOT
BRANCH   1   7
ATOM      7  C2  UNL d   1      -2.906  -3.565  -2.369  0.00  0.00     0.056 C 
BRANCH   7   8
ATOM      8  C1  UNL d   1      -3.028  -2.244  -1.602  0.00  0.00     0.007 C 
ATOM      9  C   UNL d   1      -2.565  -2.344  -0.155  0.00  0.00     0.009 C 
ENDBRANCH   7   8
ENDBRANCH   1   7
TORSDOF 2
ENDMDL
