MODEL 1
REMARK minimizedAffinity -2.62141633
REMARK minimizedRMSD -1
REMARK  2 active torsions:
REMARK  status: ('A' for Active; 'I' for Inactive)
REMARK    1  A    between atoms: C1_2  and  C2_3 
REMARK    2  A    between atoms: C2_3  and  C3_4 
ROOT
ATOM      1  C3  UNL d   1      -4.923  -3.750  -5.080  0.00  0.00    -0.075 A 
ATOM      2  C4  UNL d   1      -4.934  -4.809  -6.000  0.00  0.00     0.002 A 
ATOM      3  C5  UNL d   1      -3.988  -5.831  -5.913  0.00  0.00     0.002 A 
ATOM      4  C6  UNL d   1      -3.016  -5.803  -4.916  0.00  0.00    -0.004 A 
ATOM      5  C7  UNL d   1      -2.986  -4.747  -4.007  0.00  0.00     0.002 A 
ATOM      6  C8  UNL d   1      -3.934  -3.725  -4.089  0.00  0.00     0.002 A 
ENDROOT
BRANCH   1   7
ATOM      7  C2  UNL d   1      -5.962  -2.656  -5.150  0.00  0.00     0.056 C 
BRANCH   7   8
ATOM      8  C1  UNL d   1      -5.934  -1.693  -3.959  0.00  0.00     0.007 C 
ATOM      9  C   UNL d   1      -6.000  -0.228  -4.371  0.00  0.00     0.009 C 
ENDBRANCH   7   8
ENDBRANCH   1   7
TORSDOF 2
ENDMDL
