MODEL 1
REMARK minimizedAffinity -3.39562321
REMARK minimizedRMSD -1
REMARK  2 active torsions:
REMARK  status: ('A' for Active; 'I' for Inactive)
REMARK    1  A    between atoms: C1_2  and  C2_3 
REMARK    2  A    between atoms: C2_3  and  C3_4 
ROOT
ATOM      1  C3  UNL d   1      -3.652  -5.151  -5.462  0.00  0.00    -0.075 A 
ATOM      2  C4  UNL d   1      -4.941  -5.286  -5.999  0.00  0.00     0.002 A 
ATOM      3  C5  UNL d   1      -5.990  -4.497  -5.529  0.00  0.00     0.002 A 
ATOM      4  C6  UNL d   1      -5.769  -3.571  -4.511  0.00  0.00    -0.004 A 
ATOM      5  C7  UNL d   1      -4.496  -3.440  -3.960  0.00  0.00     0.002 A 
ATOM      6  C8  UNL d   1      -3.443  -4.225  -4.431  0.00  0.00     0.002 A 
ENDROOT
BRANCH   1   7
ATOM      7  C2  UNL d   1      -2.505  -5.981  -5.987  0.00  0.00     0.056 C 
BRANCH   7   8
ATOM      8  C1  UNL d   1      -1.127  -5.343  -5.780  0.00  0.00     0.007 C 
ATOM      9  C   UNL d   1      -0.335  -5.979  -4.646  0.00  0.00     0.009 C 
ENDBRANCH   7   8
ENDBRANCH   1   7
TORSDOF 2
ENDMDL
