MODEL 1
REMARK minimizedAffinity -2.914639
REMARK minimizedRMSD -1
REMARK  2 active torsions:
REMARK  status: ('A' for Active; 'I' for Inactive)
REMARK    1  A    between atoms: C1_2  and  C2_3 
REMARK    2  A    between atoms: C2_3  and  C3_4 
ROOT
ATOM      1  C3  UNL d   1      -3.973  -4.364  -4.752  0.00  0.00    -0.075 A 
ATOM      2  C4  UNL d   1      -3.238  -4.316  -5.946  0.00  0.00     0.002 A 
ATOM      3  C5  UNL d   1      -1.939  -4.823  -5.999  0.00  0.00     0.002 A 
ATOM      4  C6  UNL d   1      -1.356  -5.373  -4.861  0.00  0.00    -0.004 A 
ATOM      5  C7  UNL d   1      -2.070  -5.412  -3.665  0.00  0.00     0.002 A 
ATOM      6  C8  UNL d   1      -3.371  -4.909  -3.610  0.00  0.00     0.002 A 
ENDROOT
BRANCH   1   7
ATOM      7  C2  UNL d   1      -5.389  -3.845  -4.695  0.00  0.00     0.056 C 
BRANCH   7   8
ATOM      8  C1  UNL d   1      -5.823  -3.077  -5.948  0.00  0.00     0.007 C 
ATOM      9  C   UNL d   1      -6.000  -1.584  -5.706  0.00  0.00     0.009 C 
ENDBRANCH   7   8
ENDBRANCH   1   7
TORSDOF 2
ENDMDL
