MODEL 1
REMARK minimizedAffinity -2.78712201
REMARK minimizedRMSD -1
REMARK  2 active torsions:
REMARK  status: ('A' for Active; 'I' for Inactive)
REMARK    1  A    between atoms: C1_2  and  C2_3 
REMARK    2  A    between atoms: C2_3  and  C3_4 
ROOT
ATOM      1  C3  UNL d   1      -4.703  -4.233  -4.879  0.00  0.00    -0.075 A 
ATOM      2  C4  UNL d   1      -3.843  -4.083  -3.781  0.00  0.00     0.002 A 
ATOM      3  C5  UNL d   1      -2.641  -4.788  -3.721  0.00  0.00     0.002 A 
ATOM      4  C6  UNL d   1      -2.288  -5.658  -4.750  0.00  0.00    -0.004 A 
ATOM      5  C7  UNL d   1      -3.142  -5.828  -5.838  0.00  0.00     0.002 A 
ATOM      6  C8  UNL d   1      -4.344  -5.120  -5.903  0.00  0.00     0.002 A 
ENDROOT
BRANCH   1   7
ATOM      7  C2  UNL d   1      -5.991  -3.451  -4.964  0.00  0.00     0.056 C 
BRANCH   7   8
ATOM      8  C1  UNL d   1      -5.999  -2.169  -4.124  0.00  0.00     0.007 C 
ATOM      9  C   UNL d   1      -5.999  -0.900  -4.966  0.00  0.00     0.009 C 
ENDBRANCH   7   8
ENDBRANCH   1   7
TORSDOF 2
ENDMDL
