MODEL 1
REMARK minimizedAffinity 0.985235214
REMARK minimizedRMSD -1
REMARK  2 active torsions:
REMARK  status: ('A' for Active; 'I' for Inactive)
REMARK    1  A    between atoms: C1_2  and  C2_3 
REMARK    2  A    between atoms: C2_3  and  C3_4 
ROOT
ATOM      1  C3  UNL d   1       1.864   1.603  -3.467  0.00  0.00    -0.075 A 
ATOM      2  C4  UNL d   1       1.459   1.913  -4.773  0.00  0.00     0.002 A 
ATOM      3  C5  UNL d   1       0.300   2.656  -4.998  0.00  0.00     0.002 A 
ATOM      4  C6  UNL d   1      -0.473   3.088  -3.922  0.00  0.00    -0.004 A 
ATOM      5  C7  UNL d   1      -0.089   2.772  -2.621  0.00  0.00     0.002 A 
ATOM      6  C8  UNL d   1       1.073   2.032  -2.394  0.00  0.00     0.002 A 
ENDROOT
BRANCH   1   7
ATOM      7  C2  UNL d   1       3.134   0.824  -3.217  0.00  0.00     0.056 C 
BRANCH   7   8
ATOM      8  C1  UNL d   1       4.163   1.569  -2.360  0.00  0.00     0.007 C 
ATOM      9  C   UNL d   1       5.544   0.927  -2.387  0.00  0.00     0.009 C 
ENDBRANCH   7   8
ENDBRANCH   1   7
TORSDOF 2
ENDMDL
