MODEL 1
REMARK minimizedAffinity 6.41049576
REMARK minimizedRMSD -1
REMARK  2 active torsions:
REMARK  status: ('A' for Active; 'I' for Inactive)
REMARK    1  A    between atoms: C1_2  and  C2_3 
REMARK    2  A    between atoms: C2_3  and  C3_4 
ROOT
ATOM      1  C3  UNL d   1      -3.746  -3.561  -3.544  0.00  0.00    -0.075 A 
ATOM      2  C4  UNL d   1      -5.131  -3.780  -3.580  0.00  0.00     0.002 A 
ATOM      3  C5  UNL d   1      -5.805  -3.855  -4.799  0.00  0.00     0.002 A 
ATOM      4  C6  UNL d   1      -5.106  -3.702  -5.995  0.00  0.00    -0.004 A 
ATOM      5  C7  UNL d   1      -3.733  -3.468  -5.971  0.00  0.00     0.002 A 
ATOM      6  C8  UNL d   1      -3.056  -3.397  -4.753  0.00  0.00     0.002 A 
ENDROOT
BRANCH   1   7
ATOM      7  C2  UNL d   1      -3.006  -3.508  -2.229  0.00  0.00     0.056 C 
BRANCH   7   8
ATOM      8  C1  UNL d   1      -3.029  -2.132  -1.555  0.00  0.00     0.007 C 
ATOM      9  C   UNL d   1      -2.662  -2.181  -0.078  0.00  0.00     0.009 C 
ENDBRANCH   7   8
ENDBRANCH   1   7
TORSDOF 2
ENDMDL
