MODEL 1
REMARK minimizedAffinity -1.37170613
REMARK minimizedRMSD -1
REMARK  2 active torsions:
REMARK  status: ('A' for Active; 'I' for Inactive)
REMARK    1  A    between atoms: C1_2  and  C2_3 
REMARK    2  A    between atoms: C2_3  and  C3_4 
ROOT
ATOM      1  C3  UNL d   1      -5.268  -3.884  -5.104  0.00  0.00    -0.075 A 
ATOM      2  C4  UNL d   1      -5.639  -2.870  -5.999  0.00  0.00     0.002 A 
ATOM      3  C5  UNL d   1      -5.997  -1.606  -5.529  0.00  0.00     0.002 A 
ATOM      4  C6  UNL d   1      -5.999  -1.343  -4.161  0.00  0.00    -0.004 A 
ATOM      5  C7  UNL d   1      -5.648  -2.348  -3.262  0.00  0.00     0.002 A 
ATOM      6  C8  UNL d   1      -5.286  -3.612  -3.729  0.00  0.00     0.002 A 
ENDROOT
BRANCH   1   7
ATOM      7  C2  UNL d   1      -4.851  -5.245  -5.607  0.00  0.00     0.056 C 
BRANCH   7   8
ATOM      8  C1  UNL d   1      -3.371  -5.342  -5.989  0.00  0.00     0.007 C 
ATOM      9  C   UNL d   1      -2.483  -5.801  -4.840  0.00  0.00     0.009 C 
ENDBRANCH   7   8
ENDBRANCH   1   7
TORSDOF 2
ENDMDL
