MODEL 1
REMARK minimizedAffinity -2.65553021
REMARK minimizedRMSD -1
REMARK  2 active torsions:
REMARK  status: ('A' for Active; 'I' for Inactive)
REMARK    1  A    between atoms: C1_2  and  C2_3 
REMARK    2  A    between atoms: C2_3  and  C3_4 
ROOT
ATOM      1  C3  UNL d   1      -4.183  -5.085  -5.281  0.00  0.00    -0.075 A 
ATOM      2  C4  UNL d   1      -3.198  -5.806  -5.970  0.00  0.00     0.002 A 
ATOM      3  C5  UNL d   1      -1.934  -5.993  -5.408  0.00  0.00     0.002 A 
ATOM      4  C6  UNL d   1      -1.638  -5.454  -4.159  0.00  0.00    -0.004 A 
ATOM      5  C7  UNL d   1      -2.604  -4.721  -3.473  0.00  0.00     0.002 A 
ATOM      6  C8  UNL d   1      -3.870  -4.536  -4.031  0.00  0.00     0.002 A 
ENDROOT
BRANCH   1   7
ATOM      7  C2  UNL d   1      -5.562  -4.904  -5.871  0.00  0.00     0.056 C 
BRANCH   7   8
ATOM      8  C1  UNL d   1      -5.999  -3.441  -5.999  0.00  0.00     0.007 C 
ATOM      9  C   UNL d   1      -5.914  -2.672  -4.687  0.00  0.00     0.009 C 
ENDBRANCH   7   8
ENDBRANCH   1   7
TORSDOF 2
ENDMDL
