MODEL 1
REMARK minimizedAffinity 2.62192869
REMARK minimizedRMSD -1
REMARK  0 active torsions:
REMARK  status: ('A' for Active; 'I' for Inactive)
ROOT
ATOM      1  C   UNL d   1       1.229  -2.940   0.701  0.00  0.00     0.023 A 
ATOM      2  C1  UNL d   1       0.778  -4.251   0.545  0.00  0.00     0.003 A 
ATOM      3  C2  UNL d   1      -0.557  -4.498   0.218  0.00  0.00     0.048 A 
ATOM      4  C3  UNL d   1      -1.436  -3.429   0.048  0.00  0.00     0.023 A 
ATOM      5  C4  UNL d   1      -0.990  -2.115   0.203  0.00  0.00     0.048 A 
ATOM      6  C5  UNL d   1       0.346  -1.873   0.530  0.00  0.00     0.003 A 
ATOM      7  I   UNL d   1      -3.423  -3.794  -0.438  0.00  0.00    -0.146 I 
ENDROOT
TORSDOF 0
ENDMDL
