MODEL 1
REMARK minimizedAffinity -1.91234481
REMARK minimizedRMSD -1
REMARK  0 active torsions:
REMARK  status: ('A' for Active; 'I' for Inactive)
ROOT
ATOM      1  C   UNL d   1       0.143  -3.528  -1.941  0.00  0.00     0.023 A 
ATOM      2  C1  UNL d   1       0.493  -2.189  -1.769  0.00  0.00     0.003 A 
ATOM      3  C2  UNL d   1       0.435  -1.609  -0.500  0.00  0.00     0.048 A 
ATOM      4  C3  UNL d   1       0.027  -2.373   0.592  0.00  0.00     0.023 A 
ATOM      5  C4  UNL d   1      -0.323  -3.714   0.425  0.00  0.00     0.048 A 
ATOM      6  C5  UNL d   1      -0.264  -4.290  -0.846  0.00  0.00     0.003 A 
ATOM      7  I   UNL d   1      -0.059  -1.512   2.482  0.00  0.00    -0.146 I 
ENDROOT
TORSDOF 0
ENDMDL
