MODEL 1
REMARK minimizedAffinity -0.244648218
REMARK minimizedRMSD -1
REMARK  0 active torsions:
REMARK  status: ('A' for Active; 'I' for Inactive)
ROOT
ATOM      1  C   UNL d   1       2.713  -1.239   4.409  0.00  0.00     0.023 A 
ATOM      2  C1  UNL d   1       2.996  -1.591   5.728  0.00  0.00     0.003 A 
ATOM      3  C2  UNL d   1       3.938  -2.585   6.000  0.00  0.00     0.048 A 
ATOM      4  C3  UNL d   1       4.595  -3.222   4.947  0.00  0.00     0.023 A 
ATOM      5  C4  UNL d   1       4.315  -2.871   3.625  0.00  0.00     0.048 A 
ATOM      6  C5  UNL d   1       3.372  -1.878   3.358  0.00  0.00     0.003 A 
ATOM      7  I   UNL d   1       5.998  -4.701   5.349  0.00  0.00    -0.146 I 
ENDROOT
TORSDOF 0
ENDMDL
