MODEL 1
REMARK minimizedAffinity 7.27925253
REMARK minimizedRMSD -1
REMARK  0 active torsions:
REMARK  status: ('A' for Active; 'I' for Inactive)
ROOT
ATOM      1  C   UNL d   1       1.603  -1.009  -2.424  0.00  0.00     0.023 A 
ATOM      2  C1  UNL d   1       0.488  -0.295  -1.984  0.00  0.00     0.003 A 
ATOM      3  C2  UNL d   1      -0.329  -0.823  -0.982  0.00  0.00     0.048 A 
ATOM      4  C3  UNL d   1      -0.025  -2.064  -0.424  0.00  0.00     0.023 A 
ATOM      5  C4  UNL d   1       1.090  -2.781  -0.861  0.00  0.00     0.048 A 
ATOM      6  C5  UNL d   1       1.904  -2.250  -1.864  0.00  0.00     0.003 A 
ATOM      7  I   UNL d   1      -1.239  -2.851   1.068  0.00  0.00    -0.146 I 
ENDROOT
TORSDOF 0
ENDMDL
