MODEL 1
REMARK minimizedAffinity 1.08436978
REMARK minimizedRMSD -1
REMARK  0 active torsions:
REMARK  status: ('A' for Active; 'I' for Inactive)
ROOT
ATOM      1  C   UNL d   1       0.143  -2.462  -1.033  0.00  0.00     0.023 A 
ATOM      2  C1  UNL d   1       0.575  -3.271   0.018  0.00  0.00     0.003 A 
ATOM      3  C2  UNL d   1       0.056  -3.089   1.301  0.00  0.00     0.048 A 
ATOM      4  C3  UNL d   1      -0.896  -2.095   1.526  0.00  0.00     0.023 A 
ATOM      5  C4  UNL d   1      -1.333  -1.284   0.478  0.00  0.00     0.048 A 
ATOM      6  C5  UNL d   1      -0.810  -1.469  -0.803  0.00  0.00     0.003 A 
ATOM      7  I   UNL d   1      -1.671  -1.822   3.435  0.00  0.00    -0.146 I 
ENDROOT
TORSDOF 0
ENDMDL
