MODEL 1
REMARK minimizedAffinity 9.75695324
REMARK minimizedRMSD -1
REMARK  0 active torsions:
REMARK  status: ('A' for Active; 'I' for Inactive)
ROOT
ATOM      1  C   UNL d   1      -0.199  -4.037   0.779  0.00  0.00     0.023 A 
ATOM      2  C1  UNL d   1       0.990  -3.933   0.057  0.00  0.00     0.003 A 
ATOM      3  C2  UNL d   1       1.235  -2.806  -0.729  0.00  0.00     0.048 A 
ATOM      4  C3  UNL d   1       0.288  -1.785  -0.788  0.00  0.00     0.023 A 
ATOM      5  C4  UNL d   1      -0.903  -1.883  -0.067  0.00  0.00     0.048 A 
ATOM      6  C5  UNL d   1      -1.144  -3.013   0.717  0.00  0.00     0.003 A 
ATOM      7  I   UNL d   1       0.651  -0.105  -1.957  0.00  0.00    -0.146 I 
ENDROOT
TORSDOF 0
ENDMDL
