MODEL 1
REMARK minimizedAffinity 9.74833393
REMARK minimizedRMSD -1
REMARK  0 active torsions:
REMARK  status: ('A' for Active; 'I' for Inactive)
ROOT
ATOM      1  C   UNL d   1      -0.260  -4.183   0.918  0.00  0.00     0.023 A 
ATOM      2  C1  UNL d   1       0.921  -4.197   0.176  0.00  0.00     0.003 A 
ATOM      3  C2  UNL d   1       1.234  -3.124  -0.661  0.00  0.00     0.048 A 
ATOM      4  C3  UNL d   1       0.361  -2.039  -0.750  0.00  0.00     0.023 A 
ATOM      5  C4  UNL d   1      -0.821  -2.021  -0.009  0.00  0.00     0.048 A 
ATOM      6  C5  UNL d   1      -1.130  -3.096   0.826  0.00  0.00     0.003 A 
ATOM      7  I   UNL d   1       0.825  -0.441  -1.995  0.00  0.00    -0.146 I 
ENDROOT
TORSDOF 0
ENDMDL
