MODEL 1
REMARK minimizedAffinity 9.25294495
REMARK minimizedRMSD -1
REMARK  0 active torsions:
REMARK  status: ('A' for Active; 'I' for Inactive)
ROOT
ATOM      1  C   UNL d   1       2.315   1.817   0.104  0.00  0.00     0.023 A 
ATOM      2  C1  UNL d   1       1.198   1.937  -0.722  0.00  0.00     0.003 A 
ATOM      3  C2  UNL d   1       0.895   0.929  -1.640  0.00  0.00     0.048 A 
ATOM      4  C3  UNL d   1       1.713  -0.197  -1.725  0.00  0.00     0.023 A 
ATOM      5  C4  UNL d   1       2.832  -0.322  -0.899  0.00  0.00     0.048 A 
ATOM      6  C5  UNL d   1       3.131   0.689   0.016  0.00  0.00     0.003 A 
ATOM      7  I   UNL d   1       1.265  -1.699  -3.090  0.00  0.00    -0.146 I 
ENDROOT
TORSDOF 0
ENDMDL
