MODEL 1
REMARK minimizedAffinity 10.187418
REMARK minimizedRMSD -1
REMARK  0 active torsions:
REMARK  status: ('A' for Active; 'I' for Inactive)
ROOT
ATOM      1  C   UNL d   1       0.440  -4.455  -0.141  0.00  0.00     0.023 A 
ATOM      2  C1  UNL d   1       0.114  -3.371   0.675  0.00  0.00     0.003 A 
ATOM      3  C2  UNL d   1       0.223  -2.069   0.184  0.00  0.00     0.048 A 
ATOM      4  C3  UNL d   1       0.659  -1.857  -1.124  0.00  0.00     0.023 A 
ATOM      5  C4  UNL d   1       0.985  -2.938  -1.944  0.00  0.00     0.048 A 
ATOM      6  C5  UNL d   1       0.875  -4.239  -1.448  0.00  0.00     0.003 A 
ATOM      7  I   UNL d   1       0.822   0.081  -1.857  0.00  0.00    -0.146 I 
ENDROOT
TORSDOF 0
ENDMDL
