MODEL 1
REMARK minimizedAffinity 2.76465082
REMARK minimizedRMSD -1
REMARK  0 active torsions:
REMARK  status: ('A' for Active; 'I' for Inactive)
ROOT
ATOM      1  C   UNL d   1       1.153  -3.653  -2.038  0.00  0.00     0.023 A 
ATOM      2  C1  UNL d   1       0.961  -2.283  -1.858  0.00  0.00     0.003 A 
ATOM      3  C2  UNL d   1       0.383  -1.807  -0.679  0.00  0.00     0.048 A 
ATOM      4  C3  UNL d   1      -0.000  -2.706   0.315  0.00  0.00     0.023 A 
ATOM      5  C4  UNL d   1       0.190  -4.077   0.140  0.00  0.00     0.048 A 
ATOM      6  C5  UNL d   1       0.767  -4.549  -1.041  0.00  0.00     0.003 A 
ATOM      7  I   UNL d   1      -0.861  -1.999   2.070  0.00  0.00    -0.146 I 
ENDROOT
TORSDOF 0
ENDMDL
