MODEL 1
REMARK minimizedAffinity 10.5350275
REMARK minimizedRMSD -1
REMARK  0 active torsions:
REMARK  status: ('A' for Active; 'I' for Inactive)
ROOT
ATOM      1  C   UNL d   1       0.117   1.416  -0.777  0.00  0.00     0.023 A 
ATOM      2  C1  UNL d   1      -1.131   1.883  -1.188  0.00  0.00     0.003 A 
ATOM      3  C2  UNL d   1      -1.511   3.198  -0.914  0.00  0.00     0.048 A 
ATOM      4  C3  UNL d   1      -0.637   4.042  -0.229  0.00  0.00     0.023 A 
ATOM      5  C4  UNL d   1       0.613   3.579   0.183  0.00  0.00     0.048 A 
ATOM      6  C5  UNL d   1       0.989   2.263  -0.092  0.00  0.00     0.003 A 
ATOM      7  I   UNL d   1      -1.201   6.000   0.180  0.00  0.00    -0.146 I 
ENDROOT
TORSDOF 0
ENDMDL
