MODEL 1
REMARK minimizedAffinity 6.2384367
REMARK minimizedRMSD -1
REMARK  0 active torsions:
REMARK  status: ('A' for Active; 'I' for Inactive)
ROOT
ATOM      1  C   UNL d   1       1.414  -3.928   0.915  0.00  0.00     0.023 A 
ATOM      2  C1  UNL d   1       0.879  -3.830  -0.370  0.00  0.00     0.003 A 
ATOM      3  C2  UNL d   1      -0.437  -3.399  -0.548  0.00  0.00     0.048 A 
ATOM      4  C3  UNL d   1      -1.212  -3.068   0.563  0.00  0.00     0.023 A 
ATOM      5  C4  UNL d   1      -0.681  -3.164   1.850  0.00  0.00     0.048 A 
ATOM      6  C5  UNL d   1       0.636  -3.596   2.023  0.00  0.00     0.003 A 
ATOM      7  I   UNL d   1      -3.172  -2.426   0.301  0.00  0.00    -0.146 I 
ENDROOT
TORSDOF 0
ENDMDL
