MODEL 1
REMARK minimizedAffinity -0.502374291
REMARK minimizedRMSD -1
REMARK  0 active torsions:
REMARK  status: ('A' for Active; 'I' for Inactive)
ROOT
ATOM      1  C   UNL d   1       0.408  -0.319  -0.728  0.00  0.00     0.023 A 
ATOM      2  C1  UNL d   1       1.161   0.758  -1.198  0.00  0.00     0.003 A 
ATOM      3  C2  UNL d   1       1.184   1.959  -0.486  0.00  0.00     0.048 A 
ATOM      4  C3  UNL d   1       0.453   2.076   0.696  0.00  0.00     0.023 A 
ATOM      5  C4  UNL d   1      -0.301   1.002   1.170  0.00  0.00     0.048 A 
ATOM      6  C5  UNL d   1      -0.322  -0.197   0.454  0.00  0.00     0.003 A 
ATOM      7  I   UNL d   1       0.487   3.863   1.757  0.00  0.00    -0.146 I 
ENDROOT
TORSDOF 0
ENDMDL
