MODEL 1
REMARK minimizedAffinity -5.03444672
REMARK minimizedRMSD -1
REMARK  0 active torsions:
REMARK  status: ('A' for Active; 'I' for Inactive)
ROOT
ATOM      1  C   UNL d   1      -0.481   1.357  -0.328  0.00  0.00     0.023 A 
ATOM      2  C1  UNL d   1      -1.085   0.527   0.617  0.00  0.00     0.003 A 
ATOM      3  C2  UNL d   1      -0.767  -0.832   0.659  0.00  0.00     0.048 A 
ATOM      4  C3  UNL d   1       0.156  -1.355  -0.247  0.00  0.00     0.023 A 
ATOM      5  C4  UNL d   1       0.763  -0.528  -1.193  0.00  0.00     0.048 A 
ATOM      6  C5  UNL d   1       0.441   0.830  -1.232  0.00  0.00     0.003 A 
ATOM      7  I   UNL d   1       0.631  -3.377  -0.186  0.00  0.00    -0.146 I 
ENDROOT
TORSDOF 0
ENDMDL
