MODEL 1
REMARK minimizedAffinity 6.7382102
REMARK minimizedRMSD -1
REMARK  0 active torsions:
REMARK  status: ('A' for Active; 'I' for Inactive)
ROOT
ATOM      1  C   UNL d   1       4.428  -1.042   4.870  0.00  0.00     0.023 A 
ATOM      2  C1  UNL d   1       5.564  -1.232   5.656  0.00  0.00     0.003 A 
ATOM      3  C2  UNL d   1       5.983  -2.524   5.980  0.00  0.00     0.048 A 
ATOM      4  C3  UNL d   1       5.261  -3.622   5.515  0.00  0.00     0.023 A 
ATOM      5  C4  UNL d   1       4.123  -3.437   4.727  0.00  0.00     0.048 A 
ATOM      6  C5  UNL d   1       3.708  -2.143   4.406  0.00  0.00     0.003 A 
ATOM      7  I   UNL d   1       5.882  -5.546   5.996  0.00  0.00    -0.146 I 
ENDROOT
TORSDOF 0
ENDMDL
