MODEL 1
REMARK minimizedAffinity 0.309063077
REMARK minimizedRMSD -1
REMARK  0 active torsions:
REMARK  status: ('A' for Active; 'I' for Inactive)
ROOT
ATOM      1  C   UNL d   1       0.247   0.014   0.969  0.00  0.00     0.023 A 
ATOM      2  C1  UNL d   1       0.308   0.163  -0.417  0.00  0.00     0.003 A 
ATOM      3  C2  UNL d   1      -0.212  -0.830  -1.251  0.00  0.00     0.048 A 
ATOM      4  C3  UNL d   1      -0.792  -1.968  -0.692  0.00  0.00     0.023 A 
ATOM      5  C4  UNL d   1      -0.857  -2.121   0.694  0.00  0.00     0.048 A 
ATOM      6  C5  UNL d   1      -0.335  -1.126   1.523  0.00  0.00     0.003 A 
ATOM      7  I   UNL d   1      -1.567  -3.446  -1.931  0.00  0.00    -0.146 I 
ENDROOT
TORSDOF 0
ENDMDL
