MODEL 1
REMARK minimizedAffinity -1.10192525
REMARK minimizedRMSD -1
REMARK  0 active torsions:
REMARK  status: ('A' for Active; 'I' for Inactive)
ROOT
ATOM      1  C   UNL d   1       0.907  -2.029  -0.527  0.00  0.00     0.023 A 
ATOM      2  C1  UNL d   1      -0.159  -2.725   0.044  0.00  0.00     0.003 A 
ATOM      3  C2  UNL d   1      -1.183  -2.028   0.689  0.00  0.00     0.048 A 
ATOM      4  C3  UNL d   1      -1.135  -0.637   0.760  0.00  0.00     0.023 A 
ATOM      5  C4  UNL d   1      -0.071   0.064   0.190  0.00  0.00     0.048 A 
ATOM      6  C5  UNL d   1       0.951  -0.637  -0.454  0.00  0.00     0.003 A 
ATOM      7  I   UNL d   1      -2.658   0.402   1.720  0.00  0.00    -0.146 I 
ENDROOT
TORSDOF 0
ENDMDL
