MODEL 1
REMARK minimizedAffinity -1.661093
REMARK minimizedRMSD -1
REMARK  0 active torsions:
REMARK  status: ('A' for Active; 'I' for Inactive)
ROOT
ATOM      1  N1  IND d   1       1.069   0.508  -3.474  0.00  0.00    -0.196 N 
ATOM      2  C2  IND d   1       1.105   1.862  -3.661  0.00  0.00     0.054 A 
ATOM      3  C3  IND d   1       0.792   2.503  -2.512  0.00  0.00    -0.031 A 
ATOM      4  C4  IND d   1       0.288   1.531  -0.182  0.00  0.00     0.051 A 
ATOM      5  C5  IND d   1       0.103   0.347   0.474  0.00  0.00    -0.031 A 
ATOM      6  C6  IND d   1       0.236  -0.869  -0.164  0.00  0.00     0.015 A 
ATOM      7  C7  IND d   1       0.572  -0.946  -1.486  0.00  0.00    -0.016 A 
ATOM      8  C8  IND d   1       0.754   0.255  -2.158  0.00  0.00    -0.047 A 
ATOM      9  C9  IND d   1       0.578   1.492  -1.525  0.00  0.00    -0.096 A 
ATOM     10  HN1 IND d   1       1.219  -0.085  -4.078  0.00  0.00     0.298 HD
ENDROOT
TORSDOF 0
ENDMDL
