MODEL 1
REMARK minimizedAffinity -1.12221861
REMARK minimizedRMSD -1
REMARK  0 active torsions:
REMARK  status: ('A' for Active; 'I' for Inactive)
ROOT
ATOM      1  N1  IND d   1       1.009   0.334  -1.019  0.00  0.00    -0.196 N 
ATOM      2  C2  IND d   1       0.311   1.381  -0.486  0.00  0.00     0.054 A 
ATOM      3  C3  IND d   1      -0.377   0.979   0.607  0.00  0.00    -0.031 A 
ATOM      4  C4  IND d   1      -0.421  -1.324   1.756  0.00  0.00     0.051 A 
ATOM      5  C5  IND d   1       0.028  -2.607   1.615  0.00  0.00    -0.031 A 
ATOM      6  C6  IND d   1       0.846  -2.982   0.569  0.00  0.00     0.015 A 
ATOM      7  C7  IND d   1       1.257  -2.082  -0.373  0.00  0.00    -0.016 A 
ATOM      8  C8  IND d   1       0.797  -0.779  -0.237  0.00  0.00    -0.047 A 
ATOM      9  C9  IND d   1      -0.069  -0.402   0.798  0.00  0.00    -0.096 A 
ATOM     10  HN1 IND d   1       1.499   0.366  -1.725  0.00  0.00     0.298 HD
ENDROOT
TORSDOF 0
ENDMDL
