MODEL 1
REMARK minimizedAffinity -2.24874282
REMARK minimizedRMSD -1
REMARK  0 active torsions:
REMARK  status: ('A' for Active; 'I' for Inactive)
ROOT
ATOM      1  N1  IND d   1      -2.097   0.958   2.062  0.00  0.00    -0.196 N 
ATOM      2  C2  IND d   1      -2.670   0.172   3.023  0.00  0.00     0.054 A 
ATOM      3  C3  IND d   1      -2.209  -1.095   2.931  0.00  0.00    -0.031 A 
ATOM      4  C4  IND d   1      -0.434  -2.079   1.347  0.00  0.00     0.051 A 
ATOM      5  C5  IND d   1       0.347  -1.759   0.272  0.00  0.00    -0.031 A 
ATOM      6  C6  IND d   1       0.355  -0.490  -0.271  0.00  0.00     0.015 A 
ATOM      7  C7  IND d   1      -0.412   0.513   0.251  0.00  0.00    -0.016 A 
ATOM      8  C8  IND d   1      -1.212   0.189   1.338  0.00  0.00    -0.047 A 
ATOM      9  C9  IND d   1      -1.256  -1.107   1.866  0.00  0.00    -0.096 A 
ATOM     10  HN1 IND d   1      -2.262   1.791   1.931  0.00  0.00     0.298 HD
ENDROOT
TORSDOF 0
ENDMDL
