MODEL 1
REMARK minimizedAffinity -2.49288225
REMARK minimizedRMSD -1
REMARK  0 active torsions:
REMARK  status: ('A' for Active; 'I' for Inactive)
ROOT
ATOM      1  N1  IND d   1      -2.173   0.977   1.723  0.00  0.00    -0.196 N 
ATOM      2  C2  IND d   1      -2.893   0.104   2.489  0.00  0.00     0.054 A 
ATOM      3  C3  IND d   1      -2.339  -1.128   2.445  0.00  0.00    -0.031 A 
ATOM      4  C4  IND d   1      -0.192  -1.914   1.261  0.00  0.00     0.051 A 
ATOM      5  C5  IND d   1       0.787  -1.485   0.409  0.00  0.00    -0.031 A 
ATOM      6  C6  IND d   1       0.832  -0.187  -0.055  0.00  0.00     0.015 A 
ATOM      7  C7  IND d   1      -0.099   0.739   0.325  0.00  0.00    -0.016 A 
ATOM      8  C8  IND d   1      -1.098   0.305   1.185  0.00  0.00    -0.047 A 
ATOM      9  C9  IND d   1      -1.173  -1.023   1.626  0.00  0.00    -0.096 A 
ATOM     10  HN1 IND d   1      -2.360   1.807   1.599  0.00  0.00     0.298 HD
ENDROOT
TORSDOF 0
ENDMDL
