MODEL 1
REMARK minimizedAffinity -3.941782
REMARK minimizedRMSD -1
REMARK  0 active torsions:
REMARK  status: ('A' for Active; 'I' for Inactive)
ROOT
ATOM      1  N1  IND d   1      -1.557   1.127   1.325  0.00  0.00    -0.196 N 
ATOM      2  C2  IND d   1      -0.679   1.909   0.627  0.00  0.00     0.054 A 
ATOM      3  C3  IND d   1       0.320   1.154   0.117  0.00  0.00    -0.031 A 
ATOM      4  C4  IND d   1       0.658  -1.396   0.219  0.00  0.00     0.051 A 
ATOM      5  C5  IND d   1       0.137  -2.531   0.776  0.00  0.00    -0.031 A 
ATOM      6  C6  IND d   1      -1.000  -2.504   1.557  0.00  0.00     0.015 A 
ATOM      7  C7  IND d   1      -1.667  -1.337   1.803  0.00  0.00    -0.016 A 
ATOM      8  C8  IND d   1      -1.137  -0.183   1.245  0.00  0.00    -0.047 A 
ATOM      9  C9  IND d   1       0.040  -0.198   0.486  0.00  0.00    -0.096 A 
ATOM     10  HN1 IND d   1      -2.255   1.407   1.743  0.00  0.00     0.298 HD
ENDROOT
TORSDOF 0
ENDMDL
