MODEL 1
REMARK minimizedAffinity -3.42119956
REMARK minimizedRMSD -1
REMARK  0 active torsions:
REMARK  status: ('A' for Active; 'I' for Inactive)
ROOT
ATOM      1  N1  IND d   1      -1.982   0.952   1.867  0.00  0.00    -0.196 N 
ATOM      2  C2  IND d   1      -2.826   0.177   2.612  0.00  0.00     0.054 A 
ATOM      3  C3  IND d   1      -2.495  -1.128   2.493  0.00  0.00    -0.031 A 
ATOM      4  C4  IND d   1      -0.542  -2.209   1.209  0.00  0.00     0.051 A 
ATOM      5  C5  IND d   1       0.477  -1.911   0.349  0.00  0.00    -0.031 A 
ATOM      6  C6  IND d   1       0.736  -0.617  -0.055  0.00  0.00     0.015 A 
ATOM      7  C7  IND d   1      -0.012   0.433   0.397  0.00  0.00    -0.016 A 
ATOM      8  C8  IND d   1      -1.052   0.134   1.265  0.00  0.00    -0.047 A 
ATOM      9  C9  IND d   1      -1.346  -1.182   1.645  0.00  0.00    -0.096 A 
ATOM     10  HN1 IND d   1      -2.026   1.807   1.787  0.00  0.00     0.298 HD
ENDROOT
TORSDOF 0
ENDMDL
