MODEL 1
REMARK minimizedAffinity -1.98476768
REMARK minimizedRMSD -1
REMARK  0 active torsions:
REMARK  status: ('A' for Active; 'I' for Inactive)
ROOT
ATOM      1  N1  IND d   1      -2.058   0.849   1.457  0.00  0.00    -0.196 N 
ATOM      2  C2  IND d   1      -2.880   0.299   2.401  0.00  0.00     0.054 A 
ATOM      3  C3  IND d   1      -2.507  -0.972   2.667  0.00  0.00    -0.031 A 
ATOM      4  C4  IND d   1      -0.515  -2.319   1.745  0.00  0.00     0.051 A 
ATOM      5  C5  IND d   1       0.498  -2.253   0.831  0.00  0.00    -0.031 A 
ATOM      6  C6  IND d   1       0.718  -1.127   0.065  0.00  0.00     0.015 A 
ATOM      7  C7  IND d   1      -0.065  -0.014   0.194  0.00  0.00    -0.016 A 
ATOM      8  C8  IND d   1      -1.100  -0.080   1.116  0.00  0.00    -0.047 A 
ATOM      9  C9  IND d   1      -1.353  -1.235   1.866  0.00  0.00    -0.096 A 
ATOM     10  HN1 IND d   1      -2.128   1.642   1.131  0.00  0.00     0.298 HD
ENDROOT
TORSDOF 0
ENDMDL
