MODEL 1
REMARK minimizedAffinity -1.13920724
REMARK minimizedRMSD -1
REMARK  0 active torsions:
REMARK  status: ('A' for Active; 'I' for Inactive)
ROOT
ATOM      1  N1  IND d   1      -1.496  -0.956   1.950  0.00  0.00    -0.196 N 
ATOM      2  C2  IND d   1      -1.079  -2.233   2.203  0.00  0.00     0.054 A 
ATOM      3  C3  IND d   1       0.080  -2.486   1.557  0.00  0.00    -0.031 A 
ATOM      4  C4  IND d   1       1.523  -0.919   0.110  0.00  0.00     0.051 A 
ATOM      5  C5  IND d   1       1.535   0.333  -0.438  0.00  0.00    -0.031 A 
ATOM      6  C6  IND d   1       0.518   1.238  -0.212  0.00  0.00     0.015 A 
ATOM      7  C7  IND d   1      -0.548   0.928   0.584  0.00  0.00    -0.016 A 
ATOM      8  C8  IND d   1      -0.567  -0.344   1.137  0.00  0.00    -0.047 A 
ATOM      9  C9  IND d   1       0.440  -1.282   0.877  0.00  0.00    -0.096 A 
ATOM     10  HN1 IND d   1      -2.218  -0.595   2.248  0.00  0.00     0.298 HD
ENDROOT
TORSDOF 0
ENDMDL
