MODEL 1
REMARK minimizedAffinity 0.814257264
REMARK minimizedRMSD -1
REMARK  0 active torsions:
REMARK  status: ('A' for Active; 'I' for Inactive)
ROOT
ATOM      1  N1  IND d   1      -0.593   0.993   0.112  0.00  0.00    -0.196 N 
ATOM      2  C2  IND d   1       0.227   0.205   0.871  0.00  0.00     0.054 A 
ATOM      3  C3  IND d   1       1.471   0.174   0.343  0.00  0.00    -0.031 A 
ATOM      4  C4  IND d   1       2.411   1.422  -1.703  0.00  0.00     0.051 A 
ATOM      5  C5  IND d   1       2.034   2.232  -2.737  0.00  0.00    -0.031 A 
ATOM      6  C6  IND d   1       0.737   2.682  -2.876  0.00  0.00     0.015 A 
ATOM      7  C7  IND d   1      -0.234   2.346  -1.975  0.00  0.00    -0.016 A 
ATOM      8  C8  IND d   1       0.144   1.518  -0.927  0.00  0.00    -0.047 A 
ATOM      9  C9  IND d   1       1.449   1.024  -0.805  0.00  0.00    -0.096 A 
ATOM     10  HN1 IND d   1      -1.427   1.137   0.259  0.00  0.00     0.298 HD
ENDROOT
TORSDOF 0
ENDMDL
