MODEL 1
REMARK minimizedAffinity 7.51316357
REMARK minimizedRMSD -1
REMARK  0 active torsions:
REMARK  status: ('A' for Active; 'I' for Inactive)
ROOT
ATOM      1  N1  IND d   1       4.506   4.400   1.870  0.00  0.00    -0.196 N 
ATOM      2  C2  IND d   1       4.494   3.037   1.969  0.00  0.00     0.054 A 
ATOM      3  C3  IND d   1       4.533   2.476   0.739  0.00  0.00    -0.031 A 
ATOM      4  C4  IND d   1       4.722   3.603  -1.567  0.00  0.00     0.051 A 
ATOM      5  C5  IND d   1       4.728   4.830  -2.170  0.00  0.00    -0.031 A 
ATOM      6  C6  IND d   1       4.662   6.000  -1.441  0.00  0.00     0.015 A 
ATOM      7  C7  IND d   1       4.598   5.987  -0.077  0.00  0.00    -0.016 A 
ATOM      8  C8  IND d   1       4.585   4.742   0.538  0.00  0.00    -0.047 A 
ATOM      9  C9  IND d   1       4.609   3.551  -0.198  0.00  0.00    -0.096 A 
ATOM     10  HN1 IND d   1       4.470   4.951   2.529  0.00  0.00     0.298 HD
ENDROOT
TORSDOF 0
ENDMDL
