MODEL 1
REMARK minimizedAffinity -1.48703015
REMARK minimizedRMSD -1
REMARK  0 active torsions:
REMARK  status: ('A' for Active; 'I' for Inactive)
ROOT
ATOM      1  N1  IND d   1       1.139   0.824  -3.318  0.00  0.00    -0.196 N 
ATOM      2  C2  IND d   1       1.061   2.093  -3.820  0.00  0.00     0.054 A 
ATOM      3  C3  IND d   1       0.601   2.945  -2.876  0.00  0.00    -0.031 A 
ATOM      4  C4  IND d   1       0.012   2.491  -0.411  0.00  0.00     0.051 A 
ATOM      5  C5  IND d   1      -0.111   1.478   0.498  0.00  0.00    -0.031 A 
ATOM      6  C6  IND d   1       0.185   0.169   0.176  0.00  0.00     0.015 A 
ATOM      7  C7  IND d   1       0.628  -0.175  -1.070  0.00  0.00    -0.016 A 
ATOM      8  C8  IND d   1       0.747   0.850  -1.998  0.00  0.00    -0.047 A 
ATOM      9  C9  IND d   1       0.408   2.173  -1.689  0.00  0.00    -0.096 A 
ATOM     10  HN1 IND d   1       1.391   0.127  -3.754  0.00  0.00     0.298 HD
ENDROOT
TORSDOF 0
ENDMDL
