MODEL 1
REMARK minimizedAffinity -2.81525493
REMARK minimizedRMSD -1
REMARK  0 active torsions:
REMARK  status: ('A' for Active; 'I' for Inactive)
ROOT
ATOM      1  N1  IND d   1      -2.504   1.170   1.314  0.00  0.00    -0.196 N 
ATOM      2  C2  IND d   1      -1.796   1.919   0.416  0.00  0.00     0.054 A 
ATOM      3  C3  IND d   1      -0.697   1.248   0.006  0.00  0.00    -0.031 A 
ATOM      4  C4  IND d   1       0.081  -1.134   0.598  0.00  0.00     0.051 A 
ATOM      5  C5  IND d   1      -0.219  -2.195   1.405  0.00  0.00    -0.031 A 
ATOM      6  C6  IND d   1      -1.319  -2.190   2.238  0.00  0.00     0.015 A 
ATOM      7  C7  IND d   1      -2.171  -1.123   2.286  0.00  0.00    -0.016 A 
ATOM      8  C8  IND d   1      -1.866  -0.041   1.473  0.00  0.00    -0.047 A 
ATOM      9  C9  IND d   1      -0.727  -0.023   0.658  0.00  0.00    -0.096 A 
ATOM     10  HN1 IND d   1      -3.226   1.413   1.712  0.00  0.00     0.298 HD
ENDROOT
TORSDOF 0
ENDMDL
