MODEL 1
REMARK minimizedAffinity -3.59722209
REMARK minimizedRMSD -1
REMARK  0 active torsions:
REMARK  status: ('A' for Active; 'I' for Inactive)
ROOT
ATOM      1  N1  IND d   1      -0.169   1.116   0.040  0.00  0.00    -0.196 N 
ATOM      2  C2  IND d   1       0.899   0.501  -0.551  0.00  0.00     0.054 A 
ATOM      3  C3  IND d   1       0.995  -0.781  -0.132  0.00  0.00    -0.031 A 
ATOM      4  C4  IND d   1      -0.553  -2.108   1.440  0.00  0.00     0.051 A 
ATOM      5  C5  IND d   1      -1.641  -1.963   2.255  0.00  0.00    -0.031 A 
ATOM      6  C6  IND d   1      -2.308  -0.761   2.374  0.00  0.00     0.015 A 
ATOM      7  C7  IND d   1      -1.919   0.343   1.670  0.00  0.00    -0.016 A 
ATOM      8  C8  IND d   1      -0.810   0.202   0.846  0.00  0.00    -0.047 A 
ATOM      9  C9  IND d   1      -0.103  -1.004   0.755  0.00  0.00    -0.096 A 
ATOM     10  HN1 IND d   1      -0.402   1.936  -0.073  0.00  0.00     0.298 HD
ENDROOT
TORSDOF 0
ENDMDL
