MODEL 1
REMARK minimizedAffinity 2.97993851
REMARK minimizedRMSD -1
REMARK  0 active torsions:
REMARK  status: ('A' for Active; 'I' for Inactive)
ROOT
ATOM      1  N1  IND d   1      -2.127  -5.660  -6.000  0.00  0.00    -0.196 N 
ATOM      2  C2  IND d   1      -1.078  -5.997  -5.190  0.00  0.00     0.054 A 
ATOM      3  C3  IND d   1      -0.926  -5.078  -4.210  0.00  0.00    -0.031 A 
ATOM      4  C4  IND d   1      -2.347  -2.997  -3.685  0.00  0.00     0.051 A 
ATOM      5  C5  IND d   1      -3.390  -2.255  -4.165  0.00  0.00    -0.031 A 
ATOM      6  C6  IND d   1      -4.081  -2.619  -5.302  0.00  0.00     0.015 A 
ATOM      7  C7  IND d   1      -3.760  -3.750  -5.999  0.00  0.00    -0.016 A 
ATOM      8  C8  IND d   1      -2.698  -4.502  -5.519  0.00  0.00    -0.047 A 
ATOM      9  C9  IND d   1      -1.966  -4.114  -4.389  0.00  0.00    -0.096 A 
ATOM     10  HN1 IND d   1      -2.387  -6.097  -6.693  0.00  0.00     0.298 HD
ENDROOT
TORSDOF 0
ENDMDL
