MODEL 1
REMARK minimizedAffinity -1.98037362
REMARK minimizedRMSD -1
REMARK  0 active torsions:
REMARK  status: ('A' for Active; 'I' for Inactive)
ROOT
ATOM      1  N1  IND d   1       0.090  -1.297  -0.921  0.00  0.00    -0.196 N 
ATOM      2  C2  IND d   1       0.597  -1.170   0.343  0.00  0.00     0.054 A 
ATOM      3  C3  IND d   1       1.160   0.049   0.503  0.00  0.00    -0.031 A 
ATOM      4  C4  IND d   1       1.272   2.027  -1.141  0.00  0.00     0.051 A 
ATOM      5  C5  IND d   1       0.979   2.375  -2.429  0.00  0.00    -0.031 A 
ATOM      6  C6  IND d   1       0.359   1.500  -3.298  0.00  0.00     0.015 A 
ATOM      7  C7  IND d   1      -0.002   0.242  -2.904  0.00  0.00    -0.016 A 
ATOM      8  C8  IND d   1       0.301  -0.117  -1.599  0.00  0.00    -0.047 A 
ATOM      9  C9  IND d   1       0.968   0.752  -0.726  0.00  0.00    -0.096 A 
ATOM     10  HN1 IND d   1      -0.295  -1.997  -1.238  0.00  0.00     0.298 HD
ENDROOT
TORSDOF 0
ENDMDL
