MODEL 1
REMARK minimizedAffinity -1.14086604
REMARK minimizedRMSD -1
REMARK  0 active torsions:
REMARK  status: ('A' for Active; 'I' for Inactive)
ROOT
ATOM      1  N1  IND d   1       1.705   2.876  -1.876  0.00  0.00    -0.196 N 
ATOM      2  C2  IND d   1       1.413   2.687  -3.198  0.00  0.00     0.054 A 
ATOM      3  C3  IND d   1       0.794   1.499  -3.377  0.00  0.00    -0.031 A 
ATOM      4  C4  IND d   1       0.068  -0.248  -1.631  0.00  0.00     0.051 A 
ATOM      5  C5  IND d   1       0.149  -0.535  -0.297  0.00  0.00    -0.031 A 
ATOM      6  C6  IND d   1       0.762   0.318   0.597  0.00  0.00     0.015 A 
ATOM      7  C7  IND d   1       1.310   1.502   0.191  0.00  0.00    -0.016 A 
ATOM      8  C8  IND d   1       1.236   1.794  -1.164  0.00  0.00    -0.047 A 
ATOM      9  C9  IND d   1       0.653   0.912  -2.083  0.00  0.00    -0.096 A 
ATOM     10  HN1 IND d   1       2.112   3.557  -1.544  0.00  0.00     0.298 HD
ENDROOT
TORSDOF 0
ENDMDL
