MODEL 1
REMARK minimizedAffinity 10.802949
REMARK minimizedRMSD -1
REMARK  0 active torsions:
REMARK  status: ('A' for Active; 'I' for Inactive)
ROOT
ATOM      1  C   UNL d   1       3.433  -2.455  -2.694  0.00  0.00    -0.002 A 
ATOM      2  C1  UNL d   1       2.437  -3.098  -1.974  0.00  0.00     0.010 A 
ATOM      3  C2  UNL d   1       1.855  -2.485  -0.862  0.00  0.00     0.041 A 
ATOM      4  C3  UNL d   1       2.295  -1.202  -0.484  0.00  0.00    -0.075 A 
ATOM      5  S   UNL d   1       1.728  -0.257   0.842  0.00  0.00     0.015 SA
ATOM      6  C4  UNL d   1       2.794   1.023   0.483  0.00  0.00     0.022 A 
ATOM      7  C5  UNL d   1       3.572   0.753  -0.618  0.00  0.00     0.026 A 
ATOM      8  C6  UNL d   1       3.297  -0.533  -1.193  0.00  0.00    -0.082 A 
ATOM      9  C7  UNL d   1       3.867  -1.182  -2.315  0.00  0.00     0.045 A 
ENDROOT
TORSDOF 0
ENDMDL
