MODEL 1
REMARK minimizedAffinity 8.22014809
REMARK minimizedRMSD -1
REMARK  0 active torsions:
REMARK  status: ('A' for Active; 'I' for Inactive)
ROOT
ATOM      1  C   UNL d   1       4.453  -0.253  -1.847  0.00  0.00    -0.002 A 
ATOM      2  C1  UNL d   1       4.061   0.809  -1.045  0.00  0.00     0.010 A 
ATOM      3  C2  UNL d   1       3.008   0.665  -0.139  0.00  0.00     0.041 A 
ATOM      4  C3  UNL d   1       2.351  -0.578  -0.051  0.00  0.00    -0.075 A 
ATOM      5  S   UNL d   1       1.036  -0.988   0.986  0.00  0.00     0.015 SA
ATOM      6  C4  UNL d   1       0.964  -2.582   0.389  0.00  0.00     0.022 A 
ATOM      7  C5  UNL d   1       1.913  -2.814  -0.579  0.00  0.00     0.026 A 
ATOM      8  C6  UNL d   1       2.728  -1.663  -0.848  0.00  0.00    -0.082 A 
ATOM      9  C7  UNL d   1       3.798  -1.484  -1.757  0.00  0.00     0.045 A 
ENDROOT
TORSDOF 0
ENDMDL
