MODEL 1
REMARK minimizedAffinity 9.58221054
REMARK minimizedRMSD -1
REMARK  0 active torsions:
REMARK  status: ('A' for Active; 'I' for Inactive)
ROOT
ATOM      1  C   UNL d   1      -4.487   3.477  -0.370  0.00  0.00    -0.002 A 
ATOM      2  C1  UNL d   1      -5.117   2.446  -1.053  0.00  0.00     0.010 A 
ATOM      3  C2  UNL d   1      -4.395   1.330  -1.478  0.00  0.00     0.041 A 
ATOM      4  C3  UNL d   1      -3.015   1.265  -1.201  0.00  0.00    -0.075 A 
ATOM      5  S   UNL d   1      -1.928  -0.005  -1.624  0.00  0.00     0.015 SA
ATOM      6  C4  UNL d   1      -0.602   0.790  -0.907  0.00  0.00     0.022 A 
ATOM      7  C5  UNL d   1      -0.962   1.996  -0.354  0.00  0.00     0.026 A 
ATOM      8  C6  UNL d   1      -2.358   2.290  -0.514  0.00  0.00    -0.082 A 
ATOM      9  C7  UNL d   1      -3.119   3.409  -0.096  0.00  0.00     0.045 A 
ENDROOT
TORSDOF 0
ENDMDL
