MODEL 1
REMARK minimizedAffinity 2.88435054
REMARK minimizedRMSD -1
REMARK  0 active torsions:
REMARK  status: ('A' for Active; 'I' for Inactive)
ROOT
ATOM      1  C   UNL d   1       2.992  -0.330  -0.806  0.00  0.00    -0.002 A 
ATOM      2  C1  UNL d   1       3.095  -1.630  -0.331  0.00  0.00     0.010 A 
ATOM      3  C2  UNL d   1       2.390  -2.029   0.806  0.00  0.00     0.041 A 
ATOM      4  C3  UNL d   1       1.570  -1.090   1.463  0.00  0.00    -0.075 A 
ATOM      5  S   UNL d   1       0.614  -1.353   2.874  0.00  0.00     0.015 SA
ATOM      6  C4  UNL d   1       0.045   0.254   2.878  0.00  0.00     0.022 A 
ATOM      7  C5  UNL d   1       0.563   0.987   1.837  0.00  0.00     0.026 A 
ATOM      8  C6  UNL d   1       1.450   0.224   1.004  0.00  0.00    -0.082 A 
ATOM      9  C7  UNL d   1       2.178   0.598  -0.151  0.00  0.00     0.045 A 
ENDROOT
TORSDOF 0
ENDMDL
