MODEL 1
REMARK minimizedAffinity 6.02495241
REMARK minimizedRMSD -1
REMARK  0 active torsions:
REMARK  status: ('A' for Active; 'I' for Inactive)
ROOT
ATOM      1  C   UNL d   1       3.701  -1.832  -2.089  0.00  0.00    -0.002 A 
ATOM      2  C1  UNL d   1       2.768  -2.228  -1.140  0.00  0.00     0.010 A 
ATOM      3  C2  UNL d   1       2.344  -1.341  -0.149  0.00  0.00     0.041 A 
ATOM      4  C3  UNL d   1       2.876  -0.037  -0.128  0.00  0.00    -0.075 A 
ATOM      5  S   UNL d   1       2.502   1.220   0.992  0.00  0.00     0.015 SA
ATOM      6  C4  UNL d   1       3.571   2.312   0.237  0.00  0.00     0.022 A 
ATOM      7  C5  UNL d   1       4.206   1.748  -0.844  0.00  0.00     0.026 A 
ATOM      8  C6  UNL d   1       3.815   0.385  -1.073  0.00  0.00    -0.082 A 
ATOM      9  C7  UNL d   1       4.226  -0.538  -2.065  0.00  0.00     0.045 A 
ENDROOT
TORSDOF 0
ENDMDL
