MODEL 1
REMARK minimizedAffinity -2.34822774
REMARK minimizedRMSD -1
REMARK  1 active torsions:
REMARK  status: ('A' for Active; 'I' for Inactive)
REMARK    1  A    between atoms: C3_4  and  O_7 
ROOT
ATOM      1  C   UNL d   1      -4.115   6.000   4.680  0.00  0.00    -0.033 A 
ATOM      2  C1  UNL d   1      -4.111   5.563   3.354  0.00  0.00     0.039 A 
ATOM      3  C2  UNL d   1      -3.693   4.267   3.045  0.00  0.00    -0.080 A 
ATOM      4  C3  UNL d   1      -3.283   3.419   4.070  0.00  0.00     0.150 A 
ATOM      5  C4  UNL d   1      -3.288   3.846   5.394  0.00  0.00    -0.007 A 
ATOM      6  C5  UNL d   1      -3.705   5.140   5.700  0.00  0.00     0.039 A 
ENDROOT
BRANCH   4   7
ATOM      7  O   UNL d   1      -2.862   2.147   3.817  0.00  0.00    -0.526 OA
ATOM      8  H5  UNL d   1      -2.885   2.001   2.856  0.00  0.00     0.418 HD
ENDBRANCH   4   7
TORSDOF 1
ENDMDL
