MODEL 1
REMARK minimizedAffinity -2.59826422
REMARK minimizedRMSD -1
REMARK  1 active torsions:
REMARK  status: ('A' for Active; 'I' for Inactive)
REMARK    1  A    between atoms: C3_4  and  O_7 
ROOT
ATOM      1  C   UNL d   1      -2.829   5.998   4.772  0.00  0.00    -0.033 A 
ATOM      2  C1  UNL d   1      -2.532   6.000   3.407  0.00  0.00     0.039 A 
ATOM      3  C2  UNL d   1      -3.564   5.999   2.467  0.00  0.00    -0.080 A 
ATOM      4  C3  UNL d   1      -4.886   5.998   2.902  0.00  0.00     0.150 A 
ATOM      5  C4  UNL d   1      -5.189   6.000   4.260  0.00  0.00    -0.007 A 
ATOM      6  C5  UNL d   1      -4.158   6.000   5.198  0.00  0.00     0.039 A 
ENDROOT
BRANCH   4   7
ATOM      7  O   UNL d   1      -5.927   5.992   2.021  0.00  0.00    -0.526 OA
ATOM      8  H5  UNL d   1      -5.566   5.962   1.119  0.00  0.00     0.418 HD
ENDBRANCH   4   7
TORSDOF 1
ENDMDL
