MODEL 1
REMARK minimizedAffinity -0.585760415
REMARK minimizedRMSD -1
REMARK  1 active torsions:
REMARK  status: ('A' for Active; 'I' for Inactive)
REMARK    1  A    between atoms: C3_4  and  O_7 
ROOT
ATOM      1  C   UNL d   1      -4.361   5.061   1.499  0.00  0.00    -0.033 A 
ATOM      2  C1  UNL d   1      -4.768   4.127   2.453  0.00  0.00     0.039 A 
ATOM      3  C2  UNL d   1      -4.188   4.126   3.723  0.00  0.00    -0.080 A 
ATOM      4  C3  UNL d   1      -3.205   5.064   4.026  0.00  0.00     0.150 A 
ATOM      5  C4  UNL d   1      -2.798   6.000   3.082  0.00  0.00    -0.007 A 
ATOM      6  C5  UNL d   1      -3.377   5.999   1.814  0.00  0.00     0.039 A 
ENDROOT
BRANCH   4   7
ATOM      7  O   UNL d   1      -2.607   5.099   5.251  0.00  0.00    -0.526 OA
ATOM      8  H5  UNL d   1      -2.968   4.375   5.790  0.00  0.00     0.418 HD
ENDBRANCH   4   7
TORSDOF 1
ENDMDL
