MODEL 1
REMARK minimizedAffinity -2.96238637
REMARK minimizedRMSD -1
REMARK  1 active torsions:
REMARK  status: ('A' for Active; 'I' for Inactive)
REMARK    1  A    between atoms: C3_4  and  O_7 
ROOT
ATOM      1  C   UNL d   1      -5.223   5.591   1.454  0.00  0.00    -0.033 A 
ATOM      2  C1  UNL d   1      -5.764   5.423   2.730  0.00  0.00     0.039 A 
ATOM      3  C2  UNL d   1      -4.945   5.532   3.856  0.00  0.00    -0.080 A 
ATOM      4  C3  UNL d   1      -3.591   5.810   3.692  0.00  0.00     0.150 A 
ATOM      5  C4  UNL d   1      -3.047   5.982   2.424  0.00  0.00    -0.007 A 
ATOM      6  C5  UNL d   1      -3.866   5.872   1.300  0.00  0.00     0.039 A 
ENDROOT
BRANCH   4   7
ATOM      7  O   UNL d   1      -2.752   5.921   4.761  0.00  0.00    -0.526 OA
ATOM      8  H5  UNL d   1      -3.261   5.749   5.571  0.00  0.00     0.418 HD
ENDBRANCH   4   7
TORSDOF 1
ENDMDL
