MODEL 1
REMARK minimizedAffinity -3.53866577
REMARK minimizedRMSD -1
REMARK  1 active torsions:
REMARK  status: ('A' for Active; 'I' for Inactive)
REMARK    1  A    between atoms: C3_4  and  O_7 
ROOT
ATOM      1  C   UNL d   1      -4.897   5.441   2.291  0.00  0.00    -0.033 A 
ATOM      2  C1  UNL d   1      -3.625   6.000   2.425  0.00  0.00     0.039 A 
ATOM      3  C2  UNL d   1      -2.985   5.995   3.666  0.00  0.00    -0.080 A 
ATOM      4  C3  UNL d   1      -3.627   5.429   4.763  0.00  0.00     0.150 A 
ATOM      5  C4  UNL d   1      -4.893   4.867   4.636  0.00  0.00    -0.007 A 
ATOM      6  C5  UNL d   1      -5.531   4.873   3.397  0.00  0.00     0.039 A 
ENDROOT
BRANCH   4   7
ATOM      7  O   UNL d   1      -3.045   5.405   5.996  0.00  0.00    -0.526 OA
ATOM      8  H5  UNL d   1      -2.185   5.854   5.938  0.00  0.00     0.418 HD
ENDBRANCH   4   7
TORSDOF 1
ENDMDL
