MODEL 1
REMARK minimizedAffinity -2.91253328
REMARK minimizedRMSD -1
REMARK  1 active torsions:
REMARK  status: ('A' for Active; 'I' for Inactive)
REMARK    1  A    between atoms: C3_4  and  O_7 
ROOT
ATOM      1  C   UNL d   1      -4.201   5.820   2.164  0.00  0.00    -0.033 A 
ATOM      2  C1  UNL d   1      -2.828   6.000   2.343  0.00  0.00     0.039 A 
ATOM      3  C2  UNL d   1      -2.283   5.999   3.629  0.00  0.00    -0.080 A 
ATOM      4  C3  UNL d   1      -3.121   5.817   4.725  0.00  0.00     0.150 A 
ATOM      5  C4  UNL d   1      -4.490   5.633   4.554  0.00  0.00    -0.007 A 
ATOM      6  C5  UNL d   1      -5.032   5.635   3.270  0.00  0.00     0.039 A 
ENDROOT
BRANCH   4   7
ATOM      7  O   UNL d   1      -2.637   5.814   6.000  0.00  0.00    -0.526 OA
ATOM      8  H5  UNL d   1      -1.680   5.980   5.965  0.00  0.00     0.418 HD
ENDBRANCH   4   7
TORSDOF 1
ENDMDL
