MODEL 1
REMARK minimizedAffinity -2.53909588
REMARK minimizedRMSD -1
REMARK  1 active torsions:
REMARK  status: ('A' for Active; 'I' for Inactive)
REMARK    1  A    between atoms: C3_4  and  O_7 
ROOT
ATOM      1  C   UNL d   1      -4.892   5.990   1.589  0.00  0.00    -0.033 A 
ATOM      2  C1  UNL d   1      -3.514   5.998   1.368  0.00  0.00     0.039 A 
ATOM      3  C2  UNL d   1      -2.631   6.000   2.449  0.00  0.00    -0.080 A 
ATOM      4  C3  UNL d   1      -3.138   5.993   3.746  0.00  0.00     0.150 A 
ATOM      5  C4  UNL d   1      -4.510   5.981   3.974  0.00  0.00    -0.007 A 
ATOM      6  C5  UNL d   1      -5.391   5.980   2.893  0.00  0.00     0.039 A 
ENDROOT
BRANCH   4   7
ATOM      7  O   UNL d   1      -2.316   5.999   4.833  0.00  0.00    -0.526 OA
ATOM      8  H5  UNL d   1      -1.396   6.037   4.522  0.00  0.00     0.418 HD
ENDBRANCH   4   7
TORSDOF 1
ENDMDL
