MODEL 1
REMARK minimizedAffinity -1.64959347
REMARK minimizedRMSD -1
REMARK  1 active torsions:
REMARK  status: ('A' for Active; 'I' for Inactive)
REMARK    1  A    between atoms: C3_4  and  O_7 
ROOT
ATOM      1  C   UNL d   1      -2.648   5.980   4.514  0.00  0.00    -0.033 A 
ATOM      2  C1  UNL d   1      -3.944   5.990   5.034  0.00  0.00     0.039 A 
ATOM      3  C2  UNL d   1      -5.044   5.995   4.173  0.00  0.00    -0.080 A 
ATOM      4  C3  UNL d   1      -4.834   5.990   2.797  0.00  0.00     0.150 A 
ATOM      5  C4  UNL d   1      -3.546   5.976   2.272  0.00  0.00    -0.007 A 
ATOM      6  C5  UNL d   1      -2.449   5.971   3.133  0.00  0.00     0.039 A 
ENDROOT
BRANCH   4   7
ATOM      7  O   UNL d   1      -5.875   6.000   1.917  0.00  0.00    -0.526 OA
ATOM      8  H5  UNL d   1      -6.704   6.038   2.422  0.00  0.00     0.418 HD
ENDBRANCH   4   7
TORSDOF 1
ENDMDL
