MODEL 1
REMARK minimizedAffinity -2.80374146
REMARK minimizedRMSD -1
REMARK  1 active torsions:
REMARK  status: ('A' for Active; 'I' for Inactive)
REMARK    1  A    between atoms: C3_4  and  O_7 
ROOT
ATOM      1  C   UNL d   1      -4.159   5.653   1.858  0.00  0.00    -0.033 A 
ATOM      2  C1  UNL d   1      -5.300   5.308   2.585  0.00  0.00     0.039 A 
ATOM      3  C2  UNL d   1      -5.266   5.306   3.981  0.00  0.00    -0.080 A 
ATOM      4  C3  UNL d   1      -4.087   5.650   4.636  0.00  0.00     0.150 A 
ATOM      5  C4  UNL d   1      -2.948   5.998   3.918  0.00  0.00    -0.007 A 
ATOM      6  C5  UNL d   1      -2.983   5.999   2.524  0.00  0.00     0.039 A 
ENDROOT
BRANCH   4   7
ATOM      7  O   UNL d   1      -4.005   5.658   5.997  0.00  0.00    -0.526 OA
ATOM      8  H5  UNL d   1      -4.859   5.369   6.359  0.00  0.00     0.418 HD
ENDBRANCH   4   7
TORSDOF 1
ENDMDL
