MODEL 1
REMARK minimizedAffinity -1.21497846
REMARK minimizedRMSD -1
REMARK  1 active torsions:
REMARK  status: ('A' for Active; 'I' for Inactive)
REMARK    1  A    between atoms: C3_4  and  O_7 
ROOT
ATOM      1  C   UNL d   1      -2.647   6.000   5.811  0.00  0.00    -0.033 A 
ATOM      2  C1  UNL d   1      -1.942   5.999   4.605  0.00  0.00     0.039 A 
ATOM      3  C2  UNL d   1      -2.632   5.993   3.391  0.00  0.00    -0.080 A 
ATOM      4  C3  UNL d   1      -4.024   5.989   3.397  0.00  0.00     0.150 A 
ATOM      5  C4  UNL d   1      -4.732   5.993   4.594  0.00  0.00    -0.007 A 
ATOM      6  C5  UNL d   1      -4.042   5.998   5.805  0.00  0.00     0.039 A 
ENDROOT
BRANCH   4   7
ATOM      7  O   UNL d   1      -4.741   5.978   2.237  0.00  0.00    -0.526 OA
ATOM      8  H5  UNL d   1      -4.119   5.947   1.491  0.00  0.00     0.418 HD
ENDBRANCH   4   7
TORSDOF 1
ENDMDL
