MODEL 1
REMARK minimizedAffinity -1.95877886
REMARK minimizedRMSD -1
REMARK  1 active torsions:
REMARK  status: ('A' for Active; 'I' for Inactive)
REMARK    1  A    between atoms: C3_4  and  O_7 
ROOT
ATOM      1  C   UNL d   1      -4.427   5.998   1.839  0.00  0.00    -0.033 A 
ATOM      2  C1  UNL d   1      -3.033   5.993   1.755  0.00  0.00     0.039 A 
ATOM      3  C2  UNL d   1      -2.262   5.991   2.919  0.00  0.00    -0.080 A 
ATOM      4  C3  UNL d   1      -2.895   5.993   4.158  0.00  0.00     0.150 A 
ATOM      5  C4  UNL d   1      -4.283   5.995   4.249  0.00  0.00    -0.007 A 
ATOM      6  C5  UNL d   1      -5.052   5.998   3.086  0.00  0.00     0.039 A 
ENDROOT
BRANCH   4   7
ATOM      7  O   UNL d   1      -2.185   5.997   5.322  0.00  0.00    -0.526 OA
ATOM      8  H5  UNL d   1      -1.238   6.024   5.104  0.00  0.00     0.418 HD
ENDBRANCH   4   7
TORSDOF 1
ENDMDL
