MODEL 1
REMARK minimizedAffinity 0.0395195596
REMARK minimizedRMSD -1
REMARK  1 active torsions:
REMARK  status: ('A' for Active; 'I' for Inactive)
REMARK    1  A    between atoms: C3_4  and  O_7 
ROOT
ATOM      1  C   UNL d   1       2.245   5.247  -5.571  0.00  0.00    -0.033 A 
ATOM      2  C1  UNL d   1       3.020   4.801  -4.499  0.00  0.00     0.039 A 
ATOM      3  C2  UNL d   1       2.687   3.615  -3.840  0.00  0.00    -0.080 A 
ATOM      4  C3  UNL d   1       1.579   2.886  -4.263  0.00  0.00     0.150 A 
ATOM      5  C4  UNL d   1       0.804   3.323  -5.332  0.00  0.00    -0.007 A 
ATOM      6  C5  UNL d   1       1.138   4.508  -5.988  0.00  0.00     0.039 A 
ENDROOT
BRANCH   4   7
ATOM      7  O   UNL d   1       1.212   1.726  -3.648  0.00  0.00    -0.526 OA
ATOM      8  H5  UNL d   1       1.822   1.564  -2.909  0.00  0.00     0.418 HD
ENDBRANCH   4   7
TORSDOF 1
ENDMDL
