MODEL 1
REMARK minimizedAffinity -3.02075291
REMARK minimizedRMSD -1
REMARK  1 active torsions:
REMARK  status: ('A' for Active; 'I' for Inactive)
REMARK    1  A    between atoms: C3_4  and  O_7 
ROOT
ATOM      1  C   UNL d   1       5.037   5.382   0.191  0.00  0.00    -0.033 A 
ATOM      2  C1  UNL d   1       5.990   6.000   1.004  0.00  0.00     0.039 A 
ATOM      3  C2  UNL d   1       6.000   5.758   2.379  0.00  0.00    -0.080 A 
ATOM      4  C3  UNL d   1       5.054   4.897   2.928  0.00  0.00     0.150 A 
ATOM      5  C4  UNL d   1       4.104   4.275   2.124  0.00  0.00    -0.007 A 
ATOM      6  C5  UNL d   1       4.095   4.518   0.751  0.00  0.00     0.039 A 
ENDROOT
BRANCH   4   7
ATOM      7  O   UNL d   1       5.021   4.634   4.265  0.00  0.00    -0.526 OA
ATOM      8  H5  UNL d   1       5.717   5.155   4.699  0.00  0.00     0.418 HD
ENDBRANCH   4   7
TORSDOF 1
ENDMDL
