MODEL 1
REMARK minimizedAffinity -0.341699064
REMARK minimizedRMSD -1
REMARK  1 active torsions:
REMARK  status: ('A' for Active; 'I' for Inactive)
REMARK    1  A    between atoms: C3_4  and  O_7 
ROOT
ATOM      1  C   UNL d   1      -2.568   6.000   5.798  0.00  0.00    -0.033 A 
ATOM      2  C1  UNL d   1      -1.866   6.000   4.592  0.00  0.00     0.039 A 
ATOM      3  C2  UNL d   1      -2.556   5.950   3.379  0.00  0.00    -0.080 A 
ATOM      4  C3  UNL d   1      -3.947   5.901   3.387  0.00  0.00     0.150 A 
ATOM      5  C4  UNL d   1      -4.654   5.905   4.585  0.00  0.00    -0.007 A 
ATOM      6  C5  UNL d   1      -3.963   5.954   5.795  0.00  0.00     0.039 A 
ENDROOT
BRANCH   4   7
ATOM      7  O   UNL d   1      -4.665   5.846   2.229  0.00  0.00    -0.526 OA
ATOM      8  H5  UNL d   1      -4.043   5.821   1.483  0.00  0.00     0.418 HD
ENDBRANCH   4   7
TORSDOF 1
ENDMDL
