MODEL 1
REMARK minimizedAffinity -1.3301971
REMARK minimizedRMSD -1
REMARK  1 active torsions:
REMARK  status: ('A' for Active; 'I' for Inactive)
REMARK    1  A    between atoms: C1_2  and  C2_3 
ROOT
ATOM      1  C2  UNL d   1      -0.051  -1.583  -0.569  0.00  0.00    -0.077 A 
ATOM      2  C3  UNL d   1       1.027  -0.964   0.078  0.00  0.00     0.002 A 
ATOM      3  C4  UNL d   1       0.838  -0.315   1.300  0.00  0.00     0.002 A 
ATOM      4  C5  UNL d   1      -0.426  -0.283   1.886  0.00  0.00    -0.004 A 
ATOM      5  C6  UNL d   1      -1.505  -0.894   1.248  0.00  0.00     0.002 A 
ATOM      6  C7  UNL d   1      -1.318  -1.542   0.027  0.00  0.00     0.002 A 
ENDROOT
BRANCH   1   7
ATOM      7  C1  UNL d   1       0.160  -2.326  -1.863  0.00  0.00     0.055 C 
ATOM      8  C   UNL d   1       0.695  -3.729  -1.614  0.00  0.00     0.019 C 
ENDBRANCH   1   7
TORSDOF 1
ENDMDL
