MODEL 1
REMARK minimizedAffinity -1.85984206
REMARK minimizedRMSD -1
REMARK  1 active torsions:
REMARK  status: ('A' for Active; 'I' for Inactive)
REMARK    1  A    between atoms: C1_2  and  C2_3 
ROOT
ATOM      1  C2  UNL d   1       0.418  -1.422  -1.173  0.00  0.00    -0.077 A 
ATOM      2  C3  UNL d   1       0.899  -2.636  -0.662  0.00  0.00     0.002 A 
ATOM      3  C4  UNL d   1       0.866  -3.794  -1.441  0.00  0.00     0.002 A 
ATOM      4  C5  UNL d   1       0.356  -3.749  -2.737  0.00  0.00    -0.004 A 
ATOM      5  C6  UNL d   1      -0.127  -2.547  -3.254  0.00  0.00     0.002 A 
ATOM      6  C7  UNL d   1      -0.095  -1.389  -2.476  0.00  0.00     0.002 A 
ENDROOT
BRANCH   1   7
ATOM      7  C1  UNL d   1       0.499  -0.162  -0.352  0.00  0.00     0.055 C 
ATOM      8  C   UNL d   1      -0.195  -0.332   0.992  0.00  0.00     0.019 C 
ENDBRANCH   1   7
TORSDOF 1
ENDMDL
