MODEL 1
REMARK minimizedAffinity -3.79917002
REMARK minimizedRMSD -1
REMARK  1 active torsions:
REMARK  status: ('A' for Active; 'I' for Inactive)
REMARK    1  A    between atoms: C1_2  and  C2_3 
ROOT
ATOM      1  C2  UNL d   1       0.594  -1.202  -0.965  0.00  0.00    -0.077 A 
ATOM      2  C3  UNL d   1      -0.542  -1.818  -1.506  0.00  0.00     0.002 A 
ATOM      3  C4  UNL d   1      -0.430  -3.031  -2.188  0.00  0.00     0.002 A 
ATOM      4  C5  UNL d   1       0.815  -3.640  -2.331  0.00  0.00    -0.004 A 
ATOM      5  C6  UNL d   1       1.951  -3.034  -1.798  0.00  0.00     0.002 A 
ATOM      6  C7  UNL d   1       1.842  -1.821  -1.117  0.00  0.00     0.002 A 
ENDROOT
BRANCH   1   7
ATOM      7  C1  UNL d   1       0.469   0.082  -0.186  0.00  0.00     0.055 C 
ATOM      8  C   UNL d   1      -0.096  -0.167   1.205  0.00  0.00     0.019 C 
ENDBRANCH   1   7
TORSDOF 1
ENDMDL
