MODEL 1
REMARK minimizedAffinity -3.7317822
REMARK minimizedRMSD -1
REMARK  1 active torsions:
REMARK  status: ('A' for Active; 'I' for Inactive)
REMARK    1  A    between atoms: C1_2  and  C2_3 
ROOT
ATOM      1  C2  UNL d   1      -0.193   1.777   0.079  0.00  0.00    -0.077 A 
ATOM      2  C3  UNL d   1      -0.736   1.936   1.361  0.00  0.00     0.002 A 
ATOM      3  C4  UNL d   1      -1.117   0.822   2.111  0.00  0.00     0.002 A 
ATOM      4  C5  UNL d   1      -0.956  -0.460   1.588  0.00  0.00    -0.004 A 
ATOM      5  C6  UNL d   1      -0.418  -0.629   0.313  0.00  0.00     0.002 A 
ATOM      6  C7  UNL d   1      -0.037   0.484  -0.438  0.00  0.00     0.002 A 
ENDROOT
BRANCH   1   7
ATOM      7  C1  UNL d   1       0.265   2.975  -0.711  0.00  0.00     0.055 C 
ATOM      8  C   UNL d   1       0.122   4.257   0.096  0.00  0.00     0.019 C 
ENDBRANCH   1   7
TORSDOF 1
ENDMDL
