MODEL 1
REMARK minimizedAffinity -4.80471563
REMARK minimizedRMSD -1
REMARK  1 active torsions:
REMARK  status: ('A' for Active; 'I' for Inactive)
REMARK    1  A    between atoms: C1_2  and  C2_3 
ROOT
ATOM      1  C2  UNL d   1      -0.533   1.934   0.783  0.00  0.00    -0.077 A 
ATOM      2  C3  UNL d   1      -0.984   1.488   2.034  0.00  0.00     0.002 A 
ATOM      3  C4  UNL d   1      -0.965   0.128   2.347  0.00  0.00     0.002 A 
ATOM      4  C5  UNL d   1      -0.493  -0.797   1.418  0.00  0.00    -0.004 A 
ATOM      5  C6  UNL d   1      -0.045  -0.363   0.170  0.00  0.00     0.002 A 
ATOM      6  C7  UNL d   1      -0.064   0.996  -0.145  0.00  0.00     0.002 A 
ENDROOT
BRANCH   1   7
ATOM      7  C1  UNL d   1      -0.507   3.406   0.461  0.00  0.00     0.055 C 
ATOM      8  C   UNL d   1       0.201   3.671  -0.860  0.00  0.00     0.019 C 
ENDBRANCH   1   7
TORSDOF 1
ENDMDL
