MODEL 1
REMARK minimizedAffinity -3.9517436
REMARK minimizedRMSD -1
REMARK  1 active torsions:
REMARK  status: ('A' for Active; 'I' for Inactive)
REMARK    1  A    between atoms: C1_2  and  C2_3 
ROOT
ATOM      1  C2  UNL d   1       0.107  -1.489  -1.041  0.00  0.00    -0.077 A 
ATOM      2  C3  UNL d   1      -1.086  -1.513  -0.305  0.00  0.00     0.002 A 
ATOM      3  C4  UNL d   1      -1.285  -0.615   0.746  0.00  0.00     0.002 A 
ATOM      4  C5  UNL d   1      -0.298   0.315   1.067  0.00  0.00    -0.004 A 
ATOM      5  C6  UNL d   1       0.892   0.345   0.342  0.00  0.00     0.002 A 
ATOM      6  C7  UNL d   1       1.094  -0.552  -0.708  0.00  0.00     0.002 A 
ENDROOT
BRANCH   1   7
ATOM      7  C1  UNL d   1       0.304  -2.423  -2.206  0.00  0.00     0.055 C 
ATOM      8  C   UNL d   1      -0.464  -3.722  -2.010  0.00  0.00     0.019 C 
ENDBRANCH   1   7
TORSDOF 1
ENDMDL
