MODEL 1
REMARK minimizedAffinity -2.47343183
REMARK minimizedRMSD -1
REMARK  1 active torsions:
REMARK  status: ('A' for Active; 'I' for Inactive)
REMARK    1  A    between atoms: C1_2  and  C2_3 
ROOT
ATOM      1  C2  UNL d   1      -0.317  -0.693  -0.365  0.00  0.00    -0.077 A 
ATOM      2  C3  UNL d   1       0.333   0.548  -0.315  0.00  0.00     0.002 A 
ATOM      3  C4  UNL d   1       0.200   1.369   0.807  0.00  0.00     0.002 A 
ATOM      4  C5  UNL d   1      -0.577   0.957   1.887  0.00  0.00    -0.004 A 
ATOM      5  C6  UNL d   1      -1.228  -0.275   1.846  0.00  0.00     0.002 A 
ATOM      6  C7  UNL d   1      -1.098  -1.097   0.725  0.00  0.00     0.002 A 
ENDROOT
BRANCH   1   7
ATOM      7  C1  UNL d   1      -0.136  -1.602  -1.553  0.00  0.00     0.055 C 
ATOM      8  C   UNL d   1       1.058  -2.527  -1.366  0.00  0.00     0.019 C 
ENDBRANCH   1   7
TORSDOF 1
ENDMDL
