MODEL 1
REMARK minimizedAffinity -2.40985918
REMARK minimizedRMSD -1
REMARK  1 active torsions:
REMARK  status: ('A' for Active; 'I' for Inactive)
REMARK    1  A    between atoms: C1_2  and  C2_3 
ROOT
ATOM      1  C2  UNL d   1       0.296   1.219  -0.150  0.00  0.00    -0.077 A 
ATOM      2  C3  UNL d   1      -0.412   1.967   0.801  0.00  0.00     0.002 A 
ATOM      3  C4  UNL d   1      -0.823   1.380   1.999  0.00  0.00     0.002 A 
ATOM      4  C5  UNL d   1      -0.527   0.043   2.259  0.00  0.00    -0.004 A 
ATOM      5  C6  UNL d   1       0.175  -0.710   1.319  0.00  0.00     0.002 A 
ATOM      6  C7  UNL d   1       0.586  -0.125   0.120  0.00  0.00     0.002 A 
ENDROOT
BRANCH   1   7
ATOM      7  C1  UNL d   1       0.783   1.864  -1.421  0.00  0.00     0.055 C 
ATOM      8  C   UNL d   1       0.296   3.301  -1.534  0.00  0.00     0.019 C 
ENDBRANCH   1   7
TORSDOF 1
ENDMDL
