MODEL 1
REMARK minimizedAffinity -3.68168664
REMARK minimizedRMSD -1
REMARK  1 active torsions:
REMARK  status: ('A' for Active; 'I' for Inactive)
REMARK    1  A    between atoms: C1_2  and  C2_3 
ROOT
ATOM      1  C2  UNL d   1       0.626   0.409  -0.013  0.00  0.00    -0.077 A 
ATOM      2  C3  UNL d   1       0.004   0.467   1.242  0.00  0.00     0.002 A 
ATOM      3  C4  UNL d   1      -0.378   1.695   1.785  0.00  0.00     0.002 A 
ATOM      4  C5  UNL d   1      -0.145   2.873   1.080  0.00  0.00    -0.004 A 
ATOM      5  C6  UNL d   1       0.475   2.827  -0.168  0.00  0.00     0.002 A 
ATOM      6  C7  UNL d   1       0.858   1.600  -0.712  0.00  0.00     0.002 A 
ENDROOT
BRANCH   1   7
ATOM      7  C1  UNL d   1       0.994  -0.918  -0.623  0.00  0.00     0.055 C 
ATOM      8  C   UNL d   1      -0.197  -1.553  -1.326  0.00  0.00     0.019 C 
ENDBRANCH   1   7
TORSDOF 1
ENDMDL
