MODEL 1
REMARK minimizedAffinity -3.88118124
REMARK minimizedRMSD -1
REMARK  1 active torsions:
REMARK  status: ('A' for Active; 'I' for Inactive)
REMARK    1  A    between atoms: C1_2  and  C2_3 
ROOT
ATOM      1  C2  UNL d   1       0.140   1.878   0.310  0.00  0.00    -0.077 A 
ATOM      2  C3  UNL d   1      -0.567   1.755   1.514  0.00  0.00     0.002 A 
ATOM      3  C4  UNL d   1      -0.679   0.514   2.144  0.00  0.00     0.002 A 
ATOM      4  C5  UNL d   1      -0.083  -0.612   1.579  0.00  0.00    -0.004 A 
ATOM      5  C6  UNL d   1       0.621  -0.500   0.381  0.00  0.00     0.002 A 
ATOM      6  C7  UNL d   1       0.733   0.739  -0.251  0.00  0.00     0.002 A 
ENDROOT
BRANCH   1   7
ATOM      7  C1  UNL d   1       0.303   3.225  -0.345  0.00  0.00     0.055 C 
ATOM      8  C   UNL d   1      -0.074   4.352   0.605  0.00  0.00     0.019 C 
ENDBRANCH   1   7
TORSDOF 1
ENDMDL
