MODEL 1
REMARK minimizedAffinity -3.939152
REMARK minimizedRMSD -1
REMARK  1 active torsions:
REMARK  status: ('A' for Active; 'I' for Inactive)
REMARK    1  A    between atoms: C1_2  and  C2_3 
ROOT
ATOM      1  C2  UNL d   1      -0.612   1.631   1.120  0.00  0.00    -0.077 A 
ATOM      2  C3  UNL d   1      -1.410   0.585   1.605  0.00  0.00     0.002 A 
ATOM      3  C4  UNL d   1      -1.109  -0.740   1.283  0.00  0.00     0.002 A 
ATOM      4  C5  UNL d   1      -0.009  -1.031   0.479  0.00  0.00    -0.004 A 
ATOM      5  C6  UNL d   1       0.789   0.003  -0.010  0.00  0.00     0.002 A 
ATOM      6  C7  UNL d   1       0.490   1.328   0.310  0.00  0.00     0.002 A 
ENDROOT
BRANCH   1   7
ATOM      7  C1  UNL d   1      -0.906   3.057   1.507  0.00  0.00     0.055 C 
ATOM      8  C   UNL d   1      -0.115   4.037   0.652  0.00  0.00     0.019 C 
ENDBRANCH   1   7
TORSDOF 1
ENDMDL
