MODEL 1
REMARK minimizedAffinity -2.01368856
REMARK minimizedRMSD -1
REMARK  0 active torsions:
REMARK  status: ('A' for Active; 'I' for Inactive)
ROOT
ATOM      1  C1  DEN d   1       4.695  -0.854   3.892  0.00  0.00     0.130 A 
ATOM      2  C2  DEN d   1       5.097  -0.263   2.618  0.00  0.00    -0.031 A 
ATOM      3  C3  DEN d   1       3.946  -0.339   1.696  0.00  0.00     0.027 A 
ATOM      4  C4  DEN d   1       1.591  -1.303   2.116  0.00  0.00     0.027 A 
ATOM      5  C5  DEN d   1       0.781  -1.925   3.041  0.00  0.00    -0.003 A 
ATOM      6  C6  DEN d   1       1.225  -2.260   4.293  0.00  0.00     0.001 A 
ATOM      7  C7  DEN d   1       2.502  -1.936   4.669  0.00  0.00     0.017 A 
ATOM      8  C8  DEN d   1       3.327  -1.316   3.740  0.00  0.00    -0.094 A 
ATOM      9  C9  DEN d   1       2.855  -0.974   2.484  0.00  0.00    -0.072 A 
ENDROOT
TORSDOF 0
ENDMDL
