MODEL 1
REMARK minimizedAffinity -1.74402237
REMARK minimizedRMSD -1
REMARK  0 active torsions:
REMARK  status: ('A' for Active; 'I' for Inactive)
ROOT
ATOM      1  C1  DEN d   1       4.022  -0.519   1.460  0.00  0.00     0.130 A 
ATOM      2  C2  DEN d   1       5.106  -0.577   2.437  0.00  0.00    -0.031 A 
ATOM      3  C3  DEN d   1       4.525  -0.948   3.743  0.00  0.00     0.027 A 
ATOM      4  C4  DEN d   1       2.065  -1.439   4.343  0.00  0.00     0.027 A 
ATOM      5  C5  DEN d   1       0.781  -1.505   3.850  0.00  0.00    -0.003 A 
ATOM      6  C6  DEN d   1       0.485  -1.216   2.544  0.00  0.00     0.001 A 
ATOM      7  C7  DEN d   1       1.493  -0.891   1.675  0.00  0.00     0.017 A 
ATOM      8  C8  DEN d   1       2.789  -0.816   2.167  0.00  0.00    -0.094 A 
ATOM      9  C9  DEN d   1       3.070  -1.124   3.487  0.00  0.00    -0.072 A 
ENDROOT
TORSDOF 0
ENDMDL
