MODEL 1
REMARK minimizedAffinity -4.90845013
REMARK minimizedRMSD -1
REMARK  0 active torsions:
REMARK  status: ('A' for Active; 'I' for Inactive)
ROOT
ATOM      1  C1  DEN d   1      -1.474   1.333  -3.042  0.00  0.00     0.130 A 
ATOM      2  C2  DEN d   1      -1.897   2.191  -4.146  0.00  0.00    -0.031 A 
ATOM      3  C3  DEN d   1      -3.313   2.550  -3.928  0.00  0.00     0.027 A 
ATOM      4  C4  DEN d   1      -4.881   1.869  -1.996  0.00  0.00     0.027 A 
ATOM      5  C5  DEN d   1      -4.975   1.141  -0.831  0.00  0.00    -0.003 A 
ATOM      6  C6  DEN d   1      -3.929   0.405  -0.343  0.00  0.00     0.001 A 
ATOM      7  C7  DEN d   1      -2.727   0.416  -0.999  0.00  0.00     0.017 A 
ATOM      8  C8  DEN d   1      -2.626   1.142  -2.179  0.00  0.00    -0.094 A 
ATOM      9  C9  DEN d   1      -3.691   1.890  -2.649  0.00  0.00    -0.072 A 
ENDROOT
TORSDOF 0
ENDMDL
