MODEL 1
REMARK minimizedAffinity -0.167339638
REMARK minimizedRMSD -1
REMARK  0 active torsions:
REMARK  status: ('A' for Active; 'I' for Inactive)
ROOT
ATOM      1  C1  DEN d   1       0.778   0.612   0.817  0.00  0.00     0.130 A 
ATOM      2  C2  DEN d   1      -0.035   0.186  -0.319  0.00  0.00    -0.031 A 
ATOM      3  C3  DEN d   1      -0.037  -1.291  -0.349  0.00  0.00     0.027 A 
ATOM      4  C4  DEN d   1       1.129  -2.949   1.245  0.00  0.00     0.027 A 
ATOM      5  C5  DEN d   1       1.942  -3.059   2.352  0.00  0.00    -0.003 A 
ATOM      6  C6  DEN d   1       2.447  -1.962   2.999  0.00  0.00     0.001 A 
ATOM      7  C7  DEN d   1       2.108  -0.706   2.571  0.00  0.00     0.017 A 
ATOM      8  C8  DEN d   1       1.295  -0.587   1.452  0.00  0.00    -0.094 A 
ATOM      9  C9  DEN d   1       0.784  -1.707   0.819  0.00  0.00    -0.072 A 
ENDROOT
TORSDOF 0
ENDMDL
