MODEL 1
REMARK minimizedAffinity 3.48730469
REMARK minimizedRMSD -1
REMARK  0 active torsions:
REMARK  status: ('A' for Active; 'I' for Inactive)
ROOT
ATOM      1  C1  DEN d   1       1.900   0.030  -0.369  0.00  0.00     0.130 A 
ATOM      2  C2  DEN d   1       0.453  -0.082  -0.212  0.00  0.00    -0.031 A 
ATOM      3  C3  DEN d   1       0.177  -0.529   1.169  0.00  0.00     0.027 A 
ATOM      4  C4  DEN d   1       1.843  -1.051   3.068  0.00  0.00     0.027 A 
ATOM      5  C5  DEN d   1       3.177  -1.111   3.406  0.00  0.00    -0.003 A 
ATOM      6  C6  DEN d   1       4.171  -0.831   2.507  0.00  0.00     0.001 A 
ATOM      7  C7  DEN d   1       3.846  -0.433   1.237  0.00  0.00     0.017 A 
ATOM      8  C8  DEN d   1       2.504  -0.376   0.887  0.00  0.00    -0.094 A 
ATOM      9  C9  DEN d   1       1.513  -0.652   1.813  0.00  0.00    -0.072 A 
ENDROOT
TORSDOF 0
ENDMDL
