MODEL 1
REMARK minimizedAffinity 3.02038932
REMARK minimizedRMSD -1
REMARK  0 active torsions:
REMARK  status: ('A' for Active; 'I' for Inactive)
ROOT
ATOM      1  C1  DEN d   1       3.776   5.271   1.492  0.00  0.00     0.130 A 
ATOM      2  C2  DEN d   1       4.561   4.401   0.621  0.00  0.00    -0.031 A 
ATOM      3  C3  DEN d   1       3.638   3.768  -0.343  0.00  0.00     0.027 A 
ATOM      4  C4  DEN d   1       1.086   4.056  -0.574  0.00  0.00     0.027 A 
ATOM      5  C5  DEN d   1      -0.025   4.681  -0.053  0.00  0.00    -0.003 A 
ATOM      6  C6  DEN d   1       0.047   5.514   1.032  0.00  0.00     0.001 A 
ATOM      7  C7  DEN d   1       1.264   5.779   1.604  0.00  0.00     0.017 A 
ATOM      8  C8  DEN d   1       2.387   5.146   1.088  0.00  0.00    -0.094 A 
ATOM      9  C9  DEN d   1       2.295   4.318  -0.017  0.00  0.00    -0.072 A 
ENDROOT
TORSDOF 0
ENDMDL
