MODEL 1
REMARK minimizedAffinity 5.00454712
REMARK minimizedRMSD -1
REMARK  0 active torsions:
REMARK  status: ('A' for Active; 'I' for Inactive)
ROOT
ATOM      1  C1  DEN d   1      -0.054   2.441  -3.452  0.00  0.00     0.130 A 
ATOM      2  C2  DEN d   1      -0.355   3.714  -4.101  0.00  0.00    -0.031 A 
ATOM      3  C3  DEN d   1      -1.797   3.984  -3.931  0.00  0.00     0.027 A 
ATOM      4  C4  DEN d   1      -3.583   2.563  -2.729  0.00  0.00     0.027 A 
ATOM      5  C5  DEN d   1      -3.808   1.395  -2.035  0.00  0.00    -0.003 A 
ATOM      6  C6  DEN d   1      -2.812   0.485  -1.796  0.00  0.00     0.001 A 
ATOM      7  C7  DEN d   1      -1.536   0.749  -2.216  0.00  0.00     0.017 A 
ATOM      8  C8  DEN d   1      -1.303   1.922  -2.923  0.00  0.00    -0.094 A 
ATOM      9  C9  DEN d   1      -2.320   2.835  -3.144  0.00  0.00    -0.072 A 
ENDROOT
TORSDOF 0
ENDMDL
