MODEL 1
REMARK minimizedAffinity -2.86547375
REMARK minimizedRMSD -1
REMARK  0 active torsions:
REMARK  status: ('A' for Active; 'I' for Inactive)
ROOT
ATOM      1  C1  DEN d   1      -5.278  -0.865   0.461  0.00  0.00     0.130 A 
ATOM      2  C2  DEN d   1      -4.130  -1.767   0.489  0.00  0.00    -0.031 A 
ATOM      3  C3  DEN d   1      -3.238  -1.405  -0.630  0.00  0.00     0.027 A 
ATOM      4  C4  DEN d   1      -3.518   0.458  -2.392  0.00  0.00     0.027 A 
ATOM      5  C5  DEN d   1      -4.338   1.474  -2.830  0.00  0.00    -0.003 A 
ATOM      6  C6  DEN d   1      -5.534   1.758  -2.228  0.00  0.00     0.001 A 
ATOM      7  C7  DEN d   1      -5.925   1.046  -1.124  0.00  0.00     0.017 A 
ATOM      8  C8  DEN d   1      -5.107   0.014  -0.681  0.00  0.00    -0.094 A 
ATOM      9  C9  DEN d   1      -3.895  -0.249  -1.297  0.00  0.00    -0.072 A 
ENDROOT
TORSDOF 0
ENDMDL
