MODEL 1
REMARK minimizedAffinity 8.88333797
REMARK minimizedRMSD -1
REMARK  0 active torsions:
REMARK  status: ('A' for Active; 'I' for Inactive)
ROOT
ATOM      1  C1  DEN d   1       2.433  -0.547   0.427  0.00  0.00     0.130 A 
ATOM      2  C2  DEN d   1       1.042  -0.859   0.745  0.00  0.00    -0.031 A 
ATOM      3  C3  DEN d   1       0.979  -1.275   2.160  0.00  0.00     0.027 A 
ATOM      4  C4  DEN d   1       2.889  -1.461   3.884  0.00  0.00     0.027 A 
ATOM      5  C5  DEN d   1       4.245  -1.313   4.077  0.00  0.00    -0.003 A 
ATOM      6  C6  DEN d   1       5.089  -0.935   3.067  0.00  0.00     0.001 A 
ATOM      7  C7  DEN d   1       4.580  -0.649   1.828  0.00  0.00     0.017 A 
ATOM      8  C8  DEN d   1       3.216  -0.803   1.623  0.00  0.00    -0.094 A 
ATOM      9  C9  DEN d   1       2.376  -1.174   2.660  0.00  0.00    -0.072 A 
ENDROOT
TORSDOF 0
ENDMDL
