MODEL 1
REMARK minimizedAffinity 5.93633652
REMARK minimizedRMSD -1
REMARK  0 active torsions:
REMARK  status: ('A' for Active; 'I' for Inactive)
ROOT
ATOM      1  C1  DEN d   1       4.448  -1.094   1.344  0.00  0.00     0.130 A 
ATOM      2  C2  DEN d   1       4.483  -1.243   2.797  0.00  0.00    -0.031 A 
ATOM      3  C3  DEN d   1       3.090  -1.308   3.283  0.00  0.00     0.027 A 
ATOM      4  C4  DEN d   1       0.894  -1.200   1.934  0.00  0.00     0.027 A 
ATOM      5  C5  DEN d   1       0.357  -1.065   0.673  0.00  0.00    -0.003 A 
ATOM      6  C6  DEN d   1       1.138  -0.898  -0.439  0.00  0.00     0.001 A 
ATOM      7  C7  DEN d   1       2.502  -0.906  -0.318  0.00  0.00     0.017 A 
ATOM      8  C8  DEN d   1       3.052  -1.034   0.951  0.00  0.00    -0.094 A 
ATOM      9  C9  DEN d   1       2.245  -1.214   2.062  0.00  0.00    -0.072 A 
ENDROOT
TORSDOF 0
ENDMDL
