MODEL 1
REMARK minimizedAffinity 7.0393095
REMARK minimizedRMSD -1
REMARK  0 active torsions:
REMARK  status: ('A' for Active; 'I' for Inactive)
ROOT
ATOM      1  C1  DEN d   1       2.400   0.017  -0.278  0.00  0.00     0.130 A 
ATOM      2  C2  DEN d   1       0.976  -0.305  -0.242  0.00  0.00    -0.031 A 
ATOM      3  C3  DEN d   1       0.690  -0.967   1.046  0.00  0.00     0.027 A 
ATOM      4  C4  DEN d   1       2.305  -1.520   2.980  0.00  0.00     0.027 A 
ATOM      5  C5  DEN d   1       3.613  -1.451   3.404  0.00  0.00    -0.003 A 
ATOM      6  C6  DEN d   1       4.607  -0.923   2.623  0.00  0.00     0.001 A 
ATOM      7  C7  DEN d   1       4.300  -0.401   1.394  0.00  0.00     0.017 A 
ATOM      8  C8  DEN d   1       2.984  -0.474   0.957  0.00  0.00    -0.094 A 
ATOM      9  C9  DEN d   1       1.992  -1.001   1.766  0.00  0.00    -0.072 A 
ENDROOT
TORSDOF 0
ENDMDL
