MODEL 1
REMARK minimizedAffinity -1.89488029
REMARK minimizedRMSD -1
REMARK  0 active torsions:
REMARK  status: ('A' for Active; 'I' for Inactive)
ROOT
ATOM      1  C1  DEN d   1       2.512  -0.358  -0.513  0.00  0.00     0.130 A 
ATOM      2  C2  DEN d   1       1.132  -0.481  -0.051  0.00  0.00    -0.031 A 
ATOM      3  C3  DEN d   1       0.649   0.867   0.308  0.00  0.00     0.027 A 
ATOM      4  C4  DEN d   1       1.895   3.122   0.189  0.00  0.00     0.027 A 
ATOM      5  C5  DEN d   1       3.090   3.729  -0.129  0.00  0.00    -0.003 A 
ATOM      6  C6  DEN d   1       4.178   3.018  -0.562  0.00  0.00     0.001 A 
ATOM      7  C7  DEN d   1       4.079   1.662  -0.731  0.00  0.00     0.017 A 
ATOM      8  C8  DEN d   1       2.880   1.042  -0.405  0.00  0.00    -0.094 A 
ATOM      9  C9  DEN d   1       1.788   1.780   0.018  0.00  0.00    -0.072 A 
ENDROOT
TORSDOF 0
ENDMDL
