MODEL 1
REMARK minimizedAffinity 7.8091073
REMARK minimizedRMSD -1
REMARK  0 active torsions:
REMARK  status: ('A' for Active; 'I' for Inactive)
ROOT
ATOM      1  C1  DEN d   1       3.924  -1.278   1.433  0.00  0.00     0.130 A 
ATOM      2  C2  DEN d   1       3.593  -1.621   2.813  0.00  0.00    -0.031 A 
ATOM      3  C3  DEN d   1       2.175  -1.276   3.042  0.00  0.00     0.027 A 
ATOM      4  C4  DEN d   1       0.470  -0.252   1.400  0.00  0.00     0.027 A 
ATOM      5  C5  DEN d   1       0.290   0.222   0.119  0.00  0.00    -0.003 A 
ATOM      6  C6  DEN d   1       1.309   0.262  -0.795  0.00  0.00     0.001 A 
ATOM      7  C7  DEN d   1       2.544  -0.224  -0.456  0.00  0.00     0.017 A 
ATOM      8  C8  DEN d   1       2.735  -0.697   0.836  0.00  0.00    -0.094 A 
ATOM      9  C9  DEN d   1       1.689  -0.740   1.742  0.00  0.00    -0.072 A 
ENDROOT
TORSDOF 0
ENDMDL
