MODEL 1
REMARK minimizedAffinity 10.0700121
REMARK minimizedRMSD -1
REMARK  0 active torsions:
REMARK  status: ('A' for Active; 'I' for Inactive)
ROOT
ATOM      1  C1  DEN d   1      -0.785  -3.746   0.555  0.00  0.00     0.130 A 
ATOM      2  C2  DEN d   1      -2.238  -3.699   0.696  0.00  0.00    -0.031 A 
ATOM      3  C3  DEN d   1      -2.636  -2.286   0.854  0.00  0.00     0.027 A 
ATOM      4  C4  DEN d   1      -1.152  -0.176   0.890  0.00  0.00     0.027 A 
ATOM      5  C5  DEN d   1       0.143   0.286   0.819  0.00  0.00    -0.003 A 
ATOM      6  C6  DEN d   1       1.214  -0.558   0.690  0.00  0.00     0.001 A 
ATOM      7  C7  DEN d   1       1.005  -1.908   0.583  0.00  0.00     0.017 A 
ATOM      8  C8  DEN d   1      -0.297  -2.382   0.661  0.00  0.00    -0.094 A 
ATOM      9  C9  DEN d   1      -1.367  -1.512   0.779  0.00  0.00    -0.072 A 
ENDROOT
TORSDOF 0
ENDMDL
