MODEL 1
REMARK minimizedAffinity 5.74516582
REMARK minimizedRMSD -1
REMARK  0 active torsions:
REMARK  status: ('A' for Active; 'I' for Inactive)
ROOT
ATOM      1  C1  DEN d   1      -2.676  -5.935  -5.422  0.00  0.00     0.130 A 
ATOM      2  C2  DEN d   1      -3.391  -5.552  -4.207  0.00  0.00    -0.031 A 
ATOM      3  C3  DEN d   1      -2.393  -5.121  -3.208  0.00  0.00     0.027 A 
ATOM      4  C4  DEN d   1       0.174  -5.005  -3.423  0.00  0.00     0.027 A 
ATOM      5  C5  DEN d   1       1.242  -5.238  -4.261  0.00  0.00    -0.003 A 
ATOM      6  C6  DEN d   1       1.083  -5.749  -5.522  0.00  0.00     0.001 A 
ATOM      7  C7  DEN d   1      -0.177  -6.000  -5.999  0.00  0.00     0.017 A 
ATOM      8  C8  DEN d   1      -1.258  -5.773  -5.157  0.00  0.00    -0.094 A 
ATOM      9  C9  DEN d   1      -1.077  -5.246  -3.890  0.00  0.00    -0.072 A 
ENDROOT
TORSDOF 0
ENDMDL
