MODEL 1
REMARK minimizedAffinity 7.5841136
REMARK minimizedRMSD -1
REMARK  0 active torsions:
REMARK  status: ('A' for Active; 'I' for Inactive)
ROOT
ATOM      1  C1  DEN d   1       1.477  -3.810  -3.318  0.00  0.00     0.130 A 
ATOM      2  C2  DEN d   1       2.782  -4.097  -3.907  0.00  0.00    -0.031 A 
ATOM      3  C3  DEN d   1       2.573  -4.992  -5.063  0.00  0.00     0.027 A 
ATOM      4  C4  DEN d   1       0.367  -5.951  -5.996  0.00  0.00     0.027 A 
ATOM      5  C5  DEN d   1      -0.998  -5.997  -5.823  0.00  0.00    -0.003 A 
ATOM      6  C6  DEN d   1      -1.626  -5.351  -4.791  0.00  0.00     0.001 A 
ATOM      7  C7  DEN d   1      -0.892  -4.593  -3.918  0.00  0.00     0.017 A 
ATOM      8  C8  DEN d   1       0.487  -4.547  -4.082  0.00  0.00    -0.094 A 
ATOM      9  C9  DEN d   1       1.101  -5.197  -5.138  0.00  0.00    -0.072 A 
ENDROOT
TORSDOF 0
ENDMDL
