MODEL 1
REMARK minimizedAffinity -1.12118506
REMARK minimizedRMSD -1
REMARK  0 active torsions:
REMARK  status: ('A' for Active; 'I' for Inactive)
ROOT
ATOM      1  C4' PXY d   1      -1.226   1.605   1.900  0.00  0.00     0.077 C 
ATOM      2  C1' PXY d   1       0.860   5.358  -1.970  0.00  0.00     0.077 C 
ATOM      3  C1  PXY d   1       0.306   4.368  -0.964  0.00  0.00    -0.082 A 
ATOM      4  C2  PXY d   1       0.292   4.680   0.322  0.00  0.00     0.003 A 
ATOM      5  C3  PXY d   1      -0.176   3.784   1.248  0.00  0.00     0.003 A 
ATOM      6  C4  PXY d   1      -0.684   2.577   0.849  0.00  0.00    -0.082 A 
ATOM      7  C5  PXY d   1      -0.684   2.256  -0.462  0.00  0.00     0.003 A 
ATOM      8  C6  PXY d   1      -0.166   3.163  -1.383  0.00  0.00     0.003 A 
ENDROOT
TORSDOF 0
ENDMDL
