MODEL 1
REMARK minimizedAffinity -1.22825277
REMARK minimizedRMSD -1
REMARK  0 active torsions:
REMARK  status: ('A' for Active; 'I' for Inactive)
ROOT
ATOM      1  C4' PXY d   1       0.376   3.467   3.151  0.00  0.00     0.077 C 
ATOM      2  C1' PXY d   1      -0.553   3.639  -2.552  0.00  0.00     0.077 C 
ATOM      3  C1  PXY d   1      -0.306   3.606  -1.056  0.00  0.00    -0.082 A 
ATOM      4  C2  PXY d   1      -0.026   2.457  -0.464  0.00  0.00     0.003 A 
ATOM      5  C3  PXY d   1       0.169   2.404   0.892  0.00  0.00     0.003 A 
ATOM      6  C4  PXY d   1       0.129   3.548   1.642  0.00  0.00    -0.082 A 
ATOM      7  C5  PXY d   1      -0.146   4.727   1.044  0.00  0.00     0.003 A 
ATOM      8  C6  PXY d   1      -0.382   4.753  -0.327  0.00  0.00     0.003 A 
ENDROOT
TORSDOF 0
ENDMDL
