MODEL 1
REMARK minimizedAffinity 6.14689445
REMARK minimizedRMSD -1
REMARK  0 active torsions:
REMARK  status: ('A' for Active; 'I' for Inactive)
ROOT
ATOM      1  C4' PXY d   1      -2.419   1.421   2.971  0.00  0.00     0.077 C 
ATOM      2  C1' PXY d   1       0.929   3.812  -1.089  0.00  0.00     0.077 C 
ATOM      3  C1  PXY d   1       0.058   3.174  -0.025  0.00  0.00    -0.082 A 
ATOM      4  C2  PXY d   1      -1.180   3.606   0.153  0.00  0.00     0.003 A 
ATOM      5  C3  PXY d   1      -1.970   3.062   1.132  0.00  0.00     0.003 A 
ATOM      6  C4  PXY d   1      -1.507   2.029   1.902  0.00  0.00    -0.082 A 
ATOM      7  C5  PXY d   1      -0.249   1.575   1.719  0.00  0.00     0.003 A 
ATOM      8  C6  PXY d   1       0.551   2.168   0.747  0.00  0.00     0.003 A 
ENDROOT
TORSDOF 0
ENDMDL
