MODEL 1
REMARK minimizedAffinity 1.40182877
REMARK minimizedRMSD -1
REMARK  0 active torsions:
REMARK  status: ('A' for Active; 'I' for Inactive)
ROOT
ATOM      1  C4' PXY d   1       0.027   3.486  -0.145  0.00  0.00     0.077 C 
ATOM      2  C1' PXY d   1      -1.803   0.235   4.270  0.00  0.00     0.077 C 
ATOM      3  C1  PXY d   1      -1.312   1.090   3.118  0.00  0.00    -0.082 A 
ATOM      4  C2  PXY d   1      -2.187   1.643   2.294  0.00  0.00     0.003 A 
ATOM      5  C3  PXY d   1      -1.759   2.393   1.229  0.00  0.00     0.003 A 
ATOM      6  C4  PXY d   1      -0.423   2.623   1.036  0.00  0.00    -0.082 A 
ATOM      7  C5  PXY d   1       0.475   2.072   1.879  0.00  0.00     0.003 A 
ATOM      8  C6  PXY d   1       0.022   1.280   2.930  0.00  0.00     0.003 A 
ENDROOT
TORSDOF 0
ENDMDL
