MODEL 1
REMARK minimizedAffinity 13.5481472
REMARK minimizedRMSD -1
REMARK  0 active torsions:
REMARK  status: ('A' for Active; 'I' for Inactive)
ROOT
ATOM      1  C4' PXY d   1      -3.007   1.961  -3.695  0.00  0.00     0.077 C 
ATOM      2  C1' PXY d   1       1.252   4.926  -1.149  0.00  0.00     0.077 C 
ATOM      3  C1  PXY d   1       0.132   4.159  -1.824  0.00  0.00    -0.082 A 
ATOM      4  C2  PXY d   1      -0.396   3.107  -1.220  0.00  0.00     0.003 A 
ATOM      5  C3  PXY d   1      -1.388   2.383  -1.830  0.00  0.00     0.003 A 
ATOM      6  C4  PXY d   1      -1.881   2.771  -3.047  0.00  0.00    -0.082 A 
ATOM      7  C5  PXY d   1      -1.355   3.850  -3.664  0.00  0.00     0.003 A 
ATOM      8  C6  PXY d   1      -0.321   4.548  -3.047  0.00  0.00     0.003 A 
ENDROOT
TORSDOF 0
ENDMDL
