MODEL 1
REMARK minimizedAffinity 11.2520971
REMARK minimizedRMSD -1
REMARK  0 active torsions:
REMARK  status: ('A' for Active; 'I' for Inactive)
ROOT
ATOM      1  C4' PXY d   1       2.229  -1.935  -6.000  0.00  0.00     0.077 C 
ATOM      2  C1' PXY d   1       6.000  -4.482  -2.435  0.00  0.00     0.077 C 
ATOM      3  C1  PXY d   1       5.001  -3.820  -3.363  0.00  0.00    -0.082 A 
ATOM      4  C2  PXY d   1       5.387  -3.427  -4.566  0.00  0.00     0.003 A 
ATOM      5  C3  PXY d   1       4.505  -2.798  -5.407  0.00  0.00     0.003 A 
ATOM      6  C4  PXY d   1       3.201  -2.617  -5.032  0.00  0.00    -0.082 A 
ATOM      7  C5  PXY d   1       2.796  -3.024  -3.811  0.00  0.00     0.003 A 
ATOM      8  C6  PXY d   1       3.717  -3.624  -2.957  0.00  0.00     0.003 A 
ENDROOT
TORSDOF 0
ENDMDL
