MODEL 1
REMARK minimizedAffinity 4.54367495
REMARK minimizedRMSD -1
REMARK  0 active torsions:
REMARK  status: ('A' for Active; 'I' for Inactive)
ROOT
ATOM      1  C4' PXY d   1      -1.229   1.481   2.647  0.00  0.00     0.077 C 
ATOM      2  C1' PXY d   1       0.289   4.392  -2.110  0.00  0.00     0.077 C 
ATOM      3  C1  PXY d   1      -0.101   3.636  -0.856  0.00  0.00    -0.082 A 
ATOM      4  C2  PXY d   1      -0.583   2.408  -0.955  0.00  0.00     0.003 A 
ATOM      5  C3  PXY d   1      -0.971   1.722   0.167  0.00  0.00     0.003 A 
ATOM      6  C4  PXY d   1      -0.813   2.278   1.408  0.00  0.00    -0.082 A 
ATOM      7  C5  PXY d   1      -0.312   3.526   1.519  0.00  0.00     0.003 A 
ATOM      8  C6  PXY d   1       0.037   4.222   0.365  0.00  0.00     0.003 A 
ENDROOT
TORSDOF 0
ENDMDL
