MODEL 1
REMARK minimizedAffinity 4.9186101
REMARK minimizedRMSD -1
REMARK  0 active torsions:
REMARK  status: ('A' for Active; 'I' for Inactive)
ROOT
ATOM      1  C4' PXY d   1      -5.999  -5.921   4.903  0.00  0.00     0.077 C 
ATOM      2  C1' PXY d   1      -2.775  -1.123   4.872  0.00  0.00     0.077 C 
ATOM      3  C1  PXY d   1      -3.622  -2.380   4.893  0.00  0.00    -0.082 A 
ATOM      4  C2  PXY d   1      -3.488  -3.275   3.927  0.00  0.00     0.003 A 
ATOM      5  C3  PXY d   1      -4.269  -4.402   3.914  0.00  0.00     0.003 A 
ATOM      6  C4  PXY d   1      -5.158  -4.642   4.927  0.00  0.00    -0.082 A 
ATOM      7  C5  PXY d   1      -5.292  -3.739   5.921  0.00  0.00     0.003 A 
ATOM      8  C6  PXY d   1      -4.520  -2.581   5.895  0.00  0.00     0.003 A 
ENDROOT
TORSDOF 0
ENDMDL
