MODEL 1
REMARK minimizedAffinity 0.507299602
REMARK minimizedRMSD -1
REMARK  0 active torsions:
REMARK  status: ('A' for Active; 'I' for Inactive)
ROOT
ATOM      1  C4' PXY d   1      -3.111  -0.979   4.843  0.00  0.00     0.077 C 
ATOM      2  C1' PXY d   1      -5.999  -5.986   4.842  0.00  0.00     0.077 C 
ATOM      3  C1  PXY d   1      -5.249  -4.669   4.852  0.00  0.00    -0.082 A 
ATOM      4  C2  PXY d   1      -4.642  -4.253   3.753  0.00  0.00     0.003 A 
ATOM      5  C3  PXY d   1      -3.932  -3.080   3.754  0.00  0.00     0.003 A 
ATOM      6  C4  PXY d   1      -3.888  -2.298   4.876  0.00  0.00    -0.082 A 
ATOM      7  C5  PXY d   1      -4.514  -2.710   5.999  0.00  0.00     0.003 A 
ATOM      8  C6  PXY d   1      -5.194  -3.924   5.990  0.00  0.00     0.003 A 
ENDROOT
TORSDOF 0
ENDMDL
