MODEL 1
REMARK minimizedAffinity 10.1867504
REMARK minimizedRMSD -1
REMARK  0 active torsions:
REMARK  status: ('A' for Active; 'I' for Inactive)
ROOT
ATOM      1  C4' PXY d   1       0.048   2.286  -0.214  0.00  0.00     0.077 C 
ATOM      2  C1' PXY d   1      -2.311  -0.304   4.383  0.00  0.00     0.077 C 
ATOM      3  C1  PXY d   1      -1.681   0.377   3.184  0.00  0.00    -0.082 A 
ATOM      4  C2  PXY d   1      -2.454   0.963   2.284  0.00  0.00     0.003 A 
ATOM      5  C3  PXY d   1      -1.903   1.555   1.177  0.00  0.00     0.003 A 
ATOM      6  C4  PXY d   1      -0.544   1.595   1.017  0.00  0.00    -0.082 A 
ATOM      7  C5  PXY d   1       0.252   1.009   1.936  0.00  0.00     0.003 A 
ATOM      8  C6  PXY d   1      -0.329   0.377   3.032  0.00  0.00     0.003 A 
ENDROOT
TORSDOF 0
ENDMDL
