MODEL 1
REMARK minimizedAffinity 6.06563759
REMARK minimizedRMSD -1
REMARK  0 active torsions:
REMARK  status: ('A' for Active; 'I' for Inactive)
ROOT
ATOM      1  C4' PXY d   1      -6.000  -6.000   4.599  0.00  0.00     0.077 C 
ATOM      2  C1' PXY d   1      -3.045  -1.051   5.039  0.00  0.00     0.077 C 
ATOM      3  C1  PXY d   1      -3.823  -2.346   4.912  0.00  0.00    -0.082 A 
ATOM      4  C2  PXY d   1      -4.275  -2.948   6.000  0.00  0.00     0.003 A 
ATOM      5  C3  PXY d   1      -4.953  -4.136   5.905  0.00  0.00     0.003 A 
ATOM      6  C4  PXY d   1      -5.218  -4.686   4.680  0.00  0.00    -0.082 A 
ATOM      7  C5  PXY d   1      -4.769  -4.073   3.564  0.00  0.00     0.003 A 
ATOM      8  C6  PXY d   1      -4.048  -2.889   3.684  0.00  0.00     0.003 A 
ENDROOT
TORSDOF 0
ENDMDL
