MODEL 1
REMARK minimizedAffinity 0.0741415024
REMARK minimizedRMSD -1
REMARK  0 active torsions:
REMARK  status: ('A' for Active; 'I' for Inactive)
ROOT
ATOM      1  C4' PXY d   1      -0.737   1.670   3.558  0.00  0.00     0.077 C 
ATOM      2  C1' PXY d   1       0.824   4.189  -1.405  0.00  0.00     0.077 C 
ATOM      3  C1  PXY d   1       0.403   3.526  -0.109  0.00  0.00    -0.082 A 
ATOM      4  C2  PXY d   1       1.001   3.862   1.023  0.00  0.00     0.003 A 
ATOM      5  C3  PXY d   1       0.655   3.249   2.199  0.00  0.00     0.003 A 
ATOM      6  C4  PXY d   1      -0.351   2.320   2.227  0.00  0.00    -0.082 A 
ATOM      7  C5  PXY d   1      -0.973   1.979   1.079  0.00  0.00     0.003 A 
ATOM      8  C6  PXY d   1      -0.579   2.583  -0.112  0.00  0.00     0.003 A 
ENDROOT
TORSDOF 0
ENDMDL
