MODEL 1
REMARK minimizedAffinity 14.6490612
REMARK minimizedRMSD -1
REMARK  0 active torsions:
REMARK  status: ('A' for Active; 'I' for Inactive)
ROOT
ATOM      1  C4' PXY d   1      -1.427   2.678  -3.182  0.00  0.00     0.077 C 
ATOM      2  C1' PXY d   1       1.584   5.040   1.150  0.00  0.00     0.077 C 
ATOM      3  C1  PXY d   1       0.801   4.410   0.015  0.00  0.00    -0.082 A 
ATOM      4  C2  PXY d   1       0.250   5.181  -0.908  0.00  0.00     0.003 A 
ATOM      5  C3  PXY d   1      -0.488   4.630  -1.923  0.00  0.00     0.003 A 
ATOM      6  C4  PXY d   1      -0.620   3.271  -2.024  0.00  0.00    -0.082 A 
ATOM      7  C5  PXY d   1      -0.053   2.476  -1.092  0.00  0.00     0.003 A 
ATOM      8  C6  PXY d   1       0.658   3.058  -0.047  0.00  0.00     0.003 A 
ENDROOT
TORSDOF 0
ENDMDL
