MODEL 1
REMARK minimizedAffinity -1.62607014
REMARK minimizedRMSD -1
REMARK  0 active torsions:
REMARK  status: ('A' for Active; 'I' for Inactive)
ROOT
ATOM      1  C4' PXY d   1      -0.707   3.202  -1.924  0.00  0.00     0.077 C 
ATOM      2  C1' PXY d   1       0.452   2.667   3.714  0.00  0.00     0.077 C 
ATOM      3  C1  PXY d   1       0.153   2.820   2.235  0.00  0.00    -0.082 A 
ATOM      4  C2  PXY d   1      -0.799   2.087   1.682  0.00  0.00     0.003 A 
ATOM      5  C3  PXY d   1      -1.061   2.189   0.340  0.00  0.00     0.003 A 
ATOM      6  C4  PXY d   1      -0.377   3.088  -0.433  0.00  0.00    -0.082 A 
ATOM      7  C5  PXY d   1       0.588   3.848   0.126  0.00  0.00     0.003 A 
ATOM      8  C6  PXY d   1       0.867   3.699   1.482  0.00  0.00     0.003 A 
ENDROOT
TORSDOF 0
ENDMDL
