MODEL 1
REMARK minimizedAffinity -1.94196832
REMARK minimizedRMSD -1
REMARK  0 active torsions:
REMARK  status: ('A' for Active; 'I' for Inactive)
ROOT
ATOM      1  C4' PXY d   1      -5.996  -2.985   5.968  0.00  0.00     0.077 C 
ATOM      2  C1' PXY d   1      -0.624  -2.758   3.846  0.00  0.00     0.077 C 
ATOM      3  C1  PXY d   1      -2.037  -2.821   4.391  0.00  0.00    -0.082 A 
ATOM      4  C2  PXY d   1      -2.351  -2.132   5.476  0.00  0.00     0.003 A 
ATOM      5  C3  PXY d   1      -3.616  -2.202   6.000  0.00  0.00     0.003 A 
ATOM      6  C4  PXY d   1      -4.584  -2.944   5.377  0.00  0.00    -0.082 A 
ATOM      7  C5  PXY d   1      -4.274  -3.642   4.264  0.00  0.00     0.003 A 
ATOM      8  C6  PXY d   1      -2.973  -3.589   3.771  0.00  0.00     0.003 A 
ENDROOT
TORSDOF 0
ENDMDL
