MODEL 1
REMARK minimizedAffinity 3.29227829
REMARK minimizedRMSD -1
REMARK  0 active torsions:
REMARK  status: ('A' for Active; 'I' for Inactive)
ROOT
ATOM      1  C4' PXY d   1       0.381   3.399  -1.041  0.00  0.00     0.077 C 
ATOM      2  C1' PXY d   1      -1.494   0.435   3.554  0.00  0.00     0.077 C 
ATOM      3  C1  PXY d   1      -1.003   1.224   2.356  0.00  0.00    -0.082 A 
ATOM      4  C2  PXY d   1      -1.186   0.743   1.137  0.00  0.00     0.003 A 
ATOM      5  C3  PXY d   1      -0.720   1.428   0.044  0.00  0.00     0.003 A 
ATOM      6  C4  PXY d   1      -0.107   2.642   0.197  0.00  0.00    -0.082 A 
ATOM      7  C5  PXY d   1       0.074   3.145   1.437  0.00  0.00     0.003 A 
ATOM      8  C6  PXY d   1      -0.369   2.415   2.536  0.00  0.00     0.003 A 
ENDROOT
TORSDOF 0
ENDMDL
