MODEL 1
REMARK minimizedAffinity 0.655165255
REMARK minimizedRMSD -1
REMARK  0 active torsions:
REMARK  status: ('A' for Active; 'I' for Inactive)
ROOT
ATOM      1  C4' PXY d   1       0.362   3.450  -0.256  0.00  0.00     0.077 C 
ATOM      2  C1' PXY d   1      -1.531   0.433   4.297  0.00  0.00     0.077 C 
ATOM      3  C1  PXY d   1      -1.033   1.234   3.110  0.00  0.00    -0.082 A 
ATOM      4  C2  PXY d   1      -1.346   0.850   1.884  0.00  0.00     0.003 A 
ATOM      5  C3  PXY d   1      -0.878   1.545   0.798  0.00  0.00     0.003 A 
ATOM      6  C4  PXY d   1      -0.126   2.676   0.972  0.00  0.00    -0.082 A 
ATOM      7  C5  PXY d   1       0.188   3.081   2.221  0.00  0.00     0.003 A 
ATOM      8  C6  PXY d   1      -0.262   2.338   3.308  0.00  0.00     0.003 A 
ENDROOT
TORSDOF 0
ENDMDL
