MODEL 1
REMARK minimizedAffinity 12.2496653
REMARK minimizedRMSD -1
REMARK  0 active torsions:
REMARK  status: ('A' for Active; 'I' for Inactive)
ROOT
ATOM      1  C4' PXY d   1      -4.003   5.126   1.525  0.00  0.00     0.077 C 
ATOM      2  C1' PXY d   1       1.148   4.024  -0.855  0.00  0.00     0.077 C 
ATOM      3  C1  PXY d   1      -0.198   4.324  -0.226  0.00  0.00    -0.082 A 
ATOM      4  C2  PXY d   1      -1.055   3.338  -0.012  0.00  0.00     0.003 A 
ATOM      5  C3  PXY d   1      -2.289   3.596   0.527  0.00  0.00     0.003 A 
ATOM      6  C4  PXY d   1      -2.629   4.868   0.901  0.00  0.00    -0.082 A 
ATOM      7  C5  PXY d   1      -1.757   5.878   0.696  0.00  0.00     0.003 A 
ATOM      8  C6  PXY d   1      -0.525   5.601   0.109  0.00  0.00     0.003 A 
ENDROOT
TORSDOF 0
ENDMDL
