MODEL 1
REMARK minimizedAffinity -4.06210566
REMARK minimizedRMSD -1
REMARK  0 active torsions:
REMARK  status: ('A' for Active; 'I' for Inactive)
ROOT
ATOM      1  C4' PXY d   1      -5.250  -3.003   0.612  0.00  0.00     0.077 C 
ATOM      2  C1' PXY d   1      -4.841   1.065  -3.474  0.00  0.00     0.077 C 
ATOM      3  C1  PXY d   1      -4.936  -0.000  -2.400  0.00  0.00    -0.082 A 
ATOM      4  C2  PXY d   1      -5.880  -0.924  -2.476  0.00  0.00     0.003 A 
ATOM      5  C3  PXY d   1      -6.000  -1.876  -1.496  0.00  0.00     0.003 A 
ATOM      6  C4  PXY d   1      -5.111  -1.914  -0.455  0.00  0.00    -0.082 A 
ATOM      7  C5  PXY d   1      -4.138  -0.982  -0.376  0.00  0.00     0.003 A 
ATOM      8  C6  PXY d   1      -4.059   0.000  -1.359  0.00  0.00     0.003 A 
ENDROOT
TORSDOF 0
ENDMDL
