MODEL 1
REMARK minimizedAffinity 25.140728
REMARK minimizedRMSD -1
REMARK  0 active torsions:
REMARK  status: ('A' for Active; 'I' for Inactive)
ROOT
ATOM      1  C   UNL d   1       0.041   2.353   4.834  0.00  0.00     0.124 A 
ATOM      2  C1  UNL d   1       0.722   1.146   4.908  0.00  0.00     0.062 A 
ATOM      3  C2  UNL d   1       0.658   0.240   3.853  0.00  0.00     0.162 A 
ATOM      4  C3  UNL d   1      -0.089   0.539   2.714  0.00  0.00    -0.034 A 
ATOM      5  C4  UNL d   1      -0.771   1.755   2.647  0.00  0.00     0.162 A 
ATOM      6  C5  UNL d   1      -0.704   2.657   3.704  0.00  0.00     0.062 A 
ATOM      7  F   UNL d   1      -1.363   3.823   3.630  0.00  0.00    -0.097 F 
ATOM      8  F1  UNL d   1      -1.499   2.074   1.566  0.00  0.00    -0.096 F 
ATOM      9  I   UNL d   1      -0.187  -0.812   1.134  0.00  0.00    -0.060 I 
ATOM     10  F2  UNL d   1       1.326  -0.919   3.952  0.00  0.00    -0.096 F 
ATOM     11  F3  UNL d   1       1.442   0.850   6.000  0.00  0.00    -0.097 F 
ATOM     12  F4  UNL d   1       0.104   3.222   5.851  0.00  0.00    -0.092 F 
ENDROOT
TORSDOF 0
ENDMDL
