MODEL 1
REMARK minimizedAffinity 24.4227104
REMARK minimizedRMSD -1
REMARK  0 active torsions:
REMARK  status: ('A' for Active; 'I' for Inactive)
ROOT
ATOM      1  C   UNL d   1      -2.719  -0.621   0.291  0.00  0.00     0.124 A 
ATOM      2  C1  UNL d   1      -2.701   0.489   1.123  0.00  0.00     0.062 A 
ATOM      3  C2  UNL d   1      -1.560   0.794   1.859  0.00  0.00     0.162 A 
ATOM      4  C3  UNL d   1      -0.426  -0.013   1.766  0.00  0.00    -0.034 A 
ATOM      5  C4  UNL d   1      -0.452  -1.129   0.927  0.00  0.00     0.162 A 
ATOM      6  C5  UNL d   1      -1.595  -1.429   0.194  0.00  0.00     0.062 A 
ATOM      7  F   UNL d   1      -1.611  -2.503  -0.610  0.00  0.00    -0.097 F 
ATOM      8  F1  UNL d   1       0.621  -1.926   0.814  0.00  0.00    -0.096 F 
ATOM      9  I   UNL d   1       1.283   0.439   2.865  0.00  0.00    -0.060 I 
ATOM     10  F2  UNL d   1      -1.571   1.873   2.655  0.00  0.00    -0.096 F 
ATOM     11  F3  UNL d   1      -3.786   1.271   1.219  0.00  0.00    -0.097 F 
ATOM     12  F4  UNL d   1      -3.819  -0.913  -0.415  0.00  0.00    -0.092 F 
ENDROOT
TORSDOF 0
ENDMDL
