MODEL 1
REMARK minimizedAffinity 28.8883553
REMARK minimizedRMSD -1
REMARK  0 active torsions:
REMARK  status: ('A' for Active; 'I' for Inactive)
ROOT
ATOM      1  C   UNL d   1      -0.949  -1.216  -3.373  0.00  0.00     0.124 A 
ATOM      2  C1  UNL d   1      -0.609  -1.779  -4.595  0.00  0.00     0.062 A 
ATOM      3  C2  UNL d   1      -0.777  -3.144  -4.808  0.00  0.00     0.162 A 
ATOM      4  C3  UNL d   1      -1.288  -3.956  -3.796  0.00  0.00    -0.034 A 
ATOM      5  C4  UNL d   1      -1.627  -3.383  -2.569  0.00  0.00     0.162 A 
ATOM      6  C5  UNL d   1      -1.457  -2.018  -2.361  0.00  0.00     0.062 A 
ATOM      7  F   UNL d   1      -1.786  -1.476  -1.180  0.00  0.00    -0.097 F 
ATOM      8  F1  UNL d   1      -2.121  -4.135  -1.574  0.00  0.00    -0.096 F 
ATOM      9  I   UNL d   1      -1.541  -5.998  -4.110  0.00  0.00    -0.060 I 
ATOM     10  F2  UNL d   1      -0.440  -3.661  -5.999  0.00  0.00    -0.096 F 
ATOM     11  F3  UNL d   1      -0.117  -1.006  -5.574  0.00  0.00    -0.097 F 
ATOM     12  F4  UNL d   1      -0.786   0.098  -3.171  0.00  0.00    -0.092 F 
ENDROOT
TORSDOF 0
ENDMDL
