MODEL 1
REMARK minimizedAffinity 38.1344719
REMARK minimizedRMSD -1
REMARK  0 active torsions:
REMARK  status: ('A' for Active; 'I' for Inactive)
ROOT
ATOM      1  C   UNL d   1      -0.050  -0.782  -4.205  0.00  0.00     0.124 A 
ATOM      2  C1  UNL d   1      -1.271  -1.227  -3.718  0.00  0.00     0.062 A 
ATOM      3  C2  UNL d   1      -1.707  -2.519  -3.997  0.00  0.00     0.162 A 
ATOM      4  C3  UNL d   1      -0.921  -3.376  -4.768  0.00  0.00    -0.034 A 
ATOM      5  C4  UNL d   1       0.305  -2.921  -5.255  0.00  0.00     0.162 A 
ATOM      6  C5  UNL d   1       0.737  -1.629  -4.973  0.00  0.00     0.062 A 
ATOM      7  F   UNL d   1       1.917  -1.201  -5.445  0.00  0.00    -0.097 F 
ATOM      8  F1  UNL d   1       1.085  -3.719  -5.999  0.00  0.00    -0.096 F 
ATOM      9  I   UNL d   1      -1.570  -5.308  -5.187  0.00  0.00    -0.060 I 
ATOM     10  F2  UNL d   1      -2.891  -2.922  -3.513  0.00  0.00    -0.096 F 
ATOM     11  F3  UNL d   1      -2.033  -0.410  -2.976  0.00  0.00    -0.097 F 
ATOM     12  F4  UNL d   1       0.367   0.462  -3.936  0.00  0.00    -0.092 F 
ENDROOT
TORSDOF 0
ENDMDL
