MODEL 1
REMARK minimizedAffinity 12.7688131
REMARK minimizedRMSD -1
REMARK  0 active torsions:
REMARK  status: ('A' for Active; 'I' for Inactive)
ROOT
ATOM      1  C   UNL d   1       1.464  -1.755   4.003  0.00  0.00     0.124 A 
ATOM      2  C1  UNL d   1       2.549  -1.575   4.850  0.00  0.00     0.062 A 
ATOM      3  C2  UNL d   1       3.377  -0.466   4.701  0.00  0.00     0.162 A 
ATOM      4  C3  UNL d   1       3.123   0.473   3.701  0.00  0.00    -0.034 A 
ATOM      5  C4  UNL d   1       2.030   0.285   2.853  0.00  0.00     0.162 A 
ATOM      6  C5  UNL d   1       1.206  -0.825   3.005  0.00  0.00     0.062 A 
ATOM      7  F   UNL d   1       0.158  -0.997   2.186  0.00  0.00    -0.097 F 
ATOM      8  F1  UNL d   1       1.757   1.168   1.881  0.00  0.00    -0.096 F 
ATOM      9  I   UNL d   1       4.358   2.133   3.476  0.00  0.00    -0.060 I 
ATOM     10  F2  UNL d   1       4.418  -0.317   5.534  0.00  0.00    -0.096 F 
ATOM     11  F3  UNL d   1       2.802  -2.472   5.813  0.00  0.00    -0.097 F 
ATOM     12  F4  UNL d   1       0.670  -2.823   4.148  0.00  0.00    -0.092 F 
ENDROOT
TORSDOF 0
ENDMDL
