MODEL 1
REMARK minimizedAffinity 19.1329803
REMARK minimizedRMSD -1
REMARK  0 active torsions:
REMARK  status: ('A' for Active; 'I' for Inactive)
ROOT
ATOM      1  C   UNL d   1       0.083  -2.062   4.080  0.00  0.00     0.124 A 
ATOM      2  C1  UNL d   1       1.028  -1.052   4.195  0.00  0.00     0.062 A 
ATOM      3  C2  UNL d   1       0.884   0.127   3.471  0.00  0.00     0.162 A 
ATOM      4  C3  UNL d   1      -0.211   0.305   2.625  0.00  0.00    -0.034 A 
ATOM      5  C4  UNL d   1      -1.157  -0.715   2.514  0.00  0.00     0.162 A 
ATOM      6  C5  UNL d   1      -1.009  -1.893   3.239  0.00  0.00     0.062 A 
ATOM      7  F   UNL d   1      -1.923  -2.867   3.127  0.00  0.00    -0.097 F 
ATOM      8  F1  UNL d   1      -2.222  -0.578   1.710  0.00  0.00    -0.096 F 
ATOM      9  I   UNL d   1      -0.430   2.068   1.541  0.00  0.00    -0.060 I 
ATOM     10  F2  UNL d   1       1.813   1.086   3.602  0.00  0.00    -0.096 F 
ATOM     11  F3  UNL d   1       2.084  -1.214   5.006  0.00  0.00    -0.097 F 
ATOM     12  F4  UNL d   1       0.224  -3.197   4.777  0.00  0.00    -0.092 F 
ENDROOT
TORSDOF 0
ENDMDL
