MODEL 1
REMARK minimizedAffinity 23.3032284
REMARK minimizedRMSD -1
REMARK  0 active torsions:
REMARK  status: ('A' for Active; 'I' for Inactive)
ROOT
ATOM      1  C   UNL d   1       5.076   3.886   2.999  0.00  0.00     0.124 A 
ATOM      2  C1  UNL d   1       4.132   3.931   1.983  0.00  0.00     0.062 A 
ATOM      3  C2  UNL d   1       3.201   2.906   1.846  0.00  0.00     0.162 A 
ATOM      4  C3  UNL d   1       3.207   1.826   2.729  0.00  0.00    -0.034 A 
ATOM      5  C4  UNL d   1       4.160   1.787   3.749  0.00  0.00     0.162 A 
ATOM      6  C5  UNL d   1       5.089   2.814   3.881  0.00  0.00     0.062 A 
ATOM      7  F   UNL d   1       6.000   2.769   4.865  0.00  0.00    -0.097 F 
ATOM      8  F1  UNL d   1       4.195   0.764   4.616  0.00  0.00    -0.096 F 
ATOM      9  I   UNL d   1       1.816   0.291   2.529  0.00  0.00    -0.060 I 
ATOM     10  F2  UNL d   1       2.300   2.975   0.854  0.00  0.00    -0.096 F 
ATOM     11  F3  UNL d   1       4.118   4.964   1.129  0.00  0.00    -0.097 F 
ATOM     12  F4  UNL d   1       5.971   4.873   3.128  0.00  0.00    -0.092 F 
ENDROOT
TORSDOF 0
ENDMDL
