MODEL 1
REMARK minimizedAffinity 21.3349342
REMARK minimizedRMSD -1
REMARK  0 active torsions:
REMARK  status: ('A' for Active; 'I' for Inactive)
ROOT
ATOM      1  C   UNL d   1      -0.491   0.087   2.708  0.00  0.00     0.124 A 
ATOM      2  C1  UNL d   1      -1.092   1.328   2.872  0.00  0.00     0.062 A 
ATOM      3  C2  UNL d   1      -0.590   2.231   3.804  0.00  0.00     0.162 A 
ATOM      4  C3  UNL d   1       0.520   1.898   4.580  0.00  0.00    -0.034 A 
ATOM      5  C4  UNL d   1       1.118   0.647   4.411  0.00  0.00     0.162 A 
ATOM      6  C5  UNL d   1       0.612  -0.252   3.478  0.00  0.00     0.062 A 
ATOM      7  F   UNL d   1       1.193  -1.450   3.322  0.00  0.00    -0.097 F 
ATOM      8  F1  UNL d   1       2.186   0.294   5.141  0.00  0.00    -0.096 F 
ATOM      9  I   UNL d   1       1.274   3.245   5.976  0.00  0.00    -0.060 I 
ATOM     10  F2  UNL d   1      -1.190   3.423   3.941  0.00  0.00    -0.096 F 
ATOM     11  F3  UNL d   1      -2.159   1.658   2.130  0.00  0.00    -0.097 F 
ATOM     12  F4  UNL d   1      -0.977  -0.780   1.811  0.00  0.00    -0.092 F 
ENDROOT
TORSDOF 0
ENDMDL
