MODEL 1
REMARK minimizedAffinity 16.6840668
REMARK minimizedRMSD -1
REMARK  0 active torsions:
REMARK  status: ('A' for Active; 'I' for Inactive)
ROOT
ATOM      1  C   UNL d   1      -0.982  -1.989   3.494  0.00  0.00     0.124 A 
ATOM      2  C1  UNL d   1      -2.155  -1.420   3.017  0.00  0.00     0.062 A 
ATOM      3  C2  UNL d   1      -2.170  -0.093   2.600  0.00  0.00     0.162 A 
ATOM      4  C3  UNL d   1      -1.008   0.677   2.657  0.00  0.00    -0.034 A 
ATOM      5  C4  UNL d   1       0.168   0.098   3.138  0.00  0.00     0.162 A 
ATOM      6  C5  UNL d   1       0.178  -1.229   3.554  0.00  0.00     0.062 A 
ATOM      7  F   UNL d   1       1.313  -1.777   4.014  0.00  0.00    -0.097 F 
ATOM      8  F1  UNL d   1       1.303   0.809   3.206  0.00  0.00    -0.096 F 
ATOM      9  I   UNL d   1      -1.027   2.662   2.034  0.00  0.00    -0.060 I 
ATOM     10  F2  UNL d   1      -3.318   0.431   2.144  0.00  0.00    -0.096 F 
ATOM     11  F3  UNL d   1      -3.277  -2.152   2.959  0.00  0.00    -0.097 F 
ATOM     12  F4  UNL d   1      -0.970  -3.266   3.895  0.00  0.00    -0.092 F 
ENDROOT
TORSDOF 0
ENDMDL
