MODEL 1
REMARK minimizedAffinity 4.03190947
REMARK minimizedRMSD -1
REMARK  1 active torsions:
REMARK  status: ('A' for Active; 'I' for Inactive)
REMARK    1  A    between atoms: C3_4  and  O_7 
ROOT
ATOM      1  C   UNL d   1       1.647  -3.243  -0.528  0.00  0.00    -0.033 A 
ATOM      2  C1  UNL d   1       2.267  -2.836   0.655  0.00  0.00     0.039 A 
ATOM      3  C2  UNL d   1       2.954  -1.622   0.703  0.00  0.00    -0.080 A 
ATOM      4  C3  UNL d   1       3.013  -0.824  -0.437  0.00  0.00     0.150 A 
ATOM      5  C4  UNL d   1       2.394  -1.222  -1.617  0.00  0.00    -0.007 A 
ATOM      6  C5  UNL d   1       1.710  -2.435  -1.664  0.00  0.00     0.039 A 
ENDROOT
BRANCH   4   7
ATOM      7  O   UNL d   1       3.676   0.367  -0.439  0.00  0.00    -0.526 OA
ATOM      8  H5  UNL d   1       4.078   0.498   0.436  0.00  0.00     0.418 HD
ENDBRANCH   4   7
TORSDOF 1
ENDMDL
