MODEL 1
REMARK minimizedAffinity 1.35331476
REMARK minimizedRMSD -1
REMARK  1 active torsions:
REMARK  status: ('A' for Active; 'I' for Inactive)
REMARK    1  A    between atoms: C3_4  and  O_7 
ROOT
ATOM      1  C   UNL d   1      -4.415   0.106  -4.845  0.00  0.00    -0.033 A 
ATOM      2  C1  UNL d   1      -4.363  -0.658  -3.678  0.00  0.00     0.039 A 
ATOM      3  C2  UNL d   1      -3.301  -0.501  -2.785  0.00  0.00    -0.080 A 
ATOM      4  C3  UNL d   1      -2.300   0.423  -3.070  0.00  0.00     0.150 A 
ATOM      5  C4  UNL d   1      -2.347   1.190  -4.230  0.00  0.00    -0.007 A 
ATOM      6  C5  UNL d   1      -3.408   1.031  -5.120  0.00  0.00     0.039 A 
ENDROOT
BRANCH   4   7
ATOM      7  O   UNL d   1      -1.241   0.608  -2.232  0.00  0.00    -0.526 OA
ATOM      8  H5  UNL d   1      -1.327  -0.010  -1.487  0.00  0.00     0.418 HD
ENDBRANCH   4   7
TORSDOF 1
ENDMDL
