MODEL 1
REMARK minimizedAffinity 0.164587736
REMARK minimizedRMSD -1
REMARK  1 active torsions:
REMARK  status: ('A' for Active; 'I' for Inactive)
REMARK    1  A    between atoms: C3_4  and  O_7 
ROOT
ATOM      1  C   UNL d   1      -2.000   0.749  -3.833  0.00  0.00    -0.033 A 
ATOM      2  C1  UNL d   1      -2.590   1.438  -4.894  0.00  0.00     0.039 A 
ATOM      3  C2  UNL d   1      -3.936   1.231  -5.200  0.00  0.00    -0.080 A 
ATOM      4  C3  UNL d   1      -4.680   0.334  -4.438  0.00  0.00     0.150 A 
ATOM      5  C4  UNL d   1      -4.100  -0.352  -3.377  0.00  0.00    -0.007 A 
ATOM      6  C5  UNL d   1      -2.755  -0.145  -3.073  0.00  0.00     0.039 A 
ENDROOT
BRANCH   4   7
ATOM      7  O   UNL d   1      -5.996   0.096  -4.703  0.00  0.00    -0.526 OA
ATOM      8  H5  UNL d   1      -6.254   0.618  -5.480  0.00  0.00     0.418 HD
ENDBRANCH   4   7
TORSDOF 1
ENDMDL
