MODEL 1
REMARK minimizedAffinity 6.82811689
REMARK minimizedRMSD -1
REMARK  1 active torsions:
REMARK  status: ('A' for Active; 'I' for Inactive)
REMARK    1  A    between atoms: C3_4  and  O_7 
ROOT
ATOM      1  C   UNL d   1       3.653   0.053  -0.050  0.00  0.00    -0.033 A 
ATOM      2  C1  UNL d   1       3.621   0.280  -1.427  0.00  0.00     0.039 A 
ATOM      3  C2  UNL d   1       4.341   1.342  -1.978  0.00  0.00    -0.080 A 
ATOM      4  C3  UNL d   1       5.089   2.167  -1.142  0.00  0.00     0.150 A 
ATOM      5  C4  UNL d   1       5.129   1.943   0.231  0.00  0.00    -0.007 A 
ATOM      6  C5  UNL d   1       4.408   0.883   0.779  0.00  0.00     0.039 A 
ENDROOT
BRANCH   4   7
ATOM      7  O   UNL d   1       5.805   3.218  -1.632  0.00  0.00    -0.526 OA
ATOM      8  H5  UNL d   1       5.660   3.268  -2.592  0.00  0.00     0.418 HD
ENDBRANCH   4   7
TORSDOF 1
ENDMDL
