MODEL 1
REMARK minimizedAffinity 13.9842949
REMARK minimizedRMSD -1
REMARK  1 active torsions:
REMARK  status: ('A' for Active; 'I' for Inactive)
REMARK    1  A    between atoms: C3_4  and  O_7 
ROOT
ATOM      1  C   UNL d   1       1.724  -2.890   4.527  0.00  0.00    -0.033 A 
ATOM      2  C1  UNL d   1       2.055  -3.708   5.609  0.00  0.00     0.039 A 
ATOM      3  C2  UNL d   1       1.192  -4.734   6.000  0.00  0.00    -0.080 A 
ATOM      4  C3  UNL d   1       0.004  -4.931   5.301  0.00  0.00     0.150 A 
ATOM      5  C4  UNL d   1      -0.329  -4.122   4.220  0.00  0.00    -0.007 A 
ATOM      6  C5  UNL d   1       0.533  -3.098   3.831  0.00  0.00     0.039 A 
ENDROOT
BRANCH   4   7
ATOM      7  O   UNL d   1      -0.872  -5.916   5.648  0.00  0.00    -0.526 OA
ATOM      8  H5  UNL d   1      -0.524  -6.376   6.431  0.00  0.00     0.418 HD
ENDBRANCH   4   7
TORSDOF 1
ENDMDL
