MODEL 1
REMARK minimizedAffinity 2.48973203
REMARK minimizedRMSD -1
REMARK  1 active torsions:
REMARK  status: ('A' for Active; 'I' for Inactive)
REMARK    1  A    between atoms: C3_4  and  O_7 
ROOT
ATOM      1  C   UNL d   1       4.925   1.756  -0.545  0.00  0.00    -0.033 A 
ATOM      2  C1  UNL d   1       5.532   0.931  -1.494  0.00  0.00     0.039 A 
ATOM      3  C2  UNL d   1       4.947  -0.289  -1.837  0.00  0.00    -0.080 A 
ATOM      4  C3  UNL d   1       3.756  -0.672  -1.227  0.00  0.00     0.150 A 
ATOM      5  C4  UNL d   1       3.143   0.147  -0.284  0.00  0.00    -0.007 A 
ATOM      6  C5  UNL d   1       3.730   1.365   0.059  0.00  0.00     0.039 A 
ENDROOT
BRANCH   4   7
ATOM      7  O   UNL d   1       3.149  -1.856  -1.526  0.00  0.00    -0.526 OA
ATOM      8  H5  UNL d   1       3.700  -2.329  -2.172  0.00  0.00     0.418 HD
ENDBRANCH   4   7
TORSDOF 1
ENDMDL
