MODEL 1
REMARK minimizedAffinity 5.81456518
REMARK minimizedRMSD -1
REMARK  1 active torsions:
REMARK  status: ('A' for Active; 'I' for Inactive)
REMARK    1  A    between atoms: C3_4  and  O_7 
ROOT
ATOM      1  C   UNL d   1      -1.046   0.913   1.161  0.00  0.00    -0.033 A 
ATOM      2  C1  UNL d   1      -1.650   2.061   0.644  0.00  0.00     0.039 A 
ATOM      3  C2  UNL d   1      -1.197   3.324   1.031  0.00  0.00    -0.080 A 
ATOM      4  C3  UNL d   1      -0.141   3.425   1.933  0.00  0.00     0.150 A 
ATOM      5  C4  UNL d   1       0.467   2.286   2.448  0.00  0.00    -0.007 A 
ATOM      6  C5  UNL d   1       0.013   1.025   2.061  0.00  0.00     0.039 A 
ENDROOT
BRANCH   4   7
ATOM      7  O   UNL d   1       0.332   4.636   2.344  0.00  0.00    -0.526 OA
ATOM      8  H5  UNL d   1      -0.203   5.333   1.928  0.00  0.00     0.418 HD
ENDBRANCH   4   7
TORSDOF 1
ENDMDL
