MODEL 1
REMARK minimizedAffinity 0.510939837
REMARK minimizedRMSD -1
REMARK  1 active torsions:
REMARK  status: ('A' for Active; 'I' for Inactive)
REMARK    1  A    between atoms: C3_4  and  O_7 
ROOT
ATOM      1  C   UNL d   1       2.519  -1.707   0.001  0.00  0.00    -0.033 A 
ATOM      2  C1  UNL d   1       1.735  -1.151  -1.011  0.00  0.00     0.039 A 
ATOM      3  C2  UNL d   1       0.650  -1.862  -1.526  0.00  0.00    -0.080 A 
ATOM      4  C3  UNL d   1       0.359  -3.126  -1.020  0.00  0.00     0.150 A 
ATOM      5  C4  UNL d   1       1.133  -3.685  -0.009  0.00  0.00    -0.007 A 
ATOM      6  C5  UNL d   1       2.218  -2.974   0.503  0.00  0.00     0.039 A 
ENDROOT
BRANCH   4   7
ATOM      7  O   UNL d   1      -0.688  -3.860  -1.495  0.00  0.00    -0.526 OA
ATOM      8  H5  UNL d   1      -1.115  -3.360  -2.210  0.00  0.00     0.418 HD
ENDBRANCH   4   7
TORSDOF 1
ENDMDL
