MODEL 1
REMARK minimizedAffinity 7.57600117
REMARK minimizedRMSD -1
REMARK  1 active torsions:
REMARK  status: ('A' for Active; 'I' for Inactive)
REMARK    1  A    between atoms: C3_4  and  O_7 
ROOT
ATOM      1  C   UNL d   1      -0.090   2.343   0.888  0.00  0.00    -0.033 A 
ATOM      2  C1  UNL d   1      -0.695   1.099   1.077  0.00  0.00     0.039 A 
ATOM      3  C2  UNL d   1      -2.015   1.024   1.524  0.00  0.00    -0.080 A 
ATOM      4  C3  UNL d   1      -2.719   2.199   1.775  0.00  0.00     0.150 A 
ATOM      5  C4  UNL d   1      -2.124   3.441   1.585  0.00  0.00    -0.007 A 
ATOM      6  C5  UNL d   1      -0.805   3.514   1.140  0.00  0.00     0.039 A 
ENDROOT
BRANCH   4   7
ATOM      7  O   UNL d   1      -4.009   2.176   2.217  0.00  0.00    -0.526 OA
ATOM      8  H5  UNL d   1      -4.279   1.249   2.330  0.00  0.00     0.418 HD
ENDBRANCH   4   7
TORSDOF 1
ENDMDL
