MODEL 1
REMARK minimizedAffinity -6.58445024
REMARK minimizedRMSD -1
REMARK  0 active torsions:
REMARK  status: ('A' for Active; 'I' for Inactive)
ROOT
ATOM      1  C1  DEN d   1      -0.350   0.975   0.259  0.00  0.00     0.130 A 
ATOM      2  C2  DEN d   1       0.870   0.414  -0.315  0.00  0.00    -0.031 A 
ATOM      3  C3  DEN d   1       0.838  -1.048  -0.116  0.00  0.00     0.027 A 
ATOM      4  C4  DEN d   1      -0.975  -2.493   1.016  0.00  0.00     0.027 A 
ATOM      5  C5  DEN d   1      -2.189  -2.464   1.666  0.00  0.00    -0.003 A 
ATOM      6  C6  DEN d   1      -2.853  -1.294   1.920  0.00  0.00     0.001 A 
ATOM      7  C7  DEN d   1      -2.329  -0.106   1.483  0.00  0.00     0.017 A 
ATOM      8  C8  DEN d   1      -1.102  -0.126   0.833  0.00  0.00    -0.094 A 
ATOM      9  C9  DEN d   1      -0.451  -1.321   0.574  0.00  0.00    -0.072 A 
ENDROOT
TORSDOF 0
ENDMDL
