MODEL 1
REMARK minimizedAffinity -5.37445307
REMARK minimizedRMSD -1
REMARK  0 active torsions:
REMARK  status: ('A' for Active; 'I' for Inactive)
ROOT
ATOM      1  C1  DEN d   1       0.007   0.756   0.078  0.00  0.00     0.130 A 
ATOM      2  C2  DEN d   1       1.187   0.064  -0.433  0.00  0.00    -0.031 A 
ATOM      3  C3  DEN d   1       1.009  -1.382  -0.192  0.00  0.00     0.027 A 
ATOM      4  C4  DEN d   1      -0.971  -2.610   0.914  0.00  0.00     0.027 A 
ATOM      5  C5  DEN d   1      -2.198  -2.446   1.517  0.00  0.00    -0.003 A 
ATOM      6  C6  DEN d   1      -2.757  -1.211   1.712  0.00  0.00     0.001 A 
ATOM      7  C7  DEN d   1      -2.107  -0.093   1.259  0.00  0.00     0.017 A 
ATOM      8  C8  DEN d   1      -0.866  -0.250   0.656  0.00  0.00    -0.094 A 
ATOM      9  C9  DEN d   1      -0.324  -1.508   0.457  0.00  0.00    -0.072 A 
ENDROOT
TORSDOF 0
ENDMDL
