MODEL 1
REMARK minimizedAffinity -4.96185923
REMARK minimizedRMSD -1
REMARK  0 active torsions:
REMARK  status: ('A' for Active; 'I' for Inactive)
ROOT
ATOM      1  C1  DEN d   1      -0.698   0.413  -0.208  0.00  0.00     0.130 A 
ATOM      2  C2  DEN d   1       0.754   0.567  -0.231  0.00  0.00    -0.031 A 
ATOM      3  C3  DEN d   1       1.349  -0.611   0.432  0.00  0.00     0.027 A 
ATOM      4  C4  DEN d   1       0.169  -2.649   1.483  0.00  0.00     0.027 A 
ATOM      5  C5  DEN d   1      -1.054  -3.221   1.755  0.00  0.00    -0.003 A 
ATOM      6  C6  DEN d   1      -2.235  -2.611   1.425  0.00  0.00     0.001 A 
ATOM      7  C7  DEN d   1      -2.218  -1.413   0.763  0.00  0.00     0.017 A 
ATOM      8  C8  DEN d   1      -0.989  -0.826   0.491  0.00  0.00    -0.094 A 
ATOM      9  C9  DEN d   1       0.195  -1.464   0.823  0.00  0.00    -0.072 A 
ENDROOT
TORSDOF 0
ENDMDL
