MODEL 1
REMARK minimizedAffinity -5.1838851
REMARK minimizedRMSD -1
REMARK  0 active torsions:
REMARK  status: ('A' for Active; 'I' for Inactive)
ROOT
ATOM      1  C1  DEN d   1       0.658   0.195  -0.029  0.00  0.00     0.130 A 
ATOM      2  C2  DEN d   1       1.685  -0.840   0.065  0.00  0.00    -0.031 A 
ATOM      3  C3  DEN d   1       1.048  -2.069   0.580  0.00  0.00     0.027 A 
ATOM      4  C4  DEN d   1      -1.415  -2.469   1.232  0.00  0.00     0.027 A 
ATOM      5  C5  DEN d   1      -2.658  -1.885   1.334  0.00  0.00    -0.003 A 
ATOM      6  C6  DEN d   1      -2.875  -0.569   1.025  0.00  0.00     0.001 A 
ATOM      7  C7  DEN d   1      -1.840   0.196   0.554  0.00  0.00     0.017 A 
ATOM      8  C8  DEN d   1      -0.582  -0.383   0.455  0.00  0.00    -0.094 A 
ATOM      9  C9  DEN d   1      -0.387  -1.719   0.761  0.00  0.00    -0.072 A 
ENDROOT
TORSDOF 0
ENDMDL
