MODEL 1
REMARK minimizedAffinity -5.29796267
REMARK minimizedRMSD -1
REMARK  0 active torsions:
REMARK  status: ('A' for Active; 'I' for Inactive)
ROOT
ATOM      1  C1  DEN d   1       1.127  -0.678  -0.009  0.00  0.00     0.130 A 
ATOM      2  C2  DEN d   1       0.948   0.712  -0.417  0.00  0.00    -0.031 A 
ATOM      3  C3  DEN d   1      -0.427   1.119  -0.066  0.00  0.00     0.027 A 
ATOM      4  C4  DEN d   1      -2.287  -0.261   1.070  0.00  0.00     0.027 A 
ATOM      5  C5  DEN d   1      -2.610  -1.495   1.592  0.00  0.00    -0.003 A 
ATOM      6  C6  DEN d   1      -1.729  -2.544   1.586  0.00  0.00     0.001 A 
ATOM      7  C7  DEN d   1      -0.465  -2.366   1.088  0.00  0.00     0.017 A 
ATOM      8  C8  DEN d   1      -0.134  -1.127   0.554  0.00  0.00    -0.094 A 
ATOM      9  C9  DEN d   1      -1.035  -0.076   0.580  0.00  0.00    -0.072 A 
ENDROOT
TORSDOF 0
ENDMDL
