MODEL 1
REMARK minimizedAffinity -4.38225746
REMARK minimizedRMSD -1
REMARK  0 active torsions:
REMARK  status: ('A' for Active; 'I' for Inactive)
ROOT
ATOM      1  C1  DEN d   1      -1.966  -1.384  -0.048  0.00  0.00     0.130 A 
ATOM      2  C2  DEN d   1      -1.650  -2.616   0.669  0.00  0.00    -0.031 A 
ATOM      3  C3  DEN d   1      -0.267  -2.508   1.176  0.00  0.00     0.027 A 
ATOM      4  C4  DEN d   1       1.404  -0.560   0.925  0.00  0.00     0.027 A 
ATOM      5  C5  DEN d   1       1.594   0.695   0.388  0.00  0.00    -0.003 A 
ATOM      6  C6  DEN d   1       0.630   1.325  -0.354  0.00  0.00     0.001 A 
ATOM      7  C7  DEN d   1      -0.585   0.721  -0.542  0.00  0.00     0.017 A 
ATOM      8  C8  DEN d   1      -0.781  -0.547  -0.011  0.00  0.00    -0.094 A 
ATOM      9  C9  DEN d   1       0.202  -1.162   0.747  0.00  0.00    -0.072 A 
ENDROOT
TORSDOF 0
ENDMDL
