MODEL 1
REMARK minimizedAffinity -6.70058298
REMARK minimizedRMSD -1
REMARK  0 active torsions:
REMARK  status: ('A' for Active; 'I' for Inactive)
ROOT
ATOM      1  C1  DEN d   1      -0.929  -2.679   0.963  0.00  0.00     0.130 A 
ATOM      2  C2  DEN d   1      -2.274  -2.723   1.530  0.00  0.00    -0.031 A 
ATOM      3  C3  DEN d   1      -2.781  -1.338   1.611  0.00  0.00     0.027 A 
ATOM      4  C4  DEN d   1      -1.622   0.858   0.915  0.00  0.00     0.027 A 
ATOM      5  C5  DEN d   1      -0.469   1.402   0.393  0.00  0.00    -0.003 A 
ATOM      6  C6  DEN d   1       0.615   0.634   0.060  0.00  0.00     0.001 A 
ATOM      7  C7  DEN d   1       0.553  -0.727   0.202  0.00  0.00     0.017 A 
ATOM      8  C8  DEN d   1      -0.604  -1.282   0.734  0.00  0.00    -0.094 A 
ATOM      9  C9  DEN d   1      -1.694  -0.490   1.053  0.00  0.00    -0.072 A 
ENDROOT
TORSDOF 0
ENDMDL
