MODEL 1
REMARK minimizedAffinity -7.04591608
REMARK minimizedRMSD -1
REMARK  0 active torsions:
REMARK  status: ('A' for Active; 'I' for Inactive)
ROOT
ATOM      1  C1  DEN d   1       0.528  -0.368  -0.076  0.00  0.00     0.130 A 
ATOM      2  C2  DEN d   1       1.044  -1.733  -0.132  0.00  0.00    -0.031 A 
ATOM      3  C3  DEN d   1       0.129  -2.599   0.638  0.00  0.00     0.027 A 
ATOM      4  C4  DEN d   1      -2.029  -1.963   1.901  0.00  0.00     0.027 A 
ATOM      5  C5  DEN d   1      -2.864  -0.922   2.242  0.00  0.00    -0.003 A 
ATOM      6  C6  DEN d   1      -2.611   0.370   1.867  0.00  0.00     0.001 A 
ATOM      7  C7  DEN d   1      -1.519   0.650   1.089  0.00  0.00     0.017 A 
ATOM      8  C8  DEN d   1      -0.668  -0.393   0.747  0.00  0.00    -0.094 A 
ATOM      9  C9  DEN d   1      -0.948  -1.695   1.125  0.00  0.00    -0.072 A 
ENDROOT
TORSDOF 0
ENDMDL
