MODEL 1
REMARK minimizedAffinity -6.36010218
REMARK minimizedRMSD -1
REMARK  0 active torsions:
REMARK  status: ('A' for Active; 'I' for Inactive)
ROOT
ATOM      1  C1  DEN d   1       0.772  -0.850  -0.159  0.00  0.00     0.130 A 
ATOM      2  C2  DEN d   1       0.768   0.605  -0.282  0.00  0.00    -0.031 A 
ATOM      3  C3  DEN d   1      -0.472   1.112   0.339  0.00  0.00     0.027 A 
ATOM      4  C4  DEN d   1      -2.374  -0.207   1.476  0.00  0.00     0.027 A 
ATOM      5  C5  DEN d   1      -2.823  -1.465   1.811  0.00  0.00    -0.003 A 
ATOM      6  C6  DEN d   1      -2.127  -2.599   1.486  0.00  0.00     0.001 A 
ATOM      7  C7  DEN d   1      -0.921  -2.495   0.845  0.00  0.00     0.017 A 
ATOM      8  C8  DEN d   1      -0.466  -1.230   0.496  0.00  0.00    -0.094 A 
ATOM      9  C9  DEN d   1      -1.178  -0.095   0.845  0.00  0.00    -0.072 A 
ENDROOT
TORSDOF 0
ENDMDL
