MODEL 1
REMARK minimizedAffinity 0.514344037
REMARK minimizedRMSD -1
REMARK  0 active torsions:
REMARK  status: ('A' for Active; 'I' for Inactive)
ROOT
ATOM      1  C1  DEN d   1      -2.378  -0.968   2.633  0.00  0.00     0.130 A 
ATOM      2  C2  DEN d   1      -2.912   0.369   2.384  0.00  0.00    -0.031 A 
ATOM      3  C3  DEN d   1      -2.063   1.018   1.365  0.00  0.00     0.027 A 
ATOM      4  C4  DEN d   1       0.013   0.086   0.151  0.00  0.00     0.027 A 
ATOM      5  C5  DEN d   1       0.854  -0.998   0.037  0.00  0.00    -0.003 A 
ATOM      6  C6  DEN d   1       0.699  -2.126   0.798  0.00  0.00     0.001 A 
ATOM      7  C7  DEN d   1      -0.349  -2.213   1.676  0.00  0.00     0.017 A 
ATOM      8  C8  DEN d   1      -1.197  -1.121   1.802  0.00  0.00    -0.094 A 
ATOM      9  C9  DEN d   1      -1.031   0.006   1.014  0.00  0.00    -0.072 A 
ENDROOT
TORSDOF 0
ENDMDL
