MODEL 1
REMARK minimizedAffinity -5.61839962
REMARK minimizedRMSD -1
REMARK  0 active torsions:
REMARK  status: ('A' for Active; 'I' for Inactive)
ROOT
ATOM      1  C1  DEN d   1       0.323  -0.525  -0.379  0.00  0.00     0.130 A 
ATOM      2  C2  DEN d   1       0.042   0.905  -0.472  0.00  0.00    -0.031 A 
ATOM      3  C3  DEN d   1      -1.136   1.194   0.371  0.00  0.00     0.027 A 
ATOM      4  C4  DEN d   1      -2.540  -0.425   1.807  0.00  0.00     0.027 A 
ATOM      5  C5  DEN d   1      -2.693  -1.738   2.194  0.00  0.00    -0.003 A 
ATOM      6  C6  DEN d   1      -1.878  -2.736   1.728  0.00  0.00     0.001 A 
ATOM      7  C7  DEN d   1      -0.845  -2.430   0.882  0.00  0.00     0.017 A 
ATOM      8  C8  DEN d   1      -0.690  -1.109   0.481  0.00  0.00    -0.094 A 
ATOM      9  C9  DEN d   1      -1.516  -0.113   0.973  0.00  0.00    -0.072 A 
ENDROOT
TORSDOF 0
ENDMDL
