MODEL 1
REMARK minimizedAffinity -6.27834368
REMARK minimizedRMSD -1
REMARK  0 active torsions:
REMARK  status: ('A' for Active; 'I' for Inactive)
ROOT
ATOM      1  C1  DEN d   1      -0.206   0.888   0.304  0.00  0.00     0.130 A 
ATOM      2  C2  DEN d   1       1.102   0.384  -0.104  0.00  0.00    -0.031 A 
ATOM      3  C3  DEN d   1       1.133  -1.069   0.157  0.00  0.00     0.027 A 
ATOM      4  C4  DEN d   1      -0.710  -2.581   1.141  0.00  0.00     0.027 A 
ATOM      5  C5  DEN d   1      -1.991  -2.605   1.647  0.00  0.00    -0.003 A 
ATOM      6  C6  DEN d   1      -2.748  -1.470   1.772  0.00  0.00     0.001 A 
ATOM      7  C7  DEN d   1      -2.247  -0.269   1.343  0.00  0.00     0.017 A 
ATOM      8  C8  DEN d   1      -0.954  -0.236   0.838  0.00  0.00    -0.094 A 
ATOM      9  C9  DEN d   1      -0.209  -1.396   0.709  0.00  0.00    -0.072 A 
ENDROOT
TORSDOF 0
ENDMDL
