MODEL 1
REMARK minimizedAffinity -4.93073988
REMARK minimizedRMSD -1
REMARK  0 active torsions:
REMARK  status: ('A' for Active; 'I' for Inactive)
ROOT
ATOM      1  C1  DEN d   1      -0.505   1.479   0.342  0.00  0.00     0.130 A 
ATOM      2  C2  DEN d   1       0.707   0.904  -0.236  0.00  0.00    -0.031 A 
ATOM      3  C3  DEN d   1       0.636  -0.563  -0.080  0.00  0.00     0.027 A 
ATOM      4  C4  DEN d   1      -1.226  -1.992   0.989  0.00  0.00     0.027 A 
ATOM      5  C5  DEN d   1      -2.446  -1.952   1.627  0.00  0.00    -0.003 A 
ATOM      6  C6  DEN d   1      -3.083  -0.773   1.909  0.00  0.00     0.001 A 
ATOM      7  C7  DEN d   1      -2.524   0.413   1.512  0.00  0.00     0.017 A 
ATOM      8  C8  DEN d   1      -1.291   0.381   0.875  0.00  0.00    -0.094 A 
ATOM      9  C9  DEN d   1      -0.668  -0.822   0.588  0.00  0.00    -0.072 A 
ENDROOT
TORSDOF 0
ENDMDL
