MODEL 1
REMARK minimizedAffinity 6.2834487
REMARK minimizedRMSD -1
REMARK  0 active torsions:
REMARK  status: ('A' for Active; 'I' for Inactive)
ROOT
ATOM      1  C   UNL d   1       1.040   4.305   1.802  0.00  0.00     0.023 A 
ATOM      2  C1  UNL d   1      -0.301   4.119   1.467  0.00  0.00     0.003 A 
ATOM      3  C2  UNL d   1      -0.929   2.902   1.743  0.00  0.00     0.048 A 
ATOM      4  C3  UNL d   1      -0.211   1.877   2.356  0.00  0.00     0.023 A 
ATOM      5  C4  UNL d   1       1.131   2.059   2.694  0.00  0.00     0.048 A 
ATOM      6  C5  UNL d   1       1.755   3.276   2.415  0.00  0.00     0.003 A 
ATOM      7  I   UNL d   1      -1.143   0.066   2.768  0.00  0.00    -0.146 I 
ENDROOT
TORSDOF 0
ENDMDL
