MODEL 1
REMARK minimizedAffinity 11.8357821
REMARK minimizedRMSD -1
REMARK  0 active torsions:
REMARK  status: ('A' for Active; 'I' for Inactive)
ROOT
ATOM      1  C   UNL d   1       1.544  -2.320   0.886  0.00  0.00     0.023 A 
ATOM      2  C1  UNL d   1       1.183  -1.513   1.965  0.00  0.00     0.003 A 
ATOM      3  C2  UNL d   1       1.991  -1.465   3.104  0.00  0.00     0.048 A 
ATOM      4  C3  UNL d   1       3.159  -2.225   3.156  0.00  0.00     0.023 A 
ATOM      5  C4  UNL d   1       3.524  -3.033   2.078  0.00  0.00     0.048 A 
ATOM      6  C5  UNL d   1       2.713  -3.079   0.942  0.00  0.00     0.003 A 
ATOM      7  I   UNL d   1       4.362  -2.155   4.849  0.00  0.00    -0.146 I 
ENDROOT
TORSDOF 0
ENDMDL
