MODEL 1
REMARK minimizedAffinity 5.57144403
REMARK minimizedRMSD -1
REMARK  0 active torsions:
REMARK  status: ('A' for Active; 'I' for Inactive)
ROOT
ATOM      1  C   UNL d   1       5.999  -4.111   6.000  0.00  0.00     0.023 A 
ATOM      2  C1  UNL d   1       5.844  -5.393   5.470  0.00  0.00     0.003 A 
ATOM      3  C2  UNL d   1       5.585  -5.560   4.108  0.00  0.00     0.048 A 
ATOM      4  C3  UNL d   1       5.483  -4.442   3.281  0.00  0.00     0.023 A 
ATOM      5  C4  UNL d   1       5.639  -3.158   3.807  0.00  0.00     0.048 A 
ATOM      6  C5  UNL d   1       5.897  -2.996   5.169  0.00  0.00     0.003 A 
ATOM      7  I   UNL d   1       5.098  -4.689   1.254  0.00  0.00    -0.146 I 
ENDROOT
TORSDOF 0
ENDMDL
