MODEL 1
REMARK minimizedAffinity 17.2553368
REMARK minimizedRMSD -1
REMARK  0 active torsions:
REMARK  status: ('A' for Active; 'I' for Inactive)
ROOT
ATOM      1  C   UNL d   1      -2.671  -0.953  -1.100  0.00  0.00     0.023 A 
ATOM      2  C1  UNL d   1      -2.994   0.394  -1.261  0.00  0.00     0.003 A 
ATOM      3  C2  UNL d   1      -3.949   0.776  -2.206  0.00  0.00     0.048 A 
ATOM      4  C3  UNL d   1      -4.577  -0.194  -2.986  0.00  0.00     0.023 A 
ATOM      5  C4  UNL d   1      -4.258  -1.544  -2.828  0.00  0.00     0.048 A 
ATOM      6  C5  UNL d   1      -3.302  -1.921  -1.882  0.00  0.00     0.003 A 
ATOM      7  I   UNL d   1      -5.998   0.372  -4.393  0.00  0.00    -0.146 I 
ENDROOT
TORSDOF 0
ENDMDL
