MODEL 1
REMARK minimizedAffinity 3.81804204
REMARK minimizedRMSD -1
REMARK  0 active torsions:
REMARK  status: ('A' for Active; 'I' for Inactive)
ROOT
ATOM      1  C   UNL d   1      -4.916  -1.958  -2.771  0.00  0.00     0.023 A 
ATOM      2  C1  UNL d   1      -3.816  -1.716  -1.949  0.00  0.00     0.003 A 
ATOM      3  C2  UNL d   1      -3.089  -0.531  -2.085  0.00  0.00     0.048 A 
ATOM      4  C3  UNL d   1      -3.470   0.408  -3.043  0.00  0.00     0.023 A 
ATOM      5  C4  UNL d   1      -4.571   0.170  -3.867  0.00  0.00     0.048 A 
ATOM      6  C5  UNL d   1      -5.294  -1.017  -3.729  0.00  0.00     0.003 A 
ATOM      7  I   UNL d   1      -2.390   2.172  -3.246  0.00  0.00    -0.146 I 
ENDROOT
TORSDOF 0
ENDMDL
