MODEL 1
REMARK minimizedAffinity 8.12641811
REMARK minimizedRMSD -1
REMARK  0 active torsions:
REMARK  status: ('A' for Active; 'I' for Inactive)
ROOT
ATOM      1  C   UNL d   1       1.808  -3.132   0.251  0.00  0.00     0.023 A 
ATOM      2  C1  UNL d   1       1.650  -2.056   1.125  0.00  0.00     0.003 A 
ATOM      3  C2  UNL d   1       2.335  -2.038   2.342  0.00  0.00     0.048 A 
ATOM      4  C3  UNL d   1       3.175  -3.098   2.679  0.00  0.00     0.023 A 
ATOM      5  C4  UNL d   1       3.337  -4.176   1.807  0.00  0.00     0.048 A 
ATOM      6  C5  UNL d   1       2.650  -4.190   0.592  0.00  0.00     0.003 A 
ATOM      7  I   UNL d   1       4.195  -3.073   4.490  0.00  0.00    -0.146 I 
ENDROOT
TORSDOF 0
ENDMDL
