MODEL 1
REMARK minimizedAffinity -3.3428514
REMARK minimizedRMSD -1
REMARK  0 active torsions:
REMARK  status: ('A' for Active; 'I' for Inactive)
ROOT
ATOM      1  C   UNL d   1      -1.930  -0.536   1.102  0.00  0.00     0.023 A 
ATOM      2  C1  UNL d   1      -1.109  -0.549   2.230  0.00  0.00     0.003 A 
ATOM      3  C2  UNL d   1       0.141   0.072   2.192  0.00  0.00     0.048 A 
ATOM      4  C3  UNL d   1       0.564   0.705   1.024  0.00  0.00     0.023 A 
ATOM      5  C4  UNL d   1      -0.255   0.721  -0.107  0.00  0.00     0.048 A 
ATOM      6  C5  UNL d   1      -1.504   0.098  -0.065  0.00  0.00     0.003 A 
ATOM      7  I   UNL d   1       2.424   1.630   0.965  0.00  0.00    -0.146 I 
ENDROOT
TORSDOF 0
ENDMDL
