MODEL 1
REMARK minimizedAffinity -5.01469851
REMARK minimizedRMSD -1
REMARK  0 active torsions:
REMARK  status: ('A' for Active; 'I' for Inactive)
ROOT
ATOM      1  C   UNL d   1       0.760  -0.221   2.793  0.00  0.00     0.023 A 
ATOM      2  C1  UNL d   1       1.728   0.492   2.086  0.00  0.00     0.003 A 
ATOM      3  C2  UNL d   1       1.549   0.755   0.726  0.00  0.00     0.048 A 
ATOM      4  C3  UNL d   1       0.399   0.303   0.080  0.00  0.00     0.023 A 
ATOM      5  C4  UNL d   1      -0.572  -0.411   0.784  0.00  0.00     0.048 A 
ATOM      6  C5  UNL d   1      -0.388  -0.672   2.143  0.00  0.00     0.003 A 
ATOM      7  I   UNL d   1       0.130   0.693  -1.944  0.00  0.00    -0.146 I 
ENDROOT
TORSDOF 0
ENDMDL
