MODEL 1
REMARK minimizedAffinity -3.96442127
REMARK minimizedRMSD -1
REMARK  0 active torsions:
REMARK  status: ('A' for Active; 'I' for Inactive)
ROOT
ATOM      1  C   UNL d   1      -0.923  -0.060   3.094  0.00  0.00     0.023 A 
ATOM      2  C1  UNL d   1       0.355   0.352   2.716  0.00  0.00     0.003 A 
ATOM      3  C2  UNL d   1       0.677   0.478   1.363  0.00  0.00     0.048 A 
ATOM      4  C3  UNL d   1      -0.283   0.190   0.394  0.00  0.00     0.023 A 
ATOM      5  C4  UNL d   1      -1.563  -0.222   0.768  0.00  0.00     0.048 A 
ATOM      6  C5  UNL d   1      -1.881  -0.347   2.122  0.00  0.00     0.003 A 
ATOM      7  I   UNL d   1       0.194   0.377  -1.620  0.00  0.00    -0.146 I 
ENDROOT
TORSDOF 0
ENDMDL
