MODEL 1
REMARK minimizedAffinity -4.73769569
REMARK minimizedRMSD -1
REMARK  0 active torsions:
REMARK  status: ('A' for Active; 'I' for Inactive)
ROOT
ATOM      1  C   UNL d   1      -0.999  -0.530   3.171  0.00  0.00     0.023 A 
ATOM      2  C1  UNL d   1      -1.933  -0.723   2.153  0.00  0.00     0.003 A 
ATOM      3  C2  UNL d   1      -1.532  -0.673   0.816  0.00  0.00     0.048 A 
ATOM      4  C3  UNL d   1      -0.194  -0.430   0.505  0.00  0.00     0.023 A 
ATOM      5  C4  UNL d   1       0.744  -0.237   1.520  0.00  0.00     0.048 A 
ATOM      6  C5  UNL d   1       0.338  -0.288   2.855  0.00  0.00     0.003 A 
ATOM      7  I   UNL d   1       0.405  -0.354  -1.484  0.00  0.00    -0.146 I 
ENDROOT
TORSDOF 0
ENDMDL
