MODEL 1
REMARK minimizedAffinity -5.25088739
REMARK minimizedRMSD -1
REMARK  0 active torsions:
REMARK  status: ('A' for Active; 'I' for Inactive)
ROOT
ATOM      1  C   UNL d   1      -0.695  -1.034   3.175  0.00  0.00     0.023 A 
ATOM      2  C1  UNL d   1       0.543  -0.490   2.836  0.00  0.00     0.003 A 
ATOM      3  C2  UNL d   1       0.724   0.118   1.592  0.00  0.00     0.048 A 
ATOM      4  C3  UNL d   1      -0.340   0.179   0.691  0.00  0.00     0.023 A 
ATOM      5  C4  UNL d   1      -1.581  -0.364   1.027  0.00  0.00     0.048 A 
ATOM      6  C5  UNL d   1      -1.756  -0.971   2.271  0.00  0.00     0.003 A 
ATOM      7  I   UNL d   1      -0.074   1.083  -1.161  0.00  0.00    -0.146 I 
ENDROOT
TORSDOF 0
ENDMDL
