MODEL 1
REMARK minimizedAffinity -4.35550976
REMARK minimizedRMSD -1
REMARK  0 active torsions:
REMARK  status: ('A' for Active; 'I' for Inactive)
ROOT
ATOM      1  C   UNL d   1       0.041  -0.145   3.263  0.00  0.00     0.023 A 
ATOM      2  C1  UNL d   1       1.136   0.435   2.621  0.00  0.00     0.003 A 
ATOM      3  C2  UNL d   1       1.191   0.471   1.226  0.00  0.00     0.048 A 
ATOM      4  C3  UNL d   1       0.148  -0.075   0.479  0.00  0.00     0.023 A 
ATOM      5  C4  UNL d   1      -0.950  -0.655   1.117  0.00  0.00     0.048 A 
ATOM      6  C5  UNL d   1      -1.000  -0.689   2.511  0.00  0.00     0.003 A 
ATOM      7  I   UNL d   1       0.227  -0.023  -1.597  0.00  0.00    -0.146 I 
ENDROOT
TORSDOF 0
ENDMDL
