MODEL 1
REMARK minimizedAffinity -3.59580588
REMARK minimizedRMSD -1
REMARK  0 active torsions:
REMARK  status: ('A' for Active; 'I' for Inactive)
ROOT
ATOM      1  C   UNL d   1      -0.409  -0.527   3.114  0.00  0.00     0.023 A 
ATOM      2  C1  UNL d   1      -1.349  -0.985   2.191  0.00  0.00     0.003 A 
ATOM      3  C2  UNL d   1      -1.259  -0.601   0.851  0.00  0.00     0.048 A 
ATOM      4  C3  UNL d   1      -0.225   0.240   0.441  0.00  0.00     0.023 A 
ATOM      5  C4  UNL d   1       0.718   0.700   1.361  0.00  0.00     0.048 A 
ATOM      6  C5  UNL d   1       0.624   0.314   2.699  0.00  0.00     0.003 A 
ATOM      7  I   UNL d   1      -0.089   0.813  -1.552  0.00  0.00    -0.146 I 
ENDROOT
TORSDOF 0
ENDMDL
