MODEL 1
REMARK minimizedAffinity -5.88669872
REMARK minimizedRMSD -1
REMARK  0 active torsions:
REMARK  status: ('A' for Active; 'I' for Inactive)
ROOT
ATOM      1  C   UNL d   1      -1.373  -0.225   3.370  0.00  0.00     0.023 A 
ATOM      2  C1  UNL d   1      -0.048  -0.178   2.939  0.00  0.00     0.003 A 
ATOM      3  C2  UNL d   1       0.242   0.045   1.591  0.00  0.00     0.048 A 
ATOM      4  C3  UNL d   1      -0.799   0.221   0.680  0.00  0.00     0.023 A 
ATOM      5  C4  UNL d   1      -2.127   0.175   1.107  0.00  0.00     0.048 A 
ATOM      6  C5  UNL d   1      -2.412  -0.049   2.455  0.00  0.00     0.003 A 
ATOM      7  I   UNL d   1      -0.370   0.552  -1.327  0.00  0.00    -0.146 I 
ENDROOT
TORSDOF 0
ENDMDL
