MODEL 1
REMARK minimizedAffinity -2.99205446
REMARK minimizedRMSD -1
REMARK  0 active torsions:
REMARK  status: ('A' for Active; 'I' for Inactive)
ROOT
ATOM      1  C   UNL d   1       1.188   0.015   1.827  0.00  0.00     0.023 A 
ATOM      2  C1  UNL d   1       0.726   0.544   0.622  0.00  0.00     0.003 A 
ATOM      3  C2  UNL d   1      -0.622   0.880   0.476  0.00  0.00     0.048 A 
ATOM      4  C3  UNL d   1      -1.502   0.685   1.540  0.00  0.00     0.023 A 
ATOM      5  C4  UNL d   1      -1.044   0.157   2.748  0.00  0.00     0.048 A 
ATOM      6  C5  UNL d   1       0.304  -0.179   2.888  0.00  0.00     0.003 A 
ATOM      7  I   UNL d   1      -3.508   1.185   1.326  0.00  0.00    -0.146 I 
ENDROOT
TORSDOF 0
ENDMDL
