MODEL 1
REMARK minimizedAffinity -3.77508831
REMARK minimizedRMSD -1
REMARK  0 active torsions:
REMARK  status: ('A' for Active; 'I' for Inactive)
ROOT
ATOM      1  C   UNL d   1       0.004   0.147   3.182  0.00  0.00     0.023 A 
ATOM      2  C1  UNL d   1       1.218   0.594   2.662  0.00  0.00     0.003 A 
ATOM      3  C2  UNL d   1       1.409   0.650   1.280  0.00  0.00     0.048 A 
ATOM      4  C3  UNL d   1       0.381   0.259   0.423  0.00  0.00     0.023 A 
ATOM      5  C4  UNL d   1      -0.837  -0.188   0.939  0.00  0.00     0.048 A 
ATOM      6  C5  UNL d   1      -1.023  -0.243   2.321  0.00  0.00     0.003 A 
ATOM      7  I   UNL d   1       0.662   0.343  -1.634  0.00  0.00    -0.146 I 
ENDROOT
TORSDOF 0
ENDMDL
