MODEL 1
REMARK minimizedAffinity -1.54686201
REMARK minimizedRMSD -1
REMARK  0 active torsions:
REMARK  status: ('A' for Active; 'I' for Inactive)
ROOT
ATOM      1  C   UNL d   1      -0.635  -0.496   3.227  0.00  0.00     0.023 A 
ATOM      2  C1  UNL d   1       0.357   0.426   2.896  0.00  0.00     0.003 A 
ATOM      3  C2  UNL d   1       0.648   0.690   1.556  0.00  0.00     0.048 A 
ATOM      4  C3  UNL d   1      -0.059   0.028   0.552  0.00  0.00     0.023 A 
ATOM      5  C4  UNL d   1      -1.053  -0.895   0.879  0.00  0.00     0.048 A 
ATOM      6  C5  UNL d   1      -1.340  -1.156   2.220  0.00  0.00     0.003 A 
ATOM      7  I   UNL d   1       0.372   0.419  -1.444  0.00  0.00    -0.146 I 
ENDROOT
TORSDOF 0
ENDMDL
