MODEL 1
REMARK minimizedAffinity -2.54333186
REMARK minimizedRMSD -1
REMARK  0 active torsions:
REMARK  status: ('A' for Active; 'I' for Inactive)
ROOT
ATOM      1  C   UNL d   1      -0.667  -0.719   3.413  0.00  0.00     0.023 A 
ATOM      2  C1  UNL d   1       0.283   0.200   2.965  0.00  0.00     0.003 A 
ATOM      3  C2  UNL d   1       0.380   0.499   1.605  0.00  0.00     0.048 A 
ATOM      4  C3  UNL d   1      -0.476  -0.124   0.697  0.00  0.00     0.023 A 
ATOM      5  C4  UNL d   1      -1.428  -1.044   1.141  0.00  0.00     0.048 A 
ATOM      6  C5  UNL d   1      -1.521  -1.340   2.502  0.00  0.00     0.003 A 
ATOM      7  I   UNL d   1      -0.334   0.319  -1.328  0.00  0.00    -0.146 I 
ENDROOT
TORSDOF 0
ENDMDL
