MODEL 1
REMARK minimizedAffinity -3.64925385
REMARK minimizedRMSD -1
REMARK  0 active torsions:
REMARK  status: ('A' for Active; 'I' for Inactive)
ROOT
ATOM      1  C   UNL d   1      -1.095  -0.535   3.251  0.00  0.00     0.023 A 
ATOM      2  C1  UNL d   1      -2.031  -0.703   2.230  0.00  0.00     0.003 A 
ATOM      3  C2  UNL d   1      -1.702  -0.361   0.916  0.00  0.00     0.048 A 
ATOM      4  C3  UNL d   1      -0.435   0.147   0.631  0.00  0.00     0.023 A 
ATOM      5  C4  UNL d   1       0.504   0.316   1.650  0.00  0.00     0.048 A 
ATOM      6  C5  UNL d   1       0.171  -0.026   2.961  0.00  0.00     0.003 A 
ATOM      7  I   UNL d   1       0.057   0.657  -1.323  0.00  0.00    -0.146 I 
ENDROOT
TORSDOF 0
ENDMDL
