MODEL 1
REMARK minimizedAffinity -4.61170578
REMARK minimizedRMSD -1
REMARK  2 active torsions:
REMARK  status: ('A' for Active; 'I' for Inactive)
REMARK    1  A    between atoms: C1_2  and  C2_3 
REMARK    2  A    between atoms: C2_3  and  C3_4 
ROOT
ATOM      1  C3  UNL d   1       0.149   0.313  -0.340  0.00  0.00    -0.075 A 
ATOM      2  C4  UNL d   1      -0.694   0.750  -1.372  0.00  0.00     0.002 A 
ATOM      3  C5  UNL d   1      -1.902   0.098  -1.624  0.00  0.00     0.002 A 
ATOM      4  C6  UNL d   1      -2.277  -1.001  -0.855  0.00  0.00    -0.004 A 
ATOM      5  C7  UNL d   1      -1.440  -1.453   0.163  0.00  0.00     0.002 A 
ATOM      6  C8  UNL d   1      -0.232  -0.801   0.419  0.00  0.00     0.002 A 
ENDROOT
BRANCH   1   7
ATOM      7  C2  UNL d   1       1.444   1.032  -0.044  0.00  0.00     0.056 C 
BRANCH   7   8
ATOM      8  C1  UNL d   1       1.381   1.951   1.181  0.00  0.00     0.007 C 
ATOM      9  C   UNL d   1       2.401   3.081   1.136  0.00  0.00     0.009 C 
ENDBRANCH   7   8
ENDBRANCH   1   7
TORSDOF 2
ENDMDL
