MODEL 1
REMARK minimizedAffinity -2.93717289
REMARK minimizedRMSD -1
REMARK  2 active torsions:
REMARK  status: ('A' for Active; 'I' for Inactive)
REMARK    1  A    between atoms: C1_2  and  C2_3 
REMARK    2  A    between atoms: C2_3  and  C3_4 
ROOT
ATOM      1  C3  UNL d   1       0.328   0.034  -0.046  0.00  0.00    -0.075 A 
ATOM      2  C4  UNL d   1       0.012   0.438  -1.351  0.00  0.00     0.002 A 
ATOM      3  C5  UNL d   1      -1.194   0.054  -1.939  0.00  0.00     0.002 A 
ATOM      4  C6  UNL d   1      -2.092  -0.744  -1.235  0.00  0.00    -0.004 A 
ATOM      5  C7  UNL d   1      -1.782  -1.164   0.057  0.00  0.00     0.002 A 
ATOM      6  C8  UNL d   1      -0.578  -0.779   0.649  0.00  0.00     0.002 A 
ENDROOT
BRANCH   1   7
ATOM      7  C2  UNL d   1       1.618   0.470   0.607  0.00  0.00     0.056 C 
BRANCH   7   8
ATOM      8  C1  UNL d   1       2.179   1.788   0.062  0.00  0.00     0.007 C 
ATOM      9  C   UNL d   1       2.783   2.676   1.141  0.00  0.00     0.009 C 
ENDBRANCH   7   8
ENDBRANCH   1   7
TORSDOF 2
ENDMDL
