MODEL 1
REMARK minimizedAffinity -3.61917806
REMARK minimizedRMSD -1
REMARK  2 active torsions:
REMARK  status: ('A' for Active; 'I' for Inactive)
REMARK    1  A    between atoms: C1_2  and  C2_3 
REMARK    2  A    between atoms: C2_3  and  C3_4 
ROOT
ATOM      1  C3  UNL d   1       1.797   0.335   0.409  0.00  0.00    -0.075 A 
ATOM      2  C4  UNL d   1       0.516   0.557  -0.118  0.00  0.00     0.002 A 
ATOM      3  C5  UNL d   1      -0.533  -0.313   0.181  0.00  0.00     0.002 A 
ATOM      4  C6  UNL d   1      -0.314  -1.418   1.000  0.00  0.00    -0.004 A 
ATOM      5  C7  UNL d   1       0.958  -1.658   1.515  0.00  0.00     0.002 A 
ATOM      6  C8  UNL d   1       2.009  -0.787   1.221  0.00  0.00     0.002 A 
ENDROOT
BRANCH   1   7
ATOM      7  C2  UNL d   1       2.930   1.289   0.113  0.00  0.00     0.056 C 
BRANCH   7   8
ATOM      8  C1  UNL d   1       2.754   2.678   0.736  0.00  0.00     0.007 C 
ATOM      9  C   UNL d   1       2.584   2.640   2.248  0.00  0.00     0.009 C 
ENDBRANCH   7   8
ENDBRANCH   1   7
TORSDOF 2
ENDMDL
