MODEL 1
REMARK minimizedAffinity -2.99448633
REMARK minimizedRMSD -1
REMARK  2 active torsions:
REMARK  status: ('A' for Active; 'I' for Inactive)
REMARK    1  A    between atoms: C1_2  and  C2_3 
REMARK    2  A    between atoms: C2_3  and  C3_4 
ROOT
ATOM      1  C3  UNL d   1       1.538   0.794   0.741  0.00  0.00    -0.075 A 
ATOM      2  C4  UNL d   1       1.418   1.737   1.772  0.00  0.00     0.002 A 
ATOM      3  C5  UNL d   1       2.342   2.775   1.894  0.00  0.00     0.002 A 
ATOM      4  C6  UNL d   1       3.401   2.878   0.994  0.00  0.00    -0.004 A 
ATOM      5  C7  UNL d   1       3.539   1.937  -0.024  0.00  0.00     0.002 A 
ATOM      6  C8  UNL d   1       2.614   0.900  -0.151  0.00  0.00     0.002 A 
ENDROOT
BRANCH   1   7
ATOM      7  C2  UNL d   1       0.524  -0.314   0.587  0.00  0.00     0.056 C 
BRANCH   7   8
ATOM      8  C1  UNL d   1      -0.753   0.106  -0.148  0.00  0.00     0.007 C 
ATOM      9  C   UNL d   1      -1.783  -1.011  -0.250  0.00  0.00     0.009 C 
ENDBRANCH   7   8
ENDBRANCH   1   7
TORSDOF 2
ENDMDL
