MODEL 1
REMARK minimizedAffinity -2.78009558
REMARK minimizedRMSD -1
REMARK  2 active torsions:
REMARK  status: ('A' for Active; 'I' for Inactive)
REMARK    1  A    between atoms: C1_2  and  C2_3 
REMARK    2  A    between atoms: C2_3  and  C3_4 
ROOT
ATOM      1  C3  UNL d   1       0.548   0.480  -0.258  0.00  0.00    -0.075 A 
ATOM      2  C4  UNL d   1       0.267  -0.679   0.481  0.00  0.00     0.002 A 
ATOM      3  C5  UNL d   1      -0.870  -1.438   0.203  0.00  0.00     0.002 A 
ATOM      4  C6  UNL d   1      -1.744  -1.044  -0.808  0.00  0.00    -0.004 A 
ATOM      5  C7  UNL d   1      -1.484   0.114  -1.537  0.00  0.00     0.002 A 
ATOM      6  C8  UNL d   1      -0.345   0.873  -1.264  0.00  0.00     0.002 A 
ENDROOT
BRANCH   1   7
ATOM      7  C2  UNL d   1       1.792   1.290   0.019  0.00  0.00     0.056 C 
BRANCH   7   8
ATOM      8  C1  UNL d   1       1.852   1.877   1.433  0.00  0.00     0.007 C 
ATOM      9  C   UNL d   1       2.882   2.990   1.577  0.00  0.00     0.009 C 
ENDBRANCH   7   8
ENDBRANCH   1   7
TORSDOF 2
ENDMDL
