MODEL 1
REMARK minimizedAffinity -3.83761406
REMARK minimizedRMSD -1
REMARK  2 active torsions:
REMARK  status: ('A' for Active; 'I' for Inactive)
REMARK    1  A    between atoms: C1_2  and  C2_3 
REMARK    2  A    between atoms: C2_3  and  C3_4 
ROOT
ATOM      1  C3  UNL d   1       1.678   0.862   0.052  0.00  0.00    -0.075 A 
ATOM      2  C4  UNL d   1       1.354   1.541   1.236  0.00  0.00     0.002 A 
ATOM      3  C5  UNL d   1       2.013   2.722   1.577  0.00  0.00     0.002 A 
ATOM      4  C6  UNL d   1       3.009   3.233   0.747  0.00  0.00    -0.004 A 
ATOM      5  C7  UNL d   1       3.349   2.558  -0.423  0.00  0.00     0.002 A 
ATOM      6  C8  UNL d   1       2.689   1.378  -0.770  0.00  0.00     0.002 A 
ENDROOT
BRANCH   1   7
ATOM      7  C2  UNL d   1       0.948  -0.401  -0.338  0.00  0.00     0.056 C 
BRANCH   7   8
ATOM      8  C1  UNL d   1      -0.265  -0.166  -1.245  0.00  0.00     0.007 C 
ATOM      9  C   UNL d   1      -1.520  -0.885  -0.767  0.00  0.00     0.009 C 
ENDBRANCH   7   8
ENDBRANCH   1   7
TORSDOF 2
ENDMDL
