MODEL 1
REMARK minimizedAffinity -4.90132809
REMARK minimizedRMSD -1
REMARK  2 active torsions:
REMARK  status: ('A' for Active; 'I' for Inactive)
REMARK    1  A    between atoms: C1_2  and  C2_3 
REMARK    2  A    between atoms: C2_3  and  C3_4 
ROOT
ATOM      1  C3  UNL d   1       1.018   1.210   0.574  0.00  0.00    -0.075 A 
ATOM      2  C4  UNL d   1       0.828   2.094   1.646  0.00  0.00     0.002 A 
ATOM      3  C5  UNL d   1       1.772   3.083   1.925  0.00  0.00     0.002 A 
ATOM      4  C6  UNL d   1       2.920   3.194   1.143  0.00  0.00    -0.004 A 
ATOM      5  C7  UNL d   1       3.127   2.311   0.086  0.00  0.00     0.002 A 
ATOM      6  C8  UNL d   1       2.182   1.323  -0.198  0.00  0.00     0.002 A 
ENDROOT
BRANCH   1   7
ATOM      7  C2  UNL d   1      -0.014   0.157   0.249  0.00  0.00     0.056 C 
BRANCH   7   8
ATOM      8  C1  UNL d   1      -0.665   0.325  -1.128  0.00  0.00     0.007 C 
ATOM      9  C   UNL d   1      -2.141  -0.050  -1.144  0.00  0.00     0.009 C 
ENDBRANCH   7   8
ENDBRANCH   1   7
TORSDOF 2
ENDMDL
