MODEL 1
REMARK minimizedAffinity -2.93579865
REMARK minimizedRMSD -1
REMARK  2 active torsions:
REMARK  status: ('A' for Active; 'I' for Inactive)
REMARK    1  A    between atoms: C1_2  and  C2_3 
REMARK    2  A    between atoms: C2_3  and  C3_4 
ROOT
ATOM      1  C3  UNL d   1      -0.170   0.120  -0.257  0.00  0.00    -0.075 A 
ATOM      2  C4  UNL d   1      -0.309  -1.125   0.374  0.00  0.00     0.002 A 
ATOM      3  C5  UNL d   1      -1.395  -1.950   0.081  0.00  0.00     0.002 A 
ATOM      4  C6  UNL d   1      -2.359  -1.538  -0.836  0.00  0.00    -0.004 A 
ATOM      5  C7  UNL d   1      -2.240  -0.297  -1.457  0.00  0.00     0.002 A 
ATOM      6  C8  UNL d   1      -1.153   0.529  -1.169  0.00  0.00     0.002 A 
ENDROOT
BRANCH   1   7
ATOM      7  C2  UNL d   1       1.018   1.005   0.033  0.00  0.00     0.056 C 
BRANCH   7   8
ATOM      8  C1  UNL d   1       0.711   2.170   0.981  0.00  0.00     0.007 C 
ATOM      9  C   UNL d   1       1.428   3.459   0.599  0.00  0.00     0.009 C 
ENDBRANCH   7   8
ENDBRANCH   1   7
TORSDOF 2
ENDMDL
