MODEL 1
REMARK minimizedAffinity -2.28008437
REMARK minimizedRMSD -1
REMARK  2 active torsions:
REMARK  status: ('A' for Active; 'I' for Inactive)
REMARK    1  A    between atoms: C1_2  and  C2_3 
REMARK    2  A    between atoms: C2_3  and  C3_4 
ROOT
ATOM      1  C3  UNL d   1       1.321   1.228   0.612  0.00  0.00    -0.075 A 
ATOM      2  C4  UNL d   1       2.567   1.404  -0.008  0.00  0.00     0.002 A 
ATOM      3  C5  UNL d   1       3.435   2.409   0.419  0.00  0.00     0.002 A 
ATOM      4  C6  UNL d   1       3.066   3.257   1.460  0.00  0.00    -0.004 A 
ATOM      5  C7  UNL d   1       1.824   3.103   2.072  0.00  0.00     0.002 A 
ATOM      6  C8  UNL d   1       0.955   2.095   1.650  0.00  0.00     0.002 A 
ENDROOT
BRANCH   1   7
ATOM      7  C2  UNL d   1       0.389   0.124   0.174  0.00  0.00     0.056 C 
BRANCH   7   8
ATOM      8  C1  UNL d   1      -0.519   0.502  -1.000  0.00  0.00     0.007 C 
ATOM      9  C   UNL d   1      -1.688  -0.455  -1.187  0.00  0.00     0.009 C 
ENDBRANCH   7   8
ENDBRANCH   1   7
TORSDOF 2
ENDMDL
