MODEL 1
REMARK minimizedAffinity -6.36369085
REMARK minimizedRMSD -1
REMARK  2 active torsions:
REMARK  status: ('A' for Active; 'I' for Inactive)
REMARK    1  A    between atoms: C1_2  and  C2_3 
REMARK    2  A    between atoms: C2_3  and  C3_4 
ROOT
ATOM      1  C3  UNL d   1       0.092  -0.485   0.168  0.00  0.00    -0.075 A 
ATOM      2  C4  UNL d   1      -0.498  -0.051  -1.028  0.00  0.00     0.002 A 
ATOM      3  C5  UNL d   1      -1.873  -0.178  -1.226  0.00  0.00     0.002 A 
ATOM      4  C6  UNL d   1      -2.673  -0.748  -0.238  0.00  0.00    -0.004 A 
ATOM      5  C7  UNL d   1      -2.095  -1.197   0.947  0.00  0.00     0.002 A 
ATOM      6  C8  UNL d   1      -0.720  -1.067   1.150  0.00  0.00     0.002 A 
ENDROOT
BRANCH   1   7
ATOM      7  C2  UNL d   1       1.575  -0.323   0.400  0.00  0.00     0.056 C 
BRANCH   7   8
ATOM      8  C1  UNL d   1       2.115   1.066   0.044  0.00  0.00     0.007 C 
ATOM      9  C   UNL d   1       2.392   1.933   1.265  0.00  0.00     0.009 C 
ENDBRANCH   7   8
ENDBRANCH   1   7
TORSDOF 2
ENDMDL
