MODEL 1
REMARK minimizedAffinity -5.94805622
REMARK minimizedRMSD -1
REMARK  2 active torsions:
REMARK  status: ('A' for Active; 'I' for Inactive)
REMARK    1  A    between atoms: C1_2  and  C2_3 
REMARK    2  A    between atoms: C2_3  and  C3_4 
ROOT
ATOM      1  C3  UNL d   1       0.062   0.214  -0.205  0.00  0.00    -0.075 A 
ATOM      2  C4  UNL d   1      -0.824  -0.226   0.790  0.00  0.00     0.002 A 
ATOM      3  C5  UNL d   1      -2.093  -0.696   0.451  0.00  0.00     0.002 A 
ATOM      4  C6  UNL d   1      -2.496  -0.722  -0.882  0.00  0.00    -0.004 A 
ATOM      5  C7  UNL d   1      -1.631  -0.272  -1.877  0.00  0.00     0.002 A 
ATOM      6  C8  UNL d   1      -0.359   0.194  -1.541  0.00  0.00     0.002 A 
ENDROOT
BRANCH   1   7
ATOM      7  C2  UNL d   1       1.447   0.696   0.153  0.00  0.00     0.056 C 
BRANCH   7   8
ATOM      8  C1  UNL d   1       1.492   1.612   1.380  0.00  0.00     0.007 C 
ATOM      9  C   UNL d   1       1.976   3.020   1.060  0.00  0.00     0.009 C 
ENDBRANCH   7   8
ENDBRANCH   1   7
TORSDOF 2
ENDMDL
