MODEL 1
REMARK minimizedAffinity -5.59547186
REMARK minimizedRMSD -1
REMARK  2 active torsions:
REMARK  status: ('A' for Active; 'I' for Inactive)
REMARK    1  A    between atoms: C1_2  and  C2_3 
REMARK    2  A    between atoms: C2_3  and  C3_4 
ROOT
ATOM      1  C3  UNL d   1       0.103  -0.142  -0.242  0.00  0.00    -0.075 A 
ATOM      2  C4  UNL d   1      -0.219   0.725  -1.296  0.00  0.00     0.002 A 
ATOM      3  C5  UNL d   1      -1.528   0.804  -1.773  0.00  0.00     0.002 A 
ATOM      4  C6  UNL d   1      -2.527   0.012  -1.211  0.00  0.00    -0.004 A 
ATOM      5  C7  UNL d   1      -2.214  -0.865  -0.175  0.00  0.00     0.002 A 
ATOM      6  C8  UNL d   1      -0.907  -0.943   0.308  0.00  0.00     0.002 A 
ENDROOT
BRANCH   1   7
ATOM      7  C2  UNL d   1       1.511  -0.211   0.298  0.00  0.00     0.056 C 
BRANCH   7   8
ATOM      8  C1  UNL d   1       2.247   1.134   0.295  0.00  0.00     0.007 C 
ATOM      9  C   UNL d   1       1.910   2.006   1.497  0.00  0.00     0.009 C 
ENDBRANCH   7   8
ENDBRANCH   1   7
TORSDOF 2
ENDMDL
