MODEL 1
REMARK minimizedAffinity -1.89217639
REMARK minimizedRMSD -1
REMARK  2 active torsions:
REMARK  status: ('A' for Active; 'I' for Inactive)
REMARK    1  A    between atoms: C1_2  and  C2_3 
REMARK    2  A    between atoms: C2_3  and  C3_4 
ROOT
ATOM      1  C3  UNL d   1       1.019  -0.018   0.240  0.00  0.00    -0.075 A 
ATOM      2  C4  UNL d   1       0.174  -0.769   1.070  0.00  0.00     0.002 A 
ATOM      3  C5  UNL d   1      -1.094  -1.151   0.630  0.00  0.00     0.002 A 
ATOM      4  C6  UNL d   1      -1.536  -0.780  -0.638  0.00  0.00    -0.004 A 
ATOM      5  C7  UNL d   1      -0.710  -0.020  -1.464  0.00  0.00     0.002 A 
ATOM      6  C8  UNL d   1       0.560   0.360  -1.029  0.00  0.00     0.002 A 
ENDROOT
BRANCH   1   7
ATOM      7  C2  UNL d   1       2.404   0.373   0.699  0.00  0.00     0.056 C 
BRANCH   7   8
ATOM      8  C1  UNL d   1       2.789   1.816   0.357  0.00  0.00     0.007 C 
ATOM      9  C   UNL d   1       2.970   2.697   1.587  0.00  0.00     0.009 C 
ENDBRANCH   7   8
ENDBRANCH   1   7
TORSDOF 2
ENDMDL
