MODEL 1
REMARK minimizedAffinity -4.03224134
REMARK minimizedRMSD -1
REMARK  2 active torsions:
REMARK  status: ('A' for Active; 'I' for Inactive)
REMARK    1  A    between atoms: C1_2  and  C2_3 
REMARK    2  A    between atoms: C2_3  and  C3_4 
ROOT
ATOM      1  C3  UNL d   1       0.021   0.053   0.065  0.00  0.00    -0.075 A 
ATOM      2  C4  UNL d   1      -0.953  -0.232   1.033  0.00  0.00     0.002 A 
ATOM      3  C5  UNL d   1      -2.240  -0.610   0.652  0.00  0.00     0.002 A 
ATOM      4  C6  UNL d   1      -2.573  -0.697  -0.698  0.00  0.00    -0.004 A 
ATOM      5  C7  UNL d   1      -1.618  -0.400  -1.668  0.00  0.00     0.002 A 
ATOM      6  C8  UNL d   1      -0.328  -0.026  -1.290  0.00  0.00     0.002 A 
ENDROOT
BRANCH   1   7
ATOM      7  C2  UNL d   1       1.425   0.435   0.470  0.00  0.00     0.056 C 
BRANCH   7   8
ATOM      8  C1  UNL d   1       1.663   1.946   0.550  0.00  0.00     0.007 C 
ATOM      9  C   UNL d   1       2.073   2.417   1.939  0.00  0.00     0.009 C 
ENDBRANCH   7   8
ENDBRANCH   1   7
TORSDOF 2
ENDMDL
