MODEL 1
REMARK minimizedAffinity -5.46382093
REMARK minimizedRMSD -1
REMARK  2 active torsions:
REMARK  status: ('A' for Active; 'I' for Inactive)
REMARK    1  A    between atoms: C1_2  and  C2_3 
REMARK    2  A    between atoms: C2_3  and  C3_4 
ROOT
ATOM      1  C3  UNL d   1       0.171   0.425  -0.349  0.00  0.00    -0.075 A 
ATOM      2  C4  UNL d   1      -0.292   0.845  -1.605  0.00  0.00     0.002 A 
ATOM      3  C5  UNL d   1      -1.591   0.547  -2.017  0.00  0.00     0.002 A 
ATOM      4  C6  UNL d   1      -2.439  -0.181  -1.186  0.00  0.00    -0.004 A 
ATOM      5  C7  UNL d   1      -1.985  -0.617   0.057  0.00  0.00     0.002 A 
ATOM      6  C8  UNL d   1      -0.687  -0.317   0.474  0.00  0.00     0.002 A 
ENDROOT
BRANCH   1   7
ATOM      7  C2  UNL d   1       1.566   0.769   0.115  0.00  0.00     0.056 C 
BRANCH   7   8
ATOM      8  C1  UNL d   1       1.607   1.731   1.308  0.00  0.00     0.007 C 
ATOM      9  C   UNL d   1       2.685   2.798   1.181  0.00  0.00     0.009 C 
ENDBRANCH   7   8
ENDBRANCH   1   7
TORSDOF 2
ENDMDL
