MODEL 1
REMARK minimizedAffinity -4.32170534
REMARK minimizedRMSD -1
REMARK  2 active torsions:
REMARK  status: ('A' for Active; 'I' for Inactive)
REMARK    1  A    between atoms: C1_2  and  C2_3 
REMARK    2  A    between atoms: C2_3  and  C3_4 
ROOT
ATOM      1  C3  UNL d   1      -0.126   0.108  -0.149  0.00  0.00    -0.075 A 
ATOM      2  C4  UNL d   1      -1.117  -0.707   0.417  0.00  0.00     0.002 A 
ATOM      3  C5  UNL d   1      -2.391  -0.769  -0.148  0.00  0.00     0.002 A 
ATOM      4  C6  UNL d   1      -2.693  -0.012  -1.278  0.00  0.00    -0.004 A 
ATOM      5  C7  UNL d   1      -1.721   0.813  -1.839  0.00  0.00     0.002 A 
ATOM      6  C8  UNL d   1      -0.444   0.874  -1.279  0.00  0.00     0.002 A 
ENDROOT
BRANCH   1   7
ATOM      7  C2  UNL d   1       1.264   0.157   0.440  0.00  0.00     0.056 C 
BRANCH   7   8
ATOM      8  C1  UNL d   1       1.895   1.553   0.433  0.00  0.00     0.007 C 
ATOM      9  C   UNL d   1       1.914   2.211   1.806  0.00  0.00     0.009 C 
ENDBRANCH   7   8
ENDBRANCH   1   7
TORSDOF 2
ENDMDL
