MODEL 1
REMARK minimizedAffinity -2.57614708
REMARK minimizedRMSD -1
REMARK  2 active torsions:
REMARK  status: ('A' for Active; 'I' for Inactive)
REMARK    1  A    between atoms: C1_2  and  C2_3 
REMARK    2  A    between atoms: C2_3  and  C3_4 
ROOT
ATOM      1  C3  UNL d   1      -0.043  -0.118   0.254  0.00  0.00    -0.075 A 
ATOM      2  C4  UNL d   1      -0.973  -0.637   1.166  0.00  0.00     0.002 A 
ATOM      3  C5  UNL d   1      -2.295  -0.863   0.780  0.00  0.00     0.002 A 
ATOM      4  C6  UNL d   1      -2.705  -0.563  -0.517  0.00  0.00    -0.004 A 
ATOM      5  C7  UNL d   1      -1.794  -0.031  -1.427  0.00  0.00     0.002 A 
ATOM      6  C8  UNL d   1      -0.470   0.191  -1.045  0.00  0.00     0.002 A 
ENDROOT
BRANCH   1   7
ATOM      7  C2  UNL d   1       1.395   0.101   0.657  0.00  0.00     0.056 C 
BRANCH   7   8
ATOM      8  C1  UNL d   1       1.954   1.471   0.257  0.00  0.00     0.007 C 
ATOM      9  C   UNL d   1       2.353   2.328   1.450  0.00  0.00     0.009 C 
ENDBRANCH   7   8
ENDBRANCH   1   7
TORSDOF 2
ENDMDL
