MODEL 1
REMARK minimizedAffinity -5.94797087
REMARK minimizedRMSD -1
REMARK  2 active torsions:
REMARK  status: ('A' for Active; 'I' for Inactive)
REMARK    1  A    between atoms: C1_2  and  C2_3 
REMARK    2  A    between atoms: C2_3  and  C3_4 
ROOT
ATOM      1  C3  UNL d   1       0.264  -0.070   0.274  0.00  0.00    -0.075 A 
ATOM      2  C4  UNL d   1      -0.674  -0.680   1.121  0.00  0.00     0.002 A 
ATOM      3  C5  UNL d   1      -1.980  -0.904   0.686  0.00  0.00     0.002 A 
ATOM      4  C6  UNL d   1      -2.369  -0.514  -0.594  0.00  0.00    -0.004 A 
ATOM      5  C7  UNL d   1      -1.451   0.107  -1.437  0.00  0.00     0.002 A 
ATOM      6  C8  UNL d   1      -0.141   0.330  -1.007  0.00  0.00     0.002 A 
ENDROOT
BRANCH   1   7
ATOM      7  C2  UNL d   1       1.687   0.149   0.728  0.00  0.00     0.056 C 
BRANCH   7   8
ATOM      8  C1  UNL d   1       2.184   1.588   0.548  0.00  0.00     0.007 C 
ATOM      9  C   UNL d   1       2.290   2.355   1.859  0.00  0.00     0.009 C 
ENDBRANCH   7   8
ENDBRANCH   1   7
TORSDOF 2
ENDMDL
