MODEL 1
REMARK minimizedAffinity -2.53336167
REMARK minimizedRMSD -1
REMARK  2 active torsions:
REMARK  status: ('A' for Active; 'I' for Inactive)
REMARK    1  A    between atoms: C1_2  and  C2_3 
REMARK    2  A    between atoms: C2_3  and  C3_4 
ROOT
ATOM      1  C3  UNL d   1       0.533  -0.154   0.511  0.00  0.00    -0.075 A 
ATOM      2  C4  UNL d   1      -0.773  -0.237   0.007  0.00  0.00     0.002 A 
ATOM      3  C5  UNL d   1      -1.624  -1.266   0.410  0.00  0.00     0.002 A 
ATOM      4  C6  UNL d   1      -1.178  -2.229   1.313  0.00  0.00    -0.004 A 
ATOM      5  C7  UNL d   1       0.122  -2.166   1.807  0.00  0.00     0.002 A 
ATOM      6  C8  UNL d   1       0.975  -1.135   1.409  0.00  0.00     0.002 A 
ENDROOT
BRANCH   1   7
ATOM      7  C2  UNL d   1       1.449   0.974   0.101  0.00  0.00     0.056 C 
BRANCH   7   8
ATOM      8  C1  UNL d   1       1.750   1.972   1.224  0.00  0.00     0.007 C 
ATOM      9  C   UNL d   1       2.837   2.975   0.860  0.00  0.00     0.009 C 
ENDBRANCH   7   8
ENDBRANCH   1   7
TORSDOF 2
ENDMDL
