MODEL 1
REMARK minimizedAffinity -6.11915112
REMARK minimizedRMSD -1
REMARK  2 active torsions:
REMARK  status: ('A' for Active; 'I' for Inactive)
REMARK    1  A    between atoms: C1_2  and  C2_3 
REMARK    2  A    between atoms: C2_3  and  C3_4 
ROOT
ATOM      1  C3  UNL d   1       0.001  -0.044  -0.016  0.00  0.00    -0.075 A 
ATOM      2  C4  UNL d   1      -0.819  -0.636   0.955  0.00  0.00     0.002 A 
ATOM      3  C5  UNL d   1      -2.155  -0.926   0.673  0.00  0.00     0.002 A 
ATOM      4  C6  UNL d   1      -2.689  -0.618  -0.576  0.00  0.00    -0.004 A 
ATOM      5  C7  UNL d   1      -1.888  -0.014  -1.542  0.00  0.00     0.002 A 
ATOM      6  C8  UNL d   1      -0.550   0.273  -1.265  0.00  0.00     0.002 A 
ENDROOT
BRANCH   1   7
ATOM      7  C2  UNL d   1       1.455   0.245   0.272  0.00  0.00     0.056 C 
BRANCH   7   8
ATOM      8  C1  UNL d   1       1.710   1.641   0.851  0.00  0.00     0.007 C 
ATOM      9  C   UNL d   1       2.968   2.299   0.299  0.00  0.00     0.009 C 
ENDBRANCH   7   8
ENDBRANCH   1   7
TORSDOF 2
ENDMDL
