MODEL 1
REMARK minimizedAffinity -2.9671762
REMARK minimizedRMSD -1
REMARK  2 active torsions:
REMARK  status: ('A' for Active; 'I' for Inactive)
REMARK    1  A    between atoms: C1_2  and  C2_3 
REMARK    2  A    between atoms: C2_3  and  C3_4 
ROOT
ATOM      1  C3  UNL d   1       0.899   0.379   0.368  0.00  0.00    -0.075 A 
ATOM      2  C4  UNL d   1       0.368   0.744  -0.878  0.00  0.00     0.002 A 
ATOM      3  C5  UNL d   1      -0.915   0.339  -1.246  0.00  0.00     0.002 A 
ATOM      4  C6  UNL d   1      -1.678  -0.442  -0.381  0.00  0.00    -0.004 A 
ATOM      5  C7  UNL d   1      -1.154  -0.824   0.852  0.00  0.00     0.002 A 
ATOM      6  C8  UNL d   1       0.128  -0.417   1.225  0.00  0.00     0.002 A 
ENDROOT
BRANCH   1   7
ATOM      7  C2  UNL d   1       2.276   0.838   0.785  0.00  0.00     0.056 C 
BRANCH   7   8
ATOM      8  C1  UNL d   1       2.271   1.911   1.879  0.00  0.00     0.007 C 
ATOM      9  C   UNL d   1       2.574   3.307   1.352  0.00  0.00     0.009 C 
ENDBRANCH   7   8
ENDBRANCH   1   7
TORSDOF 2
ENDMDL
