MODEL 1
REMARK minimizedAffinity -4.41510391
REMARK minimizedRMSD -1
REMARK  2 active torsions:
REMARK  status: ('A' for Active; 'I' for Inactive)
REMARK    1  A    between atoms: C1_2  and  C2_3 
REMARK    2  A    between atoms: C2_3  and  C3_4 
ROOT
ATOM      1  C3  UNL d   1      -0.314   0.379   0.030  0.00  0.00    -0.075 A 
ATOM      2  C4  UNL d   1      -0.591   0.069  -1.309  0.00  0.00     0.002 A 
ATOM      3  C5  UNL d   1      -1.759  -0.615  -1.651  0.00  0.00     0.002 A 
ATOM      4  C6  UNL d   1      -2.657  -1.005  -0.660  0.00  0.00    -0.004 A 
ATOM      5  C7  UNL d   1      -2.383  -0.717   0.675  0.00  0.00     0.002 A 
ATOM      6  C8  UNL d   1      -1.218  -0.029   1.020  0.00  0.00     0.002 A 
ENDROOT
BRANCH   1   7
ATOM      7  C2  UNL d   1       0.933   1.144   0.404  0.00  0.00     0.056 C 
BRANCH   7   8
ATOM      8  C1  UNL d   1       0.709   2.216   1.475  0.00  0.00     0.007 C 
ATOM      9  C   UNL d   1       1.852   3.219   1.569  0.00  0.00     0.009 C 
ENDBRANCH   7   8
ENDBRANCH   1   7
TORSDOF 2
ENDMDL
