MODEL 1
REMARK minimizedAffinity -4.7016983
REMARK minimizedRMSD -1
REMARK  3 active torsions:
REMARK  status: ('A' for Active; 'I' for Inactive)
REMARK    1  A    between atoms: C3'_2  and  C2'_3 
REMARK    2  A    between atoms: C2'_3  and  C1'_4 
REMARK    3  A    between atoms: C1'_4  and  C1_5 
ROOT
ATOM      1  C1  N4B d   1       0.044   0.011  -0.354  0.00  0.00    -0.075 A 
ATOM      2  C2  N4B d   1      -0.421   1.340  -0.457  0.00  0.00     0.002 A 
ATOM      3  C3  N4B d   1      -1.319   1.827   0.461  0.00  0.00     0.002 A 
ATOM      4  C4  N4B d   1      -1.779   1.000   1.475  0.00  0.00    -0.004 A 
ATOM      5  C5  N4B d   1      -1.305  -0.275   1.583  0.00  0.00     0.002 A 
ATOM      6  C6  N4B d   1      -0.400  -0.776   0.670  0.00  0.00     0.002 A 
ENDROOT
BRANCH   1   7
ATOM      7  C1' N4B d   1       0.960  -0.593  -1.383  0.00  0.00     0.057 C 
BRANCH   7   8
ATOM      8  C2' N4B d   1       0.227  -1.718  -2.108  0.00  0.00     0.009 C 
BRANCH   8   9
ATOM      9  C3' N4B d   1       0.972  -3.038  -2.008  0.00  0.00     0.004 C 
ATOM     10  C4' N4B d   1       0.054  -4.212  -1.846  0.00  0.00     0.003 C 
ENDBRANCH   8   9
ENDBRANCH   7   8
ENDBRANCH   1   7
TORSDOF 3
ENDMDL
