MODEL 1
REMARK minimizedAffinity -2.73237371
REMARK minimizedRMSD -1
REMARK  3 active torsions:
REMARK  status: ('A' for Active; 'I' for Inactive)
REMARK    1  A    between atoms: C3'_2  and  C2'_3 
REMARK    2  A    between atoms: C2'_3  and  C1'_4 
REMARK    3  A    between atoms: C1'_4  and  C1_5 
ROOT
ATOM      1  C1  N4B d   1       0.167  -0.560  -0.327  0.00  0.00    -0.075 A 
ATOM      2  C2  N4B d   1      -0.304   0.626  -0.931  0.00  0.00     0.002 A 
ATOM      3  C3  N4B d   1      -1.042   1.523  -0.199  0.00  0.00     0.002 A 
ATOM      4  C4  N4B d   1      -1.337   1.248   1.128  0.00  0.00    -0.004 A 
ATOM      5  C5  N4B d   1      -0.857   0.112   1.711  0.00  0.00     0.002 A 
ATOM      6  C6  N4B d   1      -0.110  -0.797   0.989  0.00  0.00     0.002 A 
ENDROOT
BRANCH   1   7
ATOM      7  C1' N4B d   1       0.905  -1.611  -1.110  0.00  0.00     0.057 C 
BRANCH   7   8
ATOM      8  C2' N4B d   1       0.351  -1.658  -2.531  0.00  0.00     0.009 C 
BRANCH   8   9
ATOM      9  C3' N4B d   1      -0.237  -3.018  -2.867  0.00  0.00     0.004 C 
ATOM     10  C4' N4B d   1       0.790  -4.110  -2.868  0.00  0.00     0.003 C 
ENDBRANCH   8   9
ENDBRANCH   7   8
ENDBRANCH   1   7
TORSDOF 3
ENDMDL
