MODEL 1
REMARK minimizedAffinity -6.65225124
REMARK minimizedRMSD -1
REMARK  3 active torsions:
REMARK  status: ('A' for Active; 'I' for Inactive)
REMARK    1  A    between atoms: C3'_2  and  C2'_3 
REMARK    2  A    between atoms: C2'_3  and  C1'_4 
REMARK    3  A    between atoms: C1'_4  and  C1_5 
ROOT
ATOM      1  C1  N4B d   1      -0.070   0.166   0.096  0.00  0.00    -0.075 A 
ATOM      2  C2  N4B d   1      -0.246  -0.043   1.482  0.00  0.00     0.002 A 
ATOM      3  C3  N4B d   1      -1.256   0.604   2.151  0.00  0.00     0.002 A 
ATOM      4  C4  N4B d   1      -2.087   1.474   1.462  0.00  0.00    -0.004 A 
ATOM      5  C5  N4B d   1      -1.927   1.651   0.119  0.00  0.00     0.002 A 
ATOM      6  C6  N4B d   1      -0.919   1.004  -0.567  0.00  0.00     0.002 A 
ENDROOT
BRANCH   1   7
ATOM      7  C1' N4B d   1       1.073  -0.452  -0.661  0.00  0.00     0.057 C 
BRANCH   7   8
ATOM      8  C2' N4B d   1       0.914  -1.970  -0.658  0.00  0.00     0.009 C 
BRANCH   8   9
ATOM      9  C3' N4B d   1       0.355  -2.486  -1.973  0.00  0.00     0.004 C 
ATOM     10  C4' N4B d   1      -0.999  -3.113  -1.822  0.00  0.00     0.003 C 
ENDBRANCH   8   9
ENDBRANCH   7   8
ENDBRANCH   1   7
TORSDOF 3
ENDMDL
