MODEL 1
REMARK minimizedAffinity -5.22757292
REMARK minimizedRMSD -1
REMARK  3 active torsions:
REMARK  status: ('A' for Active; 'I' for Inactive)
REMARK    1  A    between atoms: C3'_2  and  C2'_3 
REMARK    2  A    between atoms: C2'_3  and  C1'_4 
REMARK    3  A    between atoms: C1'_4  and  C1_5 
ROOT
ATOM      1  C1  N4B d   1      -0.316  -0.042   0.339  0.00  0.00    -0.075 A 
ATOM      2  C2  N4B d   1      -0.575  -0.453   1.665  0.00  0.00     0.002 A 
ATOM      3  C3  N4B d   1      -1.495   0.225   2.426  0.00  0.00     0.002 A 
ATOM      4  C4  N4B d   1      -2.151   1.324   1.892  0.00  0.00    -0.004 A 
ATOM      5  C5  N4B d   1      -1.913   1.699   0.602  0.00  0.00     0.002 A 
ATOM      6  C6  N4B d   1      -0.995   1.024  -0.176  0.00  0.00     0.002 A 
ENDROOT
BRANCH   1   7
ATOM      7  C1' N4B d   1       0.743  -0.699  -0.504  0.00  0.00     0.057 C 
BRANCH   7   8
ATOM      8  C2' N4B d   1       0.074  -1.611  -1.528  0.00  0.00     0.009 C 
BRANCH   8   9
ATOM      9  C3' N4B d   1       0.952  -2.794  -1.896  0.00  0.00     0.004 C 
ATOM     10  C4' N4B d   1       0.169  -4.055  -2.110  0.00  0.00     0.003 C 
ENDBRANCH   8   9
ENDBRANCH   7   8
ENDBRANCH   1   7
TORSDOF 3
ENDMDL
