MODEL 1
REMARK minimizedAffinity -6.04248238
REMARK minimizedRMSD -1
REMARK  3 active torsions:
REMARK  status: ('A' for Active; 'I' for Inactive)
REMARK    1  A    between atoms: C3'_2  and  C2'_3 
REMARK    2  A    between atoms: C2'_3  and  C1'_4 
REMARK    3  A    between atoms: C1'_4  and  C1_5 
ROOT
ATOM      1  C1  N4B d   1      -0.076   0.081   0.005  0.00  0.00    -0.075 A 
ATOM      2  C2  N4B d   1      -0.279  -0.408   1.314  0.00  0.00     0.002 A 
ATOM      3  C3  N4B d   1      -1.224   0.171   2.124  0.00  0.00     0.002 A 
ATOM      4  C4  N4B d   1      -1.962   1.248   1.656  0.00  0.00    -0.004 A 
ATOM      5  C5  N4B d   1      -1.778   1.698   0.381  0.00  0.00     0.002 A 
ATOM      6  C6  N4B d   1      -0.834   1.123  -0.446  0.00  0.00     0.002 A 
ENDROOT
BRANCH   1   7
ATOM      7  C1' N4B d   1       1.005  -0.464  -0.888  0.00  0.00     0.057 C 
BRANCH   7   8
ATOM      8  C2' N4B d   1       0.782  -1.960  -1.088  0.00  0.00     0.009 C 
BRANCH   8   9
ATOM      9  C3' N4B d   1       0.280  -2.278  -2.486  0.00  0.00     0.004 C 
ATOM     10  C4' N4B d   1      -0.475  -3.572  -2.552  0.00  0.00     0.003 C 
ENDBRANCH   8   9
ENDBRANCH   7   8
ENDBRANCH   1   7
TORSDOF 3
ENDMDL
