MODEL 1
REMARK minimizedAffinity 2.04220629
REMARK minimizedRMSD -1
REMARK  0 active torsions:
REMARK  status: ('A' for Active; 'I' for Inactive)
ROOT
ATOM      1  N1  IND d   1      -0.336  -0.942   1.677  0.00  0.00    -0.196 N 
ATOM      2  C2  IND d   1       0.737  -1.646   1.206  0.00  0.00     0.054 A 
ATOM      3  C3  IND d   1       1.544  -0.842   0.478  0.00  0.00    -0.031 A 
ATOM      4  C4  IND d   1       1.351   1.683   0.015  0.00  0.00     0.051 A 
ATOM      5  C5  IND d   1       0.522   2.753   0.205  0.00  0.00    -0.031 A 
ATOM      6  C6  IND d   1      -0.658   2.644   0.912  0.00  0.00     0.015 A 
ATOM      7  C7  IND d   1      -1.049   1.458   1.467  0.00  0.00    -0.016 A 
ATOM      8  C8  IND d   1      -0.213   0.369   1.270  0.00  0.00    -0.047 A 
ATOM      9  C9  IND d   1       0.965   0.463   0.518  0.00  0.00    -0.096 A 
ATOM     10  HN1 IND d   1      -0.979  -1.264   2.148  0.00  0.00     0.298 HD
ENDROOT
TORSDOF 0
ENDMDL
