MODEL 1
REMARK minimizedAffinity 5.42764997
REMARK minimizedRMSD -1
REMARK  0 active torsions:
REMARK  status: ('A' for Active; 'I' for Inactive)
ROOT
ATOM      1  N1  IND d   1       1.680  -1.272  -3.226  0.00  0.00    -0.196 N 
ATOM      2  C2  IND d   1       2.404  -2.365  -2.838  0.00  0.00     0.054 A 
ATOM      3  C3  IND d   1       2.941  -2.163  -1.613  0.00  0.00    -0.031 A 
ATOM      4  C4  IND d   1       2.676  -0.156  -0.023  0.00  0.00     0.051 A 
ATOM      5  C5  IND d   1       2.139   1.099   0.048  0.00  0.00    -0.031 A 
ATOM      6  C6  IND d   1       1.405   1.637  -0.988  0.00  0.00     0.015 A 
ATOM      7  C7  IND d   1       1.169   0.933  -2.135  0.00  0.00    -0.016 A 
ATOM      8  C8  IND d   1       1.719  -0.339  -2.214  0.00  0.00    -0.047 A 
ATOM      9  C9  IND d   1       2.501  -0.874  -1.182  0.00  0.00    -0.096 A 
ATOM     10  HN1 IND d   1       1.270  -1.183  -3.976  0.00  0.00     0.298 HD
ENDROOT
TORSDOF 0
ENDMDL
