MODEL 1
REMARK minimizedAffinity 0.955747008
REMARK minimizedRMSD -1
REMARK  0 active torsions:
REMARK  status: ('A' for Active; 'I' for Inactive)
ROOT
ATOM      1  N1  IND d   1       1.143   0.873   0.239  0.00  0.00    -0.196 N 
ATOM      2  C2  IND d   1       2.484   0.756   0.476  0.00  0.00     0.054 A 
ATOM      3  C3  IND d   1       3.062   1.977   0.523  0.00  0.00    -0.031 A 
ATOM      4  C4  IND d   1       1.982   4.306   0.341  0.00  0.00     0.051 A 
ATOM      5  C5  IND d   1       0.789   4.924   0.086  0.00  0.00    -0.031 A 
ATOM      6  C6  IND d   1      -0.370   4.208  -0.132  0.00  0.00     0.015 A 
ATOM      7  C7  IND d   1      -0.383   2.843  -0.093  0.00  0.00    -0.016 A 
ATOM      8  C8  IND d   1       0.828   2.212   0.159  0.00  0.00    -0.047 A 
ATOM      9  C9  IND d   1       2.016   2.932   0.339  0.00  0.00    -0.096 A 
ATOM     10  HN1 IND d   1       0.589   0.221   0.155  0.00  0.00     0.298 HD
ENDROOT
TORSDOF 0
ENDMDL
