MODEL 1
REMARK minimizedAffinity 2.44469857
REMARK minimizedRMSD -1
REMARK  0 active torsions:
REMARK  status: ('A' for Active; 'I' for Inactive)
ROOT
ATOM      1  N1  IND d   1      -1.056   0.241   3.151  0.00  0.00    -0.196 N 
ATOM      2  C2  IND d   1      -0.642  -0.906   2.534  0.00  0.00     0.054 A 
ATOM      3  C3  IND d   1      -0.011  -0.614   1.374  0.00  0.00    -0.031 A 
ATOM      4  C4  IND d   1       0.542   1.680   0.345  0.00  0.00     0.051 A 
ATOM      5  C5  IND d   1       0.335   3.019   0.525  0.00  0.00    -0.031 A 
ATOM      6  C6  IND d   1      -0.357   3.511   1.613  0.00  0.00     0.015 A 
ATOM      7  C7  IND d   1      -0.861   2.678   2.572  0.00  0.00    -0.016 A 
ATOM      8  C8  IND d   1      -0.660   1.317   2.389  0.00  0.00    -0.047 A 
ATOM      9  C9  IND d   1       0.005   0.810   1.265  0.00  0.00    -0.096 A 
ATOM     10  HN1 IND d   1      -1.491   0.283   3.892  0.00  0.00     0.298 HD
ENDROOT
TORSDOF 0
ENDMDL
