MODEL 1
REMARK minimizedAffinity 12.3240252
REMARK minimizedRMSD -1
REMARK  0 active torsions:
REMARK  status: ('A' for Active; 'I' for Inactive)
ROOT
ATOM      1  N1  IND d   1      -3.427   3.522  -0.337  0.00  0.00    -0.196 N 
ATOM      2  C2  IND d   1      -2.144   3.053  -0.393  0.00  0.00     0.054 A 
ATOM      3  C3  IND d   1      -2.038   1.892   0.291  0.00  0.00    -0.031 A 
ATOM      4  C4  IND d   1      -3.861   0.529   1.493  0.00  0.00     0.051 A 
ATOM      5  C5  IND d   1      -5.180   0.571   1.848  0.00  0.00    -0.031 A 
ATOM      6  C6  IND d   1      -6.000   1.619   1.482  0.00  0.00     0.015 A 
ATOM      7  C7  IND d   1      -5.531   2.663   0.735  0.00  0.00    -0.016 A 
ATOM      8  C8  IND d   1      -4.190   2.627   0.380  0.00  0.00    -0.047 A 
ATOM      9  C9  IND d   1      -3.343   1.587   0.784  0.00  0.00    -0.096 A 
ATOM     10  HN1 IND d   1      -3.710   4.253  -0.691  0.00  0.00     0.298 HD
ENDROOT
TORSDOF 0
ENDMDL
