MODEL 1
REMARK minimizedAffinity 4.08169413
REMARK minimizedRMSD -1
REMARK  0 active torsions:
REMARK  status: ('A' for Active; 'I' for Inactive)
ROOT
ATOM      1  N1  IND d   1      -3.294   3.596  -0.485  0.00  0.00    -0.196 N 
ATOM      2  C2  IND d   1      -1.943   3.435  -0.619  0.00  0.00     0.054 A 
ATOM      3  C3  IND d   1      -1.516   2.399   0.138  0.00  0.00    -0.031 A 
ATOM      4  C4  IND d   1      -2.874   0.768   1.594  0.00  0.00     0.051 A 
ATOM      5  C5  IND d   1      -4.138   0.536   2.059  0.00  0.00    -0.031 A 
ATOM      6  C6  IND d   1      -5.208   1.326   1.690  0.00  0.00     0.015 A 
ATOM      7  C7  IND d   1      -5.054   2.376   0.830  0.00  0.00    -0.016 A 
ATOM      8  C8  IND d   1      -3.771   2.619   0.361  0.00  0.00    -0.047 A 
ATOM      9  C9  IND d   1      -2.674   1.846   0.765  0.00  0.00    -0.096 A 
ATOM     10  HN1 IND d   1      -3.767   4.205  -0.866  0.00  0.00     0.298 HD
ENDROOT
TORSDOF 0
ENDMDL
