MODEL 1
REMARK minimizedAffinity 4.21081448
REMARK minimizedRMSD -1
REMARK  0 active torsions:
REMARK  status: ('A' for Active; 'I' for Inactive)
ROOT
ATOM      1  N1  IND d   1       1.893  -2.469   1.123  0.00  0.00    -0.196 N 
ATOM      2  C2  IND d   1       0.689  -2.925   1.583  0.00  0.00     0.054 A 
ATOM      3  C3  IND d   1       0.638  -4.274   1.512  0.00  0.00    -0.031 A 
ATOM      4  C4  IND d   1       2.453  -5.942   0.771  0.00  0.00     0.051 A 
ATOM      5  C5  IND d   1       3.708  -5.999   0.232  0.00  0.00    -0.031 A 
ATOM      6  C6  IND d   1       4.438  -4.860  -0.040  0.00  0.00     0.015 A 
ATOM      7  C7  IND d   1       3.942  -3.615   0.228  0.00  0.00    -0.016 A 
ATOM      8  C8  IND d   1       2.665  -3.553   0.769  0.00  0.00    -0.047 A 
ATOM      9  C9  IND d   1       1.903  -4.704   1.007  0.00  0.00    -0.096 A 
ATOM     10  HN1 IND d   1       2.128  -1.644   1.065  0.00  0.00     0.298 HD
ENDROOT
TORSDOF 0
ENDMDL
