MODEL 1
REMARK minimizedAffinity 6.54791117
REMARK minimizedRMSD -1
REMARK  0 active torsions:
REMARK  status: ('A' for Active; 'I' for Inactive)
ROOT
ATOM      1  N1  IND d   1       3.357   1.749   0.708  0.00  0.00    -0.196 N 
ATOM      2  C2  IND d   1       2.113   2.051   1.187  0.00  0.00     0.054 A 
ATOM      3  C3  IND d   1       1.174   1.809   0.245  0.00  0.00    -0.031 A 
ATOM      4  C4  IND d   1       1.445   0.821  -2.117  0.00  0.00     0.051 A 
ATOM      5  C5  IND d   1       2.394   0.423  -3.016  0.00  0.00    -0.031 A 
ATOM      6  C6  IND d   1       3.740   0.443  -2.712  0.00  0.00     0.015 A 
ATOM      7  C7  IND d   1       4.188   0.855  -1.488  0.00  0.00    -0.016 A 
ATOM      8  C8  IND d   1       3.227   1.267  -0.576  0.00  0.00    -0.047 A 
ATOM      9  C9  IND d   1       1.863   1.289  -0.894  0.00  0.00    -0.096 A 
ATOM     10  HN1 IND d   1       4.096   1.843   1.137  0.00  0.00     0.298 HD
ENDROOT
TORSDOF 0
ENDMDL
