MODEL 1
REMARK minimizedAffinity 2.63880491
REMARK minimizedRMSD -1
REMARK  0 active torsions:
REMARK  status: ('A' for Active; 'I' for Inactive)
ROOT
ATOM      1  N1  IND d   1      -1.260   0.448   0.822  0.00  0.00    -0.196 N 
ATOM      2  C2  IND d   1      -2.042   1.569   0.852  0.00  0.00     0.054 A 
ATOM      3  C3  IND d   1      -1.278   2.679   0.745  0.00  0.00    -0.031 A 
ATOM      4  C4  IND d   1       1.266   2.887   0.410  0.00  0.00     0.051 A 
ATOM      5  C5  IND d   1       2.410   2.142   0.357  0.00  0.00    -0.031 A 
ATOM      6  C6  IND d   1       2.389   0.765   0.456  0.00  0.00     0.015 A 
ATOM      7  C7  IND d   1       1.216   0.080   0.601  0.00  0.00    -0.016 A 
ATOM      8  C8  IND d   1       0.053   0.834   0.662  0.00  0.00    -0.047 A 
ATOM      9  C9  IND d   1       0.072   2.233   0.605  0.00  0.00    -0.096 A 
ATOM     10  HN1 IND d   1      -1.540  -0.362   0.892  0.00  0.00     0.298 HD
ENDROOT
TORSDOF 0
ENDMDL
