MODEL 1
REMARK minimizedAffinity 0.930157781
REMARK minimizedRMSD -1
REMARK  0 active torsions:
REMARK  status: ('A' for Active; 'I' for Inactive)
ROOT
ATOM      1  N1  IND d   1       2.336   1.772   1.486  0.00  0.00    -0.196 N 
ATOM      2  C2  IND d   1       3.393   2.183   0.723  0.00  0.00     0.054 A 
ATOM      3  C3  IND d   1       2.959   2.935  -0.314  0.00  0.00    -0.031 A 
ATOM      4  C4  IND d   1       0.571   3.700  -0.893  0.00  0.00     0.051 A 
ATOM      5  C5  IND d   1      -0.732   3.547  -0.511  0.00  0.00    -0.031 A 
ATOM      6  C6  IND d   1      -1.086   2.780   0.581  0.00  0.00     0.015 A 
ATOM      7  C7  IND d   1      -0.145   2.145   1.341  0.00  0.00    -0.016 A 
ATOM      8  C8  IND d   1       1.179   2.293   0.951  0.00  0.00    -0.047 A 
ATOM      9  C9  IND d   1       1.540   3.035  -0.181  0.00  0.00    -0.096 A 
ATOM     10  HN1 IND d   1       2.385   1.271   2.184  0.00  0.00     0.298 HD
ENDROOT
TORSDOF 0
ENDMDL
