MODEL 1
REMARK minimizedAffinity 4.45678997
REMARK minimizedRMSD -1
REMARK  0 active torsions:
REMARK  status: ('A' for Active; 'I' for Inactive)
ROOT
ATOM      1  N1  IND d   1       0.581   1.540   1.288  0.00  0.00    -0.196 N 
ATOM      2  C2  IND d   1       1.611   2.257   0.746  0.00  0.00     0.054 A 
ATOM      3  C3  IND d   1       1.156   3.057  -0.245  0.00  0.00    -0.031 A 
ATOM      4  C4  IND d   1      -1.252   3.424  -1.076  0.00  0.00     0.051 A 
ATOM      5  C5  IND d   1      -2.530   2.965  -0.913  0.00  0.00    -0.031 A 
ATOM      6  C6  IND d   1      -2.842   1.991   0.013  0.00  0.00     0.015 A 
ATOM      7  C7  IND d   1      -1.886   1.444   0.822  0.00  0.00    -0.016 A 
ATOM      8  C8  IND d   1      -0.587   1.902   0.654  0.00  0.00    -0.047 A 
ATOM      9  C9  IND d   1      -0.257   2.860  -0.313  0.00  0.00    -0.096 A 
ATOM     10  HN1 IND d   1       0.651   0.960   1.919  0.00  0.00     0.298 HD
ENDROOT
TORSDOF 0
ENDMDL
