MODEL 1
REMARK minimizedAffinity 9.22280693
REMARK minimizedRMSD -1
REMARK  0 active torsions:
REMARK  status: ('A' for Active; 'I' for Inactive)
ROOT
ATOM      1  N1  IND d   1       2.034   1.466   1.358  0.00  0.00    -0.196 N 
ATOM      2  C2  IND d   1       1.903   2.721   0.832  0.00  0.00     0.054 A 
ATOM      3  C3  IND d   1       1.760   2.654  -0.511  0.00  0.00    -0.031 A 
ATOM      4  C4  IND d   1       1.611   0.589  -2.040  0.00  0.00     0.051 A 
ATOM      5  C5  IND d   1       1.715  -0.774  -2.023  0.00  0.00    -0.031 A 
ATOM      6  C6  IND d   1       1.932  -1.474  -0.854  0.00  0.00     0.015 A 
ATOM      7  C7  IND d   1       2.043  -0.835   0.349  0.00  0.00    -0.016 A 
ATOM      8  C8  IND d   1       1.945   0.549   0.334  0.00  0.00    -0.047 A 
ATOM      9  C9  IND d   1       1.767   1.268  -0.855  0.00  0.00    -0.096 A 
ATOM     10  HN1 IND d   1       2.152   1.281   2.190  0.00  0.00     0.298 HD
ENDROOT
TORSDOF 0
ENDMDL
