MODEL 1
REMARK minimizedAffinity 5.21946049
REMARK minimizedRMSD -1
REMARK  0 active torsions:
REMARK  status: ('A' for Active; 'I' for Inactive)
ROOT
ATOM      1  N1  IND d   1       0.701   2.457   3.711  0.00  0.00    -0.196 N 
ATOM      2  C2  IND d   1      -0.501   2.631   3.085  0.00  0.00     0.054 A 
ATOM      3  C3  IND d   1      -0.326   2.733   1.748  0.00  0.00    -0.031 A 
ATOM      4  C4  IND d   1       1.836   2.542   0.364  0.00  0.00     0.051 A 
ATOM      5  C5  IND d   1       3.191   2.420   0.493  0.00  0.00    -0.031 A 
ATOM      6  C6  IND d   1       3.798   2.299   1.727  0.00  0.00     0.015 A 
ATOM      7  C7  IND d   1       3.067   2.284   2.881  0.00  0.00    -0.016 A 
ATOM      8  C8  IND d   1       1.692   2.415   2.754  0.00  0.00    -0.047 A 
ATOM      9  C9  IND d   1       1.074   2.581   1.507  0.00  0.00    -0.096 A 
ATOM     10  HN1 IND d   1       0.820   2.387   4.559  0.00  0.00     0.298 HD
ENDROOT
TORSDOF 0
ENDMDL
