MODEL 1
REMARK minimizedAffinity 9.44251823
REMARK minimizedRMSD -1
REMARK  0 active torsions:
REMARK  status: ('A' for Active; 'I' for Inactive)
ROOT
ATOM      1  N1  IND d   1       2.920   0.377   0.727  0.00  0.00    -0.196 N 
ATOM      2  C2  IND d   1       2.829   1.729   0.912  0.00  0.00     0.054 A 
ATOM      3  C3  IND d   1       2.327   2.322  -0.195  0.00  0.00    -0.031 A 
ATOM      4  C4  IND d   1       1.492   1.258  -2.385  0.00  0.00     0.051 A 
ATOM      5  C5  IND d   1       1.407   0.059  -3.036  0.00  0.00    -0.031 A 
ATOM      6  C6  IND d   1       1.828  -1.119  -2.454  0.00  0.00     0.015 A 
ATOM      7  C7  IND d   1       2.341  -1.144  -1.188  0.00  0.00    -0.016 A 
ATOM      8  C8  IND d   1       2.436   0.072  -0.526  0.00  0.00    -0.047 A 
ATOM      9  C9  IND d   1       2.050   1.277  -1.129  0.00  0.00    -0.096 A 
ATOM     10  HN1 IND d   1       3.228  -0.188   1.297  0.00  0.00     0.298 HD
ENDROOT
TORSDOF 0
ENDMDL
