MODEL 1
REMARK minimizedAffinity 3.64357328
REMARK minimizedRMSD -1
REMARK  0 active torsions:
REMARK  status: ('A' for Active; 'I' for Inactive)
ROOT
ATOM      1  N1  IND d   1       2.575   1.720   2.106  0.00  0.00    -0.196 N 
ATOM      2  C2  IND d   1       3.395   1.748   1.013  0.00  0.00     0.054 A 
ATOM      3  C3  IND d   1       2.781   2.366  -0.021  0.00  0.00    -0.031 A 
ATOM      4  C4  IND d   1       0.470   3.498  -0.110  0.00  0.00     0.051 A 
ATOM      5  C5  IND d   1      -0.660   3.699   0.632  0.00  0.00    -0.031 A 
ATOM      6  C6  IND d   1      -0.771   3.244   1.930  0.00  0.00     0.015 A 
ATOM      7  C7  IND d   1       0.253   2.577   2.541  0.00  0.00    -0.016 A 
ATOM      8  C8  IND d   1       1.400   2.365   1.789  0.00  0.00    -0.047 A 
ATOM      9  C9  IND d   1       1.502   2.788   0.457  0.00  0.00    -0.096 A 
ATOM     10  HN1 IND d   1       2.762   1.360   2.864  0.00  0.00     0.298 HD
ENDROOT
TORSDOF 0
ENDMDL
