MODEL 1
REMARK minimizedAffinity 10.4255762
REMARK minimizedRMSD -1
REMARK  0 active torsions:
REMARK  status: ('A' for Active; 'I' for Inactive)
ROOT
ATOM      1  N1  IND d   1       1.973   0.782   1.561  0.00  0.00    -0.196 N 
ATOM      2  C2  IND d   1       2.857   1.504   0.808  0.00  0.00     0.054 A 
ATOM      3  C3  IND d   1       2.205   2.445   0.089  0.00  0.00    -0.031 A 
ATOM      4  C4  IND d   1      -0.298   3.045   0.070  0.00  0.00     0.051 A 
ATOM      5  C5  IND d   1      -1.506   2.642   0.565  0.00  0.00    -0.031 A 
ATOM      6  C6  IND d   1      -1.619   1.578   1.437  0.00  0.00     0.015 A 
ATOM      7  C7  IND d   1      -0.520   0.882   1.857  0.00  0.00    -0.016 A 
ATOM      8  C8  IND d   1       0.707   1.285   1.351  0.00  0.00    -0.047 A 
ATOM      9  C9  IND d   1       0.823   2.336   0.433  0.00  0.00    -0.096 A 
ATOM     10  HN1 IND d   1       2.173   0.125   2.078  0.00  0.00     0.298 HD
ENDROOT
TORSDOF 0
ENDMDL
