MODEL 1
REMARK minimizedAffinity -1.17308545
REMARK minimizedRMSD -1
REMARK  0 active torsions:
REMARK  status: ('A' for Active; 'I' for Inactive)
ROOT
ATOM      1  C   UNL d   1      -0.743   0.730   2.326  0.00  0.00     0.124 A 
ATOM      2  C1  UNL d   1       0.491   1.009   1.754  0.00  0.00     0.062 A 
ATOM      3  C2  UNL d   1       0.719   0.726   0.410  0.00  0.00     0.162 A 
ATOM      4  C3  UNL d   1      -0.290   0.163  -0.372  0.00  0.00    -0.034 A 
ATOM      5  C4  UNL d   1      -1.527  -0.115   0.211  0.00  0.00     0.162 A 
ATOM      6  C5  UNL d   1      -1.750   0.169   1.554  0.00  0.00     0.062 A 
ATOM      7  F   UNL d   1      -2.943  -0.101   2.106  0.00  0.00    -0.097 F 
ATOM      8  F1  UNL d   1      -2.519  -0.657  -0.512  0.00  0.00    -0.096 F 
ATOM      9  I   UNL d   1       0.047  -0.261  -2.381  0.00  0.00    -0.060 I 
ATOM     10  F2  UNL d   1       1.920   1.006  -0.117  0.00  0.00    -0.096 F 
ATOM     11  F3  UNL d   1       1.466   1.550   2.497  0.00  0.00    -0.097 F 
ATOM     12  F4  UNL d   1      -0.959   1.002   3.619  0.00  0.00    -0.092 F 
ENDROOT
TORSDOF 0
ENDMDL
