MODEL 1
REMARK minimizedAffinity -0.329566479
REMARK minimizedRMSD -1
REMARK  0 active torsions:
REMARK  status: ('A' for Active; 'I' for Inactive)
ROOT
ATOM      1  C   UNL d   1      -1.073   0.844   2.519  0.00  0.00     0.124 A 
ATOM      2  C1  UNL d   1      -1.906   0.157   1.646  0.00  0.00     0.062 A 
ATOM      3  C2  UNL d   1      -1.454  -0.194   0.378  0.00  0.00     0.162 A 
ATOM      4  C3  UNL d   1      -0.161   0.140  -0.026  0.00  0.00    -0.034 A 
ATOM      5  C4  UNL d   1       0.670   0.831   0.856  0.00  0.00     0.162 A 
ATOM      6  C5  UNL d   1       0.214   1.180   2.123  0.00  0.00     0.062 A 
ATOM      7  F   UNL d   1       1.020   1.844   2.965  0.00  0.00    -0.097 F 
ATOM      8  F1  UNL d   1       1.919   1.168   0.500  0.00  0.00    -0.096 F 
ATOM      9  I   UNL d   1       0.519  -0.384  -1.922  0.00  0.00    -0.060 I 
ATOM     10  F2  UNL d   1      -2.280  -0.858  -0.445  0.00  0.00    -0.096 F 
ATOM     11  F3  UNL d   1      -3.150  -0.168   2.026  0.00  0.00    -0.097 F 
ATOM     12  F4  UNL d   1      -1.511   1.181   3.738  0.00  0.00    -0.092 F 
ENDROOT
TORSDOF 0
ENDMDL
