MODEL 1
REMARK minimizedAffinity -2.07032847
REMARK minimizedRMSD -1
REMARK  0 active torsions:
REMARK  status: ('A' for Active; 'I' for Inactive)
ROOT
ATOM      1  C   UNL d   1       1.373  -1.297  -1.502  0.00  0.00     0.124 A 
ATOM      2  C1  UNL d   1       1.877  -1.479  -0.221  0.00  0.00     0.062 A 
ATOM      3  C2  UNL d   1       1.263  -0.864   0.866  0.00  0.00     0.162 A 
ATOM      4  C3  UNL d   1       0.138  -0.061   0.678  0.00  0.00    -0.034 A 
ATOM      5  C4  UNL d   1      -0.362   0.118  -0.613  0.00  0.00     0.162 A 
ATOM      6  C5  UNL d   1       0.255  -0.499  -1.696  0.00  0.00     0.062 A 
ATOM      7  F   UNL d   1      -0.233  -0.322  -2.933  0.00  0.00    -0.097 F 
ATOM      8  F1  UNL d   1      -1.442   0.882  -0.829  0.00  0.00    -0.096 F 
ATOM      9  I   UNL d   1      -0.782   0.860   2.302  0.00  0.00    -0.060 I 
ATOM     10  F2  UNL d   1       1.772  -1.057   2.093  0.00  0.00    -0.096 F 
ATOM     11  F3  UNL d   1       2.958  -2.249  -0.030  0.00  0.00    -0.097 F 
ATOM     12  F4  UNL d   1       1.966  -1.889  -2.546  0.00  0.00    -0.092 F 
ENDROOT
TORSDOF 0
ENDMDL
