MODEL 1
REMARK minimizedAffinity -1.57072496
REMARK minimizedRMSD -1
REMARK  0 active torsions:
REMARK  status: ('A' for Active; 'I' for Inactive)
ROOT
ATOM      1  C   UNL d   1       1.634   0.094  -3.070  0.00  0.00     0.124 A 
ATOM      2  C1  UNL d   1       2.224  -0.860  -2.252  0.00  0.00     0.062 A 
ATOM      3  C2  UNL d   1       1.923  -0.902  -0.894  0.00  0.00     0.162 A 
ATOM      4  C3  UNL d   1       1.026   0.014  -0.344  0.00  0.00    -0.034 A 
ATOM      5  C4  UNL d   1       0.437   0.972  -1.172  0.00  0.00     0.162 A 
ATOM      6  C5  UNL d   1       0.742   1.009  -2.529  0.00  0.00     0.062 A 
ATOM      7  F   UNL d   1       0.171   1.931  -3.317  0.00  0.00    -0.097 F 
ATOM      8  F1  UNL d   1      -0.429   1.867  -0.676  0.00  0.00    -0.096 F 
ATOM      9  I   UNL d   1       0.573  -0.044   1.686  0.00  0.00    -0.060 I 
ATOM     10  F2  UNL d   1       2.508  -1.835  -0.128  0.00  0.00    -0.096 F 
ATOM     11  F3  UNL d   1       3.087  -1.745  -2.772  0.00  0.00    -0.097 F 
ATOM     12  F4  UNL d   1       1.926   0.132  -4.376  0.00  0.00    -0.092 F 
ENDROOT
TORSDOF 0
ENDMDL
