MODEL 1
REMARK minimizedAffinity -2.72304797
REMARK minimizedRMSD -1
REMARK  0 active torsions:
REMARK  status: ('A' for Active; 'I' for Inactive)
ROOT
ATOM      1  C   UNL d   1      -0.535  -1.091  -0.383  0.00  0.00     0.124 A 
ATOM      2  C1  UNL d   1       0.706  -0.890   0.204  0.00  0.00     0.062 A 
ATOM      3  C2  UNL d   1       0.806  -0.217   1.418  0.00  0.00     0.162 A 
ATOM      4  C3  UNL d   1      -0.340   0.261   2.054  0.00  0.00    -0.034 A 
ATOM      5  C4  UNL d   1      -1.585   0.055   1.458  0.00  0.00     0.162 A 
ATOM      6  C5  UNL d   1      -1.680  -0.618   0.245  0.00  0.00     0.062 A 
ATOM      7  F   UNL d   1      -2.880  -0.812  -0.321  0.00  0.00    -0.097 F 
ATOM      8  F1  UNL d   1      -2.707   0.501   2.043  0.00  0.00    -0.096 F 
ATOM      9  I   UNL d   1      -0.194   1.268   3.870  0.00  0.00    -0.060 I 
ATOM     10  F2  UNL d   1       2.019  -0.037   1.962  0.00  0.00    -0.096 F 
ATOM     11  F3  UNL d   1       1.813  -1.345  -0.400  0.00  0.00    -0.097 F 
ATOM     12  F4  UNL d   1      -0.629  -1.739  -1.551  0.00  0.00    -0.092 F 
ENDROOT
TORSDOF 0
ENDMDL
