MODEL 1
REMARK minimizedAffinity -2.89119983
REMARK minimizedRMSD -1
REMARK  0 active torsions:
REMARK  status: ('A' for Active; 'I' for Inactive)
ROOT
ATOM      1  C   UNL d   1      -1.414   2.595   1.197  0.00  0.00     0.124 A 
ATOM      2  C1  UNL d   1      -0.598   2.828   0.099  0.00  0.00     0.062 A 
ATOM      3  C2  UNL d   1       0.118   1.782  -0.476  0.00  0.00     0.162 A 
ATOM      4  C3  UNL d   1       0.022   0.492   0.047  0.00  0.00    -0.034 A 
ATOM      5  C4  UNL d   1      -0.799   0.266   1.152  0.00  0.00     0.162 A 
ATOM      6  C5  UNL d   1      -1.514   1.314   1.723  0.00  0.00     0.062 A 
ATOM      7  F   UNL d   1      -2.301   1.087   2.784  0.00  0.00    -0.097 F 
ATOM      8  F1  UNL d   1      -0.915  -0.962   1.680  0.00  0.00    -0.096 F 
ATOM      9  I   UNL d   1       1.092  -1.074  -0.810  0.00  0.00    -0.060 I 
ATOM     10  F2  UNL d   1       0.899   2.036  -1.537  0.00  0.00    -0.096 F 
ATOM     11  F3  UNL d   1      -0.499   4.064  -0.411  0.00  0.00    -0.097 F 
ATOM     12  F4  UNL d   1      -2.101   3.603   1.749  0.00  0.00    -0.092 F 
ENDROOT
TORSDOF 0
ENDMDL
