MODEL 1
REMARK minimizedAffinity 0.532637596
REMARK minimizedRMSD -1
REMARK  0 active torsions:
REMARK  status: ('A' for Active; 'I' for Inactive)
ROOT
ATOM      1  C   UNL d   1      -0.770   1.989   1.108  0.00  0.00     0.124 A 
ATOM      2  C1  UNL d   1      -0.154   2.041  -0.135  0.00  0.00     0.062 A 
ATOM      3  C2  UNL d   1       0.339   0.879  -0.722  0.00  0.00     0.162 A 
ATOM      4  C3  UNL d   1       0.215  -0.346  -0.067  0.00  0.00    -0.034 A 
ATOM      5  C4  UNL d   1      -0.405  -0.391   1.183  0.00  0.00     0.162 A 
ATOM      6  C5  UNL d   1      -0.895   0.774   1.765  0.00  0.00     0.062 A 
ATOM      7  F   UNL d   1      -1.490   0.721   2.966  0.00  0.00    -0.097 F 
ATOM      8  F1  UNL d   1      -0.540  -1.552   1.840  0.00  0.00    -0.096 F 
ATOM      9  I   UNL d   1       0.950  -2.086  -0.941  0.00  0.00    -0.060 I 
ATOM     10  F2  UNL d   1       0.930   0.959  -1.923  0.00  0.00    -0.096 F 
ATOM     11  F3  UNL d   1      -0.031   3.215  -0.772  0.00  0.00    -0.097 F 
ATOM     12  F4  UNL d   1      -1.242   3.109   1.670  0.00  0.00    -0.092 F 
ENDROOT
TORSDOF 0
ENDMDL
