MODEL 1
REMARK minimizedAffinity 0.277610868
REMARK minimizedRMSD -1
REMARK  0 active torsions:
REMARK  status: ('A' for Active; 'I' for Inactive)
ROOT
ATOM      1  C   UNL d   1       0.211  -2.157  -2.041  0.00  0.00     0.124 A 
ATOM      2  C1  UNL d   1      -0.794  -2.658  -1.224  0.00  0.00     0.062 A 
ATOM      3  C2  UNL d   1      -1.170  -1.968  -0.076  0.00  0.00     0.162 A 
ATOM      4  C3  UNL d   1      -0.542  -0.769   0.263  0.00  0.00    -0.034 A 
ATOM      5  C4  UNL d   1       0.468  -0.273  -0.563  0.00  0.00     0.162 A 
ATOM      6  C5  UNL d   1       0.840  -0.966  -1.710  0.00  0.00     0.062 A 
ATOM      7  F   UNL d   1       1.811  -0.481  -2.498  0.00  0.00    -0.097 F 
ATOM      8  F1  UNL d   1       1.092   0.877  -0.267  0.00  0.00    -0.096 F 
ATOM      9  I   UNL d   1      -1.102   0.266   1.980  0.00  0.00    -0.060 I 
ATOM     10  F2  UNL d   1      -2.144  -2.474   0.695  0.00  0.00    -0.096 F 
ATOM     11  F3  UNL d   1      -1.403  -3.809  -1.542  0.00  0.00    -0.097 F 
ATOM     12  F4  UNL d   1       0.572  -2.824  -3.146  0.00  0.00    -0.092 F 
ENDROOT
TORSDOF 0
ENDMDL
