MODEL 1
REMARK minimizedAffinity -2.43685627
REMARK minimizedRMSD -1
REMARK  0 active torsions:
REMARK  status: ('A' for Active; 'I' for Inactive)
ROOT
ATOM      1  C   UNL d   1      -1.335   1.614   0.438  0.00  0.00     0.124 A 
ATOM      2  C1  UNL d   1      -1.221   0.616   1.397  0.00  0.00     0.062 A 
ATOM      3  C2  UNL d   1      -0.541  -0.562   1.103  0.00  0.00     0.162 A 
ATOM      4  C3  UNL d   1       0.032  -0.750  -0.154  0.00  0.00    -0.034 A 
ATOM      5  C4  UNL d   1      -0.087   0.258  -1.113  0.00  0.00     0.162 A 
ATOM      6  C5  UNL d   1      -0.768   1.434  -0.816  0.00  0.00     0.062 A 
ATOM      7  F   UNL d   1      -0.876   2.396  -1.743  0.00  0.00    -0.097 F 
ATOM      8  F1  UNL d   1       0.452   0.110  -2.333  0.00  0.00    -0.096 F 
ATOM      9  I   UNL d   1       1.050  -2.510  -0.596  0.00  0.00    -0.060 I 
ATOM     10  F2  UNL d   1      -0.447  -1.509   2.049  0.00  0.00    -0.096 F 
ATOM     11  F3  UNL d   1      -1.769   0.787   2.608  0.00  0.00    -0.097 F 
ATOM     12  F4  UNL d   1      -1.991   2.746   0.722  0.00  0.00    -0.092 F 
ENDROOT
TORSDOF 0
ENDMDL
