MODEL 1
REMARK minimizedAffinity 0.189366087
REMARK minimizedRMSD -1
REMARK  0 active torsions:
REMARK  status: ('A' for Active; 'I' for Inactive)
ROOT
ATOM      1  C   UNL d   1       0.520  -3.503  -2.259  0.00  0.00     0.124 A 
ATOM      2  C1  UNL d   1       1.372  -3.080  -1.249  0.00  0.00     0.062 A 
ATOM      3  C2  UNL d   1       1.217  -1.817  -0.685  0.00  0.00     0.162 A 
ATOM      4  C3  UNL d   1       0.204  -0.968  -1.130  0.00  0.00    -0.034 A 
ATOM      5  C4  UNL d   1      -0.649  -1.400  -2.147  0.00  0.00     0.162 A 
ATOM      6  C5  UNL d   1      -0.490  -2.663  -2.707  0.00  0.00     0.062 A 
ATOM      7  F   UNL d   1      -1.315  -3.070  -3.683  0.00  0.00    -0.097 F 
ATOM      8  F1  UNL d   1      -1.634  -0.609  -2.598  0.00  0.00    -0.096 F 
ATOM      9  I   UNL d   1      -0.032   0.922  -0.290  0.00  0.00    -0.060 I 
ATOM     10  F2  UNL d   1       2.055  -1.434   0.289  0.00  0.00    -0.096 F 
ATOM     11  F3  UNL d   1       2.349  -3.890  -0.815  0.00  0.00    -0.097 F 
ATOM     12  F4  UNL d   1       0.672  -4.719  -2.801  0.00  0.00    -0.092 F 
ENDROOT
TORSDOF 0
ENDMDL
