MODEL 1
REMARK minimizedAffinity -3.02795029
REMARK minimizedRMSD -1
REMARK  0 active torsions:
REMARK  status: ('A' for Active; 'I' for Inactive)
ROOT
ATOM      1  C   UNL d   1      -0.828   2.842   0.748  0.00  0.00     0.124 A 
ATOM      2  C1  UNL d   1      -1.134   1.627   1.344  0.00  0.00     0.062 A 
ATOM      3  C2  UNL d   1      -0.600   0.445   0.837  0.00  0.00     0.162 A 
ATOM      4  C3  UNL d   1       0.246   0.474  -0.271  0.00  0.00    -0.034 A 
ATOM      5  C4  UNL d   1       0.548   1.700  -0.866  0.00  0.00     0.162 A 
ATOM      6  C5  UNL d   1       0.012   2.878  -0.356  0.00  0.00     0.062 A 
ATOM      7  F   UNL d   1       0.309   4.052  -0.933  0.00  0.00    -0.097 F 
ATOM      8  F1  UNL d   1       1.359   1.763  -1.933  0.00  0.00    -0.096 F 
ATOM      9  I   UNL d   1       1.047  -1.291  -1.031  0.00  0.00    -0.060 I 
ATOM     10  F2  UNL d   1      -0.912  -0.715   1.433  0.00  0.00    -0.096 F 
ATOM     11  F3  UNL d   1      -1.946   1.590   2.409  0.00  0.00    -0.097 F 
ATOM     12  F4  UNL d   1      -1.344   3.978   1.236  0.00  0.00    -0.092 F 
ENDROOT
TORSDOF 0
ENDMDL
