MODEL 1
REMARK minimizedAffinity -1.36881244
REMARK minimizedRMSD -1
REMARK  0 active torsions:
REMARK  status: ('A' for Active; 'I' for Inactive)
ROOT
ATOM      1  C   UNL d   1      -0.480   1.720   0.954  0.00  0.00     0.124 A 
ATOM      2  C1  UNL d   1       0.325   1.789  -0.174  0.00  0.00     0.062 A 
ATOM      3  C2  UNL d   1       0.713   0.624  -0.829  0.00  0.00     0.162 A 
ATOM      4  C3  UNL d   1       0.295  -0.621  -0.359  0.00  0.00    -0.034 A 
ATOM      5  C4  UNL d   1      -0.514  -0.682   0.777  0.00  0.00     0.162 A 
ATOM      6  C5  UNL d   1      -0.899   0.485   1.428  0.00  0.00     0.062 A 
ATOM      7  F   UNL d   1      -1.678   0.416   2.518  0.00  0.00    -0.097 F 
ATOM      8  F1  UNL d   1      -0.934  -1.862   1.256  0.00  0.00    -0.096 F 
ATOM      9  I   UNL d   1       0.873  -2.365  -1.336  0.00  0.00    -0.060 I 
ATOM     10  F2  UNL d   1       1.492   0.721  -1.917  0.00  0.00    -0.096 F 
ATOM     11  F3  UNL d   1       0.732   2.981  -0.634  0.00  0.00    -0.097 F 
ATOM     12  F4  UNL d   1      -0.852   2.843   1.583  0.00  0.00    -0.092 F 
ENDROOT
TORSDOF 0
ENDMDL
