MODEL 1
REMARK minimizedAffinity 3.66396499
REMARK minimizedRMSD -1
REMARK  0 active torsions:
REMARK  status: ('A' for Active; 'I' for Inactive)
ROOT
ATOM      1  C   UNL d   1      -2.370  -2.786  -3.327  0.00  0.00     0.172 C 
ATOM      2  N   UNL d   1      -1.624  -2.851  -2.092  0.00  0.00    -0.070 N 
ATOM      3  C1  UNL d   1      -0.825  -3.891  -1.696  0.00  0.00    -0.004 A 
ATOM      4  C2  UNL d   1      -0.294  -3.570  -0.466  0.00  0.00    -0.047 A 
ATOM      5  C3  UNL d   1      -0.791  -2.294  -0.109  0.00  0.00    -0.047 A 
ATOM      6  C4  UNL d   1      -1.612  -1.872  -1.134  0.00  0.00    -0.004 A 
ENDROOT
TORSDOF 0
ENDMDL
