MODEL 1
REMARK minimizedAffinity -2.57901239
REMARK minimizedRMSD -1
REMARK  0 active torsions:
REMARK  status: ('A' for Active; 'I' for Inactive)
ROOT
ATOM      1  C   UNL d   1      -5.153  -5.181  -2.064  0.00  0.00     0.172 C 
ATOM      2  N   UNL d   1      -4.689  -3.967  -1.436  0.00  0.00    -0.070 N 
ATOM      3  C1  UNL d   1      -5.286  -3.338  -0.375  0.00  0.00    -0.004 A 
ATOM      4  C2  UNL d   1      -4.540  -2.219  -0.074  0.00  0.00    -0.047 A 
ATOM      5  C3  UNL d   1      -3.459  -2.172  -0.985  0.00  0.00    -0.047 A 
ATOM      6  C4  UNL d   1      -3.575  -3.266  -1.817  0.00  0.00    -0.004 A 
ENDROOT
TORSDOF 0
ENDMDL
