MODEL 1
REMARK minimizedAffinity 2.2243166
REMARK minimizedRMSD -1
REMARK  0 active torsions:
REMARK  status: ('A' for Active; 'I' for Inactive)
ROOT
ATOM      1  C   UNL d   1       2.212   2.719  -5.992  0.00  0.00     0.172 C 
ATOM      2  N   UNL d   1       3.508   2.089  -5.894  0.00  0.00    -0.070 N 
ATOM      3  C1  UNL d   1       3.733   0.756  -5.681  0.00  0.00    -0.004 A 
ATOM      4  C2  UNL d   1       5.097   0.557  -5.651  0.00  0.00    -0.047 A 
ATOM      5  C3  UNL d   1       5.712   1.816  -5.853  0.00  0.00    -0.047 A 
ATOM      6  C4  UNL d   1       4.705   2.746  -6.000  0.00  0.00    -0.004 A 
ENDROOT
TORSDOF 0
ENDMDL
