MODEL 1
REMARK minimizedAffinity -0.322945058
REMARK minimizedRMSD -1
REMARK  0 active torsions:
REMARK  status: ('A' for Active; 'I' for Inactive)
ROOT
ATOM      1  C   UNL d   1      -1.460  -2.621  -2.403  0.00  0.00     0.172 C 
ATOM      2  N   UNL d   1      -1.759  -2.939  -3.779  0.00  0.00    -0.070 N 
ATOM      3  C1  UNL d   1      -2.563  -3.963  -4.205  0.00  0.00    -0.004 A 
ATOM      4  C2  UNL d   1      -2.594  -3.931  -5.582  0.00  0.00    -0.047 A 
ATOM      5  C3  UNL d   1      -1.779  -2.851  -5.999  0.00  0.00    -0.047 A 
ATOM      6  C4  UNL d   1      -1.275  -2.254  -4.862  0.00  0.00    -0.004 A 
ENDROOT
TORSDOF 0
ENDMDL
