MODEL 1
REMARK minimizedAffinity -1.92597687
REMARK minimizedRMSD -1
REMARK  0 active torsions:
REMARK  status: ('A' for Active; 'I' for Inactive)
ROOT
ATOM      1  C   UNL d   1       5.992   4.651  -5.803  0.00  0.00     0.172 C 
ATOM      2  N   UNL d   1       5.968   3.311  -5.265  0.00  0.00    -0.070 N 
ATOM      3  C1  UNL d   1       5.916   2.157  -6.000  0.00  0.00    -0.004 A 
ATOM      4  C2  UNL d   1       5.910   1.096  -5.120  0.00  0.00    -0.047 A 
ATOM      5  C3  UNL d   1       5.959   1.631  -3.811  0.00  0.00    -0.047 A 
ATOM      6  C4  UNL d   1       5.994   3.005  -3.930  0.00  0.00    -0.004 A 
ENDROOT
TORSDOF 0
ENDMDL
