MODEL 1
REMARK minimizedAffinity 3.05480409
REMARK minimizedRMSD -1
REMARK  0 active torsions:
REMARK  status: ('A' for Active; 'I' for Inactive)
ROOT
ATOM      1  C   UNL d   1       3.716   3.334  -2.654  0.00  0.00     0.172 C 
ATOM      2  N   UNL d   1       3.188   3.139  -3.984  0.00  0.00    -0.070 N 
ATOM      3  C1  UNL d   1       2.254   3.931  -4.597  0.00  0.00    -0.004 A 
ATOM      4  C2  UNL d   1       2.019   3.413  -5.852  0.00  0.00    -0.047 A 
ATOM      5  C3  UNL d   1       2.840   2.270  -5.999  0.00  0.00    -0.047 A 
ATOM      6  C4  UNL d   1       3.553   2.123  -4.828  0.00  0.00    -0.004 A 
ENDROOT
TORSDOF 0
ENDMDL
