MODEL 1
REMARK minimizedAffinity 4.56384659
REMARK minimizedRMSD -1
REMARK  0 active torsions:
REMARK  status: ('A' for Active; 'I' for Inactive)
ROOT
ATOM      1  C   UNL d   1       0.429  -3.012   0.351  0.00  0.00     0.172 C 
ATOM      2  N   UNL d   1      -0.283  -3.183   1.596  0.00  0.00    -0.070 N 
ATOM      3  C1  UNL d   1      -0.493  -4.374   2.238  0.00  0.00    -0.004 A 
ATOM      4  C2  UNL d   1      -1.209  -4.114   3.386  0.00  0.00    -0.047 A 
ATOM      5  C3  UNL d   1      -1.438  -2.718   3.435  0.00  0.00    -0.047 A 
ATOM      6  C4  UNL d   1      -0.854  -2.167   2.315  0.00  0.00    -0.004 A 
ENDROOT
TORSDOF 0
ENDMDL
