MODEL 1
REMARK minimizedAffinity 1.39195585
REMARK minimizedRMSD -1
REMARK  0 active torsions:
REMARK  status: ('A' for Active; 'I' for Inactive)
ROOT
ATOM      1  C   UNL d   1       4.924   1.961  -1.230  0.00  0.00     0.172 C 
ATOM      2  N   UNL d   1       4.102   1.696  -0.072  0.00  0.00    -0.070 N 
ATOM      3  C1  UNL d   1       4.256   0.647   0.793  0.00  0.00    -0.004 A 
ATOM      4  C2  UNL d   1       3.279   0.749   1.760  0.00  0.00    -0.047 A 
ATOM      5  C3  UNL d   1       2.510   1.900   1.464  0.00  0.00    -0.047 A 
ATOM      6  C4  UNL d   1       3.041   2.467   0.325  0.00  0.00    -0.004 A 
ENDROOT
TORSDOF 0
ENDMDL
