MODEL 1
REMARK minimizedAffinity 5.79271603
REMARK minimizedRMSD -1
REMARK  0 active torsions:
REMARK  status: ('A' for Active; 'I' for Inactive)
ROOT
ATOM      1  C   UNL d   1      -1.719  -3.244  -2.511  0.00  0.00     0.172 C 
ATOM      2  N   UNL d   1      -1.865  -3.023  -3.930  0.00  0.00    -0.070 N 
ATOM      3  C1  UNL d   1      -2.896  -3.480  -4.707  0.00  0.00    -0.004 A 
ATOM      4  C2  UNL d   1      -2.668  -3.059  -6.000  0.00  0.00    -0.047 A 
ATOM      5  C3  UNL d   1      -1.459  -2.325  -6.000  0.00  0.00    -0.047 A 
ATOM      6  C4  UNL d   1      -0.983  -2.318  -4.705  0.00  0.00    -0.004 A 
ENDROOT
TORSDOF 0
ENDMDL
