MODEL 1
REMARK minimizedAffinity 3.80969787
REMARK minimizedRMSD -1
REMARK  0 active torsions:
REMARK  status: ('A' for Active; 'I' for Inactive)
ROOT
ATOM      1  C   UNL d   1      -2.196  -2.191  -2.720  0.00  0.00     0.172 C 
ATOM      2  N   UNL d   1      -2.160  -2.762  -4.045  0.00  0.00    -0.070 N 
ATOM      3  C1  UNL d   1      -1.027  -3.060  -4.755  0.00  0.00    -0.004 A 
ATOM      4  C2  UNL d   1      -1.416  -3.586  -5.969  0.00  0.00    -0.047 A 
ATOM      5  C3  UNL d   1      -2.831  -3.603  -5.989  0.00  0.00    -0.047 A 
ATOM      6  C4  UNL d   1      -3.265  -3.087  -4.786  0.00  0.00    -0.004 A 
ENDROOT
TORSDOF 0
ENDMDL
