MODEL 1
REMARK minimizedAffinity 3.7888701
REMARK minimizedRMSD -1
REMARK  0 active torsions:
REMARK  status: ('A' for Active; 'I' for Inactive)
ROOT
ATOM      1  C   UNL d   1      -1.509  -2.614  -2.407  0.00  0.00     0.172 C 
ATOM      2  N   UNL d   1      -1.848  -2.903  -3.780  0.00  0.00    -0.070 N 
ATOM      3  C1  UNL d   1      -2.915  -3.653  -4.198  0.00  0.00    -0.004 A 
ATOM      4  C2  UNL d   1      -2.889  -3.692  -5.576  0.00  0.00    -0.047 A 
ATOM      5  C3  UNL d   1      -1.768  -2.941  -6.000  0.00  0.00    -0.047 A 
ATOM      6  C4  UNL d   1      -1.141  -2.464  -4.868  0.00  0.00    -0.004 A 
ENDROOT
TORSDOF 0
ENDMDL
