MODEL 1
REMARK minimizedAffinity 5.56161976
REMARK minimizedRMSD -1
REMARK  0 active torsions:
REMARK  status: ('A' for Active; 'I' for Inactive)
ROOT
ATOM      1  C   UNL d   1      -1.494  -2.598  -2.396  0.00  0.00     0.172 C 
ATOM      2  N   UNL d   1      -1.582  -2.881  -3.809  0.00  0.00    -0.070 N 
ATOM      3  C1  UNL d   1      -0.849  -2.272  -4.793  0.00  0.00    -0.004 A 
ATOM      4  C2  UNL d   1      -1.225  -2.820  -6.000  0.00  0.00    -0.047 A 
ATOM      5  C3  UNL d   1      -2.218  -3.792  -5.733  0.00  0.00    -0.047 A 
ATOM      6  C4  UNL d   1      -2.420  -3.809  -4.369  0.00  0.00    -0.004 A 
ENDROOT
TORSDOF 0
ENDMDL
