MODEL 1
REMARK minimizedAffinity 5.16891718
REMARK minimizedRMSD -1
REMARK  0 active torsions:
REMARK  status: ('A' for Active; 'I' for Inactive)
ROOT
ATOM      1  C   UNL d   1      -2.635  -2.982  -2.453  0.00  0.00     0.172 C 
ATOM      2  N   UNL d   1      -2.625  -2.935  -3.896  0.00  0.00    -0.070 N 
ATOM      3  C1  UNL d   1      -1.507  -2.907  -4.686  0.00  0.00    -0.004 A 
ATOM      4  C2  UNL d   1      -1.920  -2.866  -6.000  0.00  0.00    -0.047 A 
ATOM      5  C3  UNL d   1      -3.335  -2.869  -6.000  0.00  0.00    -0.047 A 
ATOM      6  C4  UNL d   1      -3.745  -2.912  -4.684  0.00  0.00    -0.004 A 
ENDROOT
TORSDOF 0
ENDMDL
