MODEL 1
REMARK minimizedAffinity 3.42066455
REMARK minimizedRMSD -1
REMARK  0 active torsions:
REMARK  status: ('A' for Active; 'I' for Inactive)
ROOT
ATOM      1  C   UNL d   1      -2.234  -2.881  -6.000  0.00  0.00     0.172 C 
ATOM      2  N   UNL d   1      -2.067  -2.715  -4.575  0.00  0.00    -0.070 N 
ATOM      3  C1  UNL d   1      -2.226  -3.695  -3.633  0.00  0.00    -0.004 A 
ATOM      4  C2  UNL d   1      -1.978  -3.138  -2.397  0.00  0.00    -0.047 A 
ATOM      5  C3  UNL d   1      -1.659  -1.775  -2.604  0.00  0.00    -0.047 A 
ATOM      6  C4  UNL d   1      -1.722  -1.540  -3.961  0.00  0.00    -0.004 A 
ENDROOT
TORSDOF 0
ENDMDL
