MODEL 1
REMARK minimizedAffinity 1.59177279
REMARK minimizedRMSD -1
REMARK  0 active torsions:
REMARK  status: ('A' for Active; 'I' for Inactive)
ROOT
ATOM      1  C   UNL d   1      -4.405  -3.695  -6.000  0.00  0.00     0.172 C 
ATOM      2  N   UNL d   1      -3.111  -3.501  -5.388  0.00  0.00    -0.070 N 
ATOM      3  C1  UNL d   1      -1.902  -3.698  -6.000  0.00  0.00    -0.004 A 
ATOM      4  C2  UNL d   1      -0.914  -3.407  -5.084  0.00  0.00    -0.047 A 
ATOM      5  C3  UNL d   1      -1.551  -3.023  -3.881  0.00  0.00    -0.047 A 
ATOM      6  C4  UNL d   1      -2.911  -3.090  -4.097  0.00  0.00    -0.004 A 
ENDROOT
TORSDOF 0
ENDMDL
