MODEL 1
REMARK minimizedAffinity -1.99517226
REMARK minimizedRMSD -1
REMARK  0 active torsions:
REMARK  status: ('A' for Active; 'I' for Inactive)
ROOT
ATOM      1  C   UNL d   1       6.000   0.001  -5.933  0.00  0.00     0.172 C 
ATOM      2  N   UNL d   1       5.073  -1.000  -5.459  0.00  0.00    -0.070 N 
ATOM      3  C1  UNL d   1       3.844  -1.271  -6.000  0.00  0.00    -0.004 A 
ATOM      4  C2  UNL d   1       3.274  -2.287  -5.265  0.00  0.00    -0.047 A 
ATOM      5  C3  UNL d   1       4.191  -2.639  -4.246  0.00  0.00    -0.047 A 
ATOM      6  C4  UNL d   1       5.296  -1.827  -4.389  0.00  0.00    -0.004 A 
ENDROOT
TORSDOF 0
ENDMDL
