MODEL 1
REMARK minimizedAffinity 0.306052178
REMARK minimizedRMSD -1
REMARK  0 active torsions:
REMARK  status: ('A' for Active; 'I' for Inactive)
ROOT
ATOM      1  C   UNL d   1      -1.232  -2.258  -2.474  0.00  0.00     0.172 C 
ATOM      2  N   UNL d   1      -1.504  -2.785  -3.790  0.00  0.00    -0.070 N 
ATOM      3  C1  UNL d   1      -2.255  -3.896  -4.067  0.00  0.00    -0.004 A 
ATOM      4  C2  UNL d   1      -2.275  -4.063  -5.435  0.00  0.00    -0.047 A 
ATOM      5  C3  UNL d   1      -1.508  -3.016  -6.000  0.00  0.00    -0.047 A 
ATOM      6  C4  UNL d   1      -1.042  -2.240  -4.960  0.00  0.00    -0.004 A 
ENDROOT
TORSDOF 0
ENDMDL
