MODEL 1
REMARK minimizedAffinity 7.99753046
REMARK minimizedRMSD -1
REMARK  0 active torsions:
REMARK  status: ('A' for Active; 'I' for Inactive)
ROOT
ATOM      1  C   UNL d   1      -4.459  -6.000   1.917  0.00  0.00     0.078 C 
ATOM      2  C1  UNL d   1      -3.256  -5.116   2.064  0.00  0.00    -0.077 A 
ATOM      3  C2  UNL d   1      -2.062  -5.608   2.604  0.00  0.00    -0.001 A 
ATOM      4  C3  UNL d   1      -0.953  -4.771   2.743  0.00  0.00     0.003 A 
ATOM      5  C4  UNL d   1      -1.028  -3.438   2.346  0.00  0.00    -0.005 A 
ATOM      6  C5  UNL d   1      -2.213  -2.939   1.810  0.00  0.00     0.003 A 
ATOM      7  C6  UNL d   1      -3.323  -3.774   1.669  0.00  0.00    -0.001 A 
ENDROOT
TORSDOF 0
ENDMDL
