MODEL 1
REMARK minimizedAffinity 10.8282948
REMARK minimizedRMSD -1
REMARK  0 active torsions:
REMARK  status: ('A' for Active; 'I' for Inactive)
ROOT
ATOM      1  C   UNL d   1      -2.974  -2.922  -1.104  0.00  0.00     0.078 C 
ATOM      2  C1  UNL d   1      -2.584  -3.901  -0.037  0.00  0.00    -0.077 A 
ATOM      3  C2  UNL d   1      -3.284  -5.102   0.130  0.00  0.00    -0.001 A 
ATOM      4  C3  UNL d   1      -2.917  -6.000   1.134  0.00  0.00     0.003 A 
ATOM      5  C4  UNL d   1      -1.849  -5.706   1.979  0.00  0.00    -0.005 A 
ATOM      6  C5  UNL d   1      -1.147  -4.512   1.822  0.00  0.00     0.003 A 
ATOM      7  C6  UNL d   1      -1.514  -3.613   0.818  0.00  0.00    -0.001 A 
ENDROOT
TORSDOF 0
ENDMDL
