MODEL 1
REMARK minimizedAffinity 14.5194483
REMARK minimizedRMSD -1
REMARK  0 active torsions:
REMARK  status: ('A' for Active; 'I' for Inactive)
ROOT
ATOM      1  C   UNL d   1      -6.000   0.047   6.000  0.00  0.00     0.078 C 
ATOM      2  C1  UNL d   1      -5.164   0.709   4.945  0.00  0.00    -0.077 A 
ATOM      3  C2  UNL d   1      -5.320   0.384   3.592  0.00  0.00    -0.001 A 
ATOM      4  C3  UNL d   1      -4.528   1.001   2.622  0.00  0.00     0.003 A 
ATOM      5  C4  UNL d   1      -3.574   1.945   2.995  0.00  0.00    -0.005 A 
ATOM      6  C5  UNL d   1      -3.410   2.273   4.339  0.00  0.00     0.003 A 
ATOM      7  C6  UNL d   1      -4.200   1.657   5.311  0.00  0.00    -0.001 A 
ENDROOT
TORSDOF 0
ENDMDL
