MODEL 1
REMARK minimizedAffinity 14.9073734
REMARK minimizedRMSD -1
REMARK  0 active torsions:
REMARK  status: ('A' for Active; 'I' for Inactive)
ROOT
ATOM      1  C   UNL d   1      -3.605  -2.989  -2.502  0.00  0.00     0.078 C 
ATOM      2  C1  UNL d   1      -2.835  -2.852  -1.222  0.00  0.00    -0.077 A 
ATOM      3  C2  UNL d   1      -1.862  -3.792  -0.862  0.00  0.00    -0.001 A 
ATOM      4  C3  UNL d   1      -1.160  -3.657   0.336  0.00  0.00     0.003 A 
ATOM      5  C4  UNL d   1      -1.424  -2.585   1.185  0.00  0.00    -0.005 A 
ATOM      6  C5  UNL d   1      -2.392  -1.645   0.837  0.00  0.00     0.003 A 
ATOM      7  C6  UNL d   1      -3.095  -1.778  -0.362  0.00  0.00    -0.001 A 
ENDROOT
TORSDOF 0
ENDMDL
