MODEL 1
REMARK minimizedAffinity 10.0792131
REMARK minimizedRMSD -1
REMARK  0 active torsions:
REMARK  status: ('A' for Active; 'I' for Inactive)
ROOT
ATOM      1  C   UNL d   1       1.194   0.745   3.603  0.00  0.00     0.078 C 
ATOM      2  C1  UNL d   1       1.766   0.893   2.225  0.00  0.00    -0.077 A 
ATOM      3  C2  UNL d   1       2.938   0.223   1.854  0.00  0.00    -0.001 A 
ATOM      4  C3  UNL d   1       3.464   0.378   0.571  0.00  0.00     0.003 A 
ATOM      5  C4  UNL d   1       2.826   1.204  -0.352  0.00  0.00    -0.005 A 
ATOM      6  C5  UNL d   1       1.660   1.877   0.008  0.00  0.00     0.003 A 
ATOM      7  C6  UNL d   1       1.133   1.723   1.291  0.00  0.00    -0.001 A 
ENDROOT
TORSDOF 0
ENDMDL
