MODEL 1
REMARK minimizedAffinity 9.97066879
REMARK minimizedRMSD -1
REMARK  0 active torsions:
REMARK  status: ('A' for Active; 'I' for Inactive)
ROOT
ATOM      1  C   UNL d   1      -4.173  -6.000   0.712  0.00  0.00     0.078 C 
ATOM      2  C1  UNL d   1      -3.046  -5.291   1.402  0.00  0.00    -0.077 A 
ATOM      3  C2  UNL d   1      -2.820  -3.924   1.195  0.00  0.00    -0.001 A 
ATOM      4  C3  UNL d   1      -1.761  -3.279   1.836  0.00  0.00     0.003 A 
ATOM      5  C4  UNL d   1      -0.919  -3.993   2.687  0.00  0.00    -0.005 A 
ATOM      6  C5  UNL d   1      -1.135  -5.353   2.897  0.00  0.00     0.003 A 
ATOM      7  C6  UNL d   1      -2.193  -6.000   2.257  0.00  0.00    -0.001 A 
ENDROOT
TORSDOF 0
ENDMDL
