MODEL 1
REMARK minimizedAffinity 6.08028173
REMARK minimizedRMSD -1
REMARK  0 active torsions:
REMARK  status: ('A' for Active; 'I' for Inactive)
ROOT
ATOM      1  C   UNL d   1       1.119  -0.063   2.885  0.00  0.00     0.078 C 
ATOM      2  C1  UNL d   1       1.755   0.441   1.624  0.00  0.00    -0.077 A 
ATOM      3  C2  UNL d   1       1.451   1.711   1.120  0.00  0.00    -0.001 A 
ATOM      4  C3  UNL d   1       2.043   2.163  -0.060  0.00  0.00     0.003 A 
ATOM      5  C4  UNL d   1       2.942   1.351  -0.748  0.00  0.00    -0.005 A 
ATOM      6  C5  UNL d   1       3.250   0.084  -0.256  0.00  0.00     0.003 A 
ATOM      7  C6  UNL d   1       2.658  -0.370   0.924  0.00  0.00    -0.001 A 
ENDROOT
TORSDOF 0
ENDMDL
