MODEL 1
REMARK minimizedAffinity 15.6895494
REMARK minimizedRMSD -1
REMARK  0 active torsions:
REMARK  status: ('A' for Active; 'I' for Inactive)
ROOT
ATOM      1  C   UNL d   1       3.607   1.787  -3.341  0.00  0.00     0.078 C 
ATOM      2  C1  UNL d   1       2.891   1.216  -2.153  0.00  0.00    -0.077 A 
ATOM      3  C2  UNL d   1       1.909   1.954  -1.480  0.00  0.00    -0.001 A 
ATOM      4  C3  UNL d   1       1.258   1.413  -0.370  0.00  0.00     0.003 A 
ATOM      5  C4  UNL d   1       1.581   0.134   0.077  0.00  0.00    -0.005 A 
ATOM      6  C5  UNL d   1       2.558  -0.607  -0.586  0.00  0.00     0.003 A 
ATOM      7  C6  UNL d   1       3.210  -0.068  -1.696  0.00  0.00    -0.001 A 
ENDROOT
TORSDOF 0
ENDMDL
