MODEL 1
REMARK minimizedAffinity 4.07461119
REMARK minimizedRMSD -1
REMARK  0 active torsions:
REMARK  status: ('A' for Active; 'I' for Inactive)
ROOT
ATOM      1  C   UNL d   1       3.431   1.393  -2.603  0.00  0.00     0.078 C 
ATOM      2  C1  UNL d   1       2.923   1.210  -1.205  0.00  0.00    -0.077 A 
ATOM      3  C2  UNL d   1       3.408   0.180  -0.390  0.00  0.00    -0.001 A 
ATOM      4  C3  UNL d   1       2.918   0.016   0.907  0.00  0.00     0.003 A 
ATOM      5  C4  UNL d   1       1.940   0.878   1.400  0.00  0.00    -0.005 A 
ATOM      6  C5  UNL d   1       1.450   1.905   0.596  0.00  0.00     0.003 A 
ATOM      7  C6  UNL d   1       1.939   2.070  -0.701  0.00  0.00    -0.001 A 
ENDROOT
TORSDOF 0
ENDMDL
