MODEL 1
REMARK minimizedAffinity 7.09806967
REMARK minimizedRMSD -1
REMARK  0 active torsions:
REMARK  status: ('A' for Active; 'I' for Inactive)
ROOT
ATOM      1  C   UNL d   1      -2.973  -3.014  -2.346  0.00  0.00     0.078 C 
ATOM      2  C1  UNL d   1      -2.485  -2.696  -0.964  0.00  0.00    -0.077 A 
ATOM      3  C2  UNL d   1      -1.117  -2.688  -0.667  0.00  0.00    -0.001 A 
ATOM      4  C3  UNL d   1      -0.677  -2.400   0.626  0.00  0.00     0.003 A 
ATOM      5  C4  UNL d   1      -1.599  -2.120   1.633  0.00  0.00    -0.005 A 
ATOM      6  C5  UNL d   1      -2.963  -2.128   1.347  0.00  0.00     0.003 A 
ATOM      7  C6  UNL d   1      -3.404  -2.416   0.054  0.00  0.00    -0.001 A 
ENDROOT
TORSDOF 0
ENDMDL
