MODEL 1
REMARK minimizedAffinity 4.86179161
REMARK minimizedRMSD -1
REMARK  0 active torsions:
REMARK  status: ('A' for Active; 'I' for Inactive)
ROOT
ATOM      1  C   UNL d   1      -3.030   2.929   4.401  0.00  0.00     0.078 C 
ATOM      2  C1  UNL d   1      -4.056   4.000   4.620  0.00  0.00    -0.077 A 
ATOM      3  C2  UNL d   1      -4.081   4.744   5.806  0.00  0.00    -0.001 A 
ATOM      4  C3  UNL d   1      -5.048   5.732   6.000  0.00  0.00     0.003 A 
ATOM      5  C4  UNL d   1      -5.998   5.984   5.012  0.00  0.00    -0.005 A 
ATOM      6  C5  UNL d   1      -5.983   5.247   3.830  0.00  0.00     0.003 A 
ATOM      7  C6  UNL d   1      -5.017   4.259   3.634  0.00  0.00    -0.001 A 
ENDROOT
TORSDOF 0
ENDMDL
