MODEL 1
REMARK minimizedAffinity 9.64610195
REMARK minimizedRMSD -1
REMARK  0 active torsions:
REMARK  status: ('A' for Active; 'I' for Inactive)
ROOT
ATOM      1  C   UNL d   1       1.075   1.155   0.954  0.00  0.00     0.078 C 
ATOM      2  C1  UNL d   1       2.209   0.930  -0.002  0.00  0.00    -0.077 A 
ATOM      3  C2  UNL d   1       3.191  -0.033   0.258  0.00  0.00    -0.001 A 
ATOM      4  C3  UNL d   1       4.246  -0.224  -0.636  0.00  0.00     0.003 A 
ATOM      5  C4  UNL d   1       4.330   0.545  -1.795  0.00  0.00    -0.005 A 
ATOM      6  C5  UNL d   1       3.358   1.508  -2.061  0.00  0.00     0.003 A 
ATOM      7  C6  UNL d   1       2.302   1.700  -1.168  0.00  0.00    -0.001 A 
ENDROOT
TORSDOF 0
ENDMDL
