MODEL 1
REMARK minimizedAffinity 12.4249163
REMARK minimizedRMSD -1
REMARK  0 active torsions:
REMARK  status: ('A' for Active; 'I' for Inactive)
ROOT
ATOM      1  C   UNL d   1      -3.931   2.071   3.357  0.00  0.00     0.078 C 
ATOM      2  C1  UNL d   1      -4.327   3.215   4.243  0.00  0.00    -0.077 A 
ATOM      3  C2  UNL d   1      -3.428   3.750   5.174  0.00  0.00    -0.001 A 
ATOM      4  C3  UNL d   1      -3.814   4.808   5.999  0.00  0.00     0.003 A 
ATOM      5  C4  UNL d   1      -5.098   5.339   5.902  0.00  0.00    -0.005 A 
ATOM      6  C5  UNL d   1      -6.000   4.812   4.980  0.00  0.00     0.003 A 
ATOM      7  C6  UNL d   1      -5.616   3.754   4.154  0.00  0.00    -0.001 A 
ENDROOT
TORSDOF 0
ENDMDL
