MODEL 1
REMARK minimizedAffinity -1.22211909
REMARK minimizedRMSD -1
REMARK  0 active torsions:
REMARK  status: ('A' for Active; 'I' for Inactive)
ROOT
ATOM      1  O1  BZF d   1       1.387   1.555  -0.633  0.00  0.00    -0.204 OA
ATOM      2  C2  BZF d   1       2.740   1.368  -0.426  0.00  0.00     0.174 A 
ATOM      3  C3  BZF d   1       3.013   1.272   0.891  0.00  0.00    -0.012 A 
ATOM      4  C3A BZF d   1       1.741   1.317   1.544  0.00  0.00    -0.107 A 
ATOM      5  C4  BZF d   1       1.354   1.250   2.852  0.00  0.00     0.055 A 
ATOM      6  C5  BZF d   1       0.039   1.397   3.160  0.00  0.00    -0.016 A 
ATOM      7  C6  BZF d   1      -0.914   1.617   2.188  0.00  0.00     0.022 A 
ATOM      8  C7  BZF d   1      -0.579   1.686   0.876  0.00  0.00     0.029 A 
ATOM      9  C7A BZF d   1       0.744   1.505   0.559  0.00  0.00     0.058 A 
ENDROOT
TORSDOF 0
ENDMDL
