MODEL 1
REMARK minimizedAffinity 3.50764704
REMARK minimizedRMSD -1
REMARK  0 active torsions:
REMARK  status: ('A' for Active; 'I' for Inactive)
ROOT
ATOM      1  O1  BZF d   1       0.834   1.312   1.218  0.00  0.00    -0.204 OA
ATOM      2  C2  BZF d   1       0.468   1.692   2.495  0.00  0.00     0.174 A 
ATOM      3  C3  BZF d   1       1.430   2.448   3.063  0.00  0.00    -0.012 A 
ATOM      4  C3A BZF d   1       2.421   2.623   2.046  0.00  0.00    -0.107 A 
ATOM      5  C4  BZF d   1       3.610   3.293   2.000  0.00  0.00     0.055 A 
ATOM      6  C5  BZF d   1       4.374   3.206   0.879  0.00  0.00    -0.016 A 
ATOM      7  C6  BZF d   1       3.982   2.454  -0.209  0.00  0.00     0.022 A 
ATOM      8  C7  BZF d   1       2.809   1.776  -0.212  0.00  0.00     0.029 A 
ATOM      9  C7A BZF d   1       2.019   1.889   0.906  0.00  0.00     0.058 A 
ENDROOT
TORSDOF 0
ENDMDL
