MODEL 1
REMARK minimizedAffinity 2.61252975
REMARK minimizedRMSD -1
REMARK  0 active torsions:
REMARK  status: ('A' for Active; 'I' for Inactive)
ROOT
ATOM      1  O1  BZF d   1       2.887   2.285  -0.481  0.00  0.00    -0.204 OA
ATOM      2  C2  BZF d   1       4.245   2.094  -0.646  0.00  0.00     0.174 A 
ATOM      3  C3  BZF d   1       4.538   0.780  -0.723  0.00  0.00    -0.012 A 
ATOM      4  C3A BZF d   1       3.274   0.111  -0.690  0.00  0.00    -0.107 A 
ATOM      5  C4  BZF d   1       2.905  -1.203  -0.748  0.00  0.00     0.055 A 
ATOM      6  C5  BZF d   1       1.592  -1.527  -0.616  0.00  0.00    -0.016 A 
ATOM      7  C6  BZF d   1       0.623  -0.565  -0.421  0.00  0.00     0.022 A 
ATOM      8  C7  BZF d   1       0.939   0.751  -0.362  0.00  0.00     0.029 A 
ATOM      9  C7A BZF d   1       2.261   1.085  -0.528  0.00  0.00     0.058 A 
ENDROOT
TORSDOF 0
ENDMDL
