MODEL 1
REMARK minimizedAffinity 3.37986469
REMARK minimizedRMSD -1
REMARK  0 active torsions:
REMARK  status: ('A' for Active; 'I' for Inactive)
ROOT
ATOM      1  O1  BZF d   1       2.352  -1.864  -1.144  0.00  0.00    -0.204 OA
ATOM      2  C2  BZF d   1       1.073  -2.217  -0.759  0.00  0.00     0.174 A 
ATOM      3  C3  BZF d   1       0.439  -1.172  -0.189  0.00  0.00    -0.012 A 
ATOM      4  C3A BZF d   1       1.348  -0.072  -0.304  0.00  0.00    -0.107 A 
ATOM      5  C4  BZF d   1       1.284   1.241   0.063  0.00  0.00     0.055 A 
ATOM      6  C5  BZF d   1       2.372   2.034  -0.125  0.00  0.00    -0.016 A 
ATOM      7  C6  BZF d   1       3.540   1.545  -0.673  0.00  0.00     0.022 A 
ATOM      8  C7  BZF d   1       3.649   0.250  -1.058  0.00  0.00     0.029 A 
ATOM      9  C7A BZF d   1       2.541  -0.545  -0.899  0.00  0.00     0.058 A 
ENDROOT
TORSDOF 0
ENDMDL
