MODEL 1
REMARK minimizedAffinity -5.47138691
REMARK minimizedRMSD -1
REMARK  0 active torsions:
REMARK  status: ('A' for Active; 'I' for Inactive)
ROOT
ATOM      1  O1  BZF d   1       3.425   2.257   0.343  0.00  0.00    -0.204 OA
ATOM      2  C2  BZF d   1       4.778   2.064   0.140  0.00  0.00     0.174 A 
ATOM      3  C3  BZF d   1       5.045   0.764  -0.100  0.00  0.00    -0.012 A 
ATOM      4  C3A BZF d   1       3.769   0.118  -0.135  0.00  0.00    -0.107 A 
ATOM      5  C4  BZF d   1       3.375  -1.172  -0.349  0.00  0.00     0.055 A 
ATOM      6  C5  BZF d   1       2.057  -1.487  -0.243  0.00  0.00    -0.016 A 
ATOM      7  C6  BZF d   1       1.108  -0.539   0.079  0.00  0.00     0.022 A 
ATOM      8  C7  BZF d   1       1.450   0.755   0.295  0.00  0.00     0.029 A 
ATOM      9  C7A BZF d   1       2.777   1.082   0.157  0.00  0.00     0.058 A 
ENDROOT
TORSDOF 0
ENDMDL
