MODEL 1
REMARK minimizedAffinity 1.81317532
REMARK minimizedRMSD -1
REMARK  1 active torsions:
REMARK  status: ('A' for Active; 'I' for Inactive)
REMARK    1  A    between atoms: C1_2  and  C2_3 
ROOT
ATOM      1  C2  UNL d   1       1.929   0.894   1.522  0.00  0.00    -0.081 A 
ATOM      2  C3  UNL d   1       0.748   1.634   1.381  0.00  0.00     0.006 A 
ATOM      3  C4  UNL d   1       0.741   2.826   0.654  0.00  0.00     0.002 A 
ATOM      4  C5  UNL d   1       1.912   3.295   0.048  0.00  0.00    -0.080 A 
ATOM      5  C6  UNL d   1       1.912   4.557  -0.761  0.00  0.00     0.076 C 
ATOM      6  C7  UNL d   1       3.096   2.565   0.203  0.00  0.00     0.002 A 
ATOM      7  C8  UNL d   1       3.104   1.373   0.931  0.00  0.00     0.006 A 
ENDROOT
BRANCH   1   8
ATOM      8  C1  UNL d   1       1.925  -0.425   2.251  0.00  0.00     0.054 C 
ATOM      9  C   UNL d   1       0.838  -1.348   1.720  0.00  0.00     0.018 C 
ENDBRANCH   1   8
TORSDOF 1
ENDMDL
