MODEL 1
REMARK minimizedAffinity 2.97186208
REMARK minimizedRMSD -1
REMARK  1 active torsions:
REMARK  status: ('A' for Active; 'I' for Inactive)
REMARK    1  A    between atoms: C1_2  and  C2_3 
ROOT
ATOM      1  C2  UNL d   1       4.622  -2.112   3.965  0.00  0.00    -0.081 A 
ATOM      2  C3  UNL d   1       3.369  -2.457   4.488  0.00  0.00     0.006 A 
ATOM      3  C4  UNL d   1       2.204  -1.891   3.966  0.00  0.00     0.002 A 
ATOM      4  C5  UNL d   1       2.270  -0.976   2.910  0.00  0.00    -0.080 A 
ATOM      5  C6  UNL d   1       1.025  -0.384   2.321  0.00  0.00     0.076 C 
ATOM      6  C7  UNL d   1       3.523  -0.618   2.399  0.00  0.00     0.002 A 
ATOM      7  C8  UNL d   1       4.688  -1.184   2.920  0.00  0.00     0.006 A 
ENDROOT
BRANCH   1   8
ATOM      8  C1  UNL d   1       5.876  -2.770   4.482  0.00  0.00     0.054 C 
ATOM      9  C   UNL d   1       5.848  -2.899   5.998  0.00  0.00     0.018 C 
ENDBRANCH   1   8
TORSDOF 1
ENDMDL
