MODEL 1
REMARK minimizedAffinity -4.61205626
REMARK minimizedRMSD -1
REMARK  1 active torsions:
REMARK  status: ('A' for Active; 'I' for Inactive)
REMARK    1  A    between atoms: C1_2  and  C2_3 
ROOT
ATOM      1  C2  UNL d   1       0.236  -0.909  -0.645  0.00  0.00    -0.073 A 
ATOM      2  C3  UNL d   1       0.974   0.096  -0.008  0.00  0.00    -0.002 A 
ATOM      3  C4  UNL d   1       0.538   1.421  -0.045  0.00  0.00     0.004 A 
ATOM      4  C5  UNL d   1      -0.642   1.754  -0.711  0.00  0.00    -0.004 A 
ATOM      5  C6  UNL d   1      -1.399   0.762  -1.343  0.00  0.00    -0.075 A 
ATOM      6  C7  UNL d   1      -2.669   1.104  -2.065  0.00  0.00     0.076 C 
ATOM      7  C8  UNL d   1      -0.953  -0.566  -1.304  0.00  0.00     0.001 A 
ENDROOT
BRANCH   1   8
ATOM      8  C1  UNL d   1       0.699  -2.342  -0.602  0.00  0.00     0.053 C 
ATOM      9  C   UNL d   1       1.545  -2.632   0.628  0.00  0.00     0.018 C 
ENDBRANCH   1   8
TORSDOF 1
ENDMDL
