MODEL 1
REMARK minimizedAffinity -4.42604446
REMARK minimizedRMSD -1
REMARK  1 active torsions:
REMARK  status: ('A' for Active; 'I' for Inactive)
REMARK    1  A    between atoms: C1_2  and  C2_3 
ROOT
ATOM      1  C2  UNL d   1      -0.094   0.812  -0.254  0.00  0.00    -0.073 A 
ATOM      2  C3  UNL d   1       1.061   1.540  -0.561  0.00  0.00    -0.002 A 
ATOM      3  C4  UNL d   1       2.323   0.981  -0.349  0.00  0.00     0.004 A 
ATOM      4  C5  UNL d   1       2.441  -0.310   0.164  0.00  0.00    -0.004 A 
ATOM      5  C6  UNL d   1       1.298  -1.058   0.465  0.00  0.00    -0.075 A 
ATOM      6  C7  UNL d   1       1.409  -2.448   1.019  0.00  0.00     0.076 C 
ATOM      7  C8  UNL d   1       0.035  -0.489   0.252  0.00  0.00     0.001 A 
ENDROOT
BRANCH   1   8
ATOM      8  C1  UNL d   1      -1.458   1.408  -0.487  0.00  0.00     0.053 C 
ATOM      9  C   UNL d   1      -1.438   2.471  -1.575  0.00  0.00     0.018 C 
ENDBRANCH   1   8
TORSDOF 1
ENDMDL
