MODEL 1
REMARK minimizedAffinity 1.6755954
REMARK minimizedRMSD -1
REMARK  1 active torsions:
REMARK  status: ('A' for Active; 'I' for Inactive)
REMARK    1  A    between atoms: C1_2  and  C2_3 
ROOT
ATOM      1  C2  UNL d   1      -0.360  -1.416   0.832  0.00  0.00    -0.073 A 
ATOM      2  C3  UNL d   1       0.360  -2.616   0.824  0.00  0.00    -0.002 A 
ATOM      3  C4  UNL d   1       1.690  -2.637   0.400  0.00  0.00     0.004 A 
ATOM      4  C5  UNL d   1       2.314  -1.460  -0.012  0.00  0.00    -0.004 A 
ATOM      5  C6  UNL d   1       1.614  -0.249  -0.001  0.00  0.00    -0.075 A 
ATOM      6  C7  UNL d   1       2.270   1.025  -0.444  0.00  0.00     0.076 C 
ATOM      7  C8  UNL d   1       0.278  -0.237   0.424  0.00  0.00     0.001 A 
ENDROOT
BRANCH   1   8
ATOM      8  C1  UNL d   1      -1.794  -1.387   1.295  0.00  0.00     0.053 C 
ATOM      9  C   UNL d   1      -1.986  -0.478   2.498  0.00  0.00     0.018 C 
ENDBRANCH   1   8
TORSDOF 1
ENDMDL
