MODEL 1
REMARK minimizedAffinity -3.85909653
REMARK minimizedRMSD -1
REMARK  1 active torsions:
REMARK  status: ('A' for Active; 'I' for Inactive)
REMARK    1  A    between atoms: C1_2  and  C2_3 
ROOT
ATOM      1  C2  UNL d   1       0.595  -0.366  -0.472  0.00  0.00    -0.073 A 
ATOM      2  C3  UNL d   1       0.049  -1.653  -0.545  0.00  0.00    -0.002 A 
ATOM      3  C4  UNL d   1       0.594  -2.693   0.208  0.00  0.00     0.004 A 
ATOM      4  C5  UNL d   1       1.683  -2.457   1.047  0.00  0.00    -0.004 A 
ATOM      5  C6  UNL d   1       2.235  -1.176   1.143  0.00  0.00    -0.075 A 
ATOM      6  C7  UNL d   1       3.408  -0.906   2.038  0.00  0.00     0.076 C 
ATOM      7  C8  UNL d   1       1.684  -0.136   0.381  0.00  0.00     0.001 A 
ENDROOT
BRANCH   1   8
ATOM      8  C1  UNL d   1       0.006   0.762  -1.279  0.00  0.00     0.053 C 
ATOM      9  C   UNL d   1      -1.211   1.372  -0.602  0.00  0.00     0.018 C 
ENDBRANCH   1   8
TORSDOF 1
ENDMDL
