MODEL 1
REMARK minimizedAffinity -2.68965411
REMARK minimizedRMSD -1
REMARK  1 active torsions:
REMARK  status: ('A' for Active; 'I' for Inactive)
REMARK    1  A    between atoms: C1_2  and  C2_3 
ROOT
ATOM      1  C2  UNL d   1       0.670  -1.054   0.502  0.00  0.00    -0.073 A 
ATOM      2  C3  UNL d   1      -0.183  -1.163   1.606  0.00  0.00    -0.002 A 
ATOM      3  C4  UNL d   1      -1.296  -0.329   1.723  0.00  0.00     0.004 A 
ATOM      4  C5  UNL d   1      -1.571   0.617   0.735  0.00  0.00    -0.004 A 
ATOM      5  C6  UNL d   1      -0.737   0.733  -0.382  0.00  0.00    -0.075 A 
ATOM      6  C7  UNL d   1      -1.018   1.746  -1.453  0.00  0.00     0.076 C 
ATOM      7  C8  UNL d   1       0.380  -0.106  -0.490  0.00  0.00     0.001 A 
ENDROOT
BRANCH   1   8
ATOM      8  C1  UNL d   1       1.869  -1.956   0.369  0.00  0.00     0.053 C 
ATOM      9  C   UNL d   1       1.891  -3.037   1.439  0.00  0.00     0.018 C 
ENDBRANCH   1   8
TORSDOF 1
ENDMDL
