MODEL 1
REMARK minimizedAffinity -3.22871447
REMARK minimizedRMSD -1
REMARK  1 active torsions:
REMARK  status: ('A' for Active; 'I' for Inactive)
REMARK    1  A    between atoms: C1_2  and  C2_3 
ROOT
ATOM      1  C2  UNL d   1       1.276  -1.045   0.111  0.00  0.00    -0.073 A 
ATOM      2  C3  UNL d   1       1.141  -1.273  -1.263  0.00  0.00    -0.002 A 
ATOM      3  C4  UNL d   1       0.202  -0.557  -2.007  0.00  0.00     0.004 A 
ATOM      4  C5  UNL d   1      -0.605   0.397  -1.388  0.00  0.00    -0.004 A 
ATOM      5  C6  UNL d   1      -0.477   0.647  -0.018  0.00  0.00    -0.075 A 
ATOM      6  C7  UNL d   1      -1.339   1.669   0.664  0.00  0.00     0.076 C 
ATOM      7  C8  UNL d   1       0.467  -0.077   0.723  0.00  0.00     0.001 A 
ENDROOT
BRANCH   1   8
ATOM      8  C1  UNL d   1       2.292  -1.811   0.917  0.00  0.00     0.053 C 
ATOM      9  C   UNL d   1       3.159  -0.892   1.764  0.00  0.00     0.018 C 
ENDBRANCH   1   8
TORSDOF 1
ENDMDL
