MODEL 1
REMARK minimizedAffinity -3.78025889
REMARK minimizedRMSD -1
REMARK  1 active torsions:
REMARK  status: ('A' for Active; 'I' for Inactive)
REMARK    1  A    between atoms: C1_2  and  C2_3 
ROOT
ATOM      1  C2  UNL d   1      -0.073  -0.034  -0.055  0.00  0.00    -0.073 A 
ATOM      2  C3  UNL d   1       1.121   0.395  -0.646  0.00  0.00    -0.002 A 
ATOM      3  C4  UNL d   1       2.280  -0.373  -0.530  0.00  0.00     0.004 A 
ATOM      4  C5  UNL d   1       2.257  -1.579   0.170  0.00  0.00    -0.004 A 
ATOM      5  C6  UNL d   1       1.070  -2.030   0.757  0.00  0.00    -0.075 A 
ATOM      6  C7  UNL d   1       1.028  -3.324   1.516  0.00  0.00     0.076 C 
ATOM      7  C8  UNL d   1      -0.089  -1.252   0.639  0.00  0.00     0.001 A 
ENDROOT
BRANCH   1   8
ATOM      8  C1  UNL d   1      -1.329   0.789  -0.183  0.00  0.00     0.053 C 
ATOM      9  C   UNL d   1      -1.319   1.654  -1.433  0.00  0.00     0.018 C 
ENDBRANCH   1   8
TORSDOF 1
ENDMDL
