MODEL 1
REMARK minimizedAffinity -5.37376881
REMARK minimizedRMSD -1
REMARK  1 active torsions:
REMARK  status: ('A' for Active; 'I' for Inactive)
REMARK    1  A    between atoms: C1_2  and  C2_3 
ROOT
ATOM      1  C2  UNL d   1      -1.513   1.028  -2.718  0.00  0.00    -0.073 A 
ATOM      2  C3  UNL d   1      -2.269  -0.097  -2.369  0.00  0.00    -0.002 A 
ATOM      3  C4  UNL d   1      -1.770  -1.026  -1.454  0.00  0.00     0.004 A 
ATOM      4  C5  UNL d   1      -0.515  -0.836  -0.875  0.00  0.00    -0.004 A 
ATOM      5  C6  UNL d   1       0.250   0.288  -1.203  0.00  0.00    -0.075 A 
ATOM      6  C7  UNL d   1       1.603   0.506  -0.590  0.00  0.00     0.076 C 
ATOM      7  C8  UNL d   1      -0.257   1.215  -2.124  0.00  0.00     0.001 A 
ENDROOT
BRANCH   1   8
ATOM      8  C1  UNL d   1      -2.051   2.037  -3.700  0.00  0.00     0.053 C 
ATOM      9  C   UNL d   1      -1.989   3.454  -3.152  0.00  0.00     0.018 C 
ENDBRANCH   1   8
TORSDOF 1
ENDMDL
