MODEL 1
REMARK minimizedAffinity 20.6046143
REMARK minimizedRMSD -1
REMARK  0 active torsions:
REMARK  status: ('A' for Active; 'I' for Inactive)
ROOT
ATOM      1  C   UNL d   1       0.827   2.870   2.067  0.00  0.00     0.124 A 
ATOM      2  C1  UNL d   1      -0.212   2.064   1.623  0.00  0.00     0.062 A 
ATOM      3  C2  UNL d   1      -0.673   2.173   0.314  0.00  0.00     0.162 A 
ATOM      4  C3  UNL d   1      -0.094   3.092  -0.561  0.00  0.00    -0.034 A 
ATOM      5  C4  UNL d   1       0.950   3.900  -0.107  0.00  0.00     0.162 A 
ATOM      6  C5  UNL d   1       1.407   3.787   1.202  0.00  0.00     0.062 A 
ATOM      7  F   UNL d   1       2.411   4.567   1.630  0.00  0.00    -0.097 F 
ATOM      8  F1  UNL d   1       1.530   4.794  -0.922  0.00  0.00    -0.096 F 
ATOM      9  I   UNL d   1      -0.779   3.259  -2.519  0.00  0.00    -0.060 I 
ATOM     10  F2  UNL d   1      -1.678   1.382  -0.088  0.00  0.00    -0.096 F 
ATOM     11  F3  UNL d   1      -0.775   1.178   2.457  0.00  0.00    -0.097 F 
ATOM     12  F4  UNL d   1       1.267   2.763   3.327  0.00  0.00    -0.092 F 
ENDROOT
TORSDOF 0
ENDMDL
