MODEL 1
REMARK minimizedAffinity 19.8710976
REMARK minimizedRMSD -1
REMARK  0 active torsions:
REMARK  status: ('A' for Active; 'I' for Inactive)
ROOT
ATOM      1  C   UNL d   1       1.028   2.731   1.796  0.00  0.00     0.124 A 
ATOM      2  C1  UNL d   1       0.012   1.902   1.342  0.00  0.00     0.062 A 
ATOM      3  C2  UNL d   1      -0.506   2.066   0.061  0.00  0.00     0.162 A 
ATOM      4  C3  UNL d   1      -0.008   3.064  -0.777  0.00  0.00    -0.034 A 
ATOM      5  C4  UNL d   1       1.013   3.895  -0.313  0.00  0.00     0.162 A 
ATOM      6  C5  UNL d   1       1.528   3.726   0.969  0.00  0.00     0.062 A 
ATOM      7  F   UNL d   1       2.509   4.529   1.405  0.00  0.00    -0.097 F 
ATOM      8  F1  UNL d   1       1.516   4.864  -1.092  0.00  0.00    -0.096 F 
ATOM      9  I   UNL d   1      -0.780   3.313  -2.694  0.00  0.00    -0.060 I 
ATOM     10  F2  UNL d   1      -1.488   1.250  -0.351  0.00  0.00    -0.096 F 
ATOM     11  F3  UNL d   1      -0.473   0.940   2.140  0.00  0.00    -0.097 F 
ATOM     12  F4  UNL d   1       1.524   2.571   3.030  0.00  0.00    -0.092 F 
ENDROOT
TORSDOF 0
ENDMDL
