MODEL 1
REMARK minimizedAffinity 37.8197937
REMARK minimizedRMSD -1
REMARK  0 active torsions:
REMARK  status: ('A' for Active; 'I' for Inactive)
ROOT
ATOM      1  C   UNL d   1      -4.412   5.621   0.446  0.00  0.00     0.124 A 
ATOM      2  C1  UNL d   1      -3.091   5.630   0.874  0.00  0.00     0.062 A 
ATOM      3  C2  UNL d   1      -2.072   5.255   0.004  0.00  0.00     0.162 A 
ATOM      4  C3  UNL d   1      -2.368   4.869  -1.304  0.00  0.00    -0.034 A 
ATOM      5  C4  UNL d   1      -3.699   4.861  -1.726  0.00  0.00     0.162 A 
ATOM      6  C5  UNL d   1      -4.714   5.237  -0.852  0.00  0.00     0.062 A 
ATOM      7  F   UNL d   1      -5.990   5.227  -1.267  0.00  0.00    -0.097 F 
ATOM      8  F1  UNL d   1      -4.019   4.495  -2.976  0.00  0.00    -0.096 F 
ATOM      9  I   UNL d   1      -0.846   4.308  -2.608  0.00  0.00    -0.060 I 
ATOM     10  F2  UNL d   1      -0.805   5.274   0.443  0.00  0.00    -0.096 F 
ATOM     11  F3  UNL d   1      -2.797   6.000   2.128  0.00  0.00    -0.097 F 
ATOM     12  F4  UNL d   1      -5.391   5.981   1.286  0.00  0.00    -0.092 F 
ENDROOT
TORSDOF 0
ENDMDL
