MODEL 1
REMARK minimizedAffinity 1.47273993
REMARK minimizedRMSD -1
REMARK  0 active torsions:
REMARK  status: ('A' for Active; 'I' for Inactive)
ROOT
ATOM      1  C   UNL d   1      -0.979   2.075   2.873  0.00  0.00     0.124 A 
ATOM      2  C1  UNL d   1       0.228   2.760   2.877  0.00  0.00     0.062 A 
ATOM      3  C2  UNL d   1       0.756   3.254   1.688  0.00  0.00     0.162 A 
ATOM      4  C3  UNL d   1       0.077   3.064   0.484  0.00  0.00    -0.034 A 
ATOM      5  C4  UNL d   1      -1.135   2.373   0.488  0.00  0.00     0.162 A 
ATOM      6  C5  UNL d   1      -1.659   1.881   1.679  0.00  0.00     0.062 A 
ATOM      7  F   UNL d   1      -2.825   1.219   1.674  0.00  0.00    -0.097 F 
ATOM      8  F1  UNL d   1      -1.814   2.173  -0.652  0.00  0.00    -0.096 F 
ATOM      9  I   UNL d   1       0.864   3.801  -1.297  0.00  0.00    -0.060 I 
ATOM     10  F2  UNL d   1       1.924   3.913   1.721  0.00  0.00    -0.096 F 
ATOM     11  F3  UNL d   1       0.887   2.947   4.029  0.00  0.00    -0.097 F 
ATOM     12  F4  UNL d   1      -1.485   1.600   4.019  0.00  0.00    -0.092 F 
ENDROOT
TORSDOF 0
ENDMDL
