MODEL 1
REMARK minimizedAffinity 18.229702
REMARK minimizedRMSD -1
REMARK  0 active torsions:
REMARK  status: ('A' for Active; 'I' for Inactive)
ROOT
ATOM      1  C   UNL d   1      -4.978  -3.689   2.301  0.00  0.00     0.124 A 
ATOM      2  C1  UNL d   1      -4.456  -2.513   2.821  0.00  0.00     0.062 A 
ATOM      3  C2  UNL d   1      -4.450  -1.351   2.056  0.00  0.00     0.162 A 
ATOM      4  C3  UNL d   1      -4.970  -1.358   0.761  0.00  0.00    -0.034 A 
ATOM      5  C4  UNL d   1      -5.492  -2.545   0.244  0.00  0.00     0.162 A 
ATOM      6  C5  UNL d   1      -5.495  -3.704   1.013  0.00  0.00     0.062 A 
ATOM      7  F   UNL d   1      -6.000  -4.840   0.509  0.00  0.00    -0.097 F 
ATOM      8  F1  UNL d   1      -6.000  -2.588  -0.997  0.00  0.00    -0.096 F 
ATOM      9  I   UNL d   1      -4.964   0.378  -0.387  0.00  0.00    -0.060 I 
ATOM     10  F2  UNL d   1      -3.940  -0.229   2.584  0.00  0.00    -0.096 F 
ATOM     11  F3  UNL d   1      -3.954  -2.496   4.064  0.00  0.00    -0.097 F 
ATOM     12  F4  UNL d   1      -4.980  -4.807   3.039  0.00  0.00    -0.092 F 
ENDROOT
TORSDOF 0
ENDMDL
