MODEL 1
REMARK minimizedAffinity 19.7795067
REMARK minimizedRMSD -1
REMARK  0 active torsions:
REMARK  status: ('A' for Active; 'I' for Inactive)
ROOT
ATOM      1  C   UNL d   1       0.981   3.660   0.408  0.00  0.00     0.124 A 
ATOM      2  C1  UNL d   1       0.134   2.562   0.470  0.00  0.00     0.062 A 
ATOM      3  C2  UNL d   1      -0.705   2.264  -0.600  0.00  0.00     0.162 A 
ATOM      4  C3  UNL d   1      -0.701   3.065  -1.742  0.00  0.00    -0.034 A 
ATOM      5  C4  UNL d   1       0.154   4.168  -1.797  0.00  0.00     0.162 A 
ATOM      6  C5  UNL d   1       0.990   4.461  -0.725  0.00  0.00     0.062 A 
ATOM      7  F   UNL d   1       1.808   5.522  -0.786  0.00  0.00    -0.097 F 
ATOM      8  F1  UNL d   1       0.183   4.959  -2.879  0.00  0.00    -0.096 F 
ATOM      9  I   UNL d   1      -1.954   2.623  -3.344  0.00  0.00    -0.060 I 
ATOM     10  F2  UNL d   1      -1.514   1.197  -0.513  0.00  0.00    -0.096 F 
ATOM     11  F3  UNL d   1       0.123   1.786   1.563  0.00  0.00    -0.097 F 
ATOM     12  F4  UNL d   1       1.787   3.944   1.439  0.00  0.00    -0.092 F 
ENDROOT
TORSDOF 0
ENDMDL
