MODEL 1
REMARK minimizedAffinity 11.9377556
REMARK minimizedRMSD -1
REMARK  0 active torsions:
REMARK  status: ('A' for Active; 'I' for Inactive)
ROOT
ATOM      1  C   UNL d   1      -0.644   2.590   0.932  0.00  0.00     0.124 A 
ATOM      2  C1  UNL d   1      -0.423   3.852   0.398  0.00  0.00     0.062 A 
ATOM      3  C2  UNL d   1      -1.452   4.788   0.364  0.00  0.00     0.162 A 
ATOM      4  C3  UNL d   1      -2.713   4.467   0.866  0.00  0.00    -0.034 A 
ATOM      5  C4  UNL d   1      -2.929   3.195   1.401  0.00  0.00     0.162 A 
ATOM      6  C5  UNL d   1      -1.897   2.263   1.433  0.00  0.00     0.062 A 
ATOM      7  F   UNL d   1      -2.113   1.044   1.949  0.00  0.00    -0.097 F 
ATOM      8  F1  UNL d   1      -4.129   2.853   1.892  0.00  0.00    -0.096 F 
ATOM      9  I   UNL d   1      -4.255   5.864   0.816  0.00  0.00    -0.060 I 
ATOM     10  F2  UNL d   1      -1.210   6.000  -0.158  0.00  0.00    -0.096 F 
ATOM     11  F3  UNL d   1       0.786   4.170  -0.087  0.00  0.00    -0.097 F 
ATOM     12  F4  UNL d   1       0.347   1.691   0.963  0.00  0.00    -0.092 F 
ENDROOT
TORSDOF 0
ENDMDL
