MODEL 1
REMARK minimizedAffinity 13.8267803
REMARK minimizedRMSD -1
REMARK  0 active torsions:
REMARK  status: ('A' for Active; 'I' for Inactive)
ROOT
ATOM      1  C   UNL d   1      -1.154   2.247   1.756  0.00  0.00     0.124 A 
ATOM      2  C1  UNL d   1      -2.290   1.454   1.836  0.00  0.00     0.062 A 
ATOM      3  C2  UNL d   1      -2.215   0.175   2.379  0.00  0.00     0.162 A 
ATOM      4  C3  UNL d   1      -0.998  -0.319   2.849  0.00  0.00    -0.034 A 
ATOM      5  C4  UNL d   1       0.141   0.484   2.764  0.00  0.00     0.162 A 
ATOM      6  C5  UNL d   1       0.061   1.761   2.220  0.00  0.00     0.062 A 
ATOM      7  F   UNL d   1       1.160   2.526   2.144  0.00  0.00    -0.097 F 
ATOM      8  F1  UNL d   1       1.327   0.039   3.206  0.00  0.00    -0.096 F 
ATOM      9  I   UNL d   1      -0.881  -2.231   3.662  0.00  0.00    -0.060 I 
ATOM     10  F2  UNL d   1      -3.329  -0.569   2.444  0.00  0.00    -0.096 F 
ATOM     11  F3  UNL d   1      -3.464   1.921   1.387  0.00  0.00    -0.097 F 
ATOM     12  F4  UNL d   1      -1.229   3.477   1.232  0.00  0.00    -0.092 F 
ENDROOT
TORSDOF 0
ENDMDL
