MODEL 1
REMARK minimizedAffinity 11.0507002
REMARK minimizedRMSD -1
REMARK  0 active torsions:
REMARK  status: ('A' for Active; 'I' for Inactive)
ROOT
ATOM      1  C   UNL d   1      -1.217  -3.104   3.688  0.00  0.00     0.124 A 
ATOM      2  C1  UNL d   1      -1.932  -2.044   4.229  0.00  0.00     0.062 A 
ATOM      3  C2  UNL d   1      -1.740  -0.753   3.747  0.00  0.00     0.162 A 
ATOM      4  C3  UNL d   1      -0.830  -0.513   2.718  0.00  0.00    -0.034 A 
ATOM      5  C4  UNL d   1      -0.114  -1.584   2.179  0.00  0.00     0.162 A 
ATOM      6  C5  UNL d   1      -0.309  -2.873   2.664  0.00  0.00     0.062 A 
ATOM      7  F   UNL d   1       0.382  -3.896   2.140  0.00  0.00    -0.097 F 
ATOM      8  F1  UNL d   1       0.769  -1.389   1.188  0.00  0.00    -0.096 F 
ATOM      9  I   UNL d   1      -0.540   1.417   1.995  0.00  0.00    -0.060 I 
ATOM     10  F2  UNL d   1      -2.444   0.252   4.289  0.00  0.00    -0.096 F 
ATOM     11  F3  UNL d   1      -2.808  -2.265   5.219  0.00  0.00    -0.097 F 
ATOM     12  F4  UNL d   1      -1.403  -4.346   4.153  0.00  0.00    -0.092 F 
ENDROOT
TORSDOF 0
ENDMDL
