MODEL 1
REMARK minimizedAffinity 2.79698443
REMARK minimizedRMSD -1
REMARK  0 active torsions:
REMARK  status: ('A' for Active; 'I' for Inactive)
ROOT
ATOM      1  C   UNL d   1      -1.022   1.393   2.903  0.00  0.00     0.124 A 
ATOM      2  C1  UNL d   1      -1.533   1.113   1.643  0.00  0.00     0.062 A 
ATOM      3  C2  UNL d   1      -1.113   1.847   0.538  0.00  0.00     0.162 A 
ATOM      4  C3  UNL d   1      -0.175   2.868   0.686  0.00  0.00    -0.034 A 
ATOM      5  C4  UNL d   1       0.334   3.145   1.956  0.00  0.00     0.162 A 
ATOM      6  C5  UNL d   1      -0.089   2.409   3.058  0.00  0.00     0.062 A 
ATOM      7  F   UNL d   1       0.407   2.681   4.274  0.00  0.00    -0.097 F 
ATOM      8  F1  UNL d   1       1.238   4.120   2.135  0.00  0.00    -0.096 F 
ATOM      9  I   UNL d   1       0.456   3.968  -0.964  0.00  0.00    -0.060 I 
ATOM     10  F2  UNL d   1      -1.624   1.554  -0.667  0.00  0.00    -0.096 F 
ATOM     11  F3  UNL d   1      -2.435   0.133   1.491  0.00  0.00    -0.097 F 
ATOM     12  F4  UNL d   1      -1.428   0.686   3.965  0.00  0.00    -0.092 F 
ENDROOT
TORSDOF 0
ENDMDL
