MODEL 1
REMARK minimizedAffinity 0.210986525
REMARK minimizedRMSD -1
REMARK  0 active torsions:
REMARK  status: ('A' for Active; 'I' for Inactive)
ROOT
ATOM      1  C   UNL d   1       0.991   4.162   0.136  0.00  0.00     0.124 A 
ATOM      2  C1  UNL d   1       1.150   4.100   1.513  0.00  0.00     0.062 A 
ATOM      3  C2  UNL d   1       0.362   3.237   2.270  0.00  0.00     0.162 A 
ATOM      4  C3  UNL d   1      -0.591   2.428   1.651  0.00  0.00    -0.034 A 
ATOM      5  C4  UNL d   1      -0.745   2.497   0.265  0.00  0.00     0.162 A 
ATOM      6  C5  UNL d   1       0.044   3.361  -0.487  0.00  0.00     0.062 A 
ATOM      7  F   UNL d   1      -0.110   3.420  -1.818  0.00  0.00    -0.097 F 
ATOM      8  F1  UNL d   1      -1.652   1.734  -0.363  0.00  0.00    -0.096 F 
ATOM      9  I   UNL d   1      -1.770   1.137   2.779  0.00  0.00    -0.060 I 
ATOM     10  F2  UNL d   1       0.537   3.197   3.599  0.00  0.00    -0.096 F 
ATOM     11  F3  UNL d   1       2.063   4.873   2.117  0.00  0.00    -0.097 F 
ATOM     12  F4  UNL d   1       1.750   4.994  -0.590  0.00  0.00    -0.092 F 
ENDROOT
TORSDOF 0
ENDMDL
