MODEL 1
REMARK minimizedAffinity -1.93652272
REMARK minimizedRMSD -1
REMARK  0 active torsions:
REMARK  status: ('A' for Active; 'I' for Inactive)
ROOT
ATOM      1  C   UNL d   1      -0.503   1.679   2.642  0.00  0.00     0.124 A 
ATOM      2  C1  UNL d   1       0.381   2.676   3.030  0.00  0.00     0.062 A 
ATOM      3  C2  UNL d   1       0.749   3.673   2.131  0.00  0.00     0.162 A 
ATOM      4  C3  UNL d   1       0.232   3.678   0.835  0.00  0.00    -0.034 A 
ATOM      5  C4  UNL d   1      -0.656   2.671   0.453  0.00  0.00     0.162 A 
ATOM      6  C5  UNL d   1      -1.021   1.677   1.355  0.00  0.00     0.062 A 
ATOM      7  F   UNL d   1      -1.875   0.714   0.979  0.00  0.00    -0.097 F 
ATOM      8  F1  UNL d   1      -1.172   2.646  -0.785  0.00  0.00    -0.096 F 
ATOM      9  I   UNL d   1       0.780   5.167  -0.512  0.00  0.00    -0.060 I 
ATOM     10  F2  UNL d   1       1.605   4.624   2.532  0.00  0.00    -0.096 F 
ATOM     11  F3  UNL d   1       0.883   2.679   4.273  0.00  0.00    -0.097 F 
ATOM     12  F4  UNL d   1      -0.855   0.720   3.509  0.00  0.00    -0.092 F 
ENDROOT
TORSDOF 0
ENDMDL
