MODEL 1
REMARK minimizedAffinity 4.24255276
REMARK minimizedRMSD -1
REMARK  0 active torsions:
REMARK  status: ('A' for Active; 'I' for Inactive)
ROOT
ATOM      1  C   UNL d   1       0.411   3.679   0.030  0.00  0.00     0.124 A 
ATOM      2  C1  UNL d   1      -0.457   2.692  -0.416  0.00  0.00     0.062 A 
ATOM      3  C2  UNL d   1      -0.990   1.770   0.481  0.00  0.00     0.162 A 
ATOM      4  C3  UNL d   1      -0.657   1.833   1.835  0.00  0.00    -0.034 A 
ATOM      5  C4  UNL d   1       0.216   2.828   2.276  0.00  0.00     0.162 A 
ATOM      6  C5  UNL d   1       0.746   3.747   1.375  0.00  0.00     0.062 A 
ATOM      7  F   UNL d   1       1.584   4.700   1.808  0.00  0.00    -0.097 F 
ATOM      8  F1  UNL d   1       0.557   2.917   3.570  0.00  0.00    -0.096 F 
ATOM      9  I   UNL d   1      -1.452   0.457   3.179  0.00  0.00    -0.060 I 
ATOM     10  F2  UNL d   1      -1.825   0.827   0.022  0.00  0.00    -0.096 F 
ATOM     11  F3  UNL d   1      -0.782   2.624  -1.715  0.00  0.00    -0.097 F 
ATOM     12  F4  UNL d   1       0.923   4.564  -0.835  0.00  0.00    -0.092 F 
ENDROOT
TORSDOF 0
ENDMDL
