MODEL 1
REMARK minimizedAffinity 12.2673101
REMARK minimizedRMSD -1
REMARK  0 active torsions:
REMARK  status: ('A' for Active; 'I' for Inactive)
ROOT
ATOM      1  C   UNL d   1       0.226   3.330   0.377  0.00  0.00     0.124 A 
ATOM      2  C1  UNL d   1      -0.720   2.439  -0.110  0.00  0.00     0.062 A 
ATOM      3  C2  UNL d   1      -1.282   1.485   0.733  0.00  0.00     0.162 A 
ATOM      4  C3  UNL d   1      -0.898   1.416   2.073  0.00  0.00    -0.034 A 
ATOM      5  C4  UNL d   1       0.055   2.315   2.555  0.00  0.00     0.162 A 
ATOM      6  C5  UNL d   1       0.613   3.267   1.708  0.00  0.00     0.062 A 
ATOM      7  F   UNL d   1       1.528   4.127   2.180  0.00  0.00    -0.097 F 
ATOM      8  F1  UNL d   1       0.446   2.277   3.837  0.00  0.00    -0.096 F 
ATOM      9  I   UNL d   1      -1.736  -0.010   3.337  0.00  0.00    -0.060 I 
ATOM     10  F2  UNL d   1      -2.194   0.637   0.236  0.00  0.00    -0.096 F 
ATOM     11  F3  UNL d   1      -1.095   2.498  -1.396  0.00  0.00    -0.097 F 
ATOM     12  F4  UNL d   1       0.766   4.247  -0.436  0.00  0.00    -0.092 F 
ENDROOT
TORSDOF 0
ENDMDL
