MODEL 1
REMARK minimizedAffinity 2.69743252
REMARK minimizedRMSD -1
REMARK  0 active torsions:
REMARK  status: ('A' for Active; 'I' for Inactive)
ROOT
ATOM      1  C1  DEN d   1       0.308   0.712  -1.189  0.00  0.00     0.130 A 
ATOM      2  C2  DEN d   1       0.220  -0.725  -1.430  0.00  0.00    -0.031 A 
ATOM      3  C3  DEN d   1       0.393  -1.417  -0.137  0.00  0.00     0.027 A 
ATOM      4  C4  DEN d   1       0.779  -0.406   2.205  0.00  0.00     0.027 A 
ATOM      5  C5  DEN d   1       0.939   0.767   2.909  0.00  0.00    -0.003 A 
ATOM      6  C6  DEN d   1       0.933   1.992   2.296  0.00  0.00     0.001 A 
ATOM      7  C7  DEN d   1       0.719   2.075   0.946  0.00  0.00     0.017 A 
ATOM      8  C8  DEN d   1       0.565   0.897   0.228  0.00  0.00    -0.094 A 
ATOM      9  C9  DEN d   1       0.562  -0.332   0.867  0.00  0.00    -0.072 A 
ENDROOT
TORSDOF 0
ENDMDL
