MODEL 1
REMARK minimizedAffinity 5.84735918
REMARK minimizedRMSD -1
REMARK  0 active torsions:
REMARK  status: ('A' for Active; 'I' for Inactive)
ROOT
ATOM      1  C1  DEN d   1      -6.000   4.118  -2.844  0.00  0.00     0.130 A 
ATOM      2  C2  DEN d   1      -4.947   5.065  -3.200  0.00  0.00    -0.031 A 
ATOM      3  C3  DEN d   1      -3.697   4.625  -2.548  0.00  0.00     0.027 A 
ATOM      4  C4  DEN d   1      -3.291   2.577  -1.034  0.00  0.00     0.027 A 
ATOM      5  C5  DEN d   1      -3.885   1.487  -0.437  0.00  0.00    -0.003 A 
ATOM      6  C6  DEN d   1      -5.221   1.219  -0.572  0.00  0.00     0.001 A 
ATOM      7  C7  DEN d   1      -6.000   2.026  -1.358  0.00  0.00     0.017 A 
ATOM      8  C8  DEN d   1      -5.410   3.131  -1.957  0.00  0.00    -0.094 A 
ATOM      9  C9  DEN d   1      -4.055   3.379  -1.819  0.00  0.00    -0.072 A 
ENDROOT
TORSDOF 0
ENDMDL
