MODEL 1
REMARK minimizedAffinity -3.41628575
REMARK minimizedRMSD -1
REMARK  0 active torsions:
REMARK  status: ('A' for Active; 'I' for Inactive)
ROOT
ATOM      1  C1  DEN d   1      -0.718   0.153  -1.054  0.00  0.00     0.130 A 
ATOM      2  C2  DEN d   1       0.306   0.583  -0.106  0.00  0.00    -0.031 A 
ATOM      3  C3  DEN d   1       0.923  -0.624   0.479  0.00  0.00     0.027 A 
ATOM      4  C4  DEN d   1       0.398  -3.105   0.007  0.00  0.00     0.027 A 
ATOM      5  C5  DEN d   1      -0.401  -3.966  -0.712  0.00  0.00    -0.003 A 
ATOM      6  C6  DEN d   1      -1.377  -3.519  -1.563  0.00  0.00     0.001 A 
ATOM      7  C7  DEN d   1      -1.548  -2.173  -1.750  0.00  0.00     0.017 A 
ATOM      8  C8  DEN d   1      -0.752  -1.298  -1.023  0.00  0.00    -0.094 A 
ATOM      9  C9  DEN d   1       0.237  -1.770  -0.177  0.00  0.00    -0.072 A 
ENDROOT
TORSDOF 0
ENDMDL
