MODEL 1
REMARK minimizedAffinity 8.31039619
REMARK minimizedRMSD -1
REMARK  0 active torsions:
REMARK  status: ('A' for Active; 'I' for Inactive)
ROOT
ATOM      1  C1  DEN d   1       1.953  -1.322   1.328  0.00  0.00     0.130 A 
ATOM      2  C2  DEN d   1       1.941  -1.279   2.788  0.00  0.00    -0.031 A 
ATOM      3  C3  DEN d   1       0.911  -0.307   3.207  0.00  0.00     0.027 A 
ATOM      4  C4  DEN d   1      -0.662   1.122   1.746  0.00  0.00     0.027 A 
ATOM      5  C5  DEN d   1      -1.014   1.438   0.452  0.00  0.00    -0.003 A 
ATOM      6  C6  DEN d   1      -0.384   0.886  -0.631  0.00  0.00     0.001 A 
ATOM      7  C7  DEN d   1       0.602  -0.046  -0.441  0.00  0.00     0.017 A 
ATOM      8  C8  DEN d   1       0.968  -0.364   0.860  0.00  0.00    -0.094 A 
ATOM      9  C9  DEN d   1       0.310   0.196   1.943  0.00  0.00    -0.072 A 
ENDROOT
TORSDOF 0
ENDMDL
