MODEL 1
REMARK minimizedAffinity 10.737834
REMARK minimizedRMSD -1
REMARK  0 active torsions:
REMARK  status: ('A' for Active; 'I' for Inactive)
ROOT
ATOM      1  C1  DEN d   1      -5.944  -1.083   2.108  0.00  0.00     0.130 A 
ATOM      2  C2  DEN d   1      -5.999  -2.333   1.354  0.00  0.00    -0.031 A 
ATOM      3  C3  DEN d   1      -5.992  -3.449   2.321  0.00  0.00     0.027 A 
ATOM      4  C4  DEN d   1      -5.906  -3.365   4.897  0.00  0.00     0.027 A 
ATOM      5  C5  DEN d   1      -5.838  -2.530   5.991  0.00  0.00    -0.003 A 
ATOM      6  C6  DEN d   1      -5.767  -1.168   5.868  0.00  0.00     0.001 A 
ATOM      7  C7  DEN d   1      -5.808  -0.597   4.623  0.00  0.00     0.017 A 
ATOM      8  C8  DEN d   1      -5.869  -1.431   3.515  0.00  0.00    -0.094 A 
ATOM      9  C9  DEN d   1      -5.953  -2.805   3.661  0.00  0.00    -0.072 A 
ENDROOT
TORSDOF 0
ENDMDL
