MODEL 1
REMARK minimizedAffinity 10.0759449
REMARK minimizedRMSD -1
REMARK  0 active torsions:
REMARK  status: ('A' for Active; 'I' for Inactive)
ROOT
ATOM      1  C1  DEN d   1       1.254  -0.233   2.656  0.00  0.00     0.130 A 
ATOM      2  C2  DEN d   1       0.786   0.872   3.488  0.00  0.00    -0.031 A 
ATOM      3  C3  DEN d   1      -0.083   1.732   2.659  0.00  0.00     0.027 A 
ATOM      4  C4  DEN d   1      -0.750   1.457   0.183  0.00  0.00     0.027 A 
ATOM      5  C5  DEN d   1      -0.592   0.679  -0.943  0.00  0.00    -0.003 A 
ATOM      6  C6  DEN d   1       0.213  -0.429  -0.957  0.00  0.00     0.001 A 
ATOM      7  C7  DEN d   1       0.855  -0.816   0.189  0.00  0.00     0.017 A 
ATOM      8  C8  DEN d   1       0.706  -0.033   1.326  0.00  0.00    -0.094 A 
ATOM      9  C9  DEN d   1      -0.122   1.077   1.324  0.00  0.00    -0.072 A 
ENDROOT
TORSDOF 0
ENDMDL
