MODEL 1
REMARK minimizedAffinity 18.4974289
REMARK minimizedRMSD -1
REMARK  0 active torsions:
REMARK  status: ('A' for Active; 'I' for Inactive)
ROOT
ATOM      1  C1  DEN d   1      -0.128   0.827   1.136  0.00  0.00     0.130 A 
ATOM      2  C2  DEN d   1      -0.029  -0.137   2.229  0.00  0.00    -0.031 A 
ATOM      3  C3  DEN d   1       0.730   0.495   3.326  0.00  0.00     0.027 A 
ATOM      4  C4  DEN d   1       1.753   2.860   3.441  0.00  0.00     0.027 A 
ATOM      5  C5  DEN d   1       1.938   4.037   2.751  0.00  0.00    -0.003 A 
ATOM      6  C6  DEN d   1       1.481   4.214   1.472  0.00  0.00     0.001 A 
ATOM      7  C7  DEN d   1       0.776   3.212   0.859  0.00  0.00     0.017 A 
ATOM      8  C8  DEN d   1       0.591   2.019   1.546  0.00  0.00    -0.094 A 
ATOM      9  C9  DEN d   1       1.051   1.865   2.843  0.00  0.00    -0.072 A 
ENDROOT
TORSDOF 0
ENDMDL
