MODEL 1
REMARK minimizedAffinity -0.850063026
REMARK minimizedRMSD -1
REMARK  0 active torsions:
REMARK  status: ('A' for Active; 'I' for Inactive)
ROOT
ATOM      1  C1  DEN d   1       0.175   2.718  -1.197  0.00  0.00     0.130 A 
ATOM      2  C2  DEN d   1       0.192   4.133  -0.836  0.00  0.00    -0.031 A 
ATOM      3  C3  DEN d   1       0.312   4.228   0.633  0.00  0.00     0.027 A 
ATOM      4  C4  DEN d   1       0.478   2.331   2.374  0.00  0.00     0.027 A 
ATOM      5  C5  DEN d   1       0.493   0.965   2.547  0.00  0.00    -0.003 A 
ATOM      6  C6  DEN d   1       0.371   0.094   1.497  0.00  0.00     0.001 A 
ATOM      7  C7  DEN d   1       0.272   0.581   0.220  0.00  0.00     0.017 A 
ATOM      8  C8  DEN d   1       0.249   1.957   0.038  0.00  0.00    -0.094 A 
ATOM      9  C9  DEN d   1       0.386   2.821   1.111  0.00  0.00    -0.072 A 
ENDROOT
TORSDOF 0
ENDMDL
