MODEL 1
REMARK minimizedAffinity -1.79759049
REMARK minimizedRMSD -1
REMARK  0 active torsions:
REMARK  status: ('A' for Active; 'I' for Inactive)
ROOT
ATOM      1  C1  DEN d   1      -2.090  -1.756  -0.991  0.00  0.00     0.130 A 
ATOM      2  C2  DEN d   1      -3.191  -1.526  -1.922  0.00  0.00    -0.031 A 
ATOM      3  C3  DEN d   1      -3.171  -0.101  -2.310  0.00  0.00     0.027 A 
ATOM      4  C4  DEN d   1      -1.546   1.760  -1.569  0.00  0.00     0.027 A 
ATOM      5  C5  DEN d   1      -0.455   2.048  -0.779  0.00  0.00    -0.003 A 
ATOM      6  C6  DEN d   1       0.141   1.105   0.015  0.00  0.00     0.001 A 
ATOM      7  C7  DEN d   1      -0.322  -0.184   0.003  0.00  0.00     0.017 A 
ATOM      8  C8  DEN d   1      -1.426  -0.481  -0.785  0.00  0.00    -0.094 A 
ATOM      9  C9  DEN d   1      -2.008   0.484  -1.590  0.00  0.00    -0.072 A 
ENDROOT
TORSDOF 0
ENDMDL
