MODEL 1
REMARK minimizedAffinity -1.78734362
REMARK minimizedRMSD -1
REMARK  0 active torsions:
REMARK  status: ('A' for Active; 'I' for Inactive)
ROOT
ATOM      1  C   UNL d   1       1.824  -1.815  -0.254  0.00  0.00     0.020 A 
ATOM      2  C1  UNL d   1       1.327  -2.148   1.005  0.00  0.00     0.020 A 
ATOM      3  C2  UNL d   1       0.221  -1.469   1.521  0.00  0.00     0.034 A 
ATOM      4  C3  UNL d   1      -0.392  -0.455   0.777  0.00  0.00     0.017 A 
ATOM      5  C4  UNL d   1       0.108  -0.121  -0.487  0.00  0.00     0.017 A 
ATOM      6  C5  UNL d   1       1.216  -0.804  -0.999  0.00  0.00     0.034 A 
ATOM      7 Cl   UNL d   1      -0.595   1.119  -1.464  0.00  0.00    -0.070 Cl
ATOM      8 Cl1  UNL d   1      -1.757   0.342   1.476  0.00  0.00    -0.070 Cl
ENDROOT
TORSDOF 0
ENDMDL
