MODEL 1
REMARK minimizedAffinity -0.0106670987
REMARK minimizedRMSD -1
REMARK  0 active torsions:
REMARK  status: ('A' for Active; 'I' for Inactive)
ROOT
ATOM      1  C   UNL d   1      -0.472   0.603   0.557  0.00  0.00     0.020 A 
ATOM      2  C1  UNL d   1      -0.575   0.109   1.857  0.00  0.00     0.020 A 
ATOM      3  C2  UNL d   1       0.288  -0.899   2.291  0.00  0.00     0.034 A 
ATOM      4  C3  UNL d   1       1.258  -1.417   1.425  0.00  0.00     0.017 A 
ATOM      5  C4  UNL d   1       1.360  -0.921   0.120  0.00  0.00     0.017 A 
ATOM      6  C5  UNL d   1       0.494   0.089  -0.309  0.00  0.00     0.034 A 
ATOM      7 Cl   UNL d   1       2.531  -1.510  -1.006  0.00  0.00    -0.070 Cl
ATOM      8 Cl1  UNL d   1       2.291  -2.663   2.028  0.00  0.00    -0.070 Cl
ENDROOT
TORSDOF 0
ENDMDL
