MODEL 1
REMARK minimizedAffinity -2.28926158
REMARK minimizedRMSD -1
REMARK  0 active torsions:
REMARK  status: ('A' for Active; 'I' for Inactive)
ROOT
ATOM      1  C   UNL d   1      -0.621  -0.305   2.359  0.00  0.00     0.020 A 
ATOM      2  C1  UNL d   1       0.379  -1.275   2.404  0.00  0.00     0.020 A 
ATOM      3  C2  UNL d   1       1.086  -1.603   1.246  0.00  0.00     0.034 A 
ATOM      4  C3  UNL d   1       0.794  -0.961   0.037  0.00  0.00     0.017 A 
ATOM      5  C4  UNL d   1      -0.210   0.013  -0.007  0.00  0.00     0.017 A 
ATOM      6  C5  UNL d   1      -0.915   0.338   1.156  0.00  0.00     0.034 A 
ATOM      7 Cl   UNL d   1      -0.627   0.849  -1.461  0.00  0.00    -0.070 Cl
ATOM      8 Cl1  UNL d   1       1.709  -1.416  -1.357  0.00  0.00    -0.070 Cl
ENDROOT
TORSDOF 0
ENDMDL
