MODEL 1
REMARK minimizedAffinity -0.0796439648
REMARK minimizedRMSD -1
REMARK  0 active torsions:
REMARK  status: ('A' for Active; 'I' for Inactive)
ROOT
ATOM      1  C   UNL d   1      -1.420   0.832  -0.002  0.00  0.00     0.020 A 
ATOM      2  C1  UNL d   1      -0.655   0.783  -1.167  0.00  0.00     0.020 A 
ATOM      3  C2  UNL d   1       0.507   0.010  -1.208  0.00  0.00     0.034 A 
ATOM      4  C3  UNL d   1       0.907  -0.719  -0.082  0.00  0.00     0.017 A 
ATOM      5  C4  UNL d   1       0.139  -0.669   1.087  0.00  0.00     0.017 A 
ATOM      6  C5  UNL d   1      -1.023   0.107   1.122  0.00  0.00     0.034 A 
ATOM      7 Cl   UNL d   1       0.569  -1.541   2.516  0.00  0.00    -0.070 Cl
ATOM      8 Cl1  UNL d   1       2.355  -1.655  -0.203  0.00  0.00    -0.070 Cl
ENDROOT
TORSDOF 0
ENDMDL
