MODEL 1
REMARK minimizedAffinity -2.5130105
REMARK minimizedRMSD -1
REMARK  0 active torsions:
REMARK  status: ('A' for Active; 'I' for Inactive)
ROOT
ATOM      1  C   UNL d   1       0.395  -1.041   1.803  0.00  0.00     0.020 A 
ATOM      2  C1  UNL d   1      -0.450   0.061   1.928  0.00  0.00     0.020 A 
ATOM      3  C2  UNL d   1      -0.885   0.740   0.787  0.00  0.00     0.034 A 
ATOM      4  C3  UNL d   1      -0.474   0.318  -0.482  0.00  0.00     0.017 A 
ATOM      5  C4  UNL d   1       0.374  -0.789  -0.606  0.00  0.00     0.017 A 
ATOM      6  C5  UNL d   1       0.806  -1.464   0.539  0.00  0.00     0.034 A 
ATOM      7 Cl   UNL d   1       0.923  -1.369  -2.139  0.00  0.00    -0.070 Cl
ATOM      8 Cl1  UNL d   1      -1.051   1.204  -1.849  0.00  0.00    -0.070 Cl
ENDROOT
TORSDOF 0
ENDMDL
