MODEL 1
REMARK minimizedAffinity 0.183710411
REMARK minimizedRMSD -1
REMARK  0 active torsions:
REMARK  status: ('A' for Active; 'I' for Inactive)
ROOT
ATOM      1  C   UNL d   1      -1.796   1.844  -0.865  0.00  0.00     0.020 A 
ATOM      2  C1  UNL d   1      -0.950   1.673  -1.960  0.00  0.00     0.020 A 
ATOM      3  C2  UNL d   1       0.094   0.748  -1.897  0.00  0.00     0.034 A 
ATOM      4  C3  UNL d   1       0.295  -0.009  -0.737  0.00  0.00     0.017 A 
ATOM      5  C4  UNL d   1      -0.556   0.163   0.361  0.00  0.00     0.017 A 
ATOM      6  C5  UNL d   1      -1.600   1.091   0.293  0.00  0.00     0.034 A 
ATOM      7 Cl   UNL d   1      -0.372  -0.735   1.826  0.00  0.00    -0.070 Cl
ATOM      8 Cl1  UNL d   1       1.605  -1.135  -0.729  0.00  0.00    -0.070 Cl
ENDROOT
TORSDOF 0
ENDMDL
