MODEL 1
REMARK minimizedAffinity 3.32220745
REMARK minimizedRMSD -1
REMARK  0 active torsions:
REMARK  status: ('A' for Active; 'I' for Inactive)
ROOT
ATOM      1  C   UNL d   1      -0.852  -1.630   0.996  0.00  0.00     0.020 A 
ATOM      2  C1  UNL d   1      -0.719  -1.000   2.234  0.00  0.00     0.020 A 
ATOM      3  C2  UNL d   1      -0.996   0.363   2.357  0.00  0.00     0.034 A 
ATOM      4  C3  UNL d   1      -1.408   1.101   1.242  0.00  0.00     0.017 A 
ATOM      5  C4  UNL d   1      -1.542   0.469   0.001  0.00  0.00     0.017 A 
ATOM      6  C5  UNL d   1      -1.263  -0.896  -0.118  0.00  0.00     0.034 A 
ATOM      7 Cl   UNL d   1      -2.046   1.314  -1.420  0.00  0.00    -0.070 Cl
ATOM      8 Cl1  UNL d   1      -1.735   2.783   1.468  0.00  0.00    -0.070 Cl
ENDROOT
TORSDOF 0
ENDMDL
