MODEL 1
REMARK minimizedAffinity -3.23771214
REMARK minimizedRMSD -1
REMARK  0 active torsions:
REMARK  status: ('A' for Active; 'I' for Inactive)
ROOT
ATOM      1  C   UNL d   1       1.660  -0.902   2.686  0.00  0.00     0.020 A 
ATOM      2  C1  UNL d   1       2.707  -0.900   1.765  0.00  0.00     0.020 A 
ATOM      3  C2  UNL d   1       3.028  -2.069   1.071  0.00  0.00     0.034 A 
ATOM      4  C3  UNL d   1       2.302  -3.244   1.296  0.00  0.00     0.017 A 
ATOM      5  C4  UNL d   1       1.251  -3.244   2.221  0.00  0.00     0.017 A 
ATOM      6  C5  UNL d   1       0.934  -2.071   2.913  0.00  0.00     0.034 A 
ATOM      7 Cl   UNL d   1       0.310  -4.655   2.554  0.00  0.00    -0.070 Cl
ATOM      8 Cl1  UNL d   1       2.753  -4.652   0.403  0.00  0.00    -0.070 Cl
ENDROOT
TORSDOF 0
ENDMDL
