MODEL 1
REMARK minimizedAffinity -4.62420082
REMARK minimizedRMSD -1
REMARK  0 active torsions:
REMARK  status: ('A' for Active; 'I' for Inactive)
ROOT
ATOM      1  C   UNL d   1      -0.760  -0.106   0.196  0.00  0.00     0.020 A 
ATOM      2  C1  UNL d   1      -1.078   0.014   1.548  0.00  0.00     0.020 A 
ATOM      3  C2  UNL d   1      -0.091  -0.179   2.517  0.00  0.00     0.034 A 
ATOM      4  C3  UNL d   1       1.219  -0.492   2.135  0.00  0.00     0.017 A 
ATOM      5  C4  UNL d   1       1.537  -0.611   0.777  0.00  0.00     0.017 A 
ATOM      6  C5  UNL d   1       0.544  -0.417  -0.189  0.00  0.00     0.034 A 
ATOM      7 Cl   UNL d   1       3.130  -0.995   0.228  0.00  0.00    -0.070 Cl
ATOM      8 Cl1  UNL d   1       2.389  -0.716   3.386  0.00  0.00    -0.070 Cl
ENDROOT
TORSDOF 0
ENDMDL
