MODEL 1
REMARK minimizedAffinity -4.83640242
REMARK minimizedRMSD -1
REMARK  2 active torsions:
REMARK  status: ('A' for Active; 'I' for Inactive)
REMARK    1  A    between atoms: C1_2  and  C2_3 
REMARK    2  A    between atoms: C2_3  and  C3_4 
ROOT
ATOM      1  C3  UNL d   1       0.541  -1.839  -1.512  0.00  0.00    -0.075 A 
ATOM      2  C4  UNL d   1       0.620  -0.886  -0.487  0.00  0.00     0.002 A 
ATOM      3  C5  UNL d   1       1.858  -0.395  -0.070  0.00  0.00     0.002 A 
ATOM      4  C6  UNL d   1       3.030  -0.858  -0.664  0.00  0.00    -0.004 A 
ATOM      5  C7  UNL d   1       2.964  -1.817  -1.672  0.00  0.00     0.002 A 
ATOM      6  C8  UNL d   1       1.727  -2.306  -2.094  0.00  0.00     0.002 A 
ENDROOT
BRANCH   1   7
ATOM      7  C2  UNL d   1      -0.797  -2.352  -1.988  0.00  0.00     0.056 C 
BRANCH   7   8
ATOM      8  C1  UNL d   1      -1.198  -1.851  -3.380  0.00  0.00     0.007 C 
ATOM      9  C   UNL d   1      -1.285  -2.964  -4.416  0.00  0.00     0.009 C 
ENDBRANCH   7   8
ENDBRANCH   1   7
TORSDOF 2
ENDMDL
