MODEL 1
REMARK minimizedAffinity -6.07110357
REMARK minimizedRMSD -1
REMARK  2 active torsions:
REMARK  status: ('A' for Active; 'I' for Inactive)
REMARK    1  A    between atoms: C1_2  and  C2_3 
REMARK    2  A    between atoms: C2_3  and  C3_4 
ROOT
ATOM      1  C3  UNL d   1      -1.786   0.062   1.017  0.00  0.00    -0.075 A 
ATOM      2  C4  UNL d   1      -3.062  -0.411   0.679  0.00  0.00     0.002 A 
ATOM      3  C5  UNL d   1      -4.205   0.265   1.108  0.00  0.00     0.002 A 
ATOM      4  C6  UNL d   1      -4.086   1.413   1.889  0.00  0.00    -0.004 A 
ATOM      5  C7  UNL d   1      -2.824   1.882   2.245  0.00  0.00     0.002 A 
ATOM      6  C8  UNL d   1      -1.679   1.210   1.813  0.00  0.00     0.002 A 
ENDROOT
BRANCH   1   7
ATOM      7  C2  UNL d   1      -0.545  -0.648   0.531  0.00  0.00     0.056 C 
BRANCH   7   8
ATOM      8  C1  UNL d   1      -0.829  -1.943  -0.239  0.00  0.00     0.007 C 
ATOM      9  C   UNL d   1      -0.516  -1.838  -1.725  0.00  0.00     0.009 C 
ENDBRANCH   7   8
ENDBRANCH   1   7
TORSDOF 2
ENDMDL
