MODEL 1
REMARK minimizedAffinity -4.31849527
REMARK minimizedRMSD -1
REMARK  2 active torsions:
REMARK  status: ('A' for Active; 'I' for Inactive)
REMARK    1  A    between atoms: C1_2  and  C2_3 
REMARK    2  A    between atoms: C2_3  and  C3_4 
ROOT
ATOM      1  C3  UNL d   1      -1.918  -1.726   0.186  0.00  0.00    -0.075 A 
ATOM      2  C4  UNL d   1      -3.232  -1.261   0.034  0.00  0.00     0.002 A 
ATOM      3  C5  UNL d   1      -3.635  -0.067   0.633  0.00  0.00     0.002 A 
ATOM      4  C6  UNL d   1      -2.734   0.670   1.399  0.00  0.00    -0.004 A 
ATOM      5  C7  UNL d   1      -1.431   0.210   1.570  0.00  0.00     0.002 A 
ATOM      6  C8  UNL d   1      -1.024  -0.982   0.968  0.00  0.00     0.002 A 
ENDROOT
BRANCH   1   7
ATOM      7  C2  UNL d   1      -1.467  -3.002  -0.485  0.00  0.00     0.056 C 
BRANCH   7   8
ATOM      8  C1  UNL d   1      -0.196  -2.849  -1.325  0.00  0.00     0.007 C 
ATOM      9  C   UNL d   1       1.036  -3.456  -0.667  0.00  0.00     0.009 C 
ENDBRANCH   7   8
ENDBRANCH   1   7
TORSDOF 2
ENDMDL
