MODEL 1
REMARK minimizedAffinity -0.698468804
REMARK minimizedRMSD -1
REMARK  2 active torsions:
REMARK  status: ('A' for Active; 'I' for Inactive)
REMARK    1  A    between atoms: C1_2  and  C2_3 
REMARK    2  A    between atoms: C2_3  and  C3_4 
ROOT
ATOM      1  C3  UNL d   1      -1.019  -1.069  -0.671  0.00  0.00    -0.075 A 
ATOM      2  C4  UNL d   1      -0.927  -0.618  -1.996  0.00  0.00     0.002 A 
ATOM      3  C5  UNL d   1      -0.226  -1.358  -2.949  0.00  0.00     0.002 A 
ATOM      4  C6  UNL d   1       0.399  -2.550  -2.589  0.00  0.00    -0.004 A 
ATOM      5  C7  UNL d   1       0.328  -2.999  -1.272  0.00  0.00     0.002 A 
ATOM      6  C8  UNL d   1      -0.376  -2.263  -0.317  0.00  0.00     0.002 A 
ENDROOT
BRANCH   1   7
ATOM      7  C2  UNL d   1      -1.801  -0.289   0.358  0.00  0.00     0.056 C 
BRANCH   7   8
ATOM      8  C1  UNL d   1      -1.398  -0.589   1.806  0.00  0.00     0.007 C 
ATOM      9  C   UNL d   1      -1.703   0.556   2.763  0.00  0.00     0.009 C 
ENDBRANCH   7   8
ENDBRANCH   1   7
TORSDOF 2
ENDMDL
