MODEL 1
REMARK minimizedAffinity -6.11049223
REMARK minimizedRMSD -1
REMARK  2 active torsions:
REMARK  status: ('A' for Active; 'I' for Inactive)
REMARK    1  A    between atoms: C1_2  and  C2_3 
REMARK    2  A    between atoms: C2_3  and  C3_4 
ROOT
ATOM      1  C3  UNL d   1      -0.928  -0.724   1.732  0.00  0.00    -0.075 A 
ATOM      2  C4  UNL d   1       0.125  -0.845   2.650  0.00  0.00     0.002 A 
ATOM      3  C5  UNL d   1       1.369  -1.326   2.241  0.00  0.00     0.002 A 
ATOM      4  C6  UNL d   1       1.573  -1.702   0.915  0.00  0.00    -0.004 A 
ATOM      5  C7  UNL d   1       0.529  -1.602  -0.002  0.00  0.00     0.002 A 
ATOM      6  C8  UNL d   1      -0.716  -1.116   0.403  0.00  0.00     0.002 A 
ENDROOT
BRANCH   1   7
ATOM      7  C2  UNL d   1      -2.268  -0.175   2.161  0.00  0.00     0.056 C 
BRANCH   7   8
ATOM      8  C1  UNL d   1      -2.946   0.709   1.109  0.00  0.00     0.007 C 
ATOM      9  C   UNL d   1      -4.166   0.058   0.473  0.00  0.00     0.009 C 
ENDBRANCH   7   8
ENDBRANCH   1   7
TORSDOF 2
ENDMDL
