MODEL 1
REMARK minimizedAffinity -2.17466903
REMARK minimizedRMSD -1
REMARK  2 active torsions:
REMARK  status: ('A' for Active; 'I' for Inactive)
REMARK    1  A    between atoms: C1_2  and  C2_3 
REMARK    2  A    between atoms: C2_3  and  C3_4 
ROOT
ATOM      1  C3  UNL d   1      -0.931  -0.375   1.279  0.00  0.00    -0.075 A 
ATOM      2  C4  UNL d   1      -1.385  -0.327   2.605  0.00  0.00     0.002 A 
ATOM      3  C5  UNL d   1      -0.558  -0.734   3.652  0.00  0.00     0.002 A 
ATOM      4  C6  UNL d   1       0.727  -1.203   3.387  0.00  0.00    -0.004 A 
ATOM      5  C7  UNL d   1       1.182  -1.270   2.072  0.00  0.00     0.002 A 
ATOM      6  C8  UNL d   1       0.359  -0.859   1.023  0.00  0.00     0.002 A 
ENDROOT
BRANCH   1   7
ATOM      7  C2  UNL d   1      -1.810   0.092   0.143  0.00  0.00     0.056 C 
BRANCH   7   8
ATOM      8  C1  UNL d   1      -3.227  -0.492   0.171  0.00  0.00     0.007 C 
ATOM      9  C   UNL d   1      -4.274   0.496   0.668  0.00  0.00     0.009 C 
ENDBRANCH   7   8
ENDBRANCH   1   7
TORSDOF 2
ENDMDL
