MODEL 1
REMARK minimizedAffinity -3.50254107
REMARK minimizedRMSD -1
REMARK  2 active torsions:
REMARK  status: ('A' for Active; 'I' for Inactive)
REMARK    1  A    between atoms: C1_2  and  C2_3 
REMARK    2  A    between atoms: C2_3  and  C3_4 
ROOT
ATOM      1  C3  UNL d   1      -1.048  -0.464   1.587  0.00  0.00    -0.075 A 
ATOM      2  C4  UNL d   1       0.060  -0.465   2.447  0.00  0.00     0.002 A 
ATOM      3  C5  UNL d   1       1.207  -1.191   2.124  0.00  0.00     0.002 A 
ATOM      4  C6  UNL d   1       1.258  -1.931   0.945  0.00  0.00    -0.004 A 
ATOM      5  C7  UNL d   1       0.157  -1.950   0.091  0.00  0.00     0.002 A 
ATOM      6  C8  UNL d   1      -0.990  -1.222   0.410  0.00  0.00     0.002 A 
ENDROOT
BRANCH   1   7
ATOM      7  C2  UNL d   1      -2.281   0.342   1.917  0.00  0.00     0.056 C 
BRANCH   7   8
ATOM      8  C1  UNL d   1      -3.597  -0.349   1.543  0.00  0.00     0.007 C 
ATOM      9  C   UNL d   1      -4.373   0.385   0.457  0.00  0.00     0.009 C 
ENDBRANCH   7   8
ENDBRANCH   1   7
TORSDOF 2
ENDMDL
