MODEL 1
REMARK minimizedAffinity 17.7442131
REMARK minimizedRMSD -1
REMARK  2 active torsions:
REMARK  status: ('A' for Active; 'I' for Inactive)
REMARK    1  A    between atoms: C2'_3  and  C1'_4 
REMARK    2  A    between atoms: C1'_4  and  C1_5 
ROOT
ATOM      1  C1  I4B d   1      -1.540   5.802  -2.005  0.00  0.00    -0.075 A 
ATOM      2  C2  I4B d   1      -1.431   5.996  -3.359  0.00  0.00     0.003 A 
ATOM      3  C3  I4B d   1      -0.158   6.000  -3.978  0.00  0.00     0.002 A 
ATOM      4  C4  I4B d   1       0.975   5.859  -3.203  0.00  0.00    -0.004 A 
ATOM      5  C5  I4B d   1       0.861   5.640  -1.833  0.00  0.00     0.002 A 
ATOM      6  C6  I4B d   1      -0.405   5.599  -1.232  0.00  0.00     0.003 A 
ENDROOT
BRANCH   1   7
ATOM      7  C1' I4B d   1      -2.899   5.836  -1.379  0.00  0.00     0.060 C 
BRANCH   7   8
ATOM      8  C2' I4B d   1      -3.792   4.888  -2.152  0.00  0.00    -0.013 C 
ATOM      9  C4' I4B d   1      -3.208   3.500  -2.194  0.00  0.00     0.013 C 
ATOM     10  C3' I4B d   1      -5.142   4.887  -1.497  0.00  0.00     0.013 C 
ENDBRANCH   7   8
ENDBRANCH   1   7
TORSDOF 2
ENDMDL
