MODEL 1
REMARK minimizedAffinity 9.37665176
REMARK minimizedRMSD -1
REMARK  2 active torsions:
REMARK  status: ('A' for Active; 'I' for Inactive)
REMARK    1  A    between atoms: C2'_3  and  C1'_4 
REMARK    2  A    between atoms: C1'_4  and  C1_5 
ROOT
ATOM      1  C1  I4B d   1      -0.157  -1.303  -1.467  0.00  0.00    -0.075 A 
ATOM      2  C2  I4B d   1       0.547  -0.146  -1.248  0.00  0.00     0.003 A 
ATOM      3  C3  I4B d   1       1.829  -0.194  -0.648  0.00  0.00     0.002 A 
ATOM      4  C4  I4B d   1       2.344  -1.408  -0.241  0.00  0.00    -0.004 A 
ATOM      5  C5  I4B d   1       1.638  -2.583  -0.484  0.00  0.00     0.002 A 
ATOM      6  C6  I4B d   1       0.385  -2.532  -1.112  0.00  0.00     0.003 A 
ENDROOT
BRANCH   1   7
ATOM      7  C1' I4B d   1      -1.522  -1.213  -2.071  0.00  0.00     0.060 C 
BRANCH   7   8
ATOM      8  C2' I4B d   1      -1.948   0.241  -2.048  0.00  0.00    -0.013 C 
ATOM      9  C4' I4B d   1      -2.365   0.709  -3.418  0.00  0.00     0.013 C 
ATOM     10  C3' I4B d   1      -3.070   0.379  -1.064  0.00  0.00     0.013 C 
ENDBRANCH   7   8
ENDBRANCH   1   7
TORSDOF 2
ENDMDL
