MODEL 1
REMARK minimizedAffinity 19.9828262
REMARK minimizedRMSD -1
REMARK  2 active torsions:
REMARK  status: ('A' for Active; 'I' for Inactive)
REMARK    1  A    between atoms: C2'_3  and  C1'_4 
REMARK    2  A    between atoms: C1'_4  and  C1_5 
ROOT
ATOM      1  C1  I4B d   1       5.096  -4.335  -1.831  0.00  0.00    -0.075 A 
ATOM      2  C2  I4B d   1       5.196  -3.508  -0.740  0.00  0.00     0.003 A 
ATOM      3  C3  I4B d   1       5.631  -2.170  -0.897  0.00  0.00     0.002 A 
ATOM      4  C4  I4B d   1       5.999  -1.717  -2.148  0.00  0.00    -0.004 A 
ATOM      5  C5  I4B d   1       5.875  -2.550  -3.256  0.00  0.00     0.002 A 
ATOM      6  C6  I4B d   1       5.408  -3.863  -3.100  0.00  0.00     0.003 A 
ENDROOT
BRANCH   1   7
ATOM      7  C1' I4B d   1       4.665  -5.752  -1.625  0.00  0.00     0.060 C 
BRANCH   7   8
ATOM      8  C2' I4B d   1       3.281  -5.912  -2.220  0.00  0.00    -0.013 C 
ATOM      9  C4' I4B d   1       2.212  -5.618  -1.201  0.00  0.00     0.013 C 
ATOM     10  C3' I4B d   1       3.175  -4.989  -3.397  0.00  0.00     0.013 C 
ENDBRANCH   7   8
ENDBRANCH   1   7
TORSDOF 2
ENDMDL
