MODEL 1
REMARK minimizedAffinity 19.6272011
REMARK minimizedRMSD -1
REMARK  2 active torsions:
REMARK  status: ('A' for Active; 'I' for Inactive)
REMARK    1  A    between atoms: C2'_3  and  C1'_4 
REMARK    2  A    between atoms: C1'_4  and  C1_5 
ROOT
ATOM      1  C1  I4B d   1       2.621  -0.073   4.147  0.00  0.00    -0.075 A 
ATOM      2  C2  I4B d   1       1.534   0.384   4.850  0.00  0.00     0.003 A 
ATOM      3  C3  I4B d   1       0.441  -0.477   5.112  0.00  0.00     0.002 A 
ATOM      4  C4  I4B d   1       0.454  -1.763   4.611  0.00  0.00    -0.004 A 
ATOM      5  C5  I4B d   1       1.566  -2.232   3.918  0.00  0.00     0.002 A 
ATOM      6  C6  I4B d   1       2.662  -1.385   3.695  0.00  0.00     0.003 A 
ENDROOT
BRANCH   1   7
ATOM      7  C1' I4B d   1       3.743   0.873   3.860  0.00  0.00     0.060 C 
BRANCH   7   8
ATOM      8  C2' I4B d   1       3.420   2.196   4.524  0.00  0.00    -0.013 C 
ATOM      9  C4' I4B d   1       4.424   2.528   5.597  0.00  0.00     0.013 C 
ATOM     10  C3' I4B d   1       3.394   3.254   3.461  0.00  0.00     0.013 C 
ENDBRANCH   7   8
ENDBRANCH   1   7
TORSDOF 2
ENDMDL
