MODEL 1
REMARK minimizedAffinity 9.83156109
REMARK minimizedRMSD -1
REMARK  2 active torsions:
REMARK  status: ('A' for Active; 'I' for Inactive)
REMARK    1  A    between atoms: C2'_3  and  C1'_4 
REMARK    2  A    between atoms: C1'_4  and  C1_5 
ROOT
ATOM      1  C1  I4B d   1       0.820  -3.158  -1.482  0.00  0.00    -0.075 A 
ATOM      2  C2  I4B d   1       1.710  -2.151  -1.203  0.00  0.00     0.003 A 
ATOM      3  C3  I4B d   1       1.286  -0.800  -1.219  0.00  0.00     0.002 A 
ATOM      4  C4  I4B d   1      -0.016  -0.500  -1.566  0.00  0.00    -0.004 A 
ATOM      5  C5  I4B d   1      -0.923  -1.524  -1.826  0.00  0.00     0.002 A 
ATOM      6  C6  I4B d   1      -0.506  -2.862  -1.772  0.00  0.00     0.003 A 
ENDROOT
BRANCH   1   7
ATOM      7  C1' I4B d   1       1.310  -4.571  -1.488  0.00  0.00     0.060 C 
BRANCH   7   8
ATOM      8  C2' I4B d   1       1.932  -4.843  -2.843  0.00  0.00    -0.013 C 
ATOM      9  C4' I4B d   1       1.835  -3.637  -3.739  0.00  0.00     0.013 C 
ATOM     10  C3' I4B d   1       3.361  -5.243  -2.624  0.00  0.00     0.013 C 
ENDBRANCH   7   8
ENDBRANCH   1   7
TORSDOF 2
ENDMDL
