MODEL 1
REMARK minimizedAffinity 8.91192055
REMARK minimizedRMSD -1
REMARK  2 active torsions:
REMARK  status: ('A' for Active; 'I' for Inactive)
REMARK    1  A    between atoms: C2'_3  and  C1'_4 
REMARK    2  A    between atoms: C1'_4  and  C1_5 
ROOT
ATOM      1  C1  I4B d   1       5.324  -4.314  -2.031  0.00  0.00    -0.075 A 
ATOM      2  C2  I4B d   1       4.388  -5.256  -1.683  0.00  0.00     0.003 A 
ATOM      3  C3  I4B d   1       3.708  -5.990  -2.685  0.00  0.00     0.002 A 
ATOM      4  C4  I4B d   1       3.957  -5.716  -4.015  0.00  0.00    -0.004 A 
ATOM      5  C5  I4B d   1       4.923  -4.777  -4.366  0.00  0.00     0.002 A 
ATOM      6  C6  I4B d   1       5.620  -4.080  -3.368  0.00  0.00     0.003 A 
ENDROOT
BRANCH   1   7
ATOM      7  C1' I4B d   1       5.999  -3.534  -0.948  0.00  0.00     0.060 C 
BRANCH   7   8
ATOM      8  C2' I4B d   1       5.667  -2.069  -1.151  0.00  0.00    -0.013 C 
ATOM      9  C4' I4B d   1       5.967  -1.633  -2.562  0.00  0.00     0.013 C 
ATOM     10  C3' I4B d   1       4.218  -1.872  -0.820  0.00  0.00     0.013 C 
ENDBRANCH   7   8
ENDBRANCH   1   7
TORSDOF 2
ENDMDL
