MODEL 1
REMARK minimizedAffinity 9.67605019
REMARK minimizedRMSD -1
REMARK  2 active torsions:
REMARK  status: ('A' for Active; 'I' for Inactive)
REMARK    1  A    between atoms: C2'_3  and  C1'_4 
REMARK    2  A    between atoms: C1'_4  and  C1_5 
ROOT
ATOM      1  C1  I4B d   1       1.180  -0.554  -0.566  0.00  0.00    -0.075 A 
ATOM      2  C2  I4B d   1       0.340   0.462  -0.187  0.00  0.00     0.003 A 
ATOM      3  C3  I4B d   1      -0.933   0.598  -0.791  0.00  0.00     0.002 A 
ATOM      4  C4  I4B d   1      -1.303  -0.269  -1.799  0.00  0.00    -0.004 A 
ATOM      5  C5  I4B d   1      -0.459  -1.313  -2.166  0.00  0.00     0.002 A 
ATOM      6  C6  I4B d   1       0.786  -1.465  -1.538  0.00  0.00     0.003 A 
ENDROOT
BRANCH   1   7
ATOM      7  C1' I4B d   1       2.531  -0.648   0.070  0.00  0.00     0.060 C 
BRANCH   7   8
ATOM      8  C2' I4B d   1       3.062  -2.048  -0.166  0.00  0.00    -0.013 C 
ATOM      9  C4' I4B d   1       4.541  -2.030  -0.446  0.00  0.00     0.013 C 
ATOM     10  C3' I4B d   1       2.751  -2.871   1.048  0.00  0.00     0.013 C 
ENDBRANCH   7   8
ENDBRANCH   1   7
TORSDOF 2
ENDMDL
