MODEL 1
REMARK minimizedAffinity -6.18025827
REMARK minimizedRMSD -1
REMARK  3 active torsions:
REMARK  status: ('A' for Active; 'I' for Inactive)
REMARK    1  A    between atoms: C3'_2  and  C2'_3 
REMARK    2  A    between atoms: C2'_3  and  C1'_4 
REMARK    3  A    between atoms: C1'_4  and  C1_5 
ROOT
ATOM      1  C1  N4B d   1       0.322   0.082   0.305  0.00  0.00    -0.075 A 
ATOM      2  C2  N4B d   1      -1.060   0.296   0.108  0.00  0.00     0.002 A 
ATOM      3  C3  N4B d   1      -1.784   1.004   1.037  0.00  0.00     0.002 A 
ATOM      4  C4  N4B d   1      -1.154   1.488   2.173  0.00  0.00    -0.004 A 
ATOM      5  C5  N4B d   1       0.186   1.298   2.343  0.00  0.00     0.002 A 
ATOM      6  C6  N4B d   1       0.927   0.592   1.417  0.00  0.00     0.002 A 
ENDROOT
BRANCH   1   7
ATOM      7  C1' N4B d   1       1.137  -0.759  -0.639  0.00  0.00     0.057 C 
BRANCH   7   8
ATOM      8  C2' N4B d   1       0.689  -0.482  -2.071  0.00  0.00     0.009 C 
BRANCH   8   9
ATOM      9  C3' N4B d   1       1.672   0.408  -2.812  0.00  0.00     0.004 C 
ATOM     10  C4' N4B d   1       1.013   1.254  -3.860  0.00  0.00     0.003 C 
ENDBRANCH   8   9
ENDBRANCH   7   8
ENDBRANCH   1   7
TORSDOF 3
ENDMDL
