MODEL 1
REMARK minimizedAffinity -4.95813417
REMARK minimizedRMSD -1
REMARK  3 active torsions:
REMARK  status: ('A' for Active; 'I' for Inactive)
REMARK    1  A    between atoms: C3'_2  and  C2'_3 
REMARK    2  A    between atoms: C2'_3  and  C1'_4 
REMARK    3  A    between atoms: C1'_4  and  C1_5 
ROOT
ATOM      1  C1  N4B d   1       0.454  -0.118   0.288  0.00  0.00    -0.075 A 
ATOM      2  C2  N4B d   1      -0.936   0.127   0.341  0.00  0.00     0.002 A 
ATOM      3  C3  N4B d   1      -1.476   0.793   1.413  0.00  0.00     0.002 A 
ATOM      4  C4  N4B d   1      -0.652   1.206   2.450  0.00  0.00    -0.004 A 
ATOM      5  C5  N4B d   1       0.693   0.989   2.379  0.00  0.00     0.002 A 
ATOM      6  C6  N4B d   1       1.250   0.324   1.305  0.00  0.00     0.002 A 
ENDROOT
BRANCH   1   7
ATOM      7  C1' N4B d   1       1.078  -0.918  -0.822  0.00  0.00     0.057 C 
BRANCH   7   8
ATOM      8  C2' N4B d   1       0.500  -0.457  -2.157  0.00  0.00     0.009 C 
BRANCH   8   9
ATOM      9  C3' N4B d   1       1.274   0.714  -2.738  0.00  0.00     0.004 C 
ATOM     10  C4' N4B d   1       1.059   0.878  -4.213  0.00  0.00     0.003 C 
ENDBRANCH   8   9
ENDBRANCH   7   8
ENDBRANCH   1   7
TORSDOF 3
ENDMDL
