MODEL 1
REMARK minimizedAffinity -3.52926064
REMARK minimizedRMSD -1
REMARK  3 active torsions:
REMARK  status: ('A' for Active; 'I' for Inactive)
REMARK    1  A    between atoms: C3'_2  and  C2'_3 
REMARK    2  A    between atoms: C2'_3  and  C1'_4 
REMARK    3  A    between atoms: C1'_4  and  C1_5 
ROOT
ATOM      1  C1  N4B d   1       0.531  -0.462  -0.123  0.00  0.00    -0.075 A 
ATOM      2  C2  N4B d   1       1.572  -0.574   0.825  0.00  0.00     0.002 A 
ATOM      3  C3  N4B d   1       1.416  -0.046   2.083  0.00  0.00     0.002 A 
ATOM      4  C4  N4B d   1       0.239   0.613   2.408  0.00  0.00    -0.004 A 
ATOM      5  C5  N4B d   1      -0.771   0.695   1.496  0.00  0.00     0.002 A 
ATOM      6  C6  N4B d   1      -0.629   0.165   0.229  0.00  0.00     0.002 A 
ENDROOT
BRANCH   1   7
ATOM      7  C1' N4B d   1       0.689  -0.948  -1.537  0.00  0.00     0.057 C 
BRANCH   7   8
ATOM      8  C2' N4B d   1       0.505   0.226  -2.494  0.00  0.00     0.009 C 
BRANCH   8   9
ATOM      9  C3' N4B d   1       1.301   0.046  -3.775  0.00  0.00     0.004 C 
ATOM     10  C4' N4B d   1       2.250   1.178  -4.033  0.00  0.00     0.003 C 
ENDBRANCH   8   9
ENDBRANCH   7   8
ENDBRANCH   1   7
TORSDOF 3
ENDMDL
