MODEL 1
REMARK minimizedAffinity 4.39941311
REMARK minimizedRMSD -1
REMARK  1 active torsions:
REMARK  status: ('A' for Active; 'I' for Inactive)
REMARK    1  A    between atoms: C1_2  and  C2_3 
ROOT
ATOM      1  C2  UNL d   1      -0.020   1.879   0.570  0.00  0.00    -0.081 A 
ATOM      2  C3  UNL d   1      -0.512   2.934  -0.209  0.00  0.00     0.006 A 
ATOM      3  C4  UNL d   1      -0.784   2.745  -1.566  0.00  0.00     0.002 A 
ATOM      4  C5  UNL d   1      -0.577   1.498  -2.165  0.00  0.00    -0.080 A 
ATOM      5  C6  UNL d   1      -0.895   1.274  -3.614  0.00  0.00     0.076 C 
ATOM      6  C7  UNL d   1      -0.069   0.449  -1.392  0.00  0.00     0.002 A 
ATOM      7  C8  UNL d   1       0.204   0.637  -0.035  0.00  0.00     0.006 A 
ENDROOT
BRANCH   1   8
ATOM      8  C1  UNL d   1       0.214   2.061   2.048  0.00  0.00     0.054 C 
ATOM      9  C   UNL d   1      -0.178   0.814   2.827  0.00  0.00     0.018 C 
ENDBRANCH   1   8
TORSDOF 1
ENDMDL
