MODEL 1
REMARK minimizedAffinity 3.06141686
REMARK minimizedRMSD -1
REMARK  1 active torsions:
REMARK  status: ('A' for Active; 'I' for Inactive)
REMARK    1  A    between atoms: C1_2  and  C2_3 
ROOT
ATOM      1  C2  UNL d   1      -0.611   1.847   1.463  0.00  0.00    -0.081 A 
ATOM      2  C3  UNL d   1      -0.793   3.196   1.137  0.00  0.00     0.006 A 
ATOM      3  C4  UNL d   1      -0.869   3.598  -0.199  0.00  0.00     0.002 A 
ATOM      4  C5  UNL d   1      -0.772   2.657  -1.230  0.00  0.00    -0.080 A 
ATOM      5  C6  UNL d   1      -0.881   3.070  -2.667  0.00  0.00     0.076 C 
ATOM      6  C7  UNL d   1      -0.572   1.311  -0.904  0.00  0.00     0.002 A 
ATOM      7  C8  UNL d   1      -0.496   0.909   0.432  0.00  0.00     0.006 A 
ENDROOT
BRANCH   1   8
ATOM      8  C1  UNL d   1      -0.594   1.402   2.904  0.00  0.00     0.054 C 
ATOM      9  C   UNL d   1       0.223   0.131   3.081  0.00  0.00     0.018 C 
ENDBRANCH   1   8
TORSDOF 1
ENDMDL
