MODEL 1
REMARK minimizedAffinity 6.35472536
REMARK minimizedRMSD -1
REMARK  1 active torsions:
REMARK  status: ('A' for Active; 'I' for Inactive)
REMARK    1  A    between atoms: C1_2  and  C2_3 
ROOT
ATOM      1  C2  UNL d   1      -0.907   1.353  -0.450  0.00  0.00    -0.081 A 
ATOM      2  C3  UNL d   1      -1.922   0.412  -0.664  0.00  0.00     0.006 A 
ATOM      3  C4  UNL d   1      -2.016  -0.262  -1.884  0.00  0.00     0.002 A 
ATOM      4  C5  UNL d   1      -1.095  -0.012  -2.906  0.00  0.00    -0.080 A 
ATOM      5  C6  UNL d   1      -1.167  -0.751  -4.210  0.00  0.00     0.076 C 
ATOM      6  C7  UNL d   1      -0.091   0.940  -2.699  0.00  0.00     0.002 A 
ATOM      7  C8  UNL d   1       0.004   1.615  -1.480  0.00  0.00     0.006 A 
ENDROOT
BRANCH   1   8
ATOM      8  C1  UNL d   1      -0.763   2.034   0.887  0.00  0.00     0.054 C 
ATOM      9  C   UNL d   1       0.687   2.046   1.349  0.00  0.00     0.018 C 
ENDBRANCH   1   8
TORSDOF 1
ENDMDL
