MODEL 1
REMARK minimizedAffinity 3.70473313
REMARK minimizedRMSD -1
REMARK  1 active torsions:
REMARK  status: ('A' for Active; 'I' for Inactive)
REMARK    1  A    between atoms: N_2  and  C1_3 
ROOT
ATOM      1  C1  UNL d   1       0.824   0.384   4.697  0.00  0.00     0.143 A 
ATOM      2  C2  UNL d   1       1.116  -0.981   4.603  0.00  0.00    -0.057 A 
ATOM      3  C3  UNL d   1       1.059  -1.653   3.376  0.00  0.00     0.033 A 
ATOM      4  C4  UNL d   1       0.678  -0.975   2.222  0.00  0.00    -0.042 A 
ATOM      5  C5  UNL d   1       0.359   0.376   2.296  0.00  0.00     0.033 A 
ATOM      6  C6  UNL d   1       0.425   1.043   3.524  0.00  0.00    -0.057 A 
ENDROOT
BRANCH   1   7
ATOM      7  N   UNL d   1       0.767   1.085   5.904  0.00  0.00    -0.732 N 
ATOM      8  C   UNL d   1       0.031   2.328   6.000  0.00  0.00     0.284 C 
ATOM      9  H3  UNL d   1       0.651   0.470   6.706  0.00  0.00     0.395 HD
ENDBRANCH   1   7
TORSDOF 1
ENDMDL
