MODEL 1
REMARK minimizedAffinity 6.92439747
REMARK minimizedRMSD -1
REMARK  1 active torsions:
REMARK  status: ('A' for Active; 'I' for Inactive)
REMARK    1  A    between atoms: N_2  and  C1_3 
ROOT
ATOM      1  C1  UNL d   1       0.762  -1.670   3.805  0.00  0.00     0.143 A 
ATOM      2  C2  UNL d   1      -0.027  -1.508   2.661  0.00  0.00    -0.057 A 
ATOM      3  C3  UNL d   1      -0.337  -0.235   2.167  0.00  0.00     0.033 A 
ATOM      4  C4  UNL d   1       0.113   0.902   2.828  0.00  0.00    -0.042 A 
ATOM      5  C5  UNL d   1       0.878   0.766   3.982  0.00  0.00     0.033 A 
ATOM      6  C6  UNL d   1       1.190  -0.508   4.466  0.00  0.00    -0.057 A 
ENDROOT
BRANCH   1   7
ATOM      7  N   UNL d   1       1.022  -2.906   4.401  0.00  0.00    -0.732 N 
ATOM      8  C   UNL d   1       1.345  -2.992   5.810  0.00  0.00     0.284 C 
ATOM      9  H3  UNL d   1       0.393  -3.636   4.074  0.00  0.00     0.395 HD
ENDBRANCH   1   7
TORSDOF 1
ENDMDL
