MODEL 1
REMARK minimizedAffinity 13.1346817
REMARK minimizedRMSD -1
REMARK  1 active torsions:
REMARK  status: ('A' for Active; 'I' for Inactive)
REMARK    1  A    between atoms: N_2  and  C1_3 
ROOT
ATOM      1  C1  UNL d   1      -4.058  -0.247  -0.713  0.00  0.00     0.143 A 
ATOM      2  C2  UNL d   1      -5.001   0.150  -1.668  0.00  0.00    -0.057 A 
ATOM      3  C3  UNL d   1      -5.605   1.412  -1.612  0.00  0.00     0.033 A 
ATOM      4  C4  UNL d   1      -5.296   2.292  -0.580  0.00  0.00    -0.042 A 
ATOM      5  C5  UNL d   1      -4.380   1.910   0.394  0.00  0.00     0.033 A 
ATOM      6  C6  UNL d   1      -3.776   0.651   0.329  0.00  0.00    -0.057 A 
ENDROOT
BRANCH   1   7
ATOM      7  N   UNL d   1      -3.497  -1.525  -0.658  0.00  0.00    -0.732 N 
ATOM      8  C   UNL d   1      -3.533  -2.294   0.567  0.00  0.00     0.284 C 
ATOM      9  H3  UNL d   1      -3.688  -2.069  -1.497  0.00  0.00     0.395 HD
ENDBRANCH   1   7
TORSDOF 1
ENDMDL
