MODEL 1
REMARK minimizedAffinity 3.89211226
REMARK minimizedRMSD -1
REMARK  1 active torsions:
REMARK  status: ('A' for Active; 'I' for Inactive)
REMARK    1  A    between atoms: N_2  and  C1_3 
ROOT
ATOM      1  C1  UNL d   1       4.128   1.526  -5.403  0.00  0.00     0.143 A 
ATOM      2  C2  UNL d   1       4.126   2.791  -6.000  0.00  0.00    -0.057 A 
ATOM      3  C3  UNL d   1       5.060   3.768  -5.633  0.00  0.00     0.033 A 
ATOM      4  C4  UNL d   1       5.996   3.505  -4.638  0.00  0.00    -0.042 A 
ATOM      5  C5  UNL d   1       6.000   2.263  -4.014  0.00  0.00     0.033 A 
ATOM      6  C6  UNL d   1       5.070   1.289  -4.389  0.00  0.00    -0.057 A 
ENDROOT
BRANCH   1   7
ATOM      7  N   UNL d   1       3.164   0.546  -5.655  0.00  0.00    -0.732 N 
ATOM      8  C   UNL d   1       2.034   0.378  -4.766  0.00  0.00     0.284 C 
ATOM      9  H3  UNL d   1       2.931   0.475  -6.642  0.00  0.00     0.395 HD
ENDBRANCH   1   7
TORSDOF 1
ENDMDL
