MODEL 1
REMARK minimizedAffinity 17.2165833
REMARK minimizedRMSD -1
REMARK  1 active torsions:
REMARK  status: ('A' for Active; 'I' for Inactive)
REMARK    1  A    between atoms: N_2  and  C1_3 
ROOT
ATOM      1  C1  UNL d   1      -0.435   0.085   1.900  0.00  0.00     0.143 A 
ATOM      2  C2  UNL d   1      -1.516  -0.774   1.673  0.00  0.00    -0.057 A 
ATOM      3  C3  UNL d   1      -2.836  -0.312   1.738  0.00  0.00     0.033 A 
ATOM      4  C4  UNL d   1      -3.101   1.014   2.061  0.00  0.00    -0.042 A 
ATOM      5  C5  UNL d   1      -2.043   1.880   2.315  0.00  0.00     0.033 A 
ATOM      6  C6  UNL d   1      -0.726   1.415   2.242  0.00  0.00    -0.057 A 
ENDROOT
BRANCH   1   7
ATOM      7  N   UNL d   1       0.896  -0.335   1.947  0.00  0.00    -0.732 N 
ATOM      8  C   UNL d   1       1.375  -1.147   3.046  0.00  0.00     0.284 C 
ATOM      9  H3  UNL d   1       1.245  -0.623   1.035  0.00  0.00     0.395 HD
ENDBRANCH   1   7
TORSDOF 1
ENDMDL
