MODEL 1
REMARK minimizedAffinity 7.05501604
REMARK minimizedRMSD -1
REMARK  0 active torsions:
REMARK  status: ('A' for Active; 'I' for Inactive)
ROOT
ATOM      1  C4' PXY d   1       2.154  -0.744   2.261  0.00  0.00     0.077 C 
ATOM      2  C1' PXY d   1       2.283   1.160  -3.195  0.00  0.00     0.077 C 
ATOM      3  C1  PXY d   1       2.239   0.653  -1.767  0.00  0.00    -0.082 A 
ATOM      4  C2  PXY d   1       2.724   1.404  -0.792  0.00  0.00     0.003 A 
ATOM      5  C3  PXY d   1       2.721   0.947   0.501  0.00  0.00     0.003 A 
ATOM      6  C4  PXY d   1       2.168  -0.268   0.806  0.00  0.00    -0.082 A 
ATOM      7  C5  PXY d   1       1.662  -1.035  -0.183  0.00  0.00     0.003 A 
ATOM      8  C6  PXY d   1       1.711  -0.571  -1.494  0.00  0.00     0.003 A 
ENDROOT
TORSDOF 0
ENDMDL
