MODEL 1
REMARK minimizedAffinity 4.01710081
REMARK minimizedRMSD -1
REMARK  0 active torsions:
REMARK  status: ('A' for Active; 'I' for Inactive)
ROOT
ATOM      1  C4' PXY d   1      -4.192   3.478  -5.689  0.00  0.00     0.077 C 
ATOM      2  C1' PXY d   1      -4.294  -2.108  -4.208  0.00  0.00     0.077 C 
ATOM      3  C1  PXY d   1      -4.256  -0.645  -4.602  0.00  0.00    -0.082 A 
ATOM      4  C2  PXY d   1      -4.988   0.232  -3.934  0.00  0.00     0.003 A 
ATOM      5  C3  PXY d   1      -4.989   1.554  -4.297  0.00  0.00     0.003 A 
ATOM      6  C4  PXY d   1      -4.192   1.992  -5.320  0.00  0.00    -0.082 A 
ATOM      7  C5  PXY d   1      -3.434   1.106  -6.000  0.00  0.00     0.003 A 
ATOM      8  C6  PXY d   1      -3.479  -0.239  -5.642  0.00  0.00     0.003 A 
ENDROOT
TORSDOF 0
ENDMDL
