MODEL 1
REMARK minimizedAffinity 3.38960505
REMARK minimizedRMSD -1
REMARK  0 active torsions:
REMARK  status: ('A' for Active; 'I' for Inactive)
ROOT
ATOM      1  C4' PXY d   1       3.454  -1.477   0.153  0.00  0.00     0.077 C 
ATOM      2  C1' PXY d   1      -1.122  -0.692   3.596  0.00  0.00     0.077 C 
ATOM      3  C1  PXY d   1       0.071  -0.905   2.685  0.00  0.00    -0.082 A 
ATOM      4  C2  PXY d   1       1.295  -0.822   3.180  0.00  0.00     0.003 A 
ATOM      5  C3  PXY d   1       2.385  -0.980   2.363  0.00  0.00     0.003 A 
ATOM      6  C4  PXY d   1       2.220  -1.279   1.037  0.00  0.00    -0.082 A 
ATOM      7  C5  PXY d   1       0.974  -1.376   0.527  0.00  0.00     0.003 A 
ATOM      8  C6  PXY d   1      -0.119  -1.171   1.364  0.00  0.00     0.003 A 
ENDROOT
TORSDOF 0
ENDMDL
