MODEL 1
REMARK minimizedAffinity 9.11181355
REMARK minimizedRMSD -1
REMARK  0 active torsions:
REMARK  status: ('A' for Active; 'I' for Inactive)
ROOT
ATOM      1  C4' PXY d   1      -1.105   0.621   3.924  0.00  0.00     0.077 C 
ATOM      2  C1' PXY d   1       2.599  -2.131   0.442  0.00  0.00     0.077 C 
ATOM      3  C1  PXY d   1       1.634  -1.414   1.366  0.00  0.00    -0.082 A 
ATOM      4  C2  PXY d   1       0.416  -1.122   0.940  0.00  0.00     0.003 A 
ATOM      5  C3  PXY d   1      -0.459  -0.445   1.751  0.00  0.00     0.003 A 
ATOM      6  C4  PXY d   1      -0.101  -0.111   3.030  0.00  0.00    -0.082 A 
ATOM      7  C5  PXY d   1       1.137  -0.415   3.475  0.00  0.00     0.003 A 
ATOM      8  C6  PXY d   1       2.024  -1.066   2.622  0.00  0.00     0.003 A 
ENDROOT
TORSDOF 0
ENDMDL
