MODEL 1
REMARK minimizedAffinity 9.5253191
REMARK minimizedRMSD -1
REMARK  0 active torsions:
REMARK  status: ('A' for Active; 'I' for Inactive)
ROOT
ATOM      1  C4' PXY d   1      -2.240   0.799   2.640  0.00  0.00     0.077 C 
ATOM      2  C1' PXY d   1       2.320  -2.653   1.804  0.00  0.00     0.077 C 
ATOM      3  C1  PXY d   1       1.127  -1.742   2.012  0.00  0.00    -0.082 A 
ATOM      4  C2  PXY d   1       0.690  -1.506   3.238  0.00  0.00     0.003 A 
ATOM      5  C3  PXY d   1      -0.408  -0.710   3.442  0.00  0.00     0.003 A 
ATOM      6  C4  PXY d   1      -1.033  -0.107   2.384  0.00  0.00    -0.082 A 
ATOM      7  C5  PXY d   1      -0.587  -0.335   1.130  0.00  0.00     0.003 A 
ATOM      8  C6  PXY d   1       0.504  -1.179   0.941  0.00  0.00     0.003 A 
ENDROOT
TORSDOF 0
ENDMDL
