MODEL 1
REMARK minimizedAffinity 5.06318665
REMARK minimizedRMSD -1
REMARK  0 active torsions:
REMARK  status: ('A' for Active; 'I' for Inactive)
ROOT
ATOM      1  C4' PXY d   1      -2.329   1.121   3.055  0.00  0.00     0.077 C 
ATOM      2  C1' PXY d   1       2.544  -1.985   3.181  0.00  0.00     0.077 C 
ATOM      3  C1  PXY d   1       1.266  -1.172   3.135  0.00  0.00    -0.082 A 
ATOM      4  C2  PXY d   1       0.985  -0.338   4.124  0.00  0.00     0.003 A 
ATOM      5  C3  PXY d   1      -0.182   0.381   4.113  0.00  0.00     0.003 A 
ATOM      6  C4  PXY d   1      -1.045   0.287   3.055  0.00  0.00    -0.082 A 
ATOM      7  C5  PXY d   1      -0.760  -0.553   2.037  0.00  0.00     0.003 A 
ATOM      8  C6  PXY d   1       0.410  -1.305   2.086  0.00  0.00     0.003 A 
ENDROOT
TORSDOF 0
ENDMDL
