MODEL 1
REMARK minimizedAffinity 6.55680895
REMARK minimizedRMSD -1
REMARK  0 active torsions:
REMARK  status: ('A' for Active; 'I' for Inactive)
ROOT
ATOM      1  C4' PXY d   1       2.818  -1.418   3.662  0.00  0.00     0.077 C 
ATOM      2  C1' PXY d   1      -0.807  -0.479  -0.742  0.00  0.00     0.077 C 
ATOM      3  C1  PXY d   1       0.136  -0.719   0.421  0.00  0.00    -0.082 A 
ATOM      4  C2  PXY d   1       1.416  -0.957   0.187  0.00  0.00     0.003 A 
ATOM      5  C3  PXY d   1       2.276  -1.208   1.225  0.00  0.00     0.003 A 
ATOM      6  C4  PXY d   1       1.832  -1.161   2.519  0.00  0.00    -0.082 A 
ATOM      7  C5  PXY d   1       0.529  -0.908   2.767  0.00  0.00     0.003 A 
ATOM      8  C6  PXY d   1      -0.336  -0.697   1.697  0.00  0.00     0.003 A 
ENDROOT
TORSDOF 0
ENDMDL
