MODEL 1
REMARK minimizedAffinity 7.65284729
REMARK minimizedRMSD -1
REMARK  0 active torsions:
REMARK  status: ('A' for Active; 'I' for Inactive)
ROOT
ATOM      1  C4' PXY d   1      -2.113   0.776   2.951  0.00  0.00     0.077 C 
ATOM      2  C1' PXY d   1       3.058  -1.760   2.464  0.00  0.00     0.077 C 
ATOM      3  C1  PXY d   1       1.700  -1.097   2.579  0.00  0.00    -0.082 A 
ATOM      4  C2  PXY d   1       1.477  -0.228   3.551  0.00  0.00     0.003 A 
ATOM      5  C3  PXY d   1       0.244   0.357   3.689  0.00  0.00     0.003 A 
ATOM      6  C4  PXY d   1      -0.754   0.090   2.791  0.00  0.00    -0.082 A 
ATOM      7  C5  PXY d   1      -0.531  -0.788   1.790  0.00  0.00     0.003 A 
ATOM      8  C6  PXY d   1       0.715  -1.402   1.692  0.00  0.00     0.003 A 
ENDROOT
TORSDOF 0
ENDMDL
