MODEL 1
REMARK minimizedAffinity 1.79334295
REMARK minimizedRMSD -1
REMARK  0 active torsions:
REMARK  status: ('A' for Active; 'I' for Inactive)
ROOT
ATOM      1  C4' PXY d   1      -0.426  -0.280   2.890  0.00  0.00     0.077 C 
ATOM      2  C1' PXY d   1       3.919  -2.945   0.165  0.00  0.00     0.077 C 
ATOM      3  C1  PXY d   1       2.780  -2.237   0.871  0.00  0.00    -0.082 A 
ATOM      4  C2  PXY d   1       2.579  -2.446   2.162  0.00  0.00     0.003 A 
ATOM      5  C3  PXY d   1       1.534  -1.838   2.808  0.00  0.00     0.003 A 
ATOM      6  C4  PXY d   1       0.718  -0.966   2.139  0.00  0.00    -0.082 A 
ATOM      7  C5  PXY d   1       0.922  -0.739   0.824  0.00  0.00     0.003 A 
ATOM      8  C6  PXY d   1       1.964  -1.398   0.176  0.00  0.00     0.003 A 
ENDROOT
TORSDOF 0
ENDMDL
