MODEL 1
REMARK minimizedAffinity 1.74767852
REMARK minimizedRMSD -1
REMARK  0 active torsions:
REMARK  status: ('A' for Active; 'I' for Inactive)
ROOT
ATOM      1  C4' PXY d   1      -0.319  -0.888   3.420  0.00  0.00     0.077 C 
ATOM      2  C1' PXY d   1       3.753  -2.322  -0.424  0.00  0.00     0.077 C 
ATOM      3  C1  PXY d   1       2.688  -1.957   0.591  0.00  0.00    -0.082 A 
ATOM      4  C2  PXY d   1       1.694  -1.158   0.237  0.00  0.00     0.003 A 
ATOM      5  C3  PXY d   1       0.740  -0.792   1.151  0.00  0.00     0.003 A 
ATOM      6  C4  PXY d   1       0.773  -1.291   2.426  0.00  0.00    -0.082 A 
ATOM      7  C5  PXY d   1       1.778  -2.115   2.791  0.00  0.00     0.003 A 
ATOM      8  C6  PXY d   1       2.760  -2.442   1.860  0.00  0.00     0.003 A 
ENDROOT
TORSDOF 0
ENDMDL
