MODEL 1
REMARK minimizedAffinity 6.01846838
REMARK minimizedRMSD -1
REMARK  0 active torsions:
REMARK  status: ('A' for Active; 'I' for Inactive)
ROOT
ATOM      1  C4' PXY d   1      -0.616  -0.030   3.465  0.00  0.00     0.077 C 
ATOM      2  C1' PXY d   1       3.444  -2.753   0.380  0.00  0.00     0.077 C 
ATOM      3  C1  PXY d   1       2.382  -2.046   1.200  0.00  0.00    -0.082 A 
ATOM      4  C2  PXY d   1       1.389  -1.424   0.586  0.00  0.00     0.003 A 
ATOM      5  C3  PXY d   1       0.437  -0.753   1.310  0.00  0.00     0.003 A 
ATOM      6  C4  PXY d   1       0.474  -0.764   2.679  0.00  0.00    -0.082 A 
ATOM      7  C5  PXY d   1       1.478  -1.405   3.313  0.00  0.00     0.003 A 
ATOM      8  C6  PXY d   1       2.457  -2.046   2.558  0.00  0.00     0.003 A 
ENDROOT
TORSDOF 0
ENDMDL
