MODEL 1
REMARK minimizedAffinity 3.55738711
REMARK minimizedRMSD -1
REMARK  0 active torsions:
REMARK  status: ('A' for Active; 'I' for Inactive)
ROOT
ATOM      1  C   UNL d   1       0.869  -1.222  -0.530  0.00  0.00     0.124 A 
ATOM      2  C1  UNL d   1       0.325  -0.027  -0.079  0.00  0.00     0.062 A 
ATOM      3  C2  UNL d   1       1.138   1.088   0.103  0.00  0.00     0.162 A 
ATOM      4  C3  UNL d   1       2.504   1.015  -0.169  0.00  0.00    -0.034 A 
ATOM      5  C4  UNL d   1       3.044  -0.190  -0.622  0.00  0.00     0.162 A 
ATOM      6  C5  UNL d   1       2.228  -1.302  -0.801  0.00  0.00     0.062 A 
ATOM      7  F   UNL d   1       2.755  -2.455  -1.238  0.00  0.00    -0.097 F 
ATOM      8  F1  UNL d   1       4.354  -0.296  -0.892  0.00  0.00    -0.096 F 
ATOM      9  I   UNL d   1       3.723   2.680   0.102  0.00  0.00    -0.060 I 
ATOM     10  F2  UNL d   1       0.585   2.229   0.540  0.00  0.00    -0.096 F 
ATOM     11  F3  UNL d   1      -0.987   0.053   0.185  0.00  0.00    -0.097 F 
ATOM     12  F4  UNL d   1       0.085  -2.293  -0.703  0.00  0.00    -0.092 F 
ENDROOT
TORSDOF 0
ENDMDL
