MODEL 1
REMARK minimizedAffinity 1.10094786
REMARK minimizedRMSD -1
REMARK  0 active torsions:
REMARK  status: ('A' for Active; 'I' for Inactive)
ROOT
ATOM      1  C   UNL d   1       0.445  -1.723  -0.874  0.00  0.00     0.124 A 
ATOM      2  C1  UNL d   1       1.706  -2.163  -1.253  0.00  0.00     0.062 A 
ATOM      3  C2  UNL d   1       2.770  -1.268  -1.312  0.00  0.00     0.162 A 
ATOM      4  C3  UNL d   1       2.579   0.076  -0.991  0.00  0.00    -0.034 A 
ATOM      5  C4  UNL d   1       1.307   0.511  -0.612  0.00  0.00     0.162 A 
ATOM      6  C5  UNL d   1       0.247  -0.388  -0.554  0.00  0.00     0.062 A 
ATOM      7  F   UNL d   1      -0.971   0.038  -0.189  0.00  0.00    -0.097 F 
ATOM      8  F1  UNL d   1       1.088   1.796  -0.297  0.00  0.00    -0.096 F 
ATOM      9  I   UNL d   1       4.167   1.418  -1.078  0.00  0.00    -0.060 I 
ATOM     10  F2  UNL d   1       3.978  -1.720  -1.681  0.00  0.00    -0.096 F 
ATOM     11  F3  UNL d   1       1.900  -3.452  -1.563  0.00  0.00    -0.097 F 
ATOM     12  F4  UNL d   1      -0.578  -2.587  -0.819  0.00  0.00    -0.092 F 
ENDROOT
TORSDOF 0
ENDMDL
