MODEL 1
REMARK minimizedAffinity 7.42355442
REMARK minimizedRMSD -1
REMARK  0 active torsions:
REMARK  status: ('A' for Active; 'I' for Inactive)
ROOT
ATOM      1  C   UNL d   1       0.245  -1.780  -0.752  0.00  0.00     0.124 A 
ATOM      2  C1  UNL d   1      -0.184  -0.463  -0.836  0.00  0.00     0.062 A 
ATOM      3  C2  UNL d   1       0.709   0.580  -0.608  0.00  0.00     0.162 A 
ATOM      4  C3  UNL d   1       2.042   0.310  -0.295  0.00  0.00    -0.034 A 
ATOM      5  C4  UNL d   1       2.466  -1.018  -0.212  0.00  0.00     0.162 A 
ATOM      6  C5  UNL d   1       1.569  -2.056  -0.440  0.00  0.00     0.062 A 
ATOM      7  F   UNL d   1       1.985  -3.328  -0.359  0.00  0.00    -0.097 F 
ATOM      8  F1  UNL d   1       3.740  -1.313   0.087  0.00  0.00    -0.096 F 
ATOM      9  I   UNL d   1       3.380   1.867   0.046  0.00  0.00    -0.060 I 
ATOM     10  F2  UNL d   1       0.267   1.843  -0.696  0.00  0.00    -0.096 F 
ATOM     11  F3  UNL d   1      -1.462  -0.194  -1.136  0.00  0.00    -0.097 F 
ATOM     12  F4  UNL d   1      -0.616  -2.782  -0.970  0.00  0.00    -0.092 F 
ENDROOT
TORSDOF 0
ENDMDL
