MODEL 1
REMARK minimizedAffinity 4.81074286
REMARK minimizedRMSD -1
REMARK  0 active torsions:
REMARK  status: ('A' for Active; 'I' for Inactive)
ROOT
ATOM      1  C   UNL d   1       0.687   0.010  -0.329  0.00  0.00     0.124 A 
ATOM      2  C1  UNL d   1       1.652  -0.804  -0.908  0.00  0.00     0.062 A 
ATOM      3  C2  UNL d   1       2.940  -0.321  -1.117  0.00  0.00     0.162 A 
ATOM      4  C3  UNL d   1       3.273   0.982  -0.748  0.00  0.00    -0.034 A 
ATOM      5  C4  UNL d   1       2.297   1.795  -0.168  0.00  0.00     0.162 A 
ATOM      6  C5  UNL d   1       1.011   1.308   0.040  0.00  0.00     0.062 A 
ATOM      7  F   UNL d   1       0.080   2.096   0.598  0.00  0.00    -0.097 F 
ATOM      8  F1  UNL d   1       2.582   3.053   0.199  0.00  0.00    -0.096 F 
ATOM      9  I   UNL d   1       5.198   1.708  -1.060  0.00  0.00    -0.060 I 
ATOM     10  F2  UNL d   1       3.852  -1.129  -1.678  0.00  0.00    -0.096 F 
ATOM     11  F3  UNL d   1       1.342  -2.058  -1.266  0.00  0.00    -0.097 F 
ATOM     12  F4  UNL d   1      -0.552  -0.456  -0.129  0.00  0.00    -0.092 F 
ENDROOT
TORSDOF 0
ENDMDL
