MODEL 1
REMARK minimizedAffinity 5.08487988
REMARK minimizedRMSD -1
REMARK  0 active torsions:
REMARK  status: ('A' for Active; 'I' for Inactive)
ROOT
ATOM      1  C   UNL d   1       0.372  -1.829  -0.581  0.00  0.00     0.124 A 
ATOM      2  C1  UNL d   1       0.417  -0.468  -0.315  0.00  0.00     0.062 A 
ATOM      3  C2  UNL d   1       1.524   0.284  -0.698  0.00  0.00     0.162 A 
ATOM      4  C3  UNL d   1       2.595  -0.323  -1.353  0.00  0.00    -0.034 A 
ATOM      5  C4  UNL d   1       2.543  -1.693  -1.617  0.00  0.00     0.162 A 
ATOM      6  C5  UNL d   1       1.435  -2.440  -1.232  0.00  0.00     0.062 A 
ATOM      7  F   UNL d   1       1.393  -3.756  -1.489  0.00  0.00    -0.097 F 
ATOM      8  F1  UNL d   1       3.556  -2.309  -2.245  0.00  0.00    -0.096 F 
ATOM      9  I   UNL d   1       4.252   0.798  -1.928  0.00  0.00    -0.060 I 
ATOM     10  F2  UNL d   1       1.540   1.598  -0.429  0.00  0.00    -0.096 F 
ATOM     11  F3  UNL d   1      -0.608   0.125   0.314  0.00  0.00    -0.097 F 
ATOM     12  F4  UNL d   1      -0.694  -2.550  -0.210  0.00  0.00    -0.092 F 
ENDROOT
TORSDOF 0
ENDMDL
