MODEL 1
REMARK minimizedAffinity 4.75785017
REMARK minimizedRMSD -1
REMARK  0 active torsions:
REMARK  status: ('A' for Active; 'I' for Inactive)
ROOT
ATOM      1  C   UNL d   1       3.944   1.444  -0.859  0.00  0.00     0.124 A 
ATOM      2  C1  UNL d   1       2.694   1.661  -0.298  0.00  0.00     0.062 A 
ATOM      3  C2  UNL d   1       1.763   0.628  -0.240  0.00  0.00     0.162 A 
ATOM      4  C3  UNL d   1       2.081  -0.634  -0.745  0.00  0.00    -0.034 A 
ATOM      5  C4  UNL d   1       3.340  -0.844  -1.308  0.00  0.00     0.162 A 
ATOM      6  C5  UNL d   1       4.267   0.192  -1.364  0.00  0.00     0.062 A 
ATOM      7  F   UNL d   1       5.475  -0.019  -1.906  0.00  0.00    -0.097 F 
ATOM      8  F1  UNL d   1       3.678  -2.044  -1.802  0.00  0.00    -0.096 F 
ATOM      9  I   UNL d   1       0.693  -2.182  -0.660  0.00  0.00    -0.060 I 
ATOM     10  F2  UNL d   1       0.562   0.866   0.307  0.00  0.00    -0.096 F 
ATOM     11  F3  UNL d   1       2.380   2.871   0.189  0.00  0.00    -0.097 F 
ATOM     12  F4  UNL d   1       4.837   2.441  -0.915  0.00  0.00    -0.092 F 
ENDROOT
TORSDOF 0
ENDMDL
