MODEL 1
REMARK minimizedAffinity 8.20810413
REMARK minimizedRMSD -1
REMARK  0 active torsions:
REMARK  status: ('A' for Active; 'I' for Inactive)
ROOT
ATOM      1  C   UNL d   1       2.331  -1.369  -1.378  0.00  0.00     0.124 A 
ATOM      2  C1  UNL d   1       2.849  -0.092  -1.212  0.00  0.00     0.062 A 
ATOM      3  C2  UNL d   1       2.196   0.827  -0.396  0.00  0.00     0.162 A 
ATOM      4  C3  UNL d   1       1.019   0.472   0.263  0.00  0.00    -0.034 A 
ATOM      5  C4  UNL d   1       0.504  -0.814   0.090  0.00  0.00     0.162 A 
ATOM      6  C5  UNL d   1       1.160  -1.729  -0.727  0.00  0.00     0.062 A 
ATOM      7  F   UNL d   1       0.658  -2.963  -0.886  0.00  0.00    -0.097 F 
ATOM      8  F1  UNL d   1      -0.626  -1.189   0.709  0.00  0.00    -0.096 F 
ATOM      9  I   UNL d   1       0.040   1.843   1.485  0.00  0.00    -0.060 I 
ATOM     10  F2  UNL d   1       2.719   2.054  -0.254  0.00  0.00    -0.096 F 
ATOM     11  F3  UNL d   1       3.980   0.259  -1.841  0.00  0.00    -0.097 F 
ATOM     12  F4  UNL d   1       2.961  -2.251  -2.165  0.00  0.00    -0.092 F 
ENDROOT
TORSDOF 0
ENDMDL
