MODEL 1
REMARK minimizedAffinity 14.5720739
REMARK minimizedRMSD -1
REMARK  0 active torsions:
REMARK  status: ('A' for Active; 'I' for Inactive)
ROOT
ATOM      1  C   UNL d   1       0.475  -1.619  -1.072  0.00  0.00     0.124 A 
ATOM      2  C1  UNL d   1       0.139  -0.290  -0.858  0.00  0.00     0.062 A 
ATOM      3  C2  UNL d   1       1.136   0.672  -0.728  0.00  0.00     0.162 A 
ATOM      4  C3  UNL d   1       2.480   0.308  -0.813  0.00  0.00    -0.034 A 
ATOM      5  C4  UNL d   1       2.810  -1.031  -1.027  0.00  0.00     0.162 A 
ATOM      6  C5  UNL d   1       1.810  -1.989  -1.156  0.00  0.00     0.062 A 
ATOM      7  F   UNL d   1       2.136  -3.273  -1.363  0.00  0.00    -0.097 F 
ATOM      8  F1  UNL d   1       4.092  -1.416  -1.114  0.00  0.00    -0.096 F 
ATOM      9  I   UNL d   1       3.975   1.744  -0.619  0.00  0.00    -0.060 I 
ATOM     10  F2  UNL d   1       0.782   1.950  -0.522  0.00  0.00    -0.096 F 
ATOM     11  F3  UNL d   1      -1.150   0.070  -0.776  0.00  0.00    -0.097 F 
ATOM     12  F4  UNL d   1      -0.487  -2.543  -1.196  0.00  0.00    -0.092 F 
ENDROOT
TORSDOF 0
ENDMDL
