MODEL 1
REMARK minimizedAffinity 7.8721714
REMARK minimizedRMSD -1
REMARK  0 active torsions:
REMARK  status: ('A' for Active; 'I' for Inactive)
ROOT
ATOM      1  C   UNL d   1       1.798   0.402  -0.781  0.00  0.00     0.124 A 
ATOM      2  C1  UNL d   1       0.460   0.652  -1.055  0.00  0.00     0.062 A 
ATOM      3  C2  UNL d   1      -0.436  -0.404  -1.187  0.00  0.00     0.162 A 
ATOM      4  C3  UNL d   1       0.001  -1.721  -1.044  0.00  0.00    -0.034 A 
ATOM      5  C4  UNL d   1       1.348  -1.965  -0.769  0.00  0.00     0.162 A 
ATOM      6  C5  UNL d   1       2.240  -0.906  -0.638  0.00  0.00     0.062 A 
ATOM      7  F   UNL d   1       3.532  -1.149  -0.373  0.00  0.00    -0.097 F 
ATOM      8  F1  UNL d   1       1.803  -3.218  -0.626  0.00  0.00    -0.096 F 
ATOM      9  I   UNL d   1      -1.336  -3.303  -1.241  0.00  0.00    -0.060 I 
ATOM     10  F2  UNL d   1      -1.723  -0.134  -1.452  0.00  0.00    -0.096 F 
ATOM     11  F3  UNL d   1       0.030   1.914  -1.194  0.00  0.00    -0.097 F 
ATOM     12  F4  UNL d   1       2.659   1.420  -0.655  0.00  0.00    -0.092 F 
ENDROOT
TORSDOF 0
ENDMDL
