MODEL 1
REMARK minimizedAffinity 7.72465801
REMARK minimizedRMSD -1
REMARK  0 active torsions:
REMARK  status: ('A' for Active; 'I' for Inactive)
ROOT
ATOM      1  C   UNL d   1       4.068   1.345  -1.174  0.00  0.00     0.124 A 
ATOM      2  C1  UNL d   1       2.954   0.533  -1.017  0.00  0.00     0.062 A 
ATOM      3  C2  UNL d   1       2.015   0.815  -0.029  0.00  0.00     0.162 A 
ATOM      4  C3  UNL d   1       2.186   1.917   0.810  0.00  0.00    -0.034 A 
ATOM      5  C4  UNL d   1       3.310   2.728   0.647  0.00  0.00     0.162 A 
ATOM      6  C5  UNL d   1       4.246   2.442  -0.342  0.00  0.00     0.062 A 
ATOM      7  F   UNL d   1       5.322   3.228  -0.492  0.00  0.00    -0.097 F 
ATOM      8  F1  UNL d   1       3.506   3.795   1.436  0.00  0.00    -0.096 F 
ATOM      9  I   UNL d   1       0.785   2.342   2.289  0.00  0.00    -0.060 I 
ATOM     10  F2  UNL d   1       0.948   0.013   0.100  0.00  0.00    -0.096 F 
ATOM     11  F3  UNL d   1       2.781  -0.528  -1.819  0.00  0.00    -0.097 F 
ATOM     12  F4  UNL d   1       4.971   1.071  -2.125  0.00  0.00    -0.092 F 
ENDROOT
TORSDOF 0
ENDMDL
