MODEL 1
REMARK minimizedAffinity -4.47252989
REMARK minimizedRMSD -1
REMARK  0 active torsions:
REMARK  status: ('A' for Active; 'I' for Inactive)
ROOT
ATOM      1  C1  BNZ d   1      -0.142   0.133   0.475  0.00  0.00     0.000 A 
ATOM      2  C2  BNZ d   1       0.828   0.285   1.429  0.00  0.00     0.000 A 
ATOM      3  C3  BNZ d   1       0.501   0.630   2.711  0.00  0.00     0.000 A 
ATOM      4  C4  BNZ d   1      -0.790   0.861   3.026  0.00  0.00     0.000 A 
ATOM      5  C5  BNZ d   1      -1.779   0.720   2.073  0.00  0.00     0.000 A 
ATOM      6  C6  BNZ d   1      -1.450   0.335   0.794  0.00  0.00     0.000 A 
ENDROOT
TORSDOF 0
ENDMDL
