MODEL 1
REMARK minimizedAffinity -4.30234623
REMARK minimizedRMSD -1
REMARK  0 active torsions:
REMARK  status: ('A' for Active; 'I' for Inactive)
ROOT
ATOM      1  C1  BNZ d   1       0.309   0.803   1.567  0.00  0.00     0.000 A 
ATOM      2  C2  BNZ d   1       0.450   0.300   0.301  0.00  0.00     0.000 A 
ATOM      3  C3  BNZ d   1      -0.633  -0.161  -0.394  0.00  0.00     0.000 A 
ATOM      4  C4  BNZ d   1      -1.848  -0.156   0.193  0.00  0.00     0.000 A 
ATOM      5  C5  BNZ d   1      -2.005   0.339   1.472  0.00  0.00     0.000 A 
ATOM      6  C6  BNZ d   1      -0.918   0.838   2.154  0.00  0.00     0.000 A 
ENDROOT
TORSDOF 0
ENDMDL
