MODEL 1
REMARK minimizedAffinity -1.0289917
REMARK minimizedRMSD -1
REMARK  0 active torsions:
REMARK  status: ('A' for Active; 'I' for Inactive)
ROOT
ATOM      1  C1  BNZ d   1      -1.062   0.304   1.267  0.00  0.00     0.000 A 
ATOM      2  C2  BNZ d   1       0.296   0.156   1.170  0.00  0.00     0.000 A 
ATOM      3  C3  BNZ d   1       0.858  -0.447   0.080  0.00  0.00     0.000 A 
ATOM      4  C4  BNZ d   1       0.061  -0.937  -0.891  0.00  0.00     0.000 A 
ATOM      5  C5  BNZ d   1      -1.311  -0.804  -0.803  0.00  0.00     0.000 A 
ATOM      6  C6  BNZ d   1      -1.871  -0.162   0.277  0.00  0.00     0.000 A 
ENDROOT
TORSDOF 0
ENDMDL
