MODEL 1
REMARK minimizedAffinity -4.63698006
REMARK minimizedRMSD -1
REMARK  0 active torsions:
REMARK  status: ('A' for Active; 'I' for Inactive)
ROOT
ATOM      1  C1  BNZ d   1      -1.127   0.770   1.073  0.00  0.00     0.000 A 
ATOM      2  C2  BNZ d   1      -1.664   1.102   2.288  0.00  0.00     0.000 A 
ATOM      3  C3  BNZ d   1      -0.936   0.964   3.437  0.00  0.00     0.000 A 
ATOM      4  C4  BNZ d   1       0.312   0.457   3.374  0.00  0.00     0.000 A 
ATOM      5  C5  BNZ d   1       0.864   0.109   2.157  0.00  0.00     0.000 A 
ATOM      6  C6  BNZ d   1       0.143   0.285   0.999  0.00  0.00     0.000 A 
ENDROOT
TORSDOF 0
ENDMDL
