MODEL 1
REMARK minimizedAffinity -5.40704393
REMARK minimizedRMSD -1
REMARK  0 active torsions:
REMARK  status: ('A' for Active; 'I' for Inactive)
ROOT
ATOM      1  C1  BNZ d   1      -0.501   1.054   3.593  0.00  0.00     0.000 A 
ATOM      2  C2  BNZ d   1      -1.133   1.557   2.486  0.00  0.00     0.000 A 
ATOM      3  C3  BNZ d   1      -0.711   1.225   1.229  0.00  0.00     0.000 A 
ATOM      4  C4  BNZ d   1       0.364   0.424   1.080  0.00  0.00     0.000 A 
ATOM      5  C5  BNZ d   1       1.017  -0.082   2.186  0.00  0.00     0.000 A 
ATOM      6  C6  BNZ d   1       0.566   0.223   3.450  0.00  0.00     0.000 A 
ENDROOT
TORSDOF 0
ENDMDL
