MODEL 1
REMARK minimizedAffinity -5.13024855
REMARK minimizedRMSD -1
REMARK  0 active torsions:
REMARK  status: ('A' for Active; 'I' for Inactive)
ROOT
ATOM      1  C1  BNZ d   1      -0.629   1.098   3.000  0.00  0.00     0.000 A 
ATOM      2  C2  BNZ d   1       0.375   0.571   3.769  0.00  0.00     0.000 A 
ATOM      3  C3  BNZ d   1       1.415  -0.105   3.195  0.00  0.00     0.000 A 
ATOM      4  C4  BNZ d   1       1.429  -0.289   1.859  0.00  0.00     0.000 A 
ATOM      5  C5  BNZ d   1       0.420   0.227   1.071  0.00  0.00     0.000 A 
ATOM      6  C6  BNZ d   1      -0.605   0.941   1.648  0.00  0.00     0.000 A 
ENDROOT
TORSDOF 0
ENDMDL
