MODEL 1
REMARK minimizedAffinity -4.27372646
REMARK minimizedRMSD -1
REMARK  0 active torsions:
REMARK  status: ('A' for Active; 'I' for Inactive)
ROOT
ATOM      1  C1  BNZ d   1      -0.850   1.262   2.954  0.00  0.00     0.000 A 
ATOM      2  C2  BNZ d   1      -1.674   1.504   1.888  0.00  0.00     0.000 A 
ATOM      3  C3  BNZ d   1      -1.389   0.993   0.652  0.00  0.00     0.000 A 
ATOM      4  C4  BNZ d   1      -0.260   0.275   0.477  0.00  0.00     0.000 A 
ATOM      5  C5  BNZ d   1       0.585   0.030   1.540  0.00  0.00     0.000 A 
ATOM      6  C6  BNZ d   1       0.275   0.513   2.790  0.00  0.00     0.000 A 
ENDROOT
TORSDOF 0
ENDMDL
