MODEL 1
REMARK minimizedAffinity 0.251410276
REMARK minimizedRMSD -1
REMARK  0 active torsions:
REMARK  status: ('A' for Active; 'I' for Inactive)
ROOT
ATOM      1  C2' OXE d   1      -1.737   2.621  -1.305  0.00  0.00     0.078 C 
ATOM      2  C1' OXE d   1      -3.103   1.855  -3.635  0.00  0.00     0.078 C 
ATOM      3  C1  OXE d   1      -2.085   2.962  -3.748  0.00  0.00    -0.078 A 
ATOM      4  C2  OXE d   1      -1.455   3.362  -2.594  0.00  0.00    -0.078 A 
ATOM      5  C3  OXE d   1      -0.468   4.342  -2.652  0.00  0.00     0.003 A 
ATOM      6  C4  OXE d   1      -0.220   5.029  -3.846  0.00  0.00    -0.002 A 
ATOM      7  C5  OXE d   1      -0.879   4.664  -5.025  0.00  0.00    -0.002 A 
ATOM      8  C6  OXE d   1      -1.782   3.607  -5.002  0.00  0.00     0.003 A 
ENDROOT
TORSDOF 0
ENDMDL
