MODEL 1
REMARK minimizedAffinity -4.07013941
REMARK minimizedRMSD -1
REMARK  0 active torsions:
REMARK  status: ('A' for Active; 'I' for Inactive)
ROOT
ATOM      1  C2' OXE d   1      -0.562   1.278   0.013  0.00  0.00     0.078 C 
ATOM      2  C1' OXE d   1      -1.087  -0.792   1.835  0.00  0.00     0.078 C 
ATOM      3  C1  OXE d   1       0.128  -0.925   0.951  0.00  0.00    -0.078 A 
ATOM      4  C2  OXE d   1       0.351   0.071   0.030  0.00  0.00    -0.078 A 
ATOM      5  C3  OXE d   1       1.488   0.025  -0.773  0.00  0.00     0.003 A 
ATOM      6  C4  OXE d   1       2.322  -1.100  -0.757  0.00  0.00    -0.002 A 
ATOM      7  C5  OXE d   1       2.090  -2.143   0.145  0.00  0.00    -0.002 A 
ATOM      8  C6  OXE d   1       1.024  -2.051   1.034  0.00  0.00     0.003 A 
ENDROOT
TORSDOF 0
ENDMDL
