MODEL 1
REMARK minimizedAffinity -5.29156351
REMARK minimizedRMSD -1
REMARK  0 active torsions:
REMARK  status: ('A' for Active; 'I' for Inactive)
ROOT
ATOM      1  C2' OXE d   1      -1.327  -1.452   2.280  0.00  0.00     0.078 C 
ATOM      2  C1' OXE d   1       1.108  -2.421   1.275  0.00  0.00     0.078 C 
ATOM      3  C1  OXE d   1       0.652  -1.058   0.820  0.00  0.00    -0.078 A 
ATOM      4  C2  OXE d   1      -0.563  -0.611   1.280  0.00  0.00    -0.078 A 
ATOM      5  C3  OXE d   1      -1.005   0.663   0.935  0.00  0.00     0.003 A 
ATOM      6  C4  OXE d   1      -0.298   1.430   0.002  0.00  0.00    -0.002 A 
ATOM      7  C5  OXE d   1       0.923   0.977  -0.510  0.00  0.00    -0.002 A 
ATOM      8  C6  OXE d   1       1.432  -0.243  -0.080  0.00  0.00     0.003 A 
ENDROOT
TORSDOF 0
ENDMDL
