MODEL 1
REMARK minimizedAffinity -5.55130577
REMARK minimizedRMSD -1
REMARK  0 active torsions:
REMARK  status: ('A' for Active; 'I' for Inactive)
ROOT
ATOM      1  C2' OXE d   1      -0.456   1.439  -0.818  0.00  0.00     0.078 C 
ATOM      2  C1' OXE d   1       2.227   0.760  -1.291  0.00  0.00     0.078 C 
ATOM      3  C1  OXE d   1       1.440  -0.102  -0.335  0.00  0.00    -0.078 A 
ATOM      4  C2  OXE d   1       0.142   0.265  -0.074  0.00  0.00    -0.078 A 
ATOM      5  C3  OXE d   1      -0.644  -0.527   0.757  0.00  0.00     0.003 A 
ATOM      6  C4  OXE d   1      -0.080  -1.606   1.450  0.00  0.00    -0.002 A 
ATOM      7  C5  OXE d   1       1.251  -1.973   1.229  0.00  0.00    -0.002 A 
ATOM      8  C6  OXE d   1       2.011  -1.259   0.309  0.00  0.00     0.003 A 
ENDROOT
TORSDOF 0
ENDMDL
