MODEL 1
REMARK minimizedAffinity -0.54115504
REMARK minimizedRMSD -1
REMARK  0 active torsions:
REMARK  status: ('A' for Active; 'I' for Inactive)
ROOT
ATOM      1  C2' OXE d   1       2.452   0.868   0.035  0.00  0.00     0.078 C 
ATOM      2  C1' OXE d   1       3.029  -1.479   1.463  0.00  0.00     0.078 C 
ATOM      3  C1  OXE d   1       1.594  -1.228   1.071  0.00  0.00    -0.078 A 
ATOM      4  C2  OXE d   1       1.314  -0.055   0.414  0.00  0.00    -0.078 A 
ATOM      5  C3  OXE d   1       0.016   0.201  -0.019  0.00  0.00     0.003 A 
ATOM      6  C4  OXE d   1      -1.033  -0.653   0.344  0.00  0.00    -0.002 A 
ATOM      7  C5  OXE d   1      -0.775  -1.834   1.048  0.00  0.00    -0.002 A 
ATOM      8  C6  OXE d   1       0.535  -2.157   1.382  0.00  0.00     0.003 A 
ENDROOT
TORSDOF 0
ENDMDL
