MODEL 1
REMARK minimizedAffinity -0.948713601
REMARK minimizedRMSD -1
REMARK  0 active torsions:
REMARK  status: ('A' for Active; 'I' for Inactive)
ROOT
ATOM      1  C2' OXE d   1      -1.621  -0.498   1.465  0.00  0.00     0.078 C 
ATOM      2  C1' OXE d   1      -0.412   1.284  -0.337  0.00  0.00     0.078 C 
ATOM      3  C1  OXE d   1       0.377   0.071   0.089  0.00  0.00    -0.078 A 
ATOM      4  C2  OXE d   1      -0.204  -0.771   1.007  0.00  0.00    -0.078 A 
ATOM      5  C3  OXE d   1       0.458  -1.933   1.392  0.00  0.00     0.003 A 
ATOM      6  C4  OXE d   1       1.771  -2.174   0.971  0.00  0.00    -0.002 A 
ATOM      7  C5  OXE d   1       2.397  -1.308   0.067  0.00  0.00    -0.002 A 
ATOM      8  C6  OXE d   1       1.699  -0.207  -0.416  0.00  0.00     0.003 A 
ENDROOT
TORSDOF 0
ENDMDL
