MODEL 1
REMARK minimizedAffinity -3.9411726
REMARK minimizedRMSD -1
REMARK  0 active torsions:
REMARK  status: ('A' for Active; 'I' for Inactive)
ROOT
ATOM      1  C2' OXE d   1       2.275  -1.503   0.866  0.00  0.00     0.078 C 
ATOM      2  C1' OXE d   1      -0.507  -1.882   0.873  0.00  0.00     0.078 C 
ATOM      3  C1  OXE d   1       0.023  -0.569   0.353  0.00  0.00    -0.078 A 
ATOM      4  C2  OXE d   1       1.383  -0.374   0.397  0.00  0.00    -0.078 A 
ATOM      5  C3  OXE d   1       1.929   0.797  -0.121  0.00  0.00     0.003 A 
ATOM      6  C4  OXE d   1       1.096   1.840  -0.544  0.00  0.00    -0.002 A 
ATOM      7  C5  OXE d   1      -0.293   1.678  -0.560  0.00  0.00    -0.002 A 
ATOM      8  C6  OXE d   1      -0.842   0.466  -0.156  0.00  0.00     0.003 A 
ENDROOT
TORSDOF 0
ENDMDL
