MODEL 1
REMARK minimizedAffinity -2.26973891
REMARK minimizedRMSD -1
REMARK  0 active torsions:
REMARK  status: ('A' for Active; 'I' for Inactive)
ROOT
ATOM      1  C2' OXE d   1      -3.704   0.340  -2.222  0.00  0.00     0.078 C 
ATOM      2  C1' OXE d   1      -1.333   0.785  -0.785  0.00  0.00     0.078 C 
ATOM      3  C1  OXE d   1      -1.652   1.721  -1.924  0.00  0.00    -0.078 A 
ATOM      4  C2  OXE d   1      -2.790   1.468  -2.651  0.00  0.00    -0.078 A 
ATOM      5  C3  OXE d   1      -3.159   2.333  -3.677  0.00  0.00     0.003 A 
ATOM      6  C4  OXE d   1      -2.303   3.368  -4.074  0.00  0.00    -0.002 A 
ATOM      7  C5  OXE d   1      -1.119   3.619  -3.372  0.00  0.00    -0.002 A 
ATOM      8  C6  OXE d   1      -0.801   2.833  -2.270  0.00  0.00     0.003 A 
ENDROOT
TORSDOF 0
ENDMDL
