MODEL 1
REMARK minimizedAffinity -5.66912079
REMARK minimizedRMSD -1
REMARK  0 active torsions:
REMARK  status: ('A' for Active; 'I' for Inactive)
ROOT
ATOM      1  C2' OXE d   1       2.279   0.427  -0.957  0.00  0.00     0.078 C 
ATOM      2  C1' OXE d   1      -0.349   1.265  -0.438  0.00  0.00     0.078 C 
ATOM      3  C1  OXE d   1       0.102  -0.045   0.158  0.00  0.00    -0.078 A 
ATOM      4  C2  OXE d   1       1.375  -0.470  -0.140  0.00  0.00    -0.078 A 
ATOM      5  C3  OXE d   1       1.860  -1.644   0.429  0.00  0.00     0.003 A 
ATOM      6  C4  OXE d   1       1.014  -2.473   1.175  0.00  0.00    -0.002 A 
ATOM      7  C5  OXE d   1      -0.298  -2.079   1.457  0.00  0.00    -0.002 A 
ATOM      8  C6  OXE d   1      -0.755  -0.850   0.993  0.00  0.00     0.003 A 
ENDROOT
TORSDOF 0
ENDMDL
