MODEL 1
REMARK minimizedAffinity -4.21324921
REMARK minimizedRMSD -1
REMARK  0 active torsions:
REMARK  status: ('A' for Active; 'I' for Inactive)
ROOT
ATOM      1  C2' OXE d   1      -1.237  -0.981   2.324  0.00  0.00     0.078 C 
ATOM      2  C1' OXE d   1       1.176  -1.983   1.298  0.00  0.00     0.078 C 
ATOM      3  C1  OXE d   1       0.530  -0.828   0.575  0.00  0.00    -0.078 A 
ATOM      4  C2  OXE d   1      -0.674  -0.374   1.057  0.00  0.00    -0.078 A 
ATOM      5  C3  OXE d   1      -1.286   0.725   0.461  0.00  0.00     0.003 A 
ATOM      6  C4  OXE d   1      -0.763   1.274  -0.717  0.00  0.00    -0.002 A 
ATOM      7  C5  OXE d   1       0.442   0.801  -1.247  0.00  0.00    -0.002 A 
ATOM      8  C6  OXE d   1       1.122  -0.219  -0.590  0.00  0.00     0.003 A 
ENDROOT
TORSDOF 0
ENDMDL
