MODEL 1
REMARK minimizedAffinity -4.34978056
REMARK minimizedRMSD -1
REMARK  0 active torsions:
REMARK  status: ('A' for Active; 'I' for Inactive)
ROOT
ATOM      1  C2' OXE d   1      -2.063   0.397   0.874  0.00  0.00     0.078 C 
ATOM      2  C1' OXE d   1       0.268   1.404  -0.321  0.00  0.00     0.078 C 
ATOM      3  C1  OXE d   1       0.318   0.010   0.253  0.00  0.00    -0.078 A 
ATOM      4  C2  OXE d   1      -0.813  -0.457   0.877  0.00  0.00    -0.078 A 
ATOM      5  C3  OXE d   1      -0.839  -1.757   1.375  0.00  0.00     0.003 A 
ATOM      6  C4  OXE d   1       0.324  -2.536   1.383  0.00  0.00    -0.002 A 
ATOM      7  C5  OXE d   1       1.499  -2.064   0.788  0.00  0.00    -0.002 A 
ATOM      8  C6  OXE d   1       1.500  -0.812   0.182  0.00  0.00     0.003 A 
ENDROOT
TORSDOF 0
ENDMDL
