MODEL 1
REMARK minimizedAffinity -3.53276753
REMARK minimizedRMSD -1
REMARK  0 active torsions:
REMARK  status: ('A' for Active; 'I' for Inactive)
ROOT
ATOM      1  C2' OXE d   1       1.964   0.908  -0.123  0.00  0.00     0.078 C 
ATOM      2  C1' OXE d   1      -0.747   0.789  -0.842  0.00  0.00     0.078 C 
ATOM      3  C1  OXE d   1      -0.123  -0.446  -0.240  0.00  0.00    -0.078 A 
ATOM      4  C2  OXE d   1       1.215  -0.393   0.066  0.00  0.00    -0.078 A 
ATOM      5  C3  OXE d   1       1.827  -1.486   0.674  0.00  0.00     0.003 A 
ATOM      6  C4  OXE d   1       1.130  -2.689   0.836  0.00  0.00    -0.002 A 
ATOM      7  C5  OXE d   1      -0.224  -2.776   0.495  0.00  0.00    -0.002 A 
ATOM      8  C6  OXE d   1      -0.875  -1.653  -0.004  0.00  0.00     0.003 A 
ENDROOT
TORSDOF 0
ENDMDL
