MODEL 1
REMARK minimizedAffinity -2.57430935
REMARK minimizedRMSD -1
REMARK  0 active torsions:
REMARK  status: ('A' for Active; 'I' for Inactive)
ROOT
ATOM      1  C2' OXE d   1       1.669  -0.354  -0.759  0.00  0.00     0.078 C 
ATOM      2  C1' OXE d   1       1.261  -2.490   1.015  0.00  0.00     0.078 C 
ATOM      3  C1  OXE d   1       0.194  -1.428   0.937  0.00  0.00    -0.078 A 
ATOM      4  C2  OXE d   1       0.424  -0.362   0.101  0.00  0.00    -0.078 A 
ATOM      5  C3  OXE d   1      -0.553   0.619  -0.050  0.00  0.00     0.003 A 
ATOM      6  C4  OXE d   1      -1.697   0.609   0.756  0.00  0.00    -0.002 A 
ATOM      7  C5  OXE d   1      -1.932  -0.446   1.643  0.00  0.00    -0.002 A 
ATOM      8  C6  OXE d   1      -1.018  -1.492   1.715  0.00  0.00     0.003 A 
ENDROOT
TORSDOF 0
ENDMDL
