MODEL 1
REMARK minimizedAffinity -4.3779273
REMARK minimizedRMSD -1
REMARK  0 active torsions:
REMARK  status: ('A' for Active; 'I' for Inactive)
ROOT
ATOM      1  C2' OXE d   1      -0.819   1.270  -0.211  0.00  0.00     0.078 C 
ATOM      2  C1' OXE d   1      -1.447  -0.977   1.350  0.00  0.00     0.078 C 
ATOM      3  C1  OXE d   1      -0.078  -0.918   0.720  0.00  0.00    -0.078 A 
ATOM      4  C2  OXE d   1       0.204   0.163  -0.080  0.00  0.00    -0.078 A 
ATOM      5  C3  OXE d   1       1.471   0.293  -0.641  0.00  0.00     0.003 A 
ATOM      6  C4  OXE d   1       2.408  -0.740  -0.524  0.00  0.00    -0.002 A 
ATOM      7  C5  OXE d   1       2.127  -1.869   0.254  0.00  0.00    -0.002 A 
ATOM      8  C6  OXE d   1       0.907  -1.953   0.916  0.00  0.00     0.003 A 
ENDROOT
TORSDOF 0
ENDMDL
