MODEL 1
REMARK minimizedAffinity -5.41742659
REMARK minimizedRMSD -1
REMARK  0 active torsions:
REMARK  status: ('A' for Active; 'I' for Inactive)
ROOT
ATOM      1  C2' OXE d   1       1.184  -2.799   0.954  0.00  0.00     0.078 C 
ATOM      2  C1' OXE d   1      -1.093  -1.588   2.062  0.00  0.00     0.078 C 
ATOM      3  C1  OXE d   1      -0.303  -0.803   1.045  0.00  0.00    -0.078 A 
ATOM      4  C2  OXE d   1       0.836  -1.385   0.543  0.00  0.00    -0.078 A 
ATOM      5  C3  OXE d   1       1.571  -0.727  -0.439  0.00  0.00     0.003 A 
ATOM      6  C4  OXE d   1       1.248   0.585  -0.806  0.00  0.00    -0.002 A 
ATOM      7  C5  OXE d   1       0.115   1.212  -0.277  0.00  0.00    -0.002 A 
ATOM      8  C6  OXE d   1      -0.693   0.518   0.616  0.00  0.00     0.003 A 
ENDROOT
TORSDOF 0
ENDMDL
