MODEL 1
REMARK minimizedAffinity -1.70536971
REMARK minimizedRMSD -1
REMARK  0 active torsions:
REMARK  status: ('A' for Active; 'I' for Inactive)
ROOT
ATOM      1  C2' OXE d   1      -3.640  -1.319  -1.952  0.00  0.00     0.078 C 
ATOM      2  C1' OXE d   1      -1.965  -1.382  -4.203  0.00  0.00     0.078 C 
ATOM      3  C1  OXE d   1      -3.311  -0.716  -4.346  0.00  0.00    -0.078 A 
ATOM      4  C2  OXE d   1      -4.143  -0.731  -3.252  0.00  0.00    -0.078 A 
ATOM      5  C3  OXE d   1      -5.373  -0.084  -3.313  0.00  0.00     0.003 A 
ATOM      6  C4  OXE d   1      -5.835   0.449  -4.523  0.00  0.00    -0.002 A 
ATOM      7  C5  OXE d   1      -5.020   0.440  -5.660  0.00  0.00    -0.002 A 
ATOM      8  C6  OXE d   1      -3.741  -0.100  -5.577  0.00  0.00     0.003 A 
ENDROOT
TORSDOF 0
ENDMDL
