MODEL 1
REMARK minimizedAffinity -0.708835721
REMARK minimizedRMSD -1
REMARK  0 active torsions:
REMARK  status: ('A' for Active; 'I' for Inactive)
ROOT
ATOM      1  C2' OXE d   1      -2.017  -1.500  -4.839  0.00  0.00     0.078 C 
ATOM      2  C1' OXE d   1      -3.643  -1.499  -2.552  0.00  0.00     0.078 C 
ATOM      3  C1  OXE d   1      -4.114  -0.713  -3.750  0.00  0.00    -0.078 A 
ATOM      4  C2  OXE d   1      -3.289  -0.681  -4.848  0.00  0.00    -0.078 A 
ATOM      5  C3  OXE d   1      -3.700  -0.015  -6.000  0.00  0.00     0.003 A 
ATOM      6  C4  OXE d   1      -4.874   0.748  -5.997  0.00  0.00    -0.002 A 
ATOM      7  C5  OXE d   1      -5.709   0.762  -4.874  0.00  0.00    -0.002 A 
ATOM      8  C6  OXE d   1      -5.365   0.004  -3.760  0.00  0.00     0.003 A 
ENDROOT
TORSDOF 0
ENDMDL
