MODEL 1
REMARK minimizedAffinity -1.25104237
REMARK minimizedRMSD -1
REMARK  0 active torsions:
REMARK  status: ('A' for Active; 'I' for Inactive)
ROOT
ATOM      1  C2' OXE d   1      -2.194   0.798  -6.000  0.00  0.00     0.078 C 
ATOM      2  C1' OXE d   1      -1.926  -1.472  -4.369  0.00  0.00     0.078 C 
ATOM      3  C1  OXE d   1      -3.301  -0.869  -4.516  0.00  0.00    -0.078 A 
ATOM      4  C2  OXE d   1      -3.414   0.269  -5.278  0.00  0.00    -0.078 A 
ATOM      5  C3  OXE d   1      -4.668   0.834  -5.490  0.00  0.00     0.003 A 
ATOM      6  C4  OXE d   1      -5.791   0.344  -4.811  0.00  0.00    -0.002 A 
ATOM      7  C5  OXE d   1      -5.690  -0.790  -3.998  0.00  0.00    -0.002 A 
ATOM      8  C6  OXE d   1      -4.463  -1.432  -3.874  0.00  0.00     0.003 A 
ENDROOT
TORSDOF 0
ENDMDL
