MODEL 1
REMARK minimizedAffinity -0.0826267749
REMARK minimizedRMSD -1
REMARK  0 active torsions:
REMARK  status: ('A' for Active; 'I' for Inactive)
ROOT
ATOM      1  C2' OXE d   1       3.253   1.162  -0.577  0.00  0.00     0.078 C 
ATOM      2  C1' OXE d   1       5.818   0.123  -0.101  0.00  0.00     0.078 C 
ATOM      3  C1  OXE d   1       4.640  -0.803   0.073  0.00  0.00    -0.078 A 
ATOM      4  C2  OXE d   1       3.386  -0.274  -0.116  0.00  0.00    -0.078 A 
ATOM      5  C3  OXE d   1       2.268  -1.098  -0.022  0.00  0.00     0.003 A 
ATOM      6  C4  OXE d   1       2.399  -2.423   0.414  0.00  0.00    -0.002 A 
ATOM      7  C5  OXE d   1       3.664  -2.970   0.651  0.00  0.00    -0.002 A 
ATOM      8  C6  OXE d   1       4.795  -2.188   0.444  0.00  0.00     0.003 A 
ENDROOT
TORSDOF 0
ENDMDL
