MODEL 1
REMARK minimizedAffinity 0.814650297
REMARK minimizedRMSD -1
REMARK  0 active torsions:
REMARK  status: ('A' for Active; 'I' for Inactive)
ROOT
ATOM      1  C2' OXE d   1       5.331  -4.893   1.468  0.00  0.00     0.078 C 
ATOM      2  C1' OXE d   1       4.556  -3.693   3.884  0.00  0.00     0.078 C 
ATOM      3  C1  OXE d   1       3.827  -3.283   2.629  0.00  0.00    -0.078 A 
ATOM      4  C2  OXE d   1       4.244  -3.840   1.444  0.00  0.00    -0.078 A 
ATOM      5  C3  OXE d   1       3.570  -3.538   0.265  0.00  0.00     0.003 A 
ATOM      6  C4  OXE d   1       2.572  -2.556   0.250  0.00  0.00    -0.002 A 
ATOM      7  C5  OXE d   1       2.159  -1.946   1.440  0.00  0.00    -0.002 A 
ATOM      8  C6  OXE d   1       2.746  -2.328   2.641  0.00  0.00     0.003 A 
ENDROOT
TORSDOF 0
ENDMDL
