MODEL 1
REMARK minimizedAffinity 0.811839521
REMARK minimizedRMSD -1
REMARK  0 active torsions:
REMARK  status: ('A' for Active; 'I' for Inactive)
ROOT
ATOM      1  C2' OXE d   1       4.185  -2.938   1.492  0.00  0.00     0.078 C 
ATOM      2  C1' OXE d   1       5.482  -5.371   2.022  0.00  0.00     0.078 C 
ATOM      3  C1  OXE d   1       5.260  -4.425   3.177  0.00  0.00    -0.078 A 
ATOM      4  C2  OXE d   1       4.667  -3.217   2.899  0.00  0.00    -0.078 A 
ATOM      5  C3  OXE d   1       4.390  -2.331   3.936  0.00  0.00     0.003 A 
ATOM      6  C4  OXE d   1       4.848  -2.593   5.234  0.00  0.00    -0.002 A 
ATOM      7  C5  OXE d   1       5.490  -3.800   5.530  0.00  0.00    -0.002 A 
ATOM      8  C6  OXE d   1       5.665  -4.743   4.524  0.00  0.00     0.003 A 
ENDROOT
TORSDOF 0
ENDMDL
