MODEL 1
REMARK minimizedAffinity -1.80423546
REMARK minimizedRMSD -1
REMARK  0 active torsions:
REMARK  status: ('A' for Active; 'I' for Inactive)
ROOT
ATOM      1  C2' OXE d   1      -2.107  -1.336  -5.247  0.00  0.00     0.078 C 
ATOM      2  C1' OXE d   1      -3.009  -1.114  -2.598  0.00  0.00     0.078 C 
ATOM      3  C1  OXE d   1      -3.806  -0.418  -3.673  0.00  0.00    -0.078 A 
ATOM      4  C2  OXE d   1      -3.331  -0.493  -4.961  0.00  0.00    -0.078 A 
ATOM      5  C3  OXE d   1      -4.057   0.086  -5.998  0.00  0.00     0.003 A 
ATOM      6  C4  OXE d   1      -5.183   0.872  -5.723  0.00  0.00    -0.002 A 
ATOM      7  C5  OXE d   1      -5.661   0.994  -4.414  0.00  0.00    -0.002 A 
ATOM      8  C6  OXE d   1      -5.010   0.322  -3.385  0.00  0.00     0.003 A 
ENDROOT
TORSDOF 0
ENDMDL
