MODEL 1
REMARK minimizedAffinity -2.82426858
REMARK minimizedRMSD -1
REMARK  0 active torsions:
REMARK  status: ('A' for Active; 'I' for Inactive)
ROOT
ATOM      1  C1  BNZ d   1      -0.048  -0.435  -0.813  0.00  0.00     0.000 A 
ATOM      2  C2  BNZ d   1      -1.114   0.128  -0.163  0.00  0.00     0.000 A 
ATOM      3  C3  BNZ d   1      -0.977   0.627   1.103  0.00  0.00     0.000 A 
ATOM      4  C4  BNZ d   1       0.213   0.527   1.730  0.00  0.00     0.000 A 
ATOM      5  C5  BNZ d   1       1.294  -0.046   1.090  0.00  0.00     0.000 A 
ATOM      6  C6  BNZ d   1       1.163  -0.512  -0.198  0.00  0.00     0.000 A 
ENDROOT
TORSDOF 0
ENDMDL
