MODEL 1
REMARK minimizedAffinity -2.61694026
REMARK minimizedRMSD -1
REMARK  0 active torsions:
REMARK  status: ('A' for Active; 'I' for Inactive)
ROOT
ATOM      1  C1  BNZ d   1      -0.193  -0.746  -0.959  0.00  0.00     0.000 A 
ATOM      2  C2  BNZ d   1      -1.414  -0.324  -0.505  0.00  0.00     0.000 A 
ATOM      3  C3  BNZ d   1      -1.523   0.365   0.671  0.00  0.00     0.000 A 
ATOM      4  C4  BNZ d   1      -0.419   0.595   1.410  0.00  0.00     0.000 A 
ATOM      5  C5  BNZ d   1       0.818   0.167   0.970  0.00  0.00     0.000 A 
ATOM      6  C6  BNZ d   1       0.929  -0.492  -0.233  0.00  0.00     0.000 A 
ENDROOT
TORSDOF 0
ENDMDL
