MODEL 1
REMARK minimizedAffinity -4.71233654
REMARK minimizedRMSD -1
REMARK  0 active torsions:
REMARK  status: ('A' for Active; 'I' for Inactive)
ROOT
ATOM      1  C1  BNZ d   1       0.539   0.361   0.404  0.00  0.00     0.000 A 
ATOM      2  C2  BNZ d   1       0.677   0.846   1.677  0.00  0.00     0.000 A 
ATOM      3  C3  BNZ d   1      -0.407   1.305   2.372  0.00  0.00     0.000 A 
ATOM      4  C4  BNZ d   1      -1.619   1.314   1.781  0.00  0.00     0.000 A 
ATOM      5  C5  BNZ d   1      -1.773   0.836   0.495  0.00  0.00     0.000 A 
ATOM      6  C6  BNZ d   1      -0.686   0.339  -0.188  0.00  0.00     0.000 A 
ENDROOT
TORSDOF 0
ENDMDL
