MODEL 1
REMARK minimizedAffinity -0.512983203
REMARK minimizedRMSD -1
REMARK  0 active torsions:
REMARK  status: ('A' for Active; 'I' for Inactive)
ROOT
ATOM      1  C1  BNZ d   1      -1.489  -0.155  -0.728  0.00  0.00     0.000 A 
ATOM      2  C2  BNZ d   1      -0.573  -0.616  -1.636  0.00  0.00     0.000 A 
ATOM      3  C3  BNZ d   1       0.753  -0.698  -1.314  0.00  0.00     0.000 A 
ATOM      4  C4  BNZ d   1       1.166  -0.282  -0.099  0.00  0.00     0.000 A 
ATOM      5  C5  BNZ d   1       0.257   0.194   0.824  0.00  0.00     0.000 A 
ATOM      6  C6  BNZ d   1      -1.082   0.239   0.509  0.00  0.00     0.000 A 
ENDROOT
TORSDOF 0
ENDMDL
