MODEL 1
REMARK minimizedAffinity -3.49710131
REMARK minimizedRMSD -1
REMARK  0 active torsions:
REMARK  status: ('A' for Active; 'I' for Inactive)
ROOT
ATOM      1  C1  BNZ d   1       0.850  -0.099   0.751  0.00  0.00     0.000 A 
ATOM      2  C2  BNZ d   1       0.746  -0.628  -0.507  0.00  0.00     0.000 A 
ATOM      3  C3  BNZ d   1      -0.475  -0.779  -1.104  0.00  0.00     0.000 A 
ATOM      4  C4  BNZ d   1      -1.591  -0.438  -0.428  0.00  0.00     0.000 A 
ATOM      5  C5  BNZ d   1      -1.503   0.088   0.846  0.00  0.00     0.000 A 
ATOM      6  C6  BNZ d   1      -0.270   0.274   1.429  0.00  0.00     0.000 A 
ENDROOT
TORSDOF 0
ENDMDL
