MODEL 1
REMARK minimizedAffinity -2.75788832
REMARK minimizedRMSD -1
REMARK  0 active torsions:
REMARK  status: ('A' for Active; 'I' for Inactive)
ROOT
ATOM      1  C1  BNZ d   1       0.714   0.497   1.694  0.00  0.00     0.000 A 
ATOM      2  C2  BNZ d   1       0.598   0.342   0.339  0.00  0.00     0.000 A 
ATOM      3  C3  BNZ d   1      -0.623   0.137  -0.241  0.00  0.00     0.000 A 
ATOM      4  C4  BNZ d   1      -1.720   0.047   0.538  0.00  0.00     0.000 A 
ATOM      5  C5  BNZ d   1      -1.619   0.192   1.907  0.00  0.00     0.000 A 
ATOM      6  C6  BNZ d   1      -0.393   0.437   2.484  0.00  0.00     0.000 A 
ENDROOT
TORSDOF 0
ENDMDL
