MODEL 1
REMARK minimizedAffinity -4.52099371
REMARK minimizedRMSD -1
REMARK  0 active torsions:
REMARK  status: ('A' for Active; 'I' for Inactive)
ROOT
ATOM      1  C1  BNZ d   1      -1.232   0.532   2.468  0.00  0.00     0.000 A 
ATOM      2  C2  BNZ d   1      -0.391   0.912   3.480  0.00  0.00     0.000 A 
ATOM      3  C3  BNZ d   1       0.962   0.950   3.288  0.00  0.00     0.000 A 
ATOM      4  C4  BNZ d   1       1.474   0.572   2.100  0.00  0.00     0.000 A 
ATOM      5  C5  BNZ d   1       0.639   0.178   1.073  0.00  0.00     0.000 A 
ATOM      6  C6  BNZ d   1      -0.724   0.178   1.257  0.00  0.00     0.000 A 
ENDROOT
TORSDOF 0
ENDMDL
