MODEL 1
REMARK minimizedAffinity -4.45375586
REMARK minimizedRMSD -1
REMARK  0 active torsions:
REMARK  status: ('A' for Active; 'I' for Inactive)
ROOT
ATOM      1  C1  BNZ d   1      -1.489   0.306   2.195  0.00  0.00     0.000 A 
ATOM      2  C2  BNZ d   1      -0.916   1.436   2.716  0.00  0.00     0.000 A 
ATOM      3  C3  BNZ d   1       0.070   2.096   2.037  0.00  0.00     0.000 A 
ATOM      4  C4  BNZ d   1       0.508   1.605   0.860  0.00  0.00     0.000 A 
ATOM      5  C5  BNZ d   1      -0.053   0.462   0.327  0.00  0.00     0.000 A 
ATOM      6  C6  BNZ d   1      -1.072  -0.178   0.994  0.00  0.00     0.000 A 
ENDROOT
TORSDOF 0
ENDMDL
