MODEL 1
REMARK minimizedAffinity -2.74127841
REMARK minimizedRMSD -1
REMARK  0 active torsions:
REMARK  status: ('A' for Active; 'I' for Inactive)
ROOT
ATOM      1  C   UNL d   1      -0.393   1.572   1.902  0.00  0.00     0.172 C 
ATOM      2  N   UNL d   1       0.181   0.692   0.911  0.00  0.00    -0.070 N 
ATOM      3  C1  UNL d   1      -0.346   0.431  -0.325  0.00  0.00    -0.004 A 
ATOM      4  C2  UNL d   1       0.495  -0.454  -0.964  0.00  0.00    -0.047 A 
ATOM      5  C3  UNL d   1       1.565  -0.734  -0.081  0.00  0.00    -0.047 A 
ATOM      6  C4  UNL d   1       1.345  -0.012   1.073  0.00  0.00    -0.004 A 
ENDROOT
TORSDOF 0
ENDMDL
