MODEL 1
REMARK minimizedAffinity -3.00471377
REMARK minimizedRMSD -1
REMARK  0 active torsions:
REMARK  status: ('A' for Active; 'I' for Inactive)
ROOT
ATOM      1  C   UNL d   1       0.274  -0.588  -0.972  0.00  0.00     0.172 C 
ATOM      2  N   UNL d   1      -0.208   0.072   0.219  0.00  0.00    -0.070 N 
ATOM      3  C1  UNL d   1      -1.523   0.216   0.575  0.00  0.00    -0.004 A 
ATOM      4  C2  UNL d   1      -1.564   0.899   1.771  0.00  0.00    -0.047 A 
ATOM      5  C3  UNL d   1      -0.228   1.176   2.146  0.00  0.00    -0.047 A 
ATOM      6  C4  UNL d   1       0.591   0.653   1.168  0.00  0.00    -0.004 A 
ENDROOT
TORSDOF 0
ENDMDL
