MODEL 1
REMARK minimizedAffinity -2.72392416
REMARK minimizedRMSD -1
REMARK  0 active torsions:
REMARK  status: ('A' for Active; 'I' for Inactive)
ROOT
ATOM      1  C   UNL d   1      -0.575   1.694   2.228  0.00  0.00     0.172 C 
ATOM      2  N   UNL d   1      -0.131   0.747   1.233  0.00  0.00    -0.070 N 
ATOM      3  C1  UNL d   1       1.039   0.037   1.272  0.00  0.00    -0.004 A 
ATOM      4  C2  UNL d   1       1.091  -0.753   0.144  0.00  0.00    -0.047 A 
ATOM      5  C3  UNL d   1      -0.088  -0.509  -0.599  0.00  0.00    -0.047 A 
ATOM      6  C4  UNL d   1      -0.827   0.424   0.097  0.00  0.00    -0.004 A 
ENDROOT
TORSDOF 0
ENDMDL
