MODEL 1
REMARK minimizedAffinity -3.90395713
REMARK minimizedRMSD -1
REMARK  0 active torsions:
REMARK  status: ('A' for Active; 'I' for Inactive)
ROOT
ATOM      1  C   UNL d   1       0.055  -0.005  -1.406  0.00  0.00     0.172 C 
ATOM      2  N   UNL d   1      -0.396   0.382  -0.090  0.00  0.00    -0.070 N 
ATOM      3  C1  UNL d   1       0.191   1.325   0.710  0.00  0.00    -0.004 A 
ATOM      4  C2  UNL d   1      -0.537   1.401   1.878  0.00  0.00    -0.047 A 
ATOM      5  C3  UNL d   1      -1.599   0.471   1.776  0.00  0.00    -0.047 A 
ATOM      6  C4  UNL d   1      -1.488  -0.146   0.548  0.00  0.00    -0.004 A 
ENDROOT
TORSDOF 0
ENDMDL
