MODEL 1
REMARK minimizedAffinity -2.91334629
REMARK minimizedRMSD -1
REMARK  0 active torsions:
REMARK  status: ('A' for Active; 'I' for Inactive)
ROOT
ATOM      1  C   UNL d   1      -2.394  -0.194   0.339  0.00  0.00     0.172 C 
ATOM      2  N   UNL d   1      -1.376   0.398   1.175  0.00  0.00    -0.070 N 
ATOM      3  C1  UNL d   1      -0.200   0.944   0.735  0.00  0.00    -0.004 A 
ATOM      4  C2  UNL d   1       0.492   1.401   1.836  0.00  0.00    -0.047 A 
ATOM      5  C3  UNL d   1      -0.296   1.119   2.978  0.00  0.00    -0.047 A 
ATOM      6  C4  UNL d   1      -1.447   0.498   2.539  0.00  0.00    -0.004 A 
ENDROOT
TORSDOF 0
ENDMDL
