MODEL 1
REMARK minimizedAffinity 4.13393879
REMARK minimizedRMSD -1
REMARK  0 active torsions:
REMARK  status: ('A' for Active; 'I' for Inactive)
ROOT
ATOM      1  C   UNL d   1       2.100  -1.400  -0.564  0.00  0.00     0.172 C 
ATOM      2  N   UNL d   1       2.558  -0.699  -1.741  0.00  0.00    -0.070 N 
ATOM      3  C1  UNL d   1       3.729  -0.939  -2.408  0.00  0.00    -0.004 A 
ATOM      4  C2  UNL d   1       3.796  -0.065  -3.471  0.00  0.00    -0.047 A 
ATOM      5  C3  UNL d   1       2.625   0.729  -3.442  0.00  0.00    -0.047 A 
ATOM      6  C4  UNL d   1       1.876   0.315  -2.360  0.00  0.00    -0.004 A 
ENDROOT
TORSDOF 0
ENDMDL
