MODEL 1
REMARK minimizedAffinity 2.44772243
REMARK minimizedRMSD -1
REMARK  0 active torsions:
REMARK  status: ('A' for Active; 'I' for Inactive)
ROOT
ATOM      1  C   UNL d   1      -3.004  -1.176   3.874  0.00  0.00     0.172 C 
ATOM      2  N   UNL d   1      -2.199  -0.154   3.247  0.00  0.00    -0.070 N 
ATOM      3  C1  UNL d   1      -1.311   0.669   3.889  0.00  0.00    -0.004 A 
ATOM      4  C2  UNL d   1      -0.747   1.499   2.945  0.00  0.00    -0.047 A 
ATOM      5  C3  UNL d   1      -1.315   1.165   1.693  0.00  0.00    -0.047 A 
ATOM      6  C4  UNL d   1      -2.210   0.139   1.909  0.00  0.00    -0.004 A 
ENDROOT
TORSDOF 0
ENDMDL
