MODEL 1
REMARK minimizedAffinity 3.22460699
REMARK minimizedRMSD -1
REMARK  1 active torsions:
REMARK  status: ('A' for Active; 'I' for Inactive)
REMARK    1  A    between atoms: C1_2  and  C2_3 
ROOT
ATOM      1  C2  UNL d   1      -3.818  -0.247  -1.567  0.00  0.00    -0.073 A 
ATOM      2  C3  UNL d   1      -2.440  -0.005  -1.518  0.00  0.00    -0.002 A 
ATOM      3  C4  UNL d   1      -1.808   0.683  -2.554  0.00  0.00     0.004 A 
ATOM      4  C5  UNL d   1      -2.546   1.142  -3.645  0.00  0.00    -0.004 A 
ATOM      5  C6  UNL d   1      -3.925   0.921  -3.706  0.00  0.00    -0.075 A 
ATOM      6  C7  UNL d   1      -4.733   1.407  -4.874  0.00  0.00     0.076 C 
ATOM      7  C8  UNL d   1      -4.553   0.227  -2.663  0.00  0.00     0.001 A 
ENDROOT
BRANCH   1   8
ATOM      8  C1  UNL d   1      -4.507  -0.984  -0.448  0.00  0.00     0.053 C 
ATOM      9  C   UNL d   1      -6.000  -0.700  -0.412  0.00  0.00     0.018 C 
ENDBRANCH   1   8
TORSDOF 1
ENDMDL
