MODEL 1
REMARK minimizedAffinity 5.5098176
REMARK minimizedRMSD -1
REMARK  1 active torsions:
REMARK  status: ('A' for Active; 'I' for Inactive)
REMARK    1  A    between atoms: C1_2  and  C2_3 
ROOT
ATOM      1  C2  UNL d   1       3.608  -0.195  -0.950  0.00  0.00    -0.073 A 
ATOM      2  C3  UNL d   1       3.872  -1.294  -1.775  0.00  0.00    -0.002 A 
ATOM      3  C4  UNL d   1       3.192  -2.498  -1.584  0.00  0.00     0.004 A 
ATOM      4  C5  UNL d   1       2.239  -2.613  -0.573  0.00  0.00    -0.004 A 
ATOM      5  C6  UNL d   1       1.953  -1.523   0.255  0.00  0.00    -0.075 A 
ATOM      6  C7  UNL d   1       0.932  -1.631   1.349  0.00  0.00     0.076 C 
ATOM      7  C8  UNL d   1       2.641  -0.318   0.059  0.00  0.00     0.001 A 
ENDROOT
BRANCH   1   8
ATOM      8  C1  UNL d   1       4.335   1.109  -1.156  0.00  0.00     0.053 C 
ATOM      9  C   UNL d   1       5.686   1.125  -0.459  0.00  0.00     0.018 C 
ENDBRANCH   1   8
TORSDOF 1
ENDMDL
