MODEL 1
REMARK minimizedAffinity 7.05298281
REMARK minimizedRMSD -1
REMARK  1 active torsions:
REMARK  status: ('A' for Active; 'I' for Inactive)
REMARK    1  A    between atoms: C1_2  and  C2_3 
ROOT
ATOM      1  C2  UNL d   1       2.967  -0.519  -0.841  0.00  0.00    -0.073 A 
ATOM      2  C3  UNL d   1       3.801  -0.790  -1.931  0.00  0.00    -0.002 A 
ATOM      3  C4  UNL d   1       3.694  -2.001  -2.617  0.00  0.00     0.004 A 
ATOM      4  C5  UNL d   1       2.747  -2.948  -2.226  0.00  0.00    -0.004 A 
ATOM      5  C6  UNL d   1       1.896  -2.690  -1.146  0.00  0.00    -0.075 A 
ATOM      6  C7  UNL d   1       0.875  -3.699  -0.712  0.00  0.00     0.076 C 
ATOM      7  C8  UNL d   1       2.012  -1.474  -0.461  0.00  0.00     0.001 A 
ENDROOT
BRANCH   1   8
ATOM      8  C1  UNL d   1       3.075   0.789  -0.101  0.00  0.00     0.053 C 
ATOM      9  C   UNL d   1       1.725   1.270   0.408  0.00  0.00     0.018 C 
ENDBRANCH   1   8
TORSDOF 1
ENDMDL
