MODEL 1
REMARK minimizedAffinity 6.17704535
REMARK minimizedRMSD -1
REMARK  1 active torsions:
REMARK  status: ('A' for Active; 'I' for Inactive)
REMARK    1  A    between atoms: C1_2  and  C2_3 
ROOT
ATOM      1  C2  UNL d   1      -0.073   0.887  -0.500  0.00  0.00    -0.073 A 
ATOM      2  C3  UNL d   1      -0.561  -0.041  -1.427  0.00  0.00    -0.002 A 
ATOM      3  C4  UNL d   1      -1.859   0.076  -1.925  0.00  0.00     0.004 A 
ATOM      4  C5  UNL d   1      -2.680   1.123  -1.507  0.00  0.00    -0.004 A 
ATOM      5  C6  UNL d   1      -2.207   2.067  -0.590  0.00  0.00    -0.075 A 
ATOM      6  C7  UNL d   1      -3.078   3.198  -0.128  0.00  0.00     0.076 C 
ATOM      7  C8  UNL d   1      -0.903   1.942  -0.092  0.00  0.00     0.001 A 
ENDROOT
BRANCH   1   8
ATOM      8  C1  UNL d   1       1.330   0.769   0.036  0.00  0.00     0.053 C 
ATOM      9  C   UNL d   1       2.088  -0.386  -0.600  0.00  0.00     0.018 C 
ENDBRANCH   1   8
TORSDOF 1
ENDMDL
