MODEL 1
REMARK minimizedAffinity -0.276200294
REMARK minimizedRMSD -1
REMARK  1 active torsions:
REMARK  status: ('A' for Active; 'I' for Inactive)
REMARK    1  A    between atoms: C1_2  and  C2_3 
ROOT
ATOM      1  C2  UNL d   1       1.409   0.432   0.818  0.00  0.00    -0.073 A 
ATOM      2  C3  UNL d   1       1.160   0.129   2.162  0.00  0.00    -0.002 A 
ATOM      3  C4  UNL d   1      -0.097   0.372   2.717  0.00  0.00     0.004 A 
ATOM      4  C5  UNL d   1      -1.117   0.913   1.936  0.00  0.00    -0.004 A 
ATOM      5  C6  UNL d   1      -0.891   1.210   0.588  0.00  0.00    -0.075 A 
ATOM      6  C7  UNL d   1      -1.978   1.794  -0.266  0.00  0.00     0.076 C 
ATOM      7  C8  UNL d   1       0.374   0.966   0.038  0.00  0.00     0.001 A 
ENDROOT
BRANCH   1   8
ATOM      8  C1  UNL d   1       2.763   0.165   0.212  0.00  0.00     0.053 C 
ATOM      9  C   UNL d   1       2.841  -1.214  -0.423  0.00  0.00     0.018 C 
ENDBRANCH   1   8
TORSDOF 1
ENDMDL
