MODEL 1
REMARK minimizedAffinity 3.14911532
REMARK minimizedRMSD -1
REMARK  1 active torsions:
REMARK  status: ('A' for Active; 'I' for Inactive)
REMARK    1  A    between atoms: C1_2  and  C2_3 
ROOT
ATOM      1  C2  UNL d   1       1.746   0.621   0.938  0.00  0.00    -0.073 A 
ATOM      2  C3  UNL d   1       1.367   0.483   2.277  0.00  0.00    -0.002 A 
ATOM      3  C4  UNL d   1       0.023   0.575   2.642  0.00  0.00     0.004 A 
ATOM      4  C5  UNL d   1      -0.954   0.798   1.672  0.00  0.00    -0.004 A 
ATOM      5  C6  UNL d   1      -0.596   0.927   0.326  0.00  0.00    -0.075 A 
ATOM      6  C7  UNL d   1      -1.634   1.169  -0.729  0.00  0.00     0.076 C 
ATOM      7  C8  UNL d   1       0.756   0.836  -0.032  0.00  0.00     0.001 A 
ENDROOT
BRANCH   1   8
ATOM      8  C1  UNL d   1       3.196   0.516   0.538  0.00  0.00     0.053 C 
ATOM      9  C   UNL d   1       3.743   1.840   0.027  0.00  0.00     0.018 C 
ENDBRANCH   1   8
TORSDOF 1
ENDMDL
