MODEL 1
REMARK minimizedAffinity 0.892315447
REMARK minimizedRMSD -1
REMARK  1 active torsions:
REMARK  status: ('A' for Active; 'I' for Inactive)
REMARK    1  A    between atoms: C1_2  and  C2_3 
ROOT
ATOM      1  C2  UNL d   1       1.629   1.343   0.968  0.00  0.00    -0.073 A 
ATOM      2  C3  UNL d   1       1.521   1.257   2.361  0.00  0.00    -0.002 A 
ATOM      3  C4  UNL d   1       0.273   1.346   2.979  0.00  0.00     0.004 A 
ATOM      4  C5  UNL d   1      -0.879   1.515   2.212  0.00  0.00    -0.004 A 
ATOM      5  C6  UNL d   1      -0.794   1.591   0.818  0.00  0.00    -0.075 A 
ATOM      6  C7  UNL d   1      -2.024   1.774  -0.022  0.00  0.00     0.076 C 
ATOM      7  C8  UNL d   1       0.463   1.503   0.205  0.00  0.00     0.001 A 
ENDROOT
BRANCH   1   8
ATOM      8  C1  UNL d   1       2.973   1.241   0.296  0.00  0.00     0.053 C 
ATOM      9  C   UNL d   1       3.105  -0.032  -0.525  0.00  0.00     0.018 C 
ENDBRANCH   1   8
TORSDOF 1
ENDMDL
