MODEL 1
REMARK minimizedAffinity 5.1254797
REMARK minimizedRMSD -1
REMARK  1 active torsions:
REMARK  status: ('A' for Active; 'I' for Inactive)
REMARK    1  A    between atoms: C1_2  and  C2_3 
ROOT
ATOM      1  C2  UNL d   1       1.598   0.408   0.399  0.00  0.00    -0.073 A 
ATOM      2  C3  UNL d   1       2.675   1.168  -0.070  0.00  0.00    -0.002 A 
ATOM      3  C4  UNL d   1       3.815   0.540  -0.573  0.00  0.00     0.004 A 
ATOM      4  C5  UNL d   1       3.887  -0.852  -0.619  0.00  0.00    -0.004 A 
ATOM      5  C6  UNL d   1       2.816  -1.629  -0.166  0.00  0.00    -0.075 A 
ATOM      6  C7  UNL d   1       2.878  -3.128  -0.206  0.00  0.00     0.076 C 
ATOM      7  C8  UNL d   1       1.675  -0.991   0.340  0.00  0.00     0.001 A 
ENDROOT
BRANCH   1   8
ATOM      8  C1  UNL d   1       0.362   1.083   0.937  0.00  0.00     0.053 C 
ATOM      9  C   UNL d   1       0.096   0.711   2.387  0.00  0.00     0.018 C 
ENDBRANCH   1   8
TORSDOF 1
ENDMDL
