MODEL 1
REMARK minimizedAffinity -3.70886087
REMARK minimizedRMSD -1
REMARK  1 active torsions:
REMARK  status: ('A' for Active; 'I' for Inactive)
REMARK    1  A    between atoms: C1_2  and  C2_3 
ROOT
ATOM      1  C2  UNL d   1       0.737  -2.480  -0.214  0.00  0.00    -0.073 A 
ATOM      2  C3  UNL d   1      -0.640  -2.462   0.035  0.00  0.00    -0.002 A 
ATOM      3  C4  UNL d   1      -1.275  -3.586   0.563  0.00  0.00     0.004 A 
ATOM      4  C5  UNL d   1      -0.541  -4.736   0.854  0.00  0.00    -0.004 A 
ATOM      5  C6  UNL d   1       0.838  -4.769   0.624  0.00  0.00    -0.075 A 
ATOM      6  C7  UNL d   1       1.642  -5.999   0.929  0.00  0.00     0.076 C 
ATOM      7  C8  UNL d   1       1.469  -3.637   0.090  0.00  0.00     0.001 A 
ENDROOT
BRANCH   1   8
ATOM      8  C1  UNL d   1       1.429  -1.266  -0.779  0.00  0.00     0.053 C 
ATOM      9  C   UNL d   1       0.518  -0.049  -0.801  0.00  0.00     0.018 C 
ENDBRANCH   1   8
TORSDOF 1
ENDMDL
