MODEL 1
REMARK minimizedAffinity -0.898436785
REMARK minimizedRMSD -1
REMARK  1 active torsions:
REMARK  status: ('A' for Active; 'I' for Inactive)
REMARK    1  A    between atoms: C1_2  and  C2_3 
ROOT
ATOM      1  C2  UNL d   1      -0.509  -3.018   0.205  0.00  0.00    -0.073 A 
ATOM      2  C3  UNL d   1       0.225  -2.142   1.013  0.00  0.00    -0.002 A 
ATOM      3  C4  UNL d   1       0.780  -0.982   0.472  0.00  0.00     0.004 A 
ATOM      4  C5  UNL d   1       0.602  -0.682  -0.878  0.00  0.00    -0.004 A 
ATOM      5  C6  UNL d   1      -0.139  -1.538  -1.700  0.00  0.00    -0.075 A 
ATOM      6  C7  UNL d   1      -0.338  -1.231  -3.155  0.00  0.00     0.076 C 
ATOM      7  C8  UNL d   1      -0.691  -2.703  -1.150  0.00  0.00     0.001 A 
ENDROOT
BRANCH   1   8
ATOM      8  C1  UNL d   1      -1.117  -4.269   0.786  0.00  0.00     0.053 C 
ATOM      9  C   UNL d   1      -2.152  -4.884  -0.143  0.00  0.00     0.018 C 
ENDBRANCH   1   8
TORSDOF 1
ENDMDL
