MODEL 1
REMARK minimizedAffinity -2.41745615
REMARK minimizedRMSD -1
REMARK  1 active torsions:
REMARK  status: ('A' for Active; 'I' for Inactive)
REMARK    1  A    between atoms: C1_2  and  C2_3 
ROOT
ATOM      1  C2  UNL d   1       0.955  -2.542   0.067  0.00  0.00    -0.073 A 
ATOM      2  C3  UNL d   1      -0.375  -2.796   0.421  0.00  0.00    -0.002 A 
ATOM      3  C4  UNL d   1      -1.387  -1.918   0.032  0.00  0.00     0.004 A 
ATOM      4  C5  UNL d   1      -1.082  -0.783  -0.718  0.00  0.00    -0.004 A 
ATOM      5  C6  UNL d   1       0.240  -0.518  -1.091  0.00  0.00    -0.075 A 
ATOM      6  C7  UNL d   1       0.585   0.700  -1.897  0.00  0.00     0.076 C 
ATOM      7  C8  UNL d   1       1.251  -1.403  -0.695  0.00  0.00     0.001 A 
ENDROOT
BRANCH   1   8
ATOM      8  C1  UNL d   1       2.051  -3.491   0.479  0.00  0.00     0.053 C 
ATOM      9  C   UNL d   1       1.517  -4.882   0.783  0.00  0.00     0.018 C 
ENDBRANCH   1   8
TORSDOF 1
ENDMDL
