MODEL 1
REMARK minimizedAffinity 1.69948208
REMARK minimizedRMSD -1
REMARK  1 active torsions:
REMARK  status: ('A' for Active; 'I' for Inactive)
REMARK    1  A    between atoms: C1_2  and  C2_3 
ROOT
ATOM      1  C2  UNL d   1       1.300  -2.672  -0.467  0.00  0.00    -0.073 A 
ATOM      2  C3  UNL d   1      -0.069  -2.383  -0.448  0.00  0.00    -0.002 A 
ATOM      3  C4  UNL d   1      -0.967  -3.265   0.156  0.00  0.00     0.004 A 
ATOM      4  C5  UNL d   1      -0.505  -4.439   0.751  0.00  0.00    -0.004 A 
ATOM      5  C6  UNL d   1       0.861  -4.739   0.752  0.00  0.00    -0.075 A 
ATOM      6  C7  UNL d   1       1.373  -5.999   1.386  0.00  0.00     0.076 C 
ATOM      7  C8  UNL d   1       1.756  -3.850   0.142  0.00  0.00     0.001 A 
ENDROOT
BRANCH   1   8
ATOM      8  C1  UNL d   1       2.274  -1.720  -1.112  0.00  0.00     0.053 C 
ATOM      9  C   UNL d   1       1.567  -0.610  -1.873  0.00  0.00     0.018 C 
ENDBRANCH   1   8
TORSDOF 1
ENDMDL
