MODEL 1
REMARK minimizedAffinity -4.6720891
REMARK minimizedRMSD -1
REMARK  1 active torsions:
REMARK  status: ('A' for Active; 'I' for Inactive)
REMARK    1  A    between atoms: C1_2  and  C2_3 
ROOT
ATOM      1  C2  UNL d   1       0.886  -3.486   0.470  0.00  0.00    -0.073 A 
ATOM      2  C3  UNL d   1      -0.459  -3.792   0.702  0.00  0.00    -0.002 A 
ATOM      3  C4  UNL d   1      -1.446  -2.826   0.502  0.00  0.00     0.004 A 
ATOM      4  C5  UNL d   1      -1.100  -1.549   0.062  0.00  0.00    -0.004 A 
ATOM      5  C6  UNL d   1       0.238  -1.228  -0.187  0.00  0.00    -0.075 A 
ATOM      6  C7  UNL d   1       0.628   0.142  -0.659  0.00  0.00     0.076 C 
ATOM      7  C8  UNL d   1       1.224  -2.202   0.019  0.00  0.00     0.001 A 
ENDROOT
BRANCH   1   8
ATOM      8  C1  UNL d   1       1.955  -4.528   0.679  0.00  0.00     0.053 C 
ATOM      9  C   UNL d   1       1.367  -5.885   1.029  0.00  0.00     0.018 C 
ENDBRANCH   1   8
TORSDOF 1
ENDMDL
