MODEL 1
REMARK minimizedAffinity -1.62260079
REMARK minimizedRMSD -1
REMARK  1 active torsions:
REMARK  status: ('A' for Active; 'I' for Inactive)
REMARK    1  A    between atoms: C1_2  and  C2_3 
ROOT
ATOM      1  C2  UNL d   1       0.338  -3.072   0.364  0.00  0.00    -0.073 A 
ATOM      2  C3  UNL d   1       1.723  -3.236   0.245  0.00  0.00    -0.002 A 
ATOM      3  C4  UNL d   1       2.471  -2.363  -0.546  0.00  0.00     0.004 A 
ATOM      4  C5  UNL d   1       1.844  -1.315  -1.220  0.00  0.00    -0.004 A 
ATOM      5  C6  UNL d   1       0.463  -1.128  -1.105  0.00  0.00    -0.075 A 
ATOM      6  C7  UNL d   1      -0.226  -0.007  -1.825  0.00  0.00     0.076 C 
ATOM      7  C8  UNL d   1      -0.281  -2.010  -0.310  0.00  0.00     0.001 A 
ENDROOT
BRANCH   1   8
ATOM      8  C1  UNL d   1      -0.472  -4.008   1.223  0.00  0.00     0.053 C 
ATOM      9  C   UNL d   1       0.293  -5.277   1.563  0.00  0.00     0.018 C 
ENDBRANCH   1   8
TORSDOF 1
ENDMDL
