MODEL 1
REMARK minimizedAffinity -3.46800041
REMARK minimizedRMSD -1
REMARK  1 active torsions:
REMARK  status: ('A' for Active; 'I' for Inactive)
REMARK    1  A    between atoms: C1_2  and  C2_3 
ROOT
ATOM      1  C2  UNL d   1       1.708  -3.528   0.527  0.00  0.00    -0.073 A 
ATOM      2  C3  UNL d   1       2.597  -2.570   0.027  0.00  0.00    -0.002 A 
ATOM      3  C4  UNL d   1       2.126  -1.501  -0.737  0.00  0.00     0.004 A 
ATOM      4  C5  UNL d   1       0.762  -1.375  -1.001  0.00  0.00    -0.004 A 
ATOM      5  C6  UNL d   1      -0.144  -2.316  -0.499  0.00  0.00    -0.075 A 
ATOM      6  C7  UNL d   1      -1.614  -2.195  -0.776  0.00  0.00     0.076 C 
ATOM      7  C8  UNL d   1       0.338  -3.387   0.264  0.00  0.00     0.001 A 
ENDROOT
BRANCH   1   8
ATOM      8  C1  UNL d   1       2.212  -4.680   1.358  0.00  0.00     0.053 C 
ATOM      9  C   UNL d   1       1.582  -6.000   0.943  0.00  0.00     0.018 C 
ENDBRANCH   1   8
TORSDOF 1
ENDMDL
