MODEL 1
REMARK minimizedAffinity 4.04157591
REMARK minimizedRMSD -1
REMARK  3 active torsions:
REMARK  status: ('A' for Active; 'I' for Inactive)
REMARK    1  A    between atoms: C3'_2  and  C2'_3 
REMARK    2  A    between atoms: C2'_3  and  C1'_4 
REMARK    3  A    between atoms: C1'_4  and  C1_5 
ROOT
ATOM      1  C1  N4B d   1       2.987  -2.512   3.789  0.00  0.00    -0.075 A 
ATOM      2  C2  N4B d   1       3.932  -3.537   4.010  0.00  0.00     0.002 A 
ATOM      3  C3  N4B d   1       4.746  -3.493   5.116  0.00  0.00     0.002 A 
ATOM      4  C4  N4B d   1       4.646  -2.429   5.999  0.00  0.00    -0.004 A 
ATOM      5  C5  N4B d   1       3.713  -1.456   5.791  0.00  0.00     0.002 A 
ATOM      6  C6  N4B d   1       2.885  -1.489   4.687  0.00  0.00     0.002 A 
ENDROOT
BRANCH   1   7
ATOM      7  C1' N4B d   1       2.135  -2.472   2.550  0.00  0.00     0.057 C 
BRANCH   7   8
ATOM      8  C2' N4B d   1       1.088  -3.579   2.626  0.00  0.00     0.009 C 
BRANCH   8   9
ATOM      9  C3' N4B d   1      -0.325  -3.034   2.508  0.00  0.00     0.004 C 
ATOM     10  C4' N4B d   1      -0.845  -3.065   1.102  0.00  0.00     0.003 C 
ENDBRANCH   8   9
ENDBRANCH   7   8
ENDBRANCH   1   7
TORSDOF 3
ENDMDL
