MODEL 1
REMARK minimizedAffinity -1.69091988
REMARK minimizedRMSD -1
REMARK  3 active torsions:
REMARK  status: ('A' for Active; 'I' for Inactive)
REMARK    1  A    between atoms: C3'_2  and  C2'_3 
REMARK    2  A    between atoms: C2'_3  and  C1'_4 
REMARK    3  A    between atoms: C1'_4  and  C1_5 
ROOT
ATOM      1  C1  N4B d   1      -0.613  -2.571  -1.876  0.00  0.00    -0.075 A 
ATOM      2  C2  N4B d   1      -1.899  -2.451  -2.446  0.00  0.00     0.002 A 
ATOM      3  C3  N4B d   1      -3.010  -2.444  -1.638  0.00  0.00     0.002 A 
ATOM      4  C4  N4B d   1      -2.860  -2.573  -0.266  0.00  0.00    -0.004 A 
ATOM      5  C5  N4B d   1      -1.613  -2.663   0.279  0.00  0.00     0.002 A 
ATOM      6  C6  N4B d   1      -0.487  -2.667  -0.521  0.00  0.00     0.002 A 
ENDROOT
BRANCH   1   7
ATOM      7  C1' N4B d   1       0.625  -2.670  -2.725  0.00  0.00     0.057 C 
BRANCH   7   8
ATOM      8  C2' N4B d   1       0.432  -3.768  -3.766  0.00  0.00     0.009 C 
BRANCH   8   9
ATOM      9  C3' N4B d   1      -0.079  -5.057  -3.145  0.00  0.00     0.004 C 
ATOM     10  C4' N4B d   1      -0.832  -5.913  -4.120  0.00  0.00     0.003 C 
ENDBRANCH   8   9
ENDBRANCH   7   8
ENDBRANCH   1   7
TORSDOF 3
ENDMDL
