MODEL 1
REMARK minimizedAffinity 2.08690476
REMARK minimizedRMSD -1
REMARK  3 active torsions:
REMARK  status: ('A' for Active; 'I' for Inactive)
REMARK    1  A    between atoms: C3'_2  and  C2'_3 
REMARK    2  A    between atoms: C2'_3  and  C1'_4 
REMARK    3  A    between atoms: C1'_4  and  C1_5 
ROOT
ATOM      1  C1  N4B d   1      -0.641  -2.358  -1.444  0.00  0.00    -0.075 A 
ATOM      2  C2  N4B d   1      -1.828  -2.040  -0.748  0.00  0.00     0.002 A 
ATOM      3  C3  N4B d   1      -1.927  -2.304   0.596  0.00  0.00     0.002 A 
ATOM      4  C4  N4B d   1      -0.864  -2.901   1.258  0.00  0.00    -0.004 A 
ATOM      5  C5  N4B d   1       0.288  -3.182   0.584  0.00  0.00     0.002 A 
ATOM      6  C6  N4B d   1       0.403  -2.918  -0.766  0.00  0.00     0.002 A 
ENDROOT
BRANCH   1   7
ATOM      7  C1' N4B d   1      -0.517  -2.167  -2.931  0.00  0.00     0.057 C 
BRANCH   7   8
ATOM      8  C2' N4B d   1       0.768  -1.403  -3.232  0.00  0.00     0.009 C 
BRANCH   8   9
ATOM      9  C3' N4B d   1       1.954  -2.335  -3.415  0.00  0.00     0.004 C 
ATOM     10  C4' N4B d   1       3.267  -1.665  -3.139  0.00  0.00     0.003 C 
ENDBRANCH   8   9
ENDBRANCH   7   8
ENDBRANCH   1   7
TORSDOF 3
ENDMDL
