MODEL 1
REMARK minimizedAffinity 1.6763227
REMARK minimizedRMSD -1
REMARK  3 active torsions:
REMARK  status: ('A' for Active; 'I' for Inactive)
REMARK    1  A    between atoms: C3'_2  and  C2'_3 
REMARK    2  A    between atoms: C2'_3  and  C1'_4 
REMARK    3  A    between atoms: C1'_4  and  C1_5 
ROOT
ATOM      1  C1  N4B d   1       4.425  -2.855   3.529  0.00  0.00    -0.075 A 
ATOM      2  C2  N4B d   1       5.307  -3.867   3.967  0.00  0.00     0.002 A 
ATOM      3  C3  N4B d   1       5.908  -3.767   5.198  0.00  0.00     0.002 A 
ATOM      4  C4  N4B d   1       5.658  -2.661   5.996  0.00  0.00    -0.004 A 
ATOM      5  C5  N4B d   1       4.785  -1.700   5.576  0.00  0.00     0.002 A 
ATOM      6  C6  N4B d   1       4.171  -1.789   4.343  0.00  0.00     0.002 A 
ENDROOT
BRANCH   1   7
ATOM      7  C1' N4B d   1       3.811  -2.877   2.156  0.00  0.00     0.057 C 
BRANCH   7   8
ATOM      8  C2' N4B d   1       4.078  -1.542   1.466  0.00  0.00     0.009 C 
BRANCH   8   9
ATOM      9  C3' N4B d   1       4.922  -1.708   0.215  0.00  0.00     0.004 C 
ATOM     10  C4' N4B d   1       5.808  -2.916   0.268  0.00  0.00     0.003 C 
ENDBRANCH   8   9
ENDBRANCH   7   8
ENDBRANCH   1   7
TORSDOF 3
ENDMDL
