MODEL 1
REMARK minimizedAffinity 17.025589
REMARK minimizedRMSD -1
REMARK  3 active torsions:
REMARK  status: ('A' for Active; 'I' for Inactive)
REMARK    1  A    between atoms: C3'_2  and  C2'_3 
REMARK    2  A    between atoms: C2'_3  and  C1'_4 
REMARK    3  A    between atoms: C1'_4  and  C1_5 
ROOT
ATOM      1  C1  N4B d   1       3.431   5.556  -2.593  0.00  0.00    -0.075 A 
ATOM      2  C2  N4B d   1       4.543   5.819  -1.764  0.00  0.00     0.002 A 
ATOM      3  C3  N4B d   1       5.815   5.581  -2.225  0.00  0.00     0.002 A 
ATOM      4  C4  N4B d   1       5.997   5.066  -3.500  0.00  0.00    -0.004 A 
ATOM      5  C5  N4B d   1       4.918   4.839  -4.304  0.00  0.00     0.002 A 
ATOM      6  C6  N4B d   1       3.634   5.077  -3.854  0.00  0.00     0.002 A 
ENDROOT
BRANCH   1   7
ATOM      7  C1' N4B d   1       2.018   5.719  -2.101  0.00  0.00     0.057 C 
BRANCH   7   8
ATOM      8  C2' N4B d   1       1.916   5.171  -0.681  0.00  0.00     0.009 C 
BRANCH   8   9
ATOM      9  C3' N4B d   1       0.625   5.593  -0.001  0.00  0.00     0.004 C 
ATOM     10  C4' N4B d   1       0.828   5.998   1.429  0.00  0.00     0.003 C 
ENDBRANCH   8   9
ENDBRANCH   7   8
ENDBRANCH   1   7
TORSDOF 3
ENDMDL
