MODEL 1
REMARK minimizedAffinity 4.52644539
REMARK minimizedRMSD -1
REMARK  3 active torsions:
REMARK  status: ('A' for Active; 'I' for Inactive)
REMARK    1  A    between atoms: C3'_2  and  C2'_3 
REMARK    2  A    between atoms: C2'_3  and  C1'_4 
REMARK    3  A    between atoms: C1'_4  and  C1_5 
ROOT
ATOM      1  C1  N4B d   1       0.975  -2.677  -3.054  0.00  0.00    -0.075 A 
ATOM      2  C2  N4B d   1       2.275  -2.127  -3.057  0.00  0.00     0.002 A 
ATOM      3  C3  N4B d   1       3.354  -2.915  -3.377  0.00  0.00     0.002 A 
ATOM      4  C4  N4B d   1       3.159  -4.255  -3.676  0.00  0.00    -0.004 A 
ATOM      5  C5  N4B d   1       1.897  -4.773  -3.695  0.00  0.00     0.002 A 
ATOM      6  C6  N4B d   1       0.803  -3.991  -3.380  0.00  0.00     0.002 A 
ENDROOT
BRANCH   1   7
ATOM      7  C1' N4B d   1      -0.225  -1.876  -2.628  0.00  0.00     0.057 C 
BRANCH   7   8
ATOM      8  C2' N4B d   1      -0.295  -1.851  -1.104  0.00  0.00     0.009 C 
BRANCH   8   9
ATOM      9  C3' N4B d   1      -1.229  -2.919  -0.561  0.00  0.00     0.004 C 
ATOM     10  C4' N4B d   1      -2.672  -2.518  -0.627  0.00  0.00     0.003 C 
ENDBRANCH   8   9
ENDBRANCH   7   8
ENDBRANCH   1   7
TORSDOF 3
ENDMDL
