MODEL 1
REMARK minimizedAffinity 4.36948299
REMARK minimizedRMSD -1
REMARK  3 active torsions:
REMARK  status: ('A' for Active; 'I' for Inactive)
REMARK    1  A    between atoms: C3'_2  and  C2'_3 
REMARK    2  A    between atoms: C2'_3  and  C1'_4 
REMARK    3  A    between atoms: C1'_4  and  C1_5 
ROOT
ATOM      1  C1  N4B d   1       5.796   4.692  -3.884  0.00  0.00    -0.075 A 
ATOM      2  C2  N4B d   1       5.747   3.528  -3.085  0.00  0.00     0.002 A 
ATOM      3  C3  N4B d   1       5.828   3.630  -1.718  0.00  0.00     0.002 A 
ATOM      4  C4  N4B d   1       5.977   4.877  -1.131  0.00  0.00    -0.004 A 
ATOM      5  C5  N4B d   1       5.999   5.998  -1.908  0.00  0.00     0.002 A 
ATOM      6  C6  N4B d   1       5.914   5.911  -3.283  0.00  0.00     0.002 A 
ENDROOT
BRANCH   1   7
ATOM      7  C1' N4B d   1       5.798   4.624  -5.386  0.00  0.00     0.057 C 
BRANCH   7   8
ATOM      8  C2' N4B d   1       4.385   4.884  -5.901  0.00  0.00     0.009 C 
BRANCH   8   9
ATOM      9  C3' N4B d   1       3.694   5.994  -5.127  0.00  0.00     0.004 C 
ATOM     10  C4' N4B d   1       2.923   5.485  -3.946  0.00  0.00     0.003 C 
ENDBRANCH   8   9
ENDBRANCH   7   8
ENDBRANCH   1   7
TORSDOF 3
ENDMDL
