MODEL 1
REMARK minimizedAffinity 5.50534439
REMARK minimizedRMSD -1
REMARK  3 active torsions:
REMARK  status: ('A' for Active; 'I' for Inactive)
REMARK    1  A    between atoms: C3'_2  and  C2'_3 
REMARK    2  A    between atoms: C2'_3  and  C1'_4 
REMARK    3  A    between atoms: C1'_4  and  C1_5 
ROOT
ATOM      1  C1  N4B d   1      -0.102  -2.455  -2.241  0.00  0.00    -0.075 A 
ATOM      2  C2  N4B d   1      -0.330  -3.846  -2.154  0.00  0.00     0.002 A 
ATOM      3  C3  N4B d   1      -0.826  -4.389  -0.995  0.00  0.00     0.002 A 
ATOM      4  C4  N4B d   1      -1.083  -3.568   0.093  0.00  0.00    -0.004 A 
ATOM      5  C5  N4B d   1      -0.885  -2.222  -0.007  0.00  0.00     0.002 A 
ATOM      6  C6  N4B d   1      -0.390  -1.662  -1.168  0.00  0.00     0.002 A 
ENDROOT
BRANCH   1   7
ATOM      7  C1' N4B d   1       0.520  -1.826  -3.457  0.00  0.00     0.057 C 
BRANCH   7   8
ATOM      8  C2' N4B d   1       1.765  -2.617  -3.849  0.00  0.00     0.009 C 
BRANCH   8   9
ATOM      9  C3' N4B d   1       3.031  -1.789  -3.709  0.00  0.00     0.004 C 
ATOM     10  C4' N4B d   1       3.693  -1.962  -2.374  0.00  0.00     0.003 C 
ENDBRANCH   8   9
ENDBRANCH   7   8
ENDBRANCH   1   7
TORSDOF 3
ENDMDL
