MODEL 1
REMARK minimizedAffinity 3.83638835
REMARK minimizedRMSD -1
REMARK  3 active torsions:
REMARK  status: ('A' for Active; 'I' for Inactive)
REMARK    1  A    between atoms: C3'_2  and  C2'_3 
REMARK    2  A    between atoms: C2'_3  and  C1'_4 
REMARK    3  A    between atoms: C1'_4  and  C1_5 
ROOT
ATOM      1  C1  N4B d   1      -0.083  -2.938  -1.972  0.00  0.00    -0.075 A 
ATOM      2  C2  N4B d   1       0.332  -2.351  -3.187  0.00  0.00     0.002 A 
ATOM      3  C3  N4B d   1       0.563  -3.140  -4.287  0.00  0.00     0.002 A 
ATOM      4  C4  N4B d   1       0.405  -4.514  -4.191  0.00  0.00    -0.004 A 
ATOM      5  C5  N4B d   1      -0.021  -5.071  -3.020  0.00  0.00     0.002 A 
ATOM      6  C6  N4B d   1      -0.261  -4.290  -1.908  0.00  0.00     0.002 A 
ENDROOT
BRANCH   1   7
ATOM      7  C1' N4B d   1      -0.266  -2.126  -0.719  0.00  0.00     0.057 C 
BRANCH   7   8
ATOM      8  C2' N4B d   1      -0.305  -3.063   0.484  0.00  0.00     0.009 C 
BRANCH   8   9
ATOM      9  C3' N4B d   1      -1.318  -2.613   1.523  0.00  0.00     0.004 C 
ATOM     10  C4' N4B d   1      -1.730  -1.182   1.349  0.00  0.00     0.003 C 
ENDBRANCH   8   9
ENDBRANCH   7   8
ENDBRANCH   1   7
TORSDOF 3
ENDMDL
