MODEL 1
REMARK minimizedAffinity 7.86676645
REMARK minimizedRMSD -1
REMARK  3 active torsions:
REMARK  status: ('A' for Active; 'I' for Inactive)
REMARK    1  A    between atoms: C3'_2  and  C2'_3 
REMARK    2  A    between atoms: C2'_3  and  C1'_4 
REMARK    3  A    between atoms: C1'_4  and  C1_5 
ROOT
ATOM      1  C1  N4B d   1      -1.084  -2.878  -0.641  0.00  0.00    -0.075 A 
ATOM      2  C2  N4B d   1      -0.153  -1.817  -0.688  0.00  0.00     0.002 A 
ATOM      3  C3  N4B d   1       0.552  -1.573  -1.841  0.00  0.00     0.002 A 
ATOM      4  C4  N4B d   1       0.358  -2.385  -2.949  0.00  0.00    -0.004 A 
ATOM      5  C5  N4B d   1      -0.562  -3.392  -2.903  0.00  0.00     0.002 A 
ATOM      6  C6  N4B d   1      -1.281  -3.646  -1.752  0.00  0.00     0.002 A 
ENDROOT
BRANCH   1   7
ATOM      7  C1' N4B d   1      -1.816  -3.237   0.623  0.00  0.00     0.057 C 
BRANCH   7   8
ATOM      8  C2' N4B d   1      -1.099  -2.605   1.813  0.00  0.00     0.009 C 
BRANCH   8   9
ATOM      9  C3' N4B d   1      -1.949  -1.543   2.489  0.00  0.00     0.004 C 
ATOM     10  C4' N4B d   1      -1.583  -1.336   3.929  0.00  0.00     0.003 C 
ENDBRANCH   8   9
ENDBRANCH   7   8
ENDBRANCH   1   7
TORSDOF 3
ENDMDL
