MODEL 1
REMARK minimizedAffinity -1.47588229
REMARK minimizedRMSD -1
REMARK  3 active torsions:
REMARK  status: ('A' for Active; 'I' for Inactive)
REMARK    1  A    between atoms: C3'_2  and  C2'_3 
REMARK    2  A    between atoms: C2'_3  and  C1'_4 
REMARK    3  A    between atoms: C1'_4  and  C1_5 
ROOT
ATOM      1  C1  N4B d   1      -0.545  -2.698  -1.359  0.00  0.00    -0.075 A 
ATOM      2  C2  N4B d   1      -0.445  -4.091  -1.571  0.00  0.00     0.002 A 
ATOM      3  C3  N4B d   1       0.273  -4.573  -2.638  0.00  0.00     0.002 A 
ATOM      4  C4  N4B d   1       0.880  -3.686  -3.513  0.00  0.00    -0.004 A 
ATOM      5  C5  N4B d   1       0.800  -2.343  -3.288  0.00  0.00     0.002 A 
ATOM      6  C6  N4B d   1       0.086  -1.844  -2.217  0.00  0.00     0.002 A 
ENDROOT
BRANCH   1   7
ATOM      7  C1' N4B d   1      -1.389  -2.121  -0.256  0.00  0.00     0.057 C 
BRANCH   7   8
ATOM      8  C2' N4B d   1      -1.262  -3.000   0.984  0.00  0.00     0.009 C 
BRANCH   8   9
ATOM      9  C3' N4B d   1      -2.542  -3.017   1.802  0.00  0.00     0.004 C 
ATOM     10  C4' N4B d   1      -3.770  -2.831   0.963  0.00  0.00     0.003 C 
ENDBRANCH   8   9
ENDBRANCH   7   8
ENDBRANCH   1   7
TORSDOF 3
ENDMDL
