MODEL 1
REMARK minimizedAffinity 4.39175463
REMARK minimizedRMSD -1
REMARK  3 active torsions:
REMARK  status: ('A' for Active; 'I' for Inactive)
REMARK    1  A    between atoms: C3'_2  and  C2'_3 
REMARK    2  A    between atoms: C2'_3  and  C1'_4 
REMARK    3  A    between atoms: C1'_4  and  C1_5 
ROOT
ATOM      1  C1  N4B d   1      -0.303  -1.769  -1.231  0.00  0.00    -0.075 A 
ATOM      2  C2  N4B d   1      -0.180  -1.227   0.068  0.00  0.00     0.002 A 
ATOM      3  C3  N4B d   1      -1.024  -1.643   1.068  0.00  0.00     0.002 A 
ATOM      4  C4  N4B d   1      -2.007  -2.580   0.790  0.00  0.00    -0.004 A 
ATOM      5  C5  N4B d   1      -2.103  -3.118  -0.461  0.00  0.00     0.002 A 
ATOM      6  C6  N4B d   1      -1.258  -2.712  -1.474  0.00  0.00     0.002 A 
ENDROOT
BRANCH   1   7
ATOM      7  C1' N4B d   1       0.542  -1.283  -2.377  0.00  0.00     0.057 C 
BRANCH   7   8
ATOM      8  C2' N4B d   1       1.606  -2.330  -2.694  0.00  0.00     0.009 C 
BRANCH   8   9
ATOM      9  C3' N4B d   1       3.012  -1.791  -2.488  0.00  0.00     0.004 C 
ATOM     10  C4' N4B d   1       3.423  -1.777  -1.046  0.00  0.00     0.003 C 
ENDBRANCH   8   9
ENDBRANCH   7   8
ENDBRANCH   1   7
TORSDOF 3
ENDMDL
