MODEL 1
REMARK minimizedAffinity -4.22461987
REMARK minimizedRMSD -1
REMARK  1 active torsions:
REMARK  status: ('A' for Active; 'I' for Inactive)
REMARK    1  A    between atoms: C1_2  and  C2_3 
ROOT
ATOM      1  C2  UNL d   1       0.387  -0.137  -0.681  0.00  0.00    -0.081 A 
ATOM      2  C3  UNL d   1      -0.996  -0.032  -0.488  0.00  0.00     0.006 A 
ATOM      3  C4  UNL d   1      -1.511   0.357   0.751  0.00  0.00     0.002 A 
ATOM      4  C5  UNL d   1      -0.652   0.655   1.814  0.00  0.00    -0.080 A 
ATOM      5  C6  UNL d   1      -1.190   1.103   3.141  0.00  0.00     0.076 C 
ATOM      6  C7  UNL d   1       0.729   0.532   1.627  0.00  0.00     0.002 A 
ATOM      7  C8  UNL d   1       1.244   0.143   0.388  0.00  0.00     0.006 A 
ENDROOT
BRANCH   1   8
ATOM      8  C1  UNL d   1       0.946  -0.494  -2.035  0.00  0.00     0.054 C 
ATOM      9  C   UNL d   1       0.759   0.643  -3.028  0.00  0.00     0.018 C 
ENDBRANCH   1   8
TORSDOF 1
ENDMDL
