MODEL 1
REMARK minimizedAffinity -4.1134696
REMARK minimizedRMSD -1
REMARK  1 active torsions:
REMARK  status: ('A' for Active; 'I' for Inactive)
REMARK    1  A    between atoms: C1_2  and  C2_3 
ROOT
ATOM      1  C2  UNL d   1       0.572  -0.406  -0.344  0.00  0.00    -0.081 A 
ATOM      2  C3  UNL d   1      -0.738   0.090  -0.367  0.00  0.00     0.006 A 
ATOM      3  C4  UNL d   1      -1.227   0.846   0.701  0.00  0.00     0.002 A 
ATOM      4  C5  UNL d   1      -0.414   1.126   1.804  0.00  0.00    -0.080 A 
ATOM      5  C6  UNL d   1      -0.917   1.962   2.943  0.00  0.00     0.076 C 
ATOM      6  C7  UNL d   1       0.888   0.616   1.835  0.00  0.00     0.002 A 
ATOM      7  C8  UNL d   1       1.378  -0.141   0.768  0.00  0.00     0.006 A 
ENDROOT
BRANCH   1   8
ATOM      8  C1  UNL d   1       1.123  -1.168  -1.522  0.00  0.00     0.054 C 
ATOM      9  C   UNL d   1       0.880  -0.422  -2.826  0.00  0.00     0.018 C 
ENDBRANCH   1   8
TORSDOF 1
ENDMDL
