MODEL 1
REMARK minimizedAffinity -2.74741364
REMARK minimizedRMSD -1
REMARK  1 active torsions:
REMARK  status: ('A' for Active; 'I' for Inactive)
REMARK    1  A    between atoms: C1_2  and  C2_3 
ROOT
ATOM      1  C2  UNL d   1       0.421  -0.406  -1.172  0.00  0.00    -0.081 A 
ATOM      2  C3  UNL d   1      -0.952  -0.226  -0.969  0.00  0.00     0.006 A 
ATOM      3  C4  UNL d   1      -1.433   0.212   0.267  0.00  0.00     0.002 A 
ATOM      4  C5  UNL d   1      -0.549   0.484   1.317  0.00  0.00    -0.080 A 
ATOM      5  C6  UNL d   1      -1.050   0.984   2.640  0.00  0.00     0.076 C 
ATOM      6  C7  UNL d   1       0.822   0.287   1.119  0.00  0.00     0.002 A 
ATOM      7  C8  UNL d   1       1.303  -0.152  -0.116  0.00  0.00     0.006 A 
ENDROOT
BRANCH   1   8
ATOM      8  C1  UNL d   1       0.948  -0.816  -2.524  0.00  0.00     0.054 C 
ATOM      9  C   UNL d   1       0.278  -0.030  -3.641  0.00  0.00     0.018 C 
ENDBRANCH   1   8
TORSDOF 1
ENDMDL
