MODEL 1
REMARK minimizedAffinity -5.28059912
REMARK minimizedRMSD -1
REMARK  1 active torsions:
REMARK  status: ('A' for Active; 'I' for Inactive)
REMARK    1  A    between atoms: C1_2  and  C2_3 
ROOT
ATOM      1  C2  UNL d   1      -0.182  -0.008  -1.230  0.00  0.00    -0.081 A 
ATOM      2  C3  UNL d   1      -1.067  -0.599  -0.320  0.00  0.00     0.006 A 
ATOM      3  C4  UNL d   1      -1.251  -0.047   0.950  0.00  0.00     0.002 A 
ATOM      4  C5  UNL d   1      -0.559   1.109   1.329  0.00  0.00    -0.080 A 
ATOM      5  C6  UNL d   1      -0.770   1.729   2.678  0.00  0.00     0.076 C 
ATOM      6  C7  UNL d   1       0.338   1.690   0.426  0.00  0.00     0.002 A 
ATOM      7  C8  UNL d   1       0.523   1.138  -0.844  0.00  0.00     0.006 A 
ENDROOT
BRANCH   1   8
ATOM      8  C1  UNL d   1      -0.030  -0.563  -2.623  0.00  0.00     0.054 C 
ATOM      9  C   UNL d   1       0.276   0.538  -3.627  0.00  0.00     0.018 C 
ENDBRANCH   1   8
TORSDOF 1
ENDMDL
