MODEL 1
REMARK minimizedAffinity 4.66363001
REMARK minimizedRMSD -1
REMARK  1 active torsions:
REMARK  status: ('A' for Active; 'I' for Inactive)
REMARK    1  A    between atoms: C1_2  and  C2_3 
ROOT
ATOM      1  C2  UNL d   1      -0.649   0.414  -1.996  0.00  0.00    -0.081 A 
ATOM      2  C3  UNL d   1      -0.376  -0.715  -1.214  0.00  0.00     0.006 A 
ATOM      3  C4  UNL d   1      -0.802  -0.775   0.115  0.00  0.00     0.002 A 
ATOM      4  C5  UNL d   1      -1.515   0.287   0.681  0.00  0.00    -0.080 A 
ATOM      5  C6  UNL d   1      -2.005   0.222   2.097  0.00  0.00     0.076 C 
ATOM      6  C7  UNL d   1      -1.773   1.422  -0.095  0.00  0.00     0.002 A 
ATOM      7  C8  UNL d   1      -1.346   1.484  -1.424  0.00  0.00     0.006 A 
ENDROOT
BRANCH   1   8
ATOM      8  C1  UNL d   1      -0.247   0.455  -3.448  0.00  0.00     0.054 C 
ATOM      9  C   UNL d   1      -0.516  -0.876  -4.135  0.00  0.00     0.018 C 
ENDBRANCH   1   8
TORSDOF 1
ENDMDL
