MODEL 1
REMARK minimizedAffinity 9.67342663
REMARK minimizedRMSD -1
REMARK  1 active torsions:
REMARK  status: ('A' for Active; 'I' for Inactive)
REMARK    1  A    between atoms: C1_2  and  C2_3 
ROOT
ATOM      1  C2  UNL d   1       2.567  -0.002  -1.970  0.00  0.00    -0.081 A 
ATOM      2  C3  UNL d   1       2.523  -1.288  -1.418  0.00  0.00     0.006 A 
ATOM      3  C4  UNL d   1       2.262  -1.465  -0.057  0.00  0.00     0.002 A 
ATOM      4  C5  UNL d   1       2.033  -0.362   0.772  0.00  0.00    -0.080 A 
ATOM      5  C6  UNL d   1       1.721  -0.540   2.228  0.00  0.00     0.076 C 
ATOM      6  C7  UNL d   1       2.094   0.924   0.223  0.00  0.00     0.002 A 
ATOM      7  C8  UNL d   1       2.356   1.102  -1.137  0.00  0.00     0.006 A 
ENDROOT
BRANCH   1   8
ATOM      8  C1  UNL d   1       2.784   0.190  -3.450  0.00  0.00     0.054 C 
ATOM      9  C   UNL d   1       1.488   0.563  -4.155  0.00  0.00     0.018 C 
ENDBRANCH   1   8
TORSDOF 1
ENDMDL
