MODEL 1
REMARK minimizedAffinity 3.89315581
REMARK minimizedRMSD -1
REMARK  0 active torsions:
REMARK  status: ('A' for Active; 'I' for Inactive)
ROOT
ATOM      1  C   UNL d   1       0.906   1.456  -2.109  0.00  0.00     0.020 A 
ATOM      2  C1  UNL d   1       1.255   0.910  -3.343  0.00  0.00     0.020 A 
ATOM      3  C2  UNL d   1       1.401  -0.472  -3.480  0.00  0.00     0.034 A 
ATOM      4  C3  UNL d   1       1.199  -1.313  -2.379  0.00  0.00     0.017 A 
ATOM      5  C4  UNL d   1       0.849  -0.764  -1.140  0.00  0.00     0.017 A 
ATOM      6  C5  UNL d   1       0.704   0.620  -1.009  0.00  0.00     0.034 A 
ATOM      7 Cl   UNL d   1       0.583  -1.738   0.263  0.00  0.00    -0.070 Cl
ATOM      8 Cl1  UNL d   1       1.396  -3.012  -2.620  0.00  0.00    -0.070 Cl
ENDROOT
TORSDOF 0
ENDMDL
