MODEL 1
REMARK minimizedAffinity 0.252824664
REMARK minimizedRMSD -1
REMARK  0 active torsions:
REMARK  status: ('A' for Active; 'I' for Inactive)
ROOT
ATOM      1  C   UNL d   1       2.203  -0.481  -1.181  0.00  0.00     0.020 A 
ATOM      2  C1  UNL d   1       0.882  -0.079  -1.373  0.00  0.00     0.020 A 
ATOM      3  C2  UNL d   1      -0.159  -0.792  -0.774  0.00  0.00     0.034 A 
ATOM      4  C3  UNL d   1       0.119  -1.911   0.020  0.00  0.00     0.017 A 
ATOM      5  C4  UNL d   1       1.446  -2.314   0.212  0.00  0.00     0.017 A 
ATOM      6  C5  UNL d   1       2.484  -1.596  -0.390  0.00  0.00     0.034 A 
ATOM      7 Cl   UNL d   1       1.868  -3.684   1.178  0.00  0.00    -0.070 Cl
ATOM      8 Cl1  UNL d   1      -1.217  -2.744   0.730  0.00  0.00    -0.070 Cl
ENDROOT
TORSDOF 0
ENDMDL
