MODEL 1
REMARK minimizedAffinity 0.0157364905
REMARK minimizedRMSD -1
REMARK  0 active torsions:
REMARK  status: ('A' for Active; 'I' for Inactive)
ROOT
ATOM      1  C   UNL d   1      -5.611   5.999   4.854  0.00  0.00     0.020 A 
ATOM      2  C1  UNL d   1      -5.507   5.212   6.000  0.00  0.00     0.020 A 
ATOM      3  C2  UNL d   1      -4.718   4.060   5.986  0.00  0.00     0.034 A 
ATOM      4  C3  UNL d   1      -4.031   3.691   4.823  0.00  0.00     0.017 A 
ATOM      5  C4  UNL d   1      -4.136   4.482   3.674  0.00  0.00     0.017 A 
ATOM      6  C5  UNL d   1      -4.927   5.635   3.693  0.00  0.00     0.034 A 
ATOM      7 Cl   UNL d   1      -3.318   4.092   2.202  0.00  0.00    -0.070 Cl
ATOM      8 Cl1  UNL d   1      -3.074   2.254   4.878  0.00  0.00    -0.070 Cl
ENDROOT
TORSDOF 0
ENDMDL
