MODEL 1
REMARK minimizedAffinity -2.6082058
REMARK minimizedRMSD -1
REMARK  0 active torsions:
REMARK  status: ('A' for Active; 'I' for Inactive)
ROOT
ATOM      1  C   UNL d   1      -1.925  -1.087   4.063  0.00  0.00     0.020 A 
ATOM      2  C1  UNL d   1      -2.793  -1.865   3.298  0.00  0.00     0.020 A 
ATOM      3  C2  UNL d   1      -4.046  -1.365   2.938  0.00  0.00     0.034 A 
ATOM      4  C3  UNL d   1      -4.436  -0.083   3.345  0.00  0.00     0.017 A 
ATOM      5  C4  UNL d   1      -3.564   0.697   4.113  0.00  0.00     0.017 A 
ATOM      6  C5  UNL d   1      -2.310   0.191   4.470  0.00  0.00     0.034 A 
ATOM      7 Cl   UNL d   1      -3.974   2.288   4.651  0.00  0.00    -0.070 Cl
ATOM      8 Cl1  UNL d   1      -6.000   0.472   2.864  0.00  0.00    -0.070 Cl
ENDROOT
TORSDOF 0
ENDMDL
