MODEL 1
REMARK minimizedAffinity 6.87070799
REMARK minimizedRMSD -1
REMARK  0 active torsions:
REMARK  status: ('A' for Active; 'I' for Inactive)
ROOT
ATOM      1  C   UNL d   1       1.603  -0.089  -0.350  0.00  0.00     0.020 A 
ATOM      2  C1  UNL d   1       1.544  -1.480  -0.427  0.00  0.00     0.020 A 
ATOM      3  C2  UNL d   1       1.009  -2.095  -1.561  0.00  0.00     0.034 A 
ATOM      4  C3  UNL d   1       0.530  -1.318  -2.622  0.00  0.00     0.017 A 
ATOM      5  C4  UNL d   1       0.589   0.078  -2.544  0.00  0.00     0.017 A 
ATOM      6  C5  UNL d   1       1.126   0.688  -1.406  0.00  0.00     0.034 A 
ATOM      7 Cl   UNL d   1       0.018   1.102  -3.813  0.00  0.00    -0.070 Cl
ATOM      8 Cl1  UNL d   1      -0.118  -2.145  -3.994  0.00  0.00    -0.070 Cl
ENDROOT
TORSDOF 0
ENDMDL
