MODEL 1
REMARK minimizedAffinity -0.0589158013
REMARK minimizedRMSD -1
REMARK  0 active torsions:
REMARK  status: ('A' for Active; 'I' for Inactive)
ROOT
ATOM      1  C   UNL d   1       1.144  -3.522   0.880  0.00  0.00     0.020 A 
ATOM      2  C1  UNL d   1       2.202  -2.731   0.434  0.00  0.00     0.020 A 
ATOM      3  C2  UNL d   1       1.951  -1.627  -0.385  0.00  0.00     0.034 A 
ATOM      4  C3  UNL d   1       0.640  -1.313  -0.760  0.00  0.00     0.017 A 
ATOM      5  C4  UNL d   1      -0.421  -2.108  -0.312  0.00  0.00     0.017 A 
ATOM      6  C5  UNL d   1      -0.164  -3.211   0.508  0.00  0.00     0.034 A 
ATOM      7 Cl   UNL d   1      -2.066  -1.783  -0.732  0.00  0.00    -0.070 Cl
ATOM      8 Cl1  UNL d   1       0.403   0.066  -1.774  0.00  0.00    -0.070 Cl
ENDROOT
TORSDOF 0
ENDMDL
