MODEL 1
REMARK minimizedAffinity 11.34585
REMARK minimizedRMSD -1
REMARK  0 active torsions:
REMARK  status: ('A' for Active; 'I' for Inactive)
ROOT
ATOM      1  C   UNL d   1      -6.000   5.911   4.951  0.00  0.00     0.020 A 
ATOM      2  C1  UNL d   1      -5.075   5.978   5.992  0.00  0.00     0.020 A 
ATOM      3  C2  UNL d   1      -3.707   5.982   5.712  0.00  0.00     0.034 A 
ATOM      4  C3  UNL d   1      -3.260   5.919   4.387  0.00  0.00     0.017 A 
ATOM      5  C4  UNL d   1      -4.189   5.853   3.343  0.00  0.00     0.017 A 
ATOM      6  C5  UNL d   1      -5.558   5.849   3.629  0.00  0.00     0.034 A 
ATOM      7 Cl   UNL d   1      -3.714   5.774   1.683  0.00  0.00    -0.070 Cl
ATOM      8 Cl1  UNL d   1      -1.554   5.929   4.113  0.00  0.00    -0.070 Cl
ENDROOT
TORSDOF 0
ENDMDL
