MODEL 1
REMARK minimizedAffinity 8.8904438
REMARK minimizedRMSD -1
REMARK  0 active torsions:
REMARK  status: ('A' for Active; 'I' for Inactive)
ROOT
ATOM      1  C   UNL d   1       1.511   0.709  -2.276  0.00  0.00     0.020 A 
ATOM      2  C1  UNL d   1       0.522   1.674  -2.093  0.00  0.00     0.020 A 
ATOM      3  C2  UNL d   1       0.379   2.711  -3.018  0.00  0.00     0.034 A 
ATOM      4  C3  UNL d   1       1.226   2.785  -4.129  0.00  0.00     0.017 A 
ATOM      5  C4  UNL d   1       2.219   1.816  -4.312  0.00  0.00     0.017 A 
ATOM      6  C5  UNL d   1       2.358   0.780  -3.383  0.00  0.00     0.034 A 
ATOM      7 Cl   UNL d   1       3.302   1.841  -5.658  0.00  0.00    -0.070 Cl
ATOM      8 Cl1  UNL d   1       0.992   4.094  -5.232  0.00  0.00    -0.070 Cl
ENDROOT
TORSDOF 0
ENDMDL
