MODEL 1
REMARK minimizedAffinity 4.32259703
REMARK minimizedRMSD -1
REMARK  0 active torsions:
REMARK  status: ('A' for Active; 'I' for Inactive)
ROOT
ATOM      1  C   UNL d   1       0.834   2.006  -2.451  0.00  0.00     0.020 A 
ATOM      2  C1  UNL d   1       0.942   1.491  -3.742  0.00  0.00     0.020 A 
ATOM      3  C2  UNL d   1       1.045   0.112  -3.937  0.00  0.00     0.034 A 
ATOM      4  C3  UNL d   1       1.040  -0.756  -2.839  0.00  0.00     0.017 A 
ATOM      5  C4  UNL d   1       0.932  -0.238  -1.544  0.00  0.00     0.017 A 
ATOM      6  C5  UNL d   1       0.828   1.143  -1.354  0.00  0.00     0.034 A 
ATOM      7 Cl   UNL d   1       0.919  -1.247  -0.140  0.00  0.00    -0.070 Cl
ATOM      8 Cl1  UNL d   1       1.171  -2.450  -3.154  0.00  0.00    -0.070 Cl
ENDROOT
TORSDOF 0
ENDMDL
