MODEL 1
REMARK minimizedAffinity 12.4005365
REMARK minimizedRMSD -1
REMARK  0 active torsions:
REMARK  status: ('A' for Active; 'I' for Inactive)
ROOT
ATOM      1  C   UNL d   1       0.791   1.429  -1.611  0.00  0.00     0.020 A 
ATOM      2  C1  UNL d   1       1.304   0.980  -2.827  0.00  0.00     0.020 A 
ATOM      3  C2  UNL d   1       1.336  -0.387  -3.110  0.00  0.00     0.034 A 
ATOM      4  C3  UNL d   1       0.855  -1.310  -2.174  0.00  0.00     0.017 A 
ATOM      5  C4  UNL d   1       0.341  -0.859  -0.953  0.00  0.00     0.017 A 
ATOM      6  C5  UNL d   1       0.311   0.511  -0.676  0.00  0.00     0.034 A 
ATOM      7 Cl   UNL d   1      -0.271  -1.938   0.250  0.00  0.00    -0.070 Cl
ATOM      8 Cl1  UNL d   1       0.925  -2.986  -2.590  0.00  0.00    -0.070 Cl
ENDROOT
TORSDOF 0
ENDMDL
