MODEL 1
REMARK minimizedAffinity 2.0572536
REMARK minimizedRMSD -1
REMARK  0 active torsions:
REMARK  status: ('A' for Active; 'I' for Inactive)
ROOT
ATOM      1  C   UNL d   1       1.629  -2.143  -3.366  0.00  0.00     0.020 A 
ATOM      2  C1  UNL d   1       1.528  -1.002  -4.161  0.00  0.00     0.020 A 
ATOM      3  C2  UNL d   1       1.078   0.198  -3.605  0.00  0.00     0.034 A 
ATOM      4  C3  UNL d   1       0.728   0.260  -2.251  0.00  0.00     0.017 A 
ATOM      5  C4  UNL d   1       0.830  -0.886  -1.455  0.00  0.00     0.017 A 
ATOM      6  C5  UNL d   1       1.281  -2.085  -2.016  0.00  0.00     0.034 A 
ATOM      7 Cl   UNL d   1       0.416  -0.888   0.224  0.00  0.00    -0.070 Cl
ATOM      8 Cl1  UNL d   1       0.181   1.777  -1.631  0.00  0.00    -0.070 Cl
ENDROOT
TORSDOF 0
ENDMDL
