MODEL 1
REMARK minimizedAffinity 3.28098917
REMARK minimizedRMSD -1
REMARK  0 active torsions:
REMARK  status: ('A' for Active; 'I' for Inactive)
ROOT
ATOM      1  C   UNL d   1       1.089  -0.558   0.351  0.00  0.00     0.020 A 
ATOM      2  C1  UNL d   1       0.708  -1.882   0.137  0.00  0.00     0.020 A 
ATOM      3  C2  UNL d   1       0.368  -2.311  -1.148  0.00  0.00     0.034 A 
ATOM      4  C3  UNL d   1       0.408  -1.416  -2.223  0.00  0.00     0.017 A 
ATOM      5  C4  UNL d   1       0.791  -0.087  -2.007  0.00  0.00     0.017 A 
ATOM      6  C5  UNL d   1       1.131   0.337  -0.719  0.00  0.00     0.034 A 
ATOM      7 Cl   UNL d   1       0.865   1.075  -3.284  0.00  0.00    -0.070 Cl
ATOM      8 Cl1  UNL d   1      -0.025  -2.016  -3.784  0.00  0.00    -0.070 Cl
ENDROOT
TORSDOF 0
ENDMDL
