MODEL 1
REMARK minimizedAffinity 1.28221381
REMARK minimizedRMSD -1
REMARK  0 active torsions:
REMARK  status: ('A' for Active; 'I' for Inactive)
ROOT
ATOM      1  C   UNL d   1       0.507   0.975  -0.756  0.00  0.00     0.020 A 
ATOM      2  C1  UNL d   1       0.609   2.205  -1.405  0.00  0.00     0.020 A 
ATOM      3  C2  UNL d   1       0.950   2.254  -2.758  0.00  0.00     0.034 A 
ATOM      4  C3  UNL d   1       1.191   1.072  -3.467  0.00  0.00     0.017 A 
ATOM      5  C4  UNL d   1       1.088  -0.162  -2.815  0.00  0.00     0.017 A 
ATOM      6  C5  UNL d   1       0.747  -0.206  -1.460  0.00  0.00     0.034 A 
ATOM      7 Cl   UNL d   1       1.371  -1.664  -3.623  0.00  0.00    -0.070 Cl
ATOM      8 Cl1  UNL d   1       1.607   1.208  -5.138  0.00  0.00    -0.070 Cl
ENDROOT
TORSDOF 0
ENDMDL
