MODEL 1
REMARK minimizedAffinity 4.4635911
REMARK minimizedRMSD -1
REMARK  0 active torsions:
REMARK  status: ('A' for Active; 'I' for Inactive)
ROOT
ATOM      1  C   UNL d   1       1.482  -2.066  -3.983  0.00  0.00     0.020 A 
ATOM      2  C1  UNL d   1       1.393  -2.857  -2.838  0.00  0.00     0.020 A 
ATOM      3  C2  UNL d   1       1.175  -2.262  -1.594  0.00  0.00     0.034 A 
ATOM      4  C3  UNL d   1       1.046  -0.872  -1.491  0.00  0.00     0.017 A 
ATOM      5  C4  UNL d   1       1.136  -0.079  -2.641  0.00  0.00     0.017 A 
ATOM      6  C5  UNL d   1       1.354  -0.680  -3.885  0.00  0.00     0.034 A 
ATOM      7 Cl   UNL d   1       0.986   1.642  -2.594  0.00  0.00    -0.070 Cl
ATOM      8 Cl1  UNL d   1       0.777  -0.203   0.079  0.00  0.00    -0.070 Cl
ENDROOT
TORSDOF 0
ENDMDL
