MODEL 1
REMARK minimizedAffinity 2.80455732
REMARK minimizedRMSD -1
REMARK  0 active torsions:
REMARK  status: ('A' for Active; 'I' for Inactive)
ROOT
ATOM      1  C   UNL d   1       1.092   1.353  -3.353  0.00  0.00     0.020 A 
ATOM      2  C1  UNL d   1       0.637   1.872  -2.142  0.00  0.00     0.020 A 
ATOM      3  C2  UNL d   1       0.419   1.023  -1.056  0.00  0.00     0.034 A 
ATOM      4  C3  UNL d   1       0.656  -0.351  -1.178  0.00  0.00     0.017 A 
ATOM      5  C4  UNL d   1       1.113  -0.872  -2.394  0.00  0.00     0.017 A 
ATOM      6  C5  UNL d   1       1.329  -0.017  -3.479  0.00  0.00     0.034 A 
ATOM      7 Cl   UNL d   1       1.428  -2.556  -2.621  0.00  0.00    -0.070 Cl
ATOM      8 Cl1  UNL d   1       0.366  -1.343   0.207  0.00  0.00    -0.070 Cl
ENDROOT
TORSDOF 0
ENDMDL
