MODEL 1
REMARK minimizedAffinity 2.64791131
REMARK minimizedRMSD -1
REMARK  0 active torsions:
REMARK  status: ('A' for Active; 'I' for Inactive)
ROOT
ATOM      1  C   UNL d   1       1.290  -1.914  -3.895  0.00  0.00     0.020 A 
ATOM      2  C1  UNL d   1       1.188  -2.311  -2.562  0.00  0.00     0.020 A 
ATOM      3  C2  UNL d   1       1.066  -1.350  -1.556  0.00  0.00     0.034 A 
ATOM      4  C3  UNL d   1       1.046   0.011  -1.880  0.00  0.00     0.017 A 
ATOM      5  C4  UNL d   1       1.150   0.408  -3.219  0.00  0.00     0.017 A 
ATOM      6  C5  UNL d   1       1.271  -0.558  -4.222  0.00  0.00     0.034 A 
ATOM      7 Cl   UNL d   1       1.133   2.069  -3.697  0.00  0.00    -0.070 Cl
ATOM      8 Cl1  UNL d   1       0.893   1.144  -0.585  0.00  0.00    -0.070 Cl
ENDROOT
TORSDOF 0
ENDMDL
