MODEL 1
REMARK minimizedAffinity 0.339682579
REMARK minimizedRMSD -1
REMARK  0 active torsions:
REMARK  status: ('A' for Active; 'I' for Inactive)
ROOT
ATOM      1  C   UNL d   1       0.967   1.495  -2.057  0.00  0.00     0.020 A 
ATOM      2  C1  UNL d   1       1.373   0.996  -3.294  0.00  0.00     0.020 A 
ATOM      3  C2  UNL d   1       1.425  -0.383  -3.507  0.00  0.00     0.034 A 
ATOM      4  C3  UNL d   1       1.070  -1.268  -2.482  0.00  0.00     0.017 A 
ATOM      5  C4  UNL d   1       0.662  -0.766  -1.241  0.00  0.00     0.017 A 
ATOM      6  C5  UNL d   1       0.612   0.616  -1.033  0.00  0.00     0.034 A 
ATOM      7 Cl   UNL d   1       0.209  -1.795   0.071  0.00  0.00    -0.070 Cl
ATOM      8 Cl1  UNL d   1       1.157  -2.961  -2.817  0.00  0.00    -0.070 Cl
ENDROOT
TORSDOF 0
ENDMDL
