MODEL 1
REMARK minimizedAffinity 7.37243843
REMARK minimizedRMSD -1
REMARK  1 active torsions:
REMARK  status: ('A' for Active; 'I' for Inactive)
REMARK    1  A    between atoms: C1_2  and  C2_3 
ROOT
ATOM      1  C2  UNL d   1      -0.242   2.800  -3.290  0.00  0.00    -0.076 A 
ATOM      2  C3  UNL d   1      -0.217   1.932  -4.396  0.00  0.00     0.004 A 
ATOM      3  C4  UNL d   1       0.711   2.103  -5.421  0.00  0.00    -0.003 A 
ATOM      4  C5  UNL d   1       1.631   3.145  -5.358  0.00  0.00     0.000 A 
ATOM      5  C6  UNL d   1       1.632   4.004  -4.260  0.00  0.00     0.000 A 
ATOM      6  C7  UNL d   1       0.714   3.836  -3.209  0.00  0.00    -0.073 A 
ATOM      7  C8  UNL d   1       0.756   4.796  -2.052  0.00  0.00     0.078 C 
ENDROOT
BRANCH   1   8
ATOM      8  C1  UNL d   1      -1.289   2.582  -2.222  0.00  0.00     0.053 C 
ATOM      9  C   UNL d   1      -2.565   3.364  -2.489  0.00  0.00     0.018 C 
ENDBRANCH   1   8
TORSDOF 1
ENDMDL
