MODEL 1
REMARK minimizedAffinity -2.02560067
REMARK minimizedRMSD -1
REMARK  1 active torsions:
REMARK  status: ('A' for Active; 'I' for Inactive)
REMARK    1  A    between atoms: C1_2  and  C2_3 
ROOT
ATOM      1  C2  UNL d   1      -1.190  -0.731   0.979  0.00  0.00    -0.076 A 
ATOM      2  C3  UNL d   1      -0.527   0.048   0.015  0.00  0.00     0.004 A 
ATOM      3  C4  UNL d   1       0.858   0.204   0.048  0.00  0.00    -0.003 A 
ATOM      4  C5  UNL d   1       1.602  -0.417   1.045  0.00  0.00     0.000 A 
ATOM      5  C6  UNL d   1       0.963  -1.207   1.999  0.00  0.00     0.000 A 
ATOM      6  C7  UNL d   1      -0.431  -1.388   1.971  0.00  0.00    -0.073 A 
ATOM      7  C8  UNL d   1      -1.069  -2.246   3.029  0.00  0.00     0.078 C 
ENDROOT
BRANCH   1   8
ATOM      8  C1  UNL d   1      -2.696  -0.842   0.909  0.00  0.00     0.053 C 
ATOM      9  C   UNL d   1      -3.187  -1.244  -0.472  0.00  0.00     0.018 C 
ENDBRANCH   1   8
TORSDOF 1
ENDMDL
