MODEL 1
REMARK minimizedAffinity 0.335751504
REMARK minimizedRMSD -1
REMARK  1 active torsions:
REMARK  status: ('A' for Active; 'I' for Inactive)
REMARK    1  A    between atoms: C1_2  and  C2_3 
ROOT
ATOM      1  C2  UNL d   1       0.765   0.243  -0.285  0.00  0.00    -0.076 A 
ATOM      2  C3  UNL d   1       0.795  -0.452  -1.506  0.00  0.00     0.004 A 
ATOM      3  C4  UNL d   1       1.851  -1.306  -1.820  0.00  0.00    -0.003 A 
ATOM      4  C5  UNL d   1       2.894  -1.479  -0.917  0.00  0.00     0.000 A 
ATOM      5  C6  UNL d   1       2.872  -0.811   0.307  0.00  0.00     0.000 A 
ATOM      6  C7  UNL d   1       1.807   0.041   0.646  0.00  0.00    -0.073 A 
ATOM      7  C8  UNL d   1       1.837   0.741   1.977  0.00  0.00     0.078 C 
ENDROOT
BRANCH   1   8
ATOM      8  C1  UNL d   1      -0.393   1.176  -0.011  0.00  0.00     0.053 C 
ATOM      9  C   UNL d   1      -0.636   2.153  -1.152  0.00  0.00     0.018 C 
ENDBRANCH   1   8
TORSDOF 1
ENDMDL
