MODEL 1
REMARK minimizedAffinity -1.48958814
REMARK minimizedRMSD -1
REMARK  1 active torsions:
REMARK  status: ('A' for Active; 'I' for Inactive)
REMARK    1  A    between atoms: C1_2  and  C2_3 
ROOT
ATOM      1  C2  UNL d   1      -0.594   2.282  -2.289  0.00  0.00    -0.076 A 
ATOM      2  C3  UNL d   1       0.767   2.488  -2.573  0.00  0.00     0.004 A 
ATOM      3  C4  UNL d   1       1.164   3.227  -3.686  0.00  0.00    -0.003 A 
ATOM      4  C5  UNL d   1       0.206   3.773  -4.533  0.00  0.00     0.000 A 
ATOM      5  C6  UNL d   1      -1.149   3.594  -4.257  0.00  0.00     0.000 A 
ATOM      6  C7  UNL d   1      -1.566   2.865  -3.130  0.00  0.00    -0.073 A 
ATOM      7  C8  UNL d   1      -3.040   2.698  -2.883  0.00  0.00     0.078 C 
ENDROOT
BRANCH   1   8
ATOM      8  C1  UNL d   1      -0.964   1.449  -1.083  0.00  0.00     0.053 C 
ATOM      9  C   UNL d   1      -0.251   0.106  -1.062  0.00  0.00     0.018 C 
ENDBRANCH   1   8
TORSDOF 1
ENDMDL
