MODEL 1
REMARK minimizedAffinity -5.33943796
REMARK minimizedRMSD -1
REMARK  1 active torsions:
REMARK  status: ('A' for Active; 'I' for Inactive)
REMARK    1  A    between atoms: C1_2  and  C2_3 
ROOT
ATOM      1  C2  UNL d   1      -0.609  -1.155   2.547  0.00  0.00    -0.076 A 
ATOM      2  C3  UNL d   1       0.761  -1.106   2.857  0.00  0.00     0.004 A 
ATOM      3  C4  UNL d   1       1.650  -0.376   2.070  0.00  0.00    -0.003 A 
ATOM      4  C5  UNL d   1       1.182   0.320   0.960  0.00  0.00     0.000 A 
ATOM      5  C6  UNL d   1      -0.177   0.297   0.648  0.00  0.00     0.000 A 
ATOM      6  C7  UNL d   1      -1.089  -0.421   1.441  0.00  0.00    -0.073 A 
ATOM      7  C8  UNL d   1      -2.542  -0.416   1.055  0.00  0.00     0.078 C 
ENDROOT
BRANCH   1   8
ATOM      8  C1  UNL d   1      -1.520  -1.986   3.422  0.00  0.00     0.053 C 
ATOM      9  C   UNL d   1      -1.179  -3.467   3.376  0.00  0.00     0.018 C 
ENDBRANCH   1   8
TORSDOF 1
ENDMDL
