MODEL 1
REMARK minimizedAffinity 0.058992818
REMARK minimizedRMSD -1
REMARK  1 active torsions:
REMARK  status: ('A' for Active; 'I' for Inactive)
REMARK    1  A    between atoms: C1_2  and  C2_3 
ROOT
ATOM      1  C2  UNL d   1       0.095   0.707  -1.326  0.00  0.00    -0.076 A 
ATOM      2  C3  UNL d   1       0.740  -0.275  -2.097  0.00  0.00     0.004 A 
ATOM      3  C4  UNL d   1       1.641  -1.166  -1.516  0.00  0.00    -0.003 A 
ATOM      4  C5  UNL d   1       1.911  -1.089  -0.154  0.00  0.00     0.000 A 
ATOM      5  C6  UNL d   1       1.266  -0.132   0.630  0.00  0.00     0.000 A 
ATOM      6  C7  UNL d   1       0.343   0.763   0.062  0.00  0.00    -0.073 A 
ATOM      7  C8  UNL d   1      -0.319   1.779   0.953  0.00  0.00     0.078 C 
ENDROOT
BRANCH   1   8
ATOM      8  C1  UNL d   1      -0.852   1.663  -2.016  0.00  0.00     0.053 C 
ATOM      9  C   UNL d   1      -0.153   2.919  -2.513  0.00  0.00     0.018 C 
ENDBRANCH   1   8
TORSDOF 1
ENDMDL
