MODEL 1
REMARK minimizedAffinity 1.45368433
REMARK minimizedRMSD -1
REMARK  1 active torsions:
REMARK  status: ('A' for Active; 'I' for Inactive)
REMARK    1  A    between atoms: C1_2  and  C2_3 
ROOT
ATOM      1  C2  UNL d   1       0.646  -0.472   0.558  0.00  0.00    -0.076 A 
ATOM      2  C3  UNL d   1       1.920  -0.983   0.862  0.00  0.00     0.004 A 
ATOM      3  C4  UNL d   1       2.797  -1.374  -0.149  0.00  0.00    -0.003 A 
ATOM      4  C5  UNL d   1       2.413  -1.261  -1.481  0.00  0.00     0.000 A 
ATOM      5  C6  UNL d   1       1.160  -0.740  -1.801  0.00  0.00     0.000 A 
ATOM      6  C7  UNL d   1       0.271  -0.326  -0.795  0.00  0.00    -0.073 A 
ATOM      7  C8  UNL d   1      -1.070   0.223  -1.197  0.00  0.00     0.078 C 
ENDROOT
BRANCH   1   8
ATOM      8  C1  UNL d   1      -0.271  -0.090   1.697  0.00  0.00     0.053 C 
ATOM      9  C   UNL d   1      -0.423  -1.203   2.722  0.00  0.00     0.018 C 
ENDBRANCH   1   8
TORSDOF 1
ENDMDL
