MODEL 1
REMARK minimizedAffinity -0.526313305
REMARK minimizedRMSD -1
REMARK  1 active torsions:
REMARK  status: ('A' for Active; 'I' for Inactive)
REMARK    1  A    between atoms: C1_2  and  C2_3 
ROOT
ATOM      1  C2  UNL d   1      -1.108  -0.560   0.423  0.00  0.00    -0.076 A 
ATOM      2  C3  UNL d   1      -0.407   0.243  -0.494  0.00  0.00     0.004 A 
ATOM      3  C4  UNL d   1       0.976   0.390  -0.408  0.00  0.00    -0.003 A 
ATOM      4  C5  UNL d   1       1.682  -0.264   0.596  0.00  0.00     0.000 A 
ATOM      5  C6  UNL d   1       1.005  -1.078   1.504  0.00  0.00     0.000 A 
ATOM      6  C7  UNL d   1      -0.388  -1.250   1.421  0.00  0.00    -0.073 A 
ATOM      7  C8  UNL d   1      -1.067  -2.134   2.431  0.00  0.00     0.078 C 
ENDROOT
BRANCH   1   8
ATOM      8  C1  UNL d   1      -2.611  -0.659   0.297  0.00  0.00     0.053 C 
ATOM      9  C   UNL d   1      -3.057  -0.984  -1.120  0.00  0.00     0.018 C 
ENDBRANCH   1   8
TORSDOF 1
ENDMDL
