MODEL 1
REMARK minimizedAffinity -1.83303547
REMARK minimizedRMSD -1
REMARK  0 active torsions:
REMARK  status: ('A' for Active; 'I' for Inactive)
ROOT
ATOM      1  C   UNL d   1       0.530  -0.864   0.883  0.00  0.00     0.124 A 
ATOM      2  C1  UNL d   1       0.019  -2.124   0.606  0.00  0.00     0.062 A 
ATOM      3  C2  UNL d   1       0.878  -3.176   0.299  0.00  0.00     0.162 A 
ATOM      4  C3  UNL d   1       2.257  -2.972   0.270  0.00  0.00    -0.034 A 
ATOM      5  C4  UNL d   1       2.764  -1.701   0.549  0.00  0.00     0.162 A 
ATOM      6  C5  UNL d   1       1.901  -0.654   0.854  0.00  0.00     0.062 A 
ATOM      7  F   UNL d   1       2.397   0.564   1.122  0.00  0.00    -0.097 F 
ATOM      8  F1  UNL d   1       4.085  -1.470   0.529  0.00  0.00    -0.096 F 
ATOM      9  I   UNL d   1       3.545  -4.542  -0.188  0.00  0.00    -0.060 I 
ATOM     10  F2  UNL d   1       0.356  -4.383   0.036  0.00  0.00    -0.096 F 
ATOM     11  F3  UNL d   1      -1.306  -2.330   0.632  0.00  0.00    -0.097 F 
ATOM     12  F4  UNL d   1      -0.299   0.146   1.177  0.00  0.00    -0.092 F 
ENDROOT
TORSDOF 0
ENDMDL
