MODEL 1
REMARK minimizedAffinity 5.04331589
REMARK minimizedRMSD -1
REMARK  0 active torsions:
REMARK  status: ('A' for Active; 'I' for Inactive)
ROOT
ATOM      1  C   UNL d   1       2.148  -2.870  -0.025  0.00  0.00     0.124 A 
ATOM      2  C1  UNL d   1       0.828  -3.242   0.190  0.00  0.00     0.062 A 
ATOM      3  C2  UNL d   1      -0.073  -2.338   0.743  0.00  0.00     0.162 A 
ATOM      4  C3  UNL d   1       0.342  -1.050   1.085  0.00  0.00    -0.034 A 
ATOM      5  C4  UNL d   1       1.671  -0.684   0.867  0.00  0.00     0.162 A 
ATOM      6  C5  UNL d   1       2.568  -1.592   0.313  0.00  0.00     0.062 A 
ATOM      7  F   UNL d   1       3.843  -1.230   0.106  0.00  0.00    -0.097 F 
ATOM      8  F1  UNL d   1       2.104   0.546   1.183  0.00  0.00    -0.096 F 
ATOM      9  I   UNL d   1      -1.002   0.306   1.913  0.00  0.00    -0.060 I 
ATOM     10  F2  UNL d   1      -1.342  -2.724   0.940  0.00  0.00    -0.096 F 
ATOM     11  F3  UNL d   1       0.420  -4.477  -0.135  0.00  0.00    -0.097 F 
ATOM     12  F4  UNL d   1       3.013  -3.743  -0.557  0.00  0.00    -0.092 F 
ENDROOT
TORSDOF 0
ENDMDL
