MODEL 1
REMARK minimizedAffinity 2.61234975
REMARK minimizedRMSD -1
REMARK  0 active torsions:
REMARK  status: ('A' for Active; 'I' for Inactive)
ROOT
ATOM      1  C   UNL d   1       0.623  -1.039   1.104  0.00  0.00     0.124 A 
ATOM      2  C1  UNL d   1       0.093  -2.229   0.624  0.00  0.00     0.062 A 
ATOM      3  C2  UNL d   1       0.933  -3.212   0.108  0.00  0.00     0.162 A 
ATOM      4  C3  UNL d   1       2.313  -3.010   0.070  0.00  0.00    -0.034 A 
ATOM      5  C4  UNL d   1       2.838  -1.811   0.554  0.00  0.00     0.162 A 
ATOM      6  C5  UNL d   1       1.995  -0.832   1.069  0.00  0.00     0.062 A 
ATOM      7  F   UNL d   1       2.509   0.317   1.533  0.00  0.00    -0.097 F 
ATOM      8  F1  UNL d   1       4.160  -1.584   0.533  0.00  0.00    -0.096 F 
ATOM      9  I   UNL d   1       3.571  -4.477  -0.700  0.00  0.00    -0.060 I 
ATOM     10  F2  UNL d   1       0.393  -4.351  -0.349  0.00  0.00    -0.096 F 
ATOM     11  F3  UNL d   1      -1.232  -2.432   0.656  0.00  0.00    -0.097 F 
ATOM     12  F4  UNL d   1      -0.187  -0.095   1.599  0.00  0.00    -0.092 F 
ENDROOT
TORSDOF 0
ENDMDL
