MODEL 1
REMARK minimizedAffinity 5.67627239
REMARK minimizedRMSD -1
REMARK  0 active torsions:
REMARK  status: ('A' for Active; 'I' for Inactive)
ROOT
ATOM      1  C   UNL d   1       0.574  -0.541   1.094  0.00  0.00     0.124 A 
ATOM      2  C1  UNL d   1      -0.003  -1.797   0.976  0.00  0.00     0.062 A 
ATOM      3  C2  UNL d   1       0.798  -2.925   0.824  0.00  0.00     0.162 A 
ATOM      4  C3  UNL d   1       2.187  -2.801   0.789  0.00  0.00    -0.034 A 
ATOM      5  C4  UNL d   1       2.761  -1.534   0.907  0.00  0.00     0.162 A 
ATOM      6  C5  UNL d   1       1.955  -0.410   1.059  0.00  0.00     0.062 A 
ATOM      7  F   UNL d   1       2.515   0.803   1.173  0.00  0.00    -0.097 F 
ATOM      8  F1  UNL d   1       4.093  -1.379   0.878  0.00  0.00    -0.096 F 
ATOM      9  I   UNL d   1       3.389  -4.485   0.562  0.00  0.00    -0.060 I 
ATOM     10  F2  UNL d   1       0.213  -4.126   0.712  0.00  0.00    -0.096 F 
ATOM     11  F3  UNL d   1      -1.338  -1.926   1.008  0.00  0.00    -0.097 F 
ATOM     12  F4  UNL d   1      -0.199   0.543   1.239  0.00  0.00    -0.092 F 
ENDROOT
TORSDOF 0
ENDMDL
