MODEL 1
REMARK minimizedAffinity 1.81683958
REMARK minimizedRMSD -1
REMARK  0 active torsions:
REMARK  status: ('A' for Active; 'I' for Inactive)
ROOT
ATOM      1  C   UNL d   1       0.871  -3.280   0.069  0.00  0.00     0.124 A 
ATOM      2  C1  UNL d   1       2.184  -2.861  -0.097  0.00  0.00     0.062 A 
ATOM      3  C2  UNL d   1       2.531  -1.534   0.141  0.00  0.00     0.162 A 
ATOM      4  C3  UNL d   1       1.563  -0.616   0.548  0.00  0.00    -0.034 A 
ATOM      5  C4  UNL d   1       0.245  -1.044   0.712  0.00  0.00     0.162 A 
ATOM      6  C5  UNL d   1      -0.097  -2.371   0.473  0.00  0.00     0.062 A 
ATOM      7  F   UNL d   1      -1.366  -2.773   0.634  0.00  0.00    -0.097 F 
ATOM      8  F1  UNL d   1      -0.711  -0.187   1.102  0.00  0.00    -0.096 F 
ATOM      9  I   UNL d   1       2.078   1.369   0.904  0.00  0.00    -0.060 I 
ATOM     10  F2  UNL d   1       3.807  -1.158  -0.028  0.00  0.00    -0.096 F 
ATOM     11  F3  UNL d   1       3.121  -3.737  -0.488  0.00  0.00    -0.097 F 
ATOM     12  F4  UNL d   1       0.539  -4.557  -0.161  0.00  0.00    -0.092 F 
ENDROOT
TORSDOF 0
ENDMDL
