MODEL 1
REMARK minimizedAffinity 11.8648739
REMARK minimizedRMSD -1
REMARK  0 active torsions:
REMARK  status: ('A' for Active; 'I' for Inactive)
ROOT
ATOM      1  C   UNL d   1       0.396  -1.179   0.849  0.00  0.00     0.124 A 
ATOM      2  C1  UNL d   1      -0.068  -2.456   0.567  0.00  0.00     0.062 A 
ATOM      3  C2  UNL d   1       0.818  -3.449   0.161  0.00  0.00     0.162 A 
ATOM      4  C3  UNL d   1       2.179  -3.170   0.036  0.00  0.00    -0.034 A 
ATOM      5  C4  UNL d   1       2.638  -1.883   0.321  0.00  0.00     0.162 A 
ATOM      6  C5  UNL d   1       1.748  -0.893   0.726  0.00  0.00     0.062 A 
ATOM      7  F   UNL d   1       2.199   0.340   0.998  0.00  0.00    -0.097 F 
ATOM      8  F1  UNL d   1       3.940  -1.580   0.211  0.00  0.00    -0.096 F 
ATOM      9  I   UNL d   1       3.508  -4.652  -0.571  0.00  0.00    -0.060 I 
ATOM     10  F2  UNL d   1       0.342  -4.675  -0.106  0.00  0.00    -0.096 F 
ATOM     11  F3  UNL d   1      -1.375  -2.734   0.684  0.00  0.00    -0.097 F 
ATOM     12  F4  UNL d   1      -0.460  -0.225   1.239  0.00  0.00    -0.092 F 
ENDROOT
TORSDOF 0
ENDMDL
