MODEL 1
REMARK minimizedAffinity -2.77578306
REMARK minimizedRMSD -1
REMARK  0 active torsions:
REMARK  status: ('A' for Active; 'I' for Inactive)
ROOT
ATOM      1  C   UNL d   1       0.523  -1.181   0.503  0.00  0.00     0.124 A 
ATOM      2  C1  UNL d   1       0.043  -2.391   0.019  0.00  0.00     0.062 A 
ATOM      3  C2  UNL d   1       0.919  -3.442  -0.233  0.00  0.00     0.162 A 
ATOM      4  C3  UNL d   1       2.286  -3.289  -0.001  0.00  0.00    -0.034 A 
ATOM      5  C4  UNL d   1       2.762  -2.069   0.484  0.00  0.00     0.162 A 
ATOM      6  C5  UNL d   1       1.882  -1.022   0.734  0.00  0.00     0.062 A 
ATOM      7  F   UNL d   1       2.348   0.146   1.201  0.00  0.00    -0.097 F 
ATOM      8  F1  UNL d   1       4.071  -1.888   0.717  0.00  0.00    -0.096 F 
ATOM      9  I   UNL d   1       3.601  -4.858  -0.377  0.00  0.00    -0.060 I 
ATOM     10  F2  UNL d   1       0.427  -4.599  -0.699  0.00  0.00    -0.096 F 
ATOM     11  F3  UNL d   1      -1.270  -2.547  -0.206  0.00  0.00    -0.097 F 
ATOM     12  F4  UNL d   1      -0.322  -0.171   0.744  0.00  0.00    -0.092 F 
ENDROOT
TORSDOF 0
ENDMDL
