MODEL 1
REMARK minimizedAffinity 0.37093848
REMARK minimizedRMSD -1
REMARK  0 active torsions:
REMARK  status: ('A' for Active; 'I' for Inactive)
ROOT
ATOM      1  C   UNL d   1       1.912  -2.820   0.115  0.00  0.00     0.124 A 
ATOM      2  C1  UNL d   1       0.566  -3.142   0.022  0.00  0.00     0.062 A 
ATOM      3  C2  UNL d   1      -0.399  -2.266   0.511  0.00  0.00     0.162 A 
ATOM      4  C3  UNL d   1      -0.021  -1.058   1.097  0.00  0.00    -0.034 A 
ATOM      5  C4  UNL d   1       1.335  -0.741   1.188  0.00  0.00     0.162 A 
ATOM      6  C5  UNL d   1       2.296  -1.620   0.698  0.00  0.00     0.062 A 
ATOM      7  F   UNL d   1       3.597  -1.307   0.788  0.00  0.00    -0.097 F 
ATOM      8  F1  UNL d   1       1.734   0.412   1.745  0.00  0.00    -0.096 F 
ATOM      9  I   UNL d   1      -1.461   0.254   1.829  0.00  0.00    -0.060 I 
ATOM     10  F2  UNL d   1      -1.693  -2.604   0.408  0.00  0.00    -0.096 F 
ATOM     11  F3  UNL d   1       0.192  -4.301  -0.539  0.00  0.00    -0.097 F 
ATOM     12  F4  UNL d   1       2.839  -3.665  -0.355  0.00  0.00    -0.092 F 
ENDROOT
TORSDOF 0
ENDMDL
