MODEL 1
REMARK minimizedAffinity -0.172888353
REMARK minimizedRMSD -1
REMARK  0 active torsions:
REMARK  status: ('A' for Active; 'I' for Inactive)
ROOT
ATOM      1  C   UNL d   1       0.556  -0.765   0.908  0.00  0.00     0.124 A 
ATOM      2  C1  UNL d   1       0.200  -2.105   0.973  0.00  0.00     0.062 A 
ATOM      3  C2  UNL d   1       1.136  -3.093   0.681  0.00  0.00     0.162 A 
ATOM      4  C3  UNL d   1       2.439  -2.744   0.323  0.00  0.00    -0.034 A 
ATOM      5  C4  UNL d   1       2.789  -1.395   0.260  0.00  0.00     0.162 A 
ATOM      6  C5  UNL d   1       1.850  -0.411   0.552  0.00  0.00     0.062 A 
ATOM      7  F   UNL d   1       2.196   0.883   0.489  0.00  0.00    -0.097 F 
ATOM      8  F1  UNL d   1       4.033  -1.025  -0.081  0.00  0.00    -0.096 F 
ATOM      9  I   UNL d   1       3.842  -4.218  -0.113  0.00  0.00    -0.060 I 
ATOM     10  F2  UNL d   1       0.765  -4.380   0.752  0.00  0.00    -0.096 F 
ATOM     11  F3  UNL d   1      -1.049  -2.450   1.316  0.00  0.00    -0.097 F 
ATOM     12  F4  UNL d   1      -0.347   0.183   1.188  0.00  0.00    -0.092 F 
ENDROOT
TORSDOF 0
ENDMDL
