MODEL 1
REMARK minimizedAffinity 4.89452505
REMARK minimizedRMSD -1
REMARK  0 active torsions:
REMARK  status: ('A' for Active; 'I' for Inactive)
ROOT
ATOM      1  C   UNL d   1       0.459  -0.774   1.183  0.00  0.00     0.124 A 
ATOM      2  C1  UNL d   1      -0.070  -1.921   0.607  0.00  0.00     0.062 A 
ATOM      3  C2  UNL d   1       0.775  -2.927   0.147  0.00  0.00     0.162 A 
ATOM      4  C3  UNL d   1       2.159  -2.791   0.263  0.00  0.00    -0.034 A 
ATOM      5  C4  UNL d   1       2.683  -1.634   0.842  0.00  0.00     0.162 A 
ATOM      6  C5  UNL d   1       1.834  -0.632   1.300  0.00  0.00     0.062 A 
ATOM      7  F   UNL d   1       2.347   0.476   1.856  0.00  0.00    -0.097 F 
ATOM      8  F1  UNL d   1       4.008  -1.471   0.969  0.00  0.00    -0.096 F 
ATOM      9  I   UNL d   1       3.426  -4.293  -0.423  0.00  0.00    -0.060 I 
ATOM     10  F2  UNL d   1       0.237  -4.024  -0.405  0.00  0.00    -0.096 F 
ATOM     11  F3  UNL d   1      -1.399  -2.060   0.492  0.00  0.00    -0.097 F 
ATOM     12  F4  UNL d   1      -0.357   0.193   1.623  0.00  0.00    -0.092 F 
ENDROOT
TORSDOF 0
ENDMDL
