MODEL 1
REMARK minimizedAffinity 9.90959167
REMARK minimizedRMSD -1
REMARK  0 active torsions:
REMARK  status: ('A' for Active; 'I' for Inactive)
ROOT
ATOM      1  C   UNL d   1      -0.034  -0.302   1.052  0.00  0.00     0.124 A 
ATOM      2  C1  UNL d   1      -0.725  -1.427   0.623  0.00  0.00     0.062 A 
ATOM      3  C2  UNL d   1      -0.031  -2.555   0.195  0.00  0.00     0.162 A 
ATOM      4  C3  UNL d   1       1.364  -2.565   0.194  0.00  0.00    -0.034 A 
ATOM      5  C4  UNL d   1       2.052  -1.430   0.626  0.00  0.00     0.162 A 
ATOM      6  C5  UNL d   1       1.354  -0.305   1.052  0.00  0.00     0.062 A 
ATOM      7  F   UNL d   1       2.024   0.781   1.466  0.00  0.00    -0.097 F 
ATOM      8  F1  UNL d   1       3.393  -1.405   0.638  0.00  0.00    -0.096 F 
ATOM      9  I   UNL d   1       2.405  -4.249  -0.445  0.00  0.00    -0.060 I 
ATOM     10  F2  UNL d   1      -0.726  -3.627  -0.214  0.00  0.00    -0.096 F 
ATOM     11  F3  UNL d   1      -2.066  -1.427   0.620  0.00  0.00    -0.097 F 
ATOM     12  F4  UNL d   1      -0.704   0.782   1.462  0.00  0.00    -0.092 F 
ENDROOT
TORSDOF 0
ENDMDL
