MODEL 1
REMARK minimizedAffinity 7.52994108
REMARK minimizedRMSD -1
REMARK  0 active torsions:
REMARK  status: ('A' for Active; 'I' for Inactive)
ROOT
ATOM      1  C   UNL d   1       0.264  -0.754   1.046  0.00  0.00     0.124 A 
ATOM      2  C1  UNL d   1      -0.319  -1.893   0.508  0.00  0.00     0.062 A 
ATOM      3  C2  UNL d   1       0.461  -3.009   0.220  0.00  0.00     0.162 A 
ATOM      4  C3  UNL d   1       1.833  -2.993   0.472  0.00  0.00    -0.034 A 
ATOM      5  C4  UNL d   1       2.412  -1.843   1.013  0.00  0.00     0.162 A 
ATOM      6  C5  UNL d   1       1.628  -0.730   1.298  0.00  0.00     0.062 A 
ATOM      7  F   UNL d   1       2.193   0.369   1.819  0.00  0.00    -0.097 F 
ATOM      8  F1  UNL d   1       3.728  -1.793   1.267  0.00  0.00    -0.096 F 
ATOM      9  I   UNL d   1       3.003  -4.660   0.043  0.00  0.00    -0.060 I 
ATOM     10  F2  UNL d   1      -0.128  -4.096  -0.300  0.00  0.00    -0.096 F 
ATOM     11  F3  UNL d   1      -1.637  -1.918   0.263  0.00  0.00    -0.097 F 
ATOM     12  F4  UNL d   1      -0.489   0.319   1.321  0.00  0.00    -0.092 F 
ENDROOT
TORSDOF 0
ENDMDL
