MODEL 1
REMARK minimizedAffinity 0.723286271
REMARK minimizedRMSD -1
REMARK  0 active torsions:
REMARK  status: ('A' for Active; 'I' for Inactive)
ROOT
ATOM      1  C   UNL d   1       0.368  -0.740   1.011  0.00  0.00     0.124 A 
ATOM      2  C1  UNL d   1       1.724  -0.495   0.845  0.00  0.00     0.062 A 
ATOM      3  C2  UNL d   1       2.584  -1.531   0.493  0.00  0.00     0.162 A 
ATOM      4  C3  UNL d   1       2.091  -2.822   0.305  0.00  0.00    -0.034 A 
ATOM      5  C4  UNL d   1       0.726  -3.061   0.475  0.00  0.00     0.162 A 
ATOM      6  C5  UNL d   1      -0.129  -2.022   0.826  0.00  0.00     0.062 A 
ATOM      7  F   UNL d   1      -1.439  -2.260   0.987  0.00  0.00    -0.097 F 
ATOM      8  F1  UNL d   1       0.219  -4.290   0.302  0.00  0.00    -0.096 F 
ATOM      9  I   UNL d   1       3.374  -4.374  -0.220  0.00  0.00    -0.060 I 
ATOM     10  F2  UNL d   1       3.890  -1.266   0.339  0.00  0.00    -0.096 F 
ATOM     11  F3  UNL d   1       2.207   0.743   1.023  0.00  0.00    -0.097 F 
ATOM     12  F4  UNL d   1      -0.457   0.259   1.350  0.00  0.00    -0.092 F 
ENDROOT
TORSDOF 0
ENDMDL
