MODEL 1
REMARK minimizedAffinity 9.98566532
REMARK minimizedRMSD -1
REMARK  0 active torsions:
REMARK  status: ('A' for Active; 'I' for Inactive)
ROOT
ATOM      1  C   UNL d   1       0.608  -1.315   0.548  0.00  0.00     0.124 A 
ATOM      2  C1  UNL d   1       0.274  -2.594   0.970  0.00  0.00     0.062 A 
ATOM      3  C2  UNL d   1       1.209  -3.623   0.894  0.00  0.00     0.162 A 
ATOM      4  C3  UNL d   1       2.488  -3.376   0.394  0.00  0.00    -0.034 A 
ATOM      5  C4  UNL d   1       2.816  -2.087  -0.029  0.00  0.00     0.162 A 
ATOM      6  C5  UNL d   1       1.878  -1.062   0.049  0.00  0.00     0.062 A 
ATOM      7  F   UNL d   1       2.202   0.173  -0.360  0.00  0.00    -0.097 F 
ATOM      8  F1  UNL d   1       4.036  -1.814  -0.515  0.00  0.00    -0.096 F 
ATOM      9  I   UNL d   1       3.888  -4.911   0.279  0.00  0.00    -0.060 I 
ATOM     10  F2  UNL d   1       0.859  -4.849   1.309  0.00  0.00    -0.096 F 
ATOM     11  F3  UNL d   1      -0.953  -2.841   1.451  0.00  0.00    -0.097 F 
ATOM     12  F4  UNL d   1      -0.294  -0.328   0.621  0.00  0.00    -0.092 F 
ENDROOT
TORSDOF 0
ENDMDL
