MODEL 1
REMARK minimizedAffinity 6.0930624
REMARK minimizedRMSD -1
REMARK  0 active torsions:
REMARK  status: ('A' for Active; 'I' for Inactive)
ROOT
ATOM      1  C   UNL d   1      -0.155  -0.906   0.960  0.00  0.00     0.124 A 
ATOM      2  C1  UNL d   1       1.139  -0.664   0.520  0.00  0.00     0.062 A 
ATOM      3  C2  UNL d   1       1.969  -1.724   0.166  0.00  0.00     0.162 A 
ATOM      4  C3  UNL d   1       1.506  -3.037   0.251  0.00  0.00    -0.034 A 
ATOM      5  C4  UNL d   1       0.204  -3.273   0.696  0.00  0.00     0.162 A 
ATOM      6  C5  UNL d   1      -0.621  -2.210   1.048  0.00  0.00     0.062 A 
ATOM      7  F   UNL d   1      -1.870  -2.446   1.473  0.00  0.00    -0.097 F 
ATOM      8  F1  UNL d   1      -0.272  -4.524   0.789  0.00  0.00    -0.096 F 
ATOM      9  I   UNL d   1       2.743  -4.626  -0.277  0.00  0.00    -0.060 I 
ATOM     10  F2  UNL d   1       3.214  -1.460  -0.256  0.00  0.00    -0.096 F 
ATOM     11  F3  UNL d   1       1.592   0.596   0.436  0.00  0.00    -0.097 F 
ATOM     12  F4  UNL d   1      -0.950   0.116   1.301  0.00  0.00    -0.092 F 
ENDROOT
TORSDOF 0
ENDMDL
