MODEL 1
REMARK minimizedAffinity -3.8768115
REMARK minimizedRMSD -1
REMARK  0 active torsions:
REMARK  status: ('A' for Active; 'I' for Inactive)
ROOT
ATOM      1  C1  BNZ d   1      -1.330  -0.224   1.008  0.00  0.00     0.000 A 
ATOM      2  C2  BNZ d   1      -1.880   0.615   1.941  0.00  0.00     0.000 A 
ATOM      3  C3  BNZ d   1      -1.118   1.560   2.569  0.00  0.00     0.000 A 
ATOM      4  C4  BNZ d   1       0.200   1.638   2.293  0.00  0.00     0.000 A 
ATOM      5  C5  BNZ d   1       0.771   0.794   1.362  0.00  0.00     0.000 A 
ATOM      6  C6  BNZ d   1      -0.007  -0.130   0.703  0.00  0.00     0.000 A 
ENDROOT
TORSDOF 0
ENDMDL
