MODEL 1
REMARK minimizedAffinity -3.57049346
REMARK minimizedRMSD -1
REMARK  0 active torsions:
REMARK  status: ('A' for Active; 'I' for Inactive)
ROOT
ATOM      1  C1  BNZ d   1       0.517   0.992   1.122  0.00  0.00     0.000 A 
ATOM      2  C2  BNZ d   1       0.278   1.433   2.396  0.00  0.00     0.000 A 
ATOM      3  C3  BNZ d   1      -0.870   1.086   3.052  0.00  0.00     0.000 A 
ATOM      4  C4  BNZ d   1      -1.794   0.334   2.420  0.00  0.00     0.000 A 
ATOM      5  C5  BNZ d   1      -1.571  -0.111   1.132  0.00  0.00     0.000 A 
ATOM      6  C6  BNZ d   1      -0.397   0.208   0.489  0.00  0.00     0.000 A 
ENDROOT
TORSDOF 0
ENDMDL
