MODEL 1
REMARK minimizedAffinity -4.45836306
REMARK minimizedRMSD -1
REMARK  0 active torsions:
REMARK  status: ('A' for Active; 'I' for Inactive)
ROOT
ATOM      1  C1  BNZ d   1       0.533   1.130   2.321  0.00  0.00     0.000 A 
ATOM      2  C2  BNZ d   1      -0.633   1.325   3.012  0.00  0.00     0.000 A 
ATOM      3  C3  BNZ d   1      -1.832   0.926   2.489  0.00  0.00     0.000 A 
ATOM      4  C4  BNZ d   1      -1.867   0.369   1.261  0.00  0.00     0.000 A 
ATOM      5  C5  BNZ d   1      -0.700   0.174   0.548  0.00  0.00     0.000 A 
ATOM      6  C6  BNZ d   1       0.508   0.541   1.094  0.00  0.00     0.000 A 
ENDROOT
TORSDOF 0
ENDMDL
