MODEL 1
REMARK minimizedAffinity -3.03714943
REMARK minimizedRMSD -1
REMARK  0 active torsions:
REMARK  status: ('A' for Active; 'I' for Inactive)
ROOT
ATOM      1  C1  BNZ d   1       1.189   0.914   2.024  0.00  0.00     0.000 A 
ATOM      2  C2  BNZ d   1       0.159   1.210   2.877  0.00  0.00     0.000 A 
ATOM      3  C3  BNZ d   1      -1.141   1.060   2.482  0.00  0.00     0.000 A 
ATOM      4  C4  BNZ d   1      -1.409   0.655   1.224  0.00  0.00     0.000 A 
ATOM      5  C5  BNZ d   1      -0.382   0.363   0.350  0.00  0.00     0.000 A 
ATOM      6  C6  BNZ d   1       0.926   0.477   0.763  0.00  0.00     0.000 A 
ENDROOT
TORSDOF 0
ENDMDL
