MODEL 1
REMARK minimizedAffinity -3.64435339
REMARK minimizedRMSD -1
REMARK  0 active torsions:
REMARK  status: ('A' for Active; 'I' for Inactive)
ROOT
ATOM      1  C1  BNZ d   1      -1.573   0.357   1.571  0.00  0.00     0.000 A 
ATOM      2  C2  BNZ d   1      -1.503   0.476   2.933  0.00  0.00     0.000 A 
ATOM      3  C3  BNZ d   1      -0.295   0.525   3.571  0.00  0.00     0.000 A 
ATOM      4  C4  BNZ d   1       0.840   0.414   2.850  0.00  0.00     0.000 A 
ATOM      5  C5  BNZ d   1       0.786   0.284   1.476  0.00  0.00     0.000 A 
ATOM      6  C6  BNZ d   1      -0.431   0.275   0.835  0.00  0.00     0.000 A 
ENDROOT
TORSDOF 0
ENDMDL
