MODEL 1
REMARK minimizedAffinity -3.52448511
REMARK minimizedRMSD -1
REMARK  0 active torsions:
REMARK  status: ('A' for Active; 'I' for Inactive)
ROOT
ATOM      1  C1  BNZ d   1       0.689   1.528   1.981  0.00  0.00     0.000 A 
ATOM      2  C2  BNZ d   1      -0.347   2.072   2.693  0.00  0.00     0.000 A 
ATOM      3  C3  BNZ d   1      -1.619   1.591   2.556  0.00  0.00     0.000 A 
ATOM      4  C4  BNZ d   1      -1.860   0.595   1.679  0.00  0.00     0.000 A 
ATOM      5  C5  BNZ d   1      -0.828   0.043   0.947  0.00  0.00     0.000 A 
ATOM      6  C6  BNZ d   1       0.458   0.503   1.117  0.00  0.00     0.000 A 
ENDROOT
TORSDOF 0
ENDMDL
