MODEL 1
REMARK minimizedAffinity 9.1564312
REMARK minimizedRMSD -1
REMARK  1 active torsions:
REMARK  status: ('A' for Active; 'I' for Inactive)
REMARK    1  A    between atoms: C1_2  and  C2_3 
ROOT
ATOM      1  C2  UNL d   1       2.960   1.034  -0.978  0.00  0.00    -0.077 A 
ATOM      2  C3  UNL d   1       3.196   0.035  -0.023  0.00  0.00     0.002 A 
ATOM      3  C4  UNL d   1       2.761   0.199   1.293  0.00  0.00     0.002 A 
ATOM      4  C5  UNL d   1       2.082   1.357   1.666  0.00  0.00    -0.004 A 
ATOM      5  C6  UNL d   1       1.844   2.358   0.724  0.00  0.00     0.002 A 
ATOM      6  C7  UNL d   1       2.280   2.197  -0.592  0.00  0.00     0.002 A 
ENDROOT
BRANCH   1   7
ATOM      7  C1  UNL d   1       3.386   0.838  -2.409  0.00  0.00     0.055 C 
ATOM      8  C   UNL d   1       4.269   1.983  -2.886  0.00  0.00     0.019 C 
ENDBRANCH   1   7
TORSDOF 1
ENDMDL
