MODEL 1
REMARK minimizedAffinity 14.4337273
REMARK minimizedRMSD -1
REMARK  1 active torsions:
REMARK  status: ('A' for Active; 'I' for Inactive)
REMARK    1  A    between atoms: C1_2  and  C2_3 
ROOT
ATOM      1  C2  UNL d   1      -3.815  -3.719  -2.435  0.00  0.00    -0.077 A 
ATOM      2  C3  UNL d   1      -4.913  -3.376  -3.235  0.00  0.00     0.002 A 
ATOM      3  C4  UNL d   1      -6.000  -4.245  -3.353  0.00  0.00     0.002 A 
ATOM      4  C5  UNL d   1      -6.000  -5.460  -2.671  0.00  0.00    -0.004 A 
ATOM      5  C6  UNL d   1      -4.911  -5.811  -1.874  0.00  0.00     0.002 A 
ATOM      6  C7  UNL d   1      -3.823  -4.944  -1.756  0.00  0.00     0.002 A 
ENDROOT
BRANCH   1   7
ATOM      7  C1  UNL d   1      -2.664  -2.761  -2.267  0.00  0.00     0.055 C 
ATOM      8  C   UNL d   1      -2.551  -2.277  -0.829  0.00  0.00     0.019 C 
ENDBRANCH   1   7
TORSDOF 1
ENDMDL
