MODEL 1
REMARK minimizedAffinity 8.84753036
REMARK minimizedRMSD -1
REMARK  1 active torsions:
REMARK  status: ('A' for Active; 'I' for Inactive)
REMARK    1  A    between atoms: C1_2  and  C2_3 
ROOT
ATOM      1  C2  UNL d   1      -5.184   2.455   5.325  0.00  0.00    -0.077 A 
ATOM      2  C3  UNL d   1      -4.493   2.361   4.109  0.00  0.00     0.002 A 
ATOM      3  C4  UNL d   1      -4.365   1.130   3.463  0.00  0.00     0.002 A 
ATOM      4  C5  UNL d   1      -4.929  -0.015   4.022  0.00  0.00    -0.004 A 
ATOM      5  C6  UNL d   1      -5.617   0.068   5.232  0.00  0.00     0.002 A 
ATOM      6  C7  UNL d   1      -5.745   1.298   5.880  0.00  0.00     0.002 A 
ENDROOT
BRANCH   1   7
ATOM      7  C1  UNL d   1      -5.366   3.790   5.999  0.00  0.00     0.055 C 
ATOM      8  C   UNL d   1      -4.075   4.596   5.987  0.00  0.00     0.019 C 
ENDBRANCH   1   7
TORSDOF 1
ENDMDL
