MODEL 1
REMARK minimizedAffinity 1.79269278
REMARK minimizedRMSD -1
REMARK  1 active torsions:
REMARK  status: ('A' for Active; 'I' for Inactive)
REMARK    1  A    between atoms: C1_2  and  C2_3 
ROOT
ATOM      1  C2  UNL d   1       4.817   3.036  -4.280  0.00  0.00    -0.077 A 
ATOM      2  C3  UNL d   1       3.636   3.451  -4.911  0.00  0.00     0.002 A 
ATOM      3  C4  UNL d   1       3.639   4.562  -5.756  0.00  0.00     0.002 A 
ATOM      4  C5  UNL d   1       4.820   5.265  -5.981  0.00  0.00    -0.004 A 
ATOM      5  C6  UNL d   1       6.000   4.862  -5.356  0.00  0.00     0.002 A 
ATOM      6  C7  UNL d   1       5.998   3.753  -4.510  0.00  0.00     0.002 A 
ENDROOT
BRANCH   1   7
ATOM      7  C1  UNL d   1       4.826   1.809  -3.407  0.00  0.00     0.055 C 
ATOM      8  C   UNL d   1       4.042   2.037  -2.123  0.00  0.00     0.019 C 
ENDBRANCH   1   7
TORSDOF 1
ENDMDL
