MODEL 1
REMARK minimizedAffinity 10.3621845
REMARK minimizedRMSD -1
REMARK  1 active torsions:
REMARK  status: ('A' for Active; 'I' for Inactive)
REMARK    1  A    between atoms: C1_2  and  C2_3 
ROOT
ATOM      1  C2  UNL d   1       3.392   2.615  -4.913  0.00  0.00    -0.077 A 
ATOM      2  C3  UNL d   1       3.544   3.508  -5.983  0.00  0.00     0.002 A 
ATOM      3  C4  UNL d   1       2.859   4.724  -5.991  0.00  0.00     0.002 A 
ATOM      4  C5  UNL d   1       2.021   5.060  -4.930  0.00  0.00    -0.004 A 
ATOM      5  C6  UNL d   1       1.861   4.178  -3.862  0.00  0.00     0.002 A 
ATOM      6  C7  UNL d   1       2.544   2.961  -3.853  0.00  0.00     0.002 A 
ENDROOT
BRANCH   1   7
ATOM      7  C1  UNL d   1       4.168   1.324  -4.880  0.00  0.00     0.055 C 
ATOM      8  C   UNL d   1       3.448   0.225  -5.648  0.00  0.00     0.019 C 
ENDBRANCH   1   7
TORSDOF 1
ENDMDL
