MODEL 1
REMARK minimizedAffinity 9.20326805
REMARK minimizedRMSD -1
REMARK  1 active torsions:
REMARK  status: ('A' for Active; 'I' for Inactive)
REMARK    1  A    between atoms: C1_2  and  C2_3 
ROOT
ATOM      1  C2  UNL d   1      -4.833  -3.692  -3.453  0.00  0.00    -0.077 A 
ATOM      2  C3  UNL d   1      -3.558  -3.109  -3.445  0.00  0.00     0.002 A 
ATOM      3  C4  UNL d   1      -2.469  -3.799  -2.910  0.00  0.00     0.002 A 
ATOM      4  C5  UNL d   1      -2.643  -5.077  -2.384  0.00  0.00    -0.004 A 
ATOM      5  C6  UNL d   1      -3.907  -5.665  -2.385  0.00  0.00     0.002 A 
ATOM      6  C7  UNL d   1      -4.997  -4.976  -2.918  0.00  0.00     0.002 A 
ENDROOT
BRANCH   1   7
ATOM      7  C1  UNL d   1      -6.000  -2.969  -4.074  0.00  0.00     0.055 C 
ATOM      8  C   UNL d   1      -5.884  -2.931  -5.590  0.00  0.00     0.019 C 
ENDBRANCH   1   7
TORSDOF 1
ENDMDL
