MODEL 1
REMARK minimizedAffinity 13.6572828
REMARK minimizedRMSD -1
REMARK  1 active torsions:
REMARK  status: ('A' for Active; 'I' for Inactive)
REMARK    1  A    between atoms: C1_2  and  C2_3 
ROOT
ATOM      1  C2  UNL d   1       3.754   1.470  -4.538  0.00  0.00    -0.077 A 
ATOM      2  C3  UNL d   1       3.684   1.699  -3.157  0.00  0.00     0.002 A 
ATOM      3  C4  UNL d   1       2.882   2.724  -2.651  0.00  0.00     0.002 A 
ATOM      4  C5  UNL d   1       2.142   3.525  -3.518  0.00  0.00    -0.004 A 
ATOM      5  C6  UNL d   1       2.206   3.306  -4.894  0.00  0.00     0.002 A 
ATOM      6  C7  UNL d   1       3.008   2.283  -5.402  0.00  0.00     0.002 A 
ENDROOT
BRANCH   1   7
ATOM      7  C1  UNL d   1       4.580   0.334  -5.083  0.00  0.00     0.055 C 
ATOM      8  C   UNL d   1       3.697  -0.774  -5.641  0.00  0.00     0.019 C 
ENDBRANCH   1   7
TORSDOF 1
ENDMDL
