MODEL 1
REMARK minimizedAffinity 10.459033
REMARK minimizedRMSD -1
REMARK  1 active torsions:
REMARK  status: ('A' for Active; 'I' for Inactive)
REMARK    1  A    between atoms: C1_2  and  C2_3 
ROOT
ATOM      1  C2  UNL d   1      -1.628  -2.250  -1.177  0.00  0.00    -0.077 A 
ATOM      2  C3  UNL d   1      -0.422  -2.764  -0.680  0.00  0.00     0.002 A 
ATOM      3  C4  UNL d   1      -0.326  -3.180   0.649  0.00  0.00     0.002 A 
ATOM      4  C5  UNL d   1      -1.432  -3.088   1.491  0.00  0.00    -0.004 A 
ATOM      5  C6  UNL d   1      -2.635  -2.576   1.007  0.00  0.00     0.002 A 
ATOM      6  C7  UNL d   1      -2.733  -2.159  -0.321  0.00  0.00     0.002 A 
ENDROOT
BRANCH   1   7
ATOM      7  C1  UNL d   1      -1.748  -1.847  -2.624  0.00  0.00     0.055 C 
ATOM      8  C   UNL d   1      -2.237  -3.005  -3.481  0.00  0.00     0.019 C 
ENDBRANCH   1   7
TORSDOF 1
ENDMDL
