MODEL 1
REMARK minimizedAffinity 18.8489761
REMARK minimizedRMSD -1
REMARK  1 active torsions:
REMARK  status: ('A' for Active; 'I' for Inactive)
REMARK    1  A    between atoms: C1_2  and  C2_3 
ROOT
ATOM      1  C2  UNL d   1      -2.298  -3.435   0.027  0.00  0.00    -0.077 A 
ATOM      2  C3  UNL d   1      -1.372  -2.985   0.979  0.00  0.00     0.002 A 
ATOM      3  C4  UNL d   1      -1.185  -3.691   2.169  0.00  0.00     0.002 A 
ATOM      4  C5  UNL d   1      -1.916  -4.851   2.416  0.00  0.00    -0.004 A 
ATOM      5  C6  UNL d   1      -2.841  -5.304   1.477  0.00  0.00     0.002 A 
ATOM      6  C7  UNL d   1      -3.030  -4.600   0.287  0.00  0.00     0.002 A 
ENDROOT
BRANCH   1   7
ATOM      7  C1  UNL d   1      -2.467  -2.703  -1.279  0.00  0.00     0.055 C 
ATOM      8  C   UNL d   1      -2.955  -3.636  -2.378  0.00  0.00     0.019 C 
ENDBRANCH   1   7
TORSDOF 1
ENDMDL
