MODEL 1
REMARK minimizedAffinity 2.78234887
REMARK minimizedRMSD -1
REMARK  1 active torsions:
REMARK  status: ('A' for Active; 'I' for Inactive)
REMARK    1  A    between atoms: C1_2  and  C2_3 
ROOT
ATOM      1  C2  UNL d   1       3.971   0.645   1.694  0.00  0.00    -0.077 A 
ATOM      2  C3  UNL d   1       3.982   2.033   1.498  0.00  0.00     0.002 A 
ATOM      3  C4  UNL d   1       4.994   2.632   0.747  0.00  0.00     0.002 A 
ATOM      4  C5  UNL d   1       6.000   1.851   0.181  0.00  0.00    -0.004 A 
ATOM      5  C6  UNL d   1       5.999   0.470   0.371  0.00  0.00     0.002 A 
ATOM      6  C7  UNL d   1       4.989  -0.131   1.123  0.00  0.00     0.002 A 
ENDROOT
BRANCH   1   7
ATOM      7  C1  UNL d   1       2.853  -0.009   2.463  0.00  0.00     0.055 C 
ATOM      8  C   UNL d   1       1.533   0.717   2.246  0.00  0.00     0.019 C 
ENDBRANCH   1   7
TORSDOF 1
ENDMDL
