MODEL 1
REMARK minimizedAffinity 5.2367692
REMARK minimizedRMSD -1
REMARK  1 active torsions:
REMARK  status: ('A' for Active; 'I' for Inactive)
REMARK    1  A    between atoms: C1_2  and  C2_3 
ROOT
ATOM      1  C2  UNL d   1      -0.798  -2.711  -2.585  0.00  0.00    -0.077 A 
ATOM      2  C3  UNL d   1       0.258  -3.116  -1.757  0.00  0.00     0.002 A 
ATOM      3  C4  UNL d   1       0.117  -3.091  -0.368  0.00  0.00     0.002 A 
ATOM      4  C5  UNL d   1      -1.081  -2.667   0.204  0.00  0.00    -0.004 A 
ATOM      5  C6  UNL d   1      -2.136  -2.260  -0.610  0.00  0.00     0.002 A 
ATOM      6  C7  UNL d   1      -1.996  -2.283  -1.999  0.00  0.00     0.002 A 
ENDROOT
BRANCH   1   7
ATOM      7  C1  UNL d   1      -0.664  -2.783  -4.083  0.00  0.00     0.055 C 
ATOM      8  C   UNL d   1       0.731  -3.230  -4.494  0.00  0.00     0.019 C 
ENDBRANCH   1   7
TORSDOF 1
ENDMDL
