MODEL 1
REMARK minimizedAffinity 5.74997997
REMARK minimizedRMSD -1
REMARK  1 active torsions:
REMARK  status: ('A' for Active; 'I' for Inactive)
REMARK    1  A    between atoms: C1_2  and  C2_3 
ROOT
ATOM      1  C2  UNL d   1      -1.203  -3.611   1.164  0.00  0.00    -0.077 A 
ATOM      2  C3  UNL d   1      -0.648  -2.510   1.831  0.00  0.00     0.002 A 
ATOM      3  C4  UNL d   1      -1.126  -1.221   1.585  0.00  0.00     0.002 A 
ATOM      4  C5  UNL d   1      -2.163  -1.022   0.676  0.00  0.00    -0.004 A 
ATOM      5  C6  UNL d   1      -2.720  -2.111   0.006  0.00  0.00     0.002 A 
ATOM      6  C7  UNL d   1      -2.243  -3.400   0.250  0.00  0.00     0.002 A 
ENDROOT
BRANCH   1   7
ATOM      7  C1  UNL d   1      -0.722  -5.007   1.464  0.00  0.00     0.055 C 
ATOM      8  C   UNL d   1      -1.877  -5.997   1.485  0.00  0.00     0.019 C 
ENDBRANCH   1   7
TORSDOF 1
ENDMDL
