MODEL 1
REMARK minimizedAffinity 15.5395365
REMARK minimizedRMSD -1
REMARK  1 active torsions:
REMARK  status: ('A' for Active; 'I' for Inactive)
REMARK    1  A    between atoms: C1_2  and  C2_3 
ROOT
ATOM      1  C2  UNL d   1      -2.403  -4.574   1.041  0.00  0.00    -0.077 A 
ATOM      2  C3  UNL d   1      -3.137  -3.613   0.333  0.00  0.00     0.002 A 
ATOM      3  C4  UNL d   1      -2.576  -2.367   0.044  0.00  0.00     0.002 A 
ATOM      4  C5  UNL d   1      -1.278  -2.073   0.457  0.00  0.00    -0.004 A 
ATOM      5  C6  UNL d   1      -0.541  -3.022   1.164  0.00  0.00     0.002 A 
ATOM      6  C7  UNL d   1      -1.100  -4.267   1.454  0.00  0.00     0.002 A 
ENDROOT
BRANCH   1   7
ATOM      7  C1  UNL d   1      -2.988  -5.936   1.311  0.00  0.00     0.055 C 
ATOM      8  C   UNL d   1      -4.452  -6.000   0.901  0.00  0.00     0.019 C 
ENDBRANCH   1   7
TORSDOF 1
ENDMDL
