MODEL 1
REMARK minimizedAffinity 10.6235352
REMARK minimizedRMSD -1
REMARK  1 active torsions:
REMARK  status: ('A' for Active; 'I' for Inactive)
REMARK    1  A    between atoms: C1_2  and  C2_3 
ROOT
ATOM      1  C2  UNL d   1       1.050   1.265   3.211  0.00  0.00    -0.077 A 
ATOM      2  C3  UNL d   1       2.206   0.806   2.563  0.00  0.00     0.002 A 
ATOM      3  C4  UNL d   1       2.766   1.540   1.515  0.00  0.00     0.002 A 
ATOM      4  C5  UNL d   1       2.180   2.737   1.109  0.00  0.00    -0.004 A 
ATOM      5  C6  UNL d   1       1.030   3.200   1.746  0.00  0.00     0.002 A 
ATOM      6  C7  UNL d   1       0.468   2.468   2.793  0.00  0.00     0.002 A 
ENDROOT
BRANCH   1   7
ATOM      7  C1  UNL d   1       0.473   0.501   4.374  0.00  0.00     0.055 C 
ATOM      8  C   UNL d   1       0.819   1.165   5.699  0.00  0.00     0.019 C 
ENDBRANCH   1   7
TORSDOF 1
ENDMDL
