MODEL 1
REMARK minimizedAffinity 0.147369355
REMARK minimizedRMSD -1
REMARK  1 active torsions:
REMARK  status: ('A' for Active; 'I' for Inactive)
REMARK    1  A    between atoms: C1_2  and  C2_3 
ROOT
ATOM      1  C2  UNL d   1      -0.392  -1.710  -3.575  0.00  0.00    -0.077 A 
ATOM      2  C3  UNL d   1      -0.772  -0.360  -3.579  0.00  0.00     0.002 A 
ATOM      3  C4  UNL d   1      -0.893   0.335  -4.784  0.00  0.00     0.002 A 
ATOM      4  C5  UNL d   1      -0.640  -0.311  -5.992  0.00  0.00    -0.004 A 
ATOM      5  C6  UNL d   1      -0.260  -1.653  -5.998  0.00  0.00     0.002 A 
ATOM      6  C7  UNL d   1      -0.137  -2.349  -4.795  0.00  0.00     0.002 A 
ENDROOT
BRANCH   1   7
ATOM      7  C1  UNL d   1      -0.309  -2.475  -2.280  0.00  0.00     0.055 C 
ATOM      8  C   UNL d   1      -0.955  -1.703  -1.138  0.00  0.00     0.019 C 
ENDBRANCH   1   7
TORSDOF 1
ENDMDL
