MODEL 1
REMARK minimizedAffinity 2.79738784
REMARK minimizedRMSD -1
REMARK  1 active torsions:
REMARK  status: ('A' for Active; 'I' for Inactive)
REMARK    1  A    between atoms: C1_2  and  C2_3 
ROOT
ATOM      1  C2  UNL d   1      -0.365  -1.111  -3.573  0.00  0.00    -0.077 A 
ATOM      2  C3  UNL d   1      -0.494  -1.771  -4.803  0.00  0.00     0.002 A 
ATOM      3  C4  UNL d   1      -0.288  -1.081  -6.000  0.00  0.00     0.002 A 
ATOM      4  C5  UNL d   1       0.051   0.271  -5.977  0.00  0.00    -0.004 A 
ATOM      5  C6  UNL d   1       0.179   0.936  -4.759  0.00  0.00     0.002 A 
ATOM      6  C7  UNL d   1      -0.028   0.248  -3.562  0.00  0.00     0.002 A 
ENDROOT
BRANCH   1   7
ATOM      7  C1  UNL d   1      -0.538  -1.865  -2.281  0.00  0.00     0.055 C 
ATOM      8  C   UNL d   1      -1.530  -1.168  -1.361  0.00  0.00     0.019 C 
ENDBRANCH   1   7
TORSDOF 1
ENDMDL
