MODEL 1
REMARK minimizedAffinity -4.15178823
REMARK minimizedRMSD -1
REMARK  1 active torsions:
REMARK  status: ('A' for Active; 'I' for Inactive)
REMARK    1  A    between atoms: C1_2  and  C2_3 
ROOT
ATOM      1  C2  UNL d   1       0.790   0.549  -5.606  0.00  0.00    -0.077 A 
ATOM      2  C3  UNL d   1      -0.069   1.597  -5.246  0.00  0.00     0.002 A 
ATOM      3  C4  UNL d   1      -1.378   1.329  -4.841  0.00  0.00     0.002 A 
ATOM      4  C5  UNL d   1      -1.838   0.015  -4.787  0.00  0.00    -0.004 A 
ATOM      5  C6  UNL d   1      -0.992  -1.034  -5.145  0.00  0.00     0.002 A 
ATOM      6  C7  UNL d   1       0.316  -0.768  -5.552  0.00  0.00     0.002 A 
ENDROOT
BRANCH   1   7
ATOM      7  C1  UNL d   1       2.217   0.832  -5.996  0.00  0.00     0.055 C 
ATOM      8  C   UNL d   1       2.927   1.660  -4.935  0.00  0.00     0.019 C 
ENDBRANCH   1   7
TORSDOF 1
ENDMDL
