MODEL 1
REMARK minimizedAffinity -3.07902503
REMARK minimizedRMSD -1
REMARK  1 active torsions:
REMARK  status: ('A' for Active; 'I' for Inactive)
REMARK    1  A    between atoms: C1_2  and  C2_3 
ROOT
ATOM      1  C2  UNL d   1       1.909  -2.888  -2.651  0.00  0.00    -0.077 A 
ATOM      2  C3  UNL d   1       1.204  -2.624  -3.833  0.00  0.00     0.002 A 
ATOM      3  C4  UNL d   1      -0.182  -2.450  -3.806  0.00  0.00     0.002 A 
ATOM      4  C5  UNL d   1      -0.872  -2.535  -2.599  0.00  0.00    -0.004 A 
ATOM      5  C6  UNL d   1      -0.180  -2.799  -1.417  0.00  0.00     0.002 A 
ATOM      6  C7  UNL d   1       1.204  -2.974  -1.443  0.00  0.00     0.002 A 
ENDROOT
BRANCH   1   7
ATOM      7  C1  UNL d   1       3.409  -3.027  -2.671  0.00  0.00     0.055 C 
ATOM      8  C   UNL d   1       4.047  -2.311  -1.490  0.00  0.00     0.019 C 
ENDBRANCH   1   7
TORSDOF 1
ENDMDL
