MODEL 1
REMARK minimizedAffinity -4.06411314
REMARK minimizedRMSD -1
REMARK  1 active torsions:
REMARK  status: ('A' for Active; 'I' for Inactive)
REMARK    1  A    between atoms: C1_2  and  C2_3 
ROOT
ATOM      1  C2  UNL d   1       0.138  -1.196  -3.551  0.00  0.00    -0.077 A 
ATOM      2  C3  UNL d   1      -0.815  -0.253  -3.962  0.00  0.00     0.002 A 
ATOM      3  C4  UNL d   1      -0.563   0.576  -5.056  0.00  0.00     0.002 A 
ATOM      4  C5  UNL d   1       0.640   0.468  -5.752  0.00  0.00    -0.004 A 
ATOM      5  C6  UNL d   1       1.595  -0.464  -5.350  0.00  0.00     0.002 A 
ATOM      6  C7  UNL d   1       1.345  -1.293  -4.255  0.00  0.00     0.002 A 
ENDROOT
BRANCH   1   7
ATOM      7  C1  UNL d   1      -0.152  -2.125  -2.402  0.00  0.00     0.055 C 
ATOM      8  C   UNL d   1      -0.678  -1.363  -1.194  0.00  0.00     0.019 C 
ENDBRANCH   1   7
TORSDOF 1
ENDMDL
