MODEL 1
REMARK minimizedAffinity 4.79241514
REMARK minimizedRMSD -1
REMARK  1 active torsions:
REMARK  status: ('A' for Active; 'I' for Inactive)
REMARK    1  A    between atoms: C1_2  and  C2_3 
ROOT
ATOM      1  C2  UNL d   1      -3.172  -0.436  -4.626  0.00  0.00    -0.077 A 
ATOM      2  C3  UNL d   1      -2.970   0.358  -5.763  0.00  0.00     0.002 A 
ATOM      3  C4  UNL d   1      -1.728   0.949  -6.000  0.00  0.00     0.002 A 
ATOM      4  C5  UNL d   1      -0.677   0.749  -5.107  0.00  0.00    -0.004 A 
ATOM      5  C6  UNL d   1      -0.869  -0.038  -3.972  0.00  0.00     0.002 A 
ATOM      6  C7  UNL d   1      -2.111  -0.629  -3.733  0.00  0.00     0.002 A 
ENDROOT
BRANCH   1   7
ATOM      7  C1  UNL d   1      -4.497  -1.115  -4.394  0.00  0.00     0.055 C 
ATOM      8  C   UNL d   1      -5.637  -0.107  -4.359  0.00  0.00     0.019 C 
ENDBRANCH   1   7
TORSDOF 1
ENDMDL
