MODEL 1
REMARK minimizedAffinity -3.08923554
REMARK minimizedRMSD -1
REMARK  1 active torsions:
REMARK  status: ('A' for Active; 'I' for Inactive)
REMARK    1  A    between atoms: C1_2  and  C2_3 
ROOT
ATOM      1  C2  UNL d   1      -0.980  -0.258  -4.582  0.00  0.00    -0.077 A 
ATOM      2  C3  UNL d   1      -0.235  -1.119  -5.399  0.00  0.00     0.002 A 
ATOM      3  C4  UNL d   1       0.572  -2.107  -4.832  0.00  0.00     0.002 A 
ATOM      4  C5  UNL d   1       0.639  -2.245  -3.447  0.00  0.00    -0.004 A 
ATOM      5  C6  UNL d   1      -0.097  -1.392  -2.626  0.00  0.00     0.002 A 
ATOM      6  C7  UNL d   1      -0.903  -0.403  -3.191  0.00  0.00     0.002 A 
ENDROOT
BRANCH   1   7
ATOM      7  C1  UNL d   1      -1.890   0.776  -5.192  0.00  0.00     0.055 C 
ATOM      8  C   UNL d   1      -3.312   0.252  -5.327  0.00  0.00     0.019 C 
ENDBRANCH   1   7
TORSDOF 1
ENDMDL
