MODEL 1
REMARK minimizedAffinity -0.512139797
REMARK minimizedRMSD -1
REMARK  1 active torsions:
REMARK  status: ('A' for Active; 'I' for Inactive)
REMARK    1  A    between atoms: C1_2  and  C2_3 
ROOT
ATOM      1  C2  UNL d   1      -2.733  -0.466  -5.344  0.00  0.00    -0.077 A 
ATOM      2  C3  UNL d   1      -2.272  -1.618  -5.998  0.00  0.00     0.002 A 
ATOM      3  C4  UNL d   1      -1.059  -2.201  -5.630  0.00  0.00     0.002 A 
ATOM      4  C5  UNL d   1      -0.299  -1.644  -4.604  0.00  0.00    -0.004 A 
ATOM      5  C6  UNL d   1      -0.747  -0.498  -3.949  0.00  0.00     0.002 A 
ATOM      6  C7  UNL d   1      -1.960   0.088  -4.317  0.00  0.00     0.002 A 
ENDROOT
BRANCH   1   7
ATOM      7  C1  UNL d   1      -4.065   0.136  -5.707  0.00  0.00     0.055 C 
ATOM      8  C   UNL d   1      -5.077  -0.040  -4.584  0.00  0.00     0.019 C 
ENDBRANCH   1   7
TORSDOF 1
ENDMDL
