MODEL 1
REMARK minimizedAffinity 0.95207113
REMARK minimizedRMSD -1
REMARK  0 active torsions:
REMARK  status: ('A' for Active; 'I' for Inactive)
ROOT
ATOM      1  C   UNL d   1      -2.376  -1.040  -0.847  0.00  0.00     0.020 A 
ATOM      2  C1  UNL d   1      -1.480  -0.674  -1.851  0.00  0.00     0.020 A 
ATOM      3  C2  UNL d   1      -0.312   0.019  -1.526  0.00  0.00     0.034 A 
ATOM      4  C3  UNL d   1      -0.037   0.349  -0.193  0.00  0.00     0.017 A 
ATOM      5  C4  UNL d   1      -0.937  -0.018   0.813  0.00  0.00     0.017 A 
ATOM      6  C5  UNL d   1      -2.105  -0.713   0.482  0.00  0.00     0.034 A 
ATOM      7 Cl   UNL d   1      -0.667   0.353   2.479  0.00  0.00    -0.070 Cl
ATOM      8 Cl1  UNL d   1       1.426   1.207   0.137  0.00  0.00    -0.070 Cl
ENDROOT
TORSDOF 0
ENDMDL
