MODEL 1
REMARK minimizedAffinity -5.07696342
REMARK minimizedRMSD -1
REMARK  0 active torsions:
REMARK  status: ('A' for Active; 'I' for Inactive)
ROOT
ATOM      1  C   UNL d   1      -1.333  -1.110   2.379  0.00  0.00     0.020 A 
ATOM      2  C1  UNL d   1      -0.727  -0.307   3.344  0.00  0.00     0.020 A 
ATOM      3  C2  UNL d   1       0.222   0.645   2.964  0.00  0.00     0.034 A 
ATOM      4  C3  UNL d   1       0.568   0.795   1.616  0.00  0.00     0.017 A 
ATOM      5  C4  UNL d   1      -0.041  -0.012   0.649  0.00  0.00     0.017 A 
ATOM      6  C5  UNL d   1      -0.991  -0.963   1.034  0.00  0.00     0.034 A 
ATOM      7 Cl   UNL d   1       0.334   0.116  -1.034  0.00  0.00    -0.070 Cl
ATOM      8 Cl1  UNL d   1       1.749   1.992   1.219  0.00  0.00    -0.070 Cl
ENDROOT
TORSDOF 0
ENDMDL
