MODEL 1
REMARK minimizedAffinity -4.33707905
REMARK minimizedRMSD -1
REMARK  0 active torsions:
REMARK  status: ('A' for Active; 'I' for Inactive)
ROOT
ATOM      1  C   UNL d   1       1.245  -0.146   2.298  0.00  0.00     0.020 A 
ATOM      2  C1  UNL d   1       0.019  -0.190   2.960  0.00  0.00     0.020 A 
ATOM      3  C2  UNL d   1      -1.170  -0.091   2.234  0.00  0.00     0.034 A 
ATOM      4  C3  UNL d   1      -1.135   0.052   0.842  0.00  0.00     0.017 A 
ATOM      5  C4  UNL d   1       0.096   0.095   0.179  0.00  0.00     0.017 A 
ATOM      6  C5  UNL d   1       1.284  -0.004   0.910  0.00  0.00     0.034 A 
ATOM      7 Cl   UNL d   1       0.219   0.270  -1.536  0.00  0.00    -0.070 Cl
ATOM      8 Cl1  UNL d   1      -2.644   0.167   0.008  0.00  0.00    -0.070 Cl
ENDROOT
TORSDOF 0
ENDMDL
