MODEL 1
REMARK minimizedAffinity -1.66971874
REMARK minimizedRMSD -1
REMARK  0 active torsions:
REMARK  status: ('A' for Active; 'I' for Inactive)
ROOT
ATOM      1  C   UNL d   1      -0.146  -0.734  -0.410  0.00  0.00     0.020 A 
ATOM      2  C1  UNL d   1      -0.165   0.657  -0.495  0.00  0.00     0.020 A 
ATOM      3  C2  UNL d   1       0.177   1.288  -1.694  0.00  0.00     0.034 A 
ATOM      4  C3  UNL d   1       0.538   0.527  -2.811  0.00  0.00     0.017 A 
ATOM      5  C4  UNL d   1       0.557  -0.870  -2.724  0.00  0.00     0.017 A 
ATOM      6  C5  UNL d   1       0.214  -1.496  -1.522  0.00  0.00     0.034 A 
ATOM      7 Cl   UNL d   1       0.992  -1.876  -4.061  0.00  0.00    -0.070 Cl
ATOM      8 Cl1  UNL d   1       0.948   1.373  -4.261  0.00  0.00    -0.070 Cl
ENDROOT
TORSDOF 0
ENDMDL
