MODEL 1
REMARK minimizedAffinity -1.48552859
REMARK minimizedRMSD -1
REMARK  0 active torsions:
REMARK  status: ('A' for Active; 'I' for Inactive)
ROOT
ATOM      1  C   UNL d   1       1.035  -0.170   0.455  0.00  0.00     0.020 A 
ATOM      2  C1  UNL d   1       0.083  -0.236  -0.562  0.00  0.00     0.020 A 
ATOM      3  C2  UNL d   1      -1.247  -0.531  -0.256  0.00  0.00     0.034 A 
ATOM      4  C3  UNL d   1      -1.629  -0.763   1.070  0.00  0.00     0.017 A 
ATOM      5  C4  UNL d   1      -0.673  -0.696   2.091  0.00  0.00     0.017 A 
ATOM      6  C5  UNL d   1       0.657  -0.400   1.778  0.00  0.00     0.034 A 
ATOM      7 Cl   UNL d   1      -1.069  -0.969   3.751  0.00  0.00    -0.070 Cl
ATOM      8 Cl1  UNL d   1      -3.291  -1.122   1.377  0.00  0.00    -0.070 Cl
ENDROOT
TORSDOF 0
ENDMDL
