MODEL 1
REMARK minimizedAffinity -4.60496426
REMARK minimizedRMSD -1
REMARK  0 active torsions:
REMARK  status: ('A' for Active; 'I' for Inactive)
ROOT
ATOM      1  C   UNL d   1      -0.817  -1.416   1.846  0.00  0.00     0.020 A 
ATOM      2  C1  UNL d   1      -0.024  -0.722   2.759  0.00  0.00     0.020 A 
ATOM      3  C2  UNL d   1       0.859   0.263   2.310  0.00  0.00     0.034 A 
ATOM      4  C3  UNL d   1       0.951   0.556   0.944  0.00  0.00     0.017 A 
ATOM      5  C4  UNL d   1       0.154  -0.141   0.029  0.00  0.00     0.017 A 
ATOM      6  C5  UNL d   1      -0.728  -1.126   0.484  0.00  0.00     0.034 A 
ATOM      7 Cl   UNL d   1       0.212   0.165  -1.671  0.00  0.00    -0.070 Cl
ATOM      8 Cl1  UNL d   1       2.064   1.785   0.460  0.00  0.00    -0.070 Cl
ENDROOT
TORSDOF 0
ENDMDL
