MODEL 1
REMARK minimizedAffinity -4.95958185
REMARK minimizedRMSD -1
REMARK  0 active torsions:
REMARK  status: ('A' for Active; 'I' for Inactive)
ROOT
ATOM      1  C   UNL d   1      -0.519  -0.417   3.217  0.00  0.00     0.020 A 
ATOM      2  C1  UNL d   1       0.765  -0.551   2.691  0.00  0.00     0.020 A 
ATOM      3  C2  UNL d   1       0.985  -0.352   1.326  0.00  0.00     0.034 A 
ATOM      4  C3  UNL d   1      -0.081  -0.019   0.483  0.00  0.00     0.017 A 
ATOM      5  C4  UNL d   1      -1.370   0.115   1.012  0.00  0.00     0.017 A 
ATOM      6  C5  UNL d   1      -1.584  -0.085   2.379  0.00  0.00     0.034 A 
ATOM      7 Cl   UNL d   1      -2.735   0.523   0.034  0.00  0.00    -0.070 Cl
ATOM      8 Cl1  UNL d   1       0.263   0.212  -1.195  0.00  0.00    -0.070 Cl
ENDROOT
TORSDOF 0
ENDMDL
