MODEL 1
REMARK minimizedAffinity -5.17198229
REMARK minimizedRMSD -1
REMARK  0 active torsions:
REMARK  status: ('A' for Active; 'I' for Inactive)
ROOT
ATOM      1  C   UNL d   1       0.854   0.278  -0.039  0.00  0.00     0.020 A 
ATOM      2  C1  UNL d   1       1.369  -0.039   1.217  0.00  0.00     0.020 A 
ATOM      3  C2  UNL d   1       0.506  -0.220   2.301  0.00  0.00     0.034 A 
ATOM      4  C3  UNL d   1      -0.876  -0.083   2.130  0.00  0.00     0.017 A 
ATOM      5  C4  UNL d   1      -1.392   0.236   0.869  0.00  0.00     0.017 A 
ATOM      6  C5  UNL d   1      -0.524   0.415  -0.213  0.00  0.00     0.034 A 
ATOM      7 Cl   UNL d   1      -3.086   0.421   0.580  0.00  0.00    -0.070 Cl
ATOM      8 Cl1  UNL d   1      -1.884  -0.321   3.513  0.00  0.00    -0.070 Cl
ENDROOT
TORSDOF 0
ENDMDL
