MODEL 1
REMARK minimizedAffinity -2.55873704
REMARK minimizedRMSD -1
REMARK  0 active torsions:
REMARK  status: ('A' for Active; 'I' for Inactive)
ROOT
ATOM      1  C   UNL d   1       0.791   0.771  -0.250  0.00  0.00     0.020 A 
ATOM      2  C1  UNL d   1      -0.004  -0.368  -0.371  0.00  0.00     0.020 A 
ATOM      3  C2  UNL d   1      -0.448  -1.035   0.773  0.00  0.00     0.034 A 
ATOM      4  C3  UNL d   1      -0.097  -0.563   2.043  0.00  0.00     0.017 A 
ATOM      5  C4  UNL d   1       0.700   0.581   2.163  0.00  0.00     0.017 A 
ATOM      6  C5  UNL d   1       1.142   1.245   1.015  0.00  0.00     0.034 A 
ATOM      7 Cl   UNL d   1       1.174   1.223   3.697  0.00  0.00    -0.070 Cl
ATOM      8 Cl1  UNL d   1      -0.681  -1.437   3.414  0.00  0.00    -0.070 Cl
ENDROOT
TORSDOF 0
ENDMDL
