MODEL 1
REMARK minimizedAffinity -3.26508784
REMARK minimizedRMSD -1
REMARK  0 active torsions:
REMARK  status: ('A' for Active; 'I' for Inactive)
ROOT
ATOM      1  C   UNL d   1      -1.480  -0.614   1.830  0.00  0.00     0.020 A 
ATOM      2  C1  UNL d   1      -0.708  -0.104   2.874  0.00  0.00     0.020 A 
ATOM      3  C2  UNL d   1       0.447   0.630   2.594  0.00  0.00     0.034 A 
ATOM      4  C3  UNL d   1       0.833   0.856   1.268  0.00  0.00     0.017 A 
ATOM      5  C4  UNL d   1       0.057   0.344   0.221  0.00  0.00     0.017 A 
ATOM      6  C5  UNL d   1      -1.098  -0.391   0.507  0.00  0.00     0.034 A 
ATOM      7 Cl   UNL d   1       0.470   0.581  -1.440  0.00  0.00    -0.070 Cl
ATOM      8 Cl1  UNL d   1       2.272   1.773   0.995  0.00  0.00    -0.070 Cl
ENDROOT
TORSDOF 0
ENDMDL
