MODEL 1
REMARK minimizedAffinity -3.27250767
REMARK minimizedRMSD -1
REMARK  0 active torsions:
REMARK  status: ('A' for Active; 'I' for Inactive)
ROOT
ATOM      1  C   UNL d   1       1.143   0.940  -0.122  0.00  0.00     0.020 A 
ATOM      2  C1  UNL d   1       0.147   0.928  -1.097  0.00  0.00     0.020 A 
ATOM      3  C2  UNL d   1      -1.148   0.523  -0.767  0.00  0.00     0.034 A 
ATOM      4  C3  UNL d   1      -1.450   0.128   0.542  0.00  0.00     0.017 A 
ATOM      5  C4  UNL d   1      -0.449   0.140   1.520  0.00  0.00     0.017 A 
ATOM      6  C5  UNL d   1       0.846   0.547   1.184  0.00  0.00     0.034 A 
ATOM      7 Cl   UNL d   1      -0.746  -0.332   3.156  0.00  0.00    -0.070 Cl
ATOM      8 Cl1  UNL d   1      -3.073  -0.361   0.879  0.00  0.00    -0.070 Cl
ENDROOT
TORSDOF 0
ENDMDL
