MODEL 1
REMARK minimizedAffinity -3.46042991
REMARK minimizedRMSD -1
REMARK  0 active torsions:
REMARK  status: ('A' for Active; 'I' for Inactive)
ROOT
ATOM      1  C   UNL d   1       1.534   0.426  -0.017  0.00  0.00     0.020 A 
ATOM      2  C1  UNL d   1       0.678   0.566  -1.108  0.00  0.00     0.020 A 
ATOM      3  C2  UNL d   1      -0.691   0.338  -0.955  0.00  0.00     0.034 A 
ATOM      4  C3  UNL d   1      -1.208  -0.030   0.292  0.00  0.00     0.017 A 
ATOM      5  C4  UNL d   1      -0.348  -0.170   1.387  0.00  0.00     0.017 A 
ATOM      6  C5  UNL d   1       1.022   0.059   1.228  0.00  0.00     0.034 A 
ATOM      7 Cl   UNL d   1      -0.912  -0.622   2.957  0.00  0.00    -0.070 Cl
ATOM      8 Cl1  UNL d   1      -2.912  -0.296   0.409  0.00  0.00    -0.070 Cl
ENDROOT
TORSDOF 0
ENDMDL
