MODEL 1
REMARK minimizedAffinity -4.1996212
REMARK minimizedRMSD -1
REMARK  0 active torsions:
REMARK  status: ('A' for Active; 'I' for Inactive)
ROOT
ATOM      1  C   UNL d   1       1.707   1.282   1.493  0.00  0.00     0.020 A 
ATOM      2  C1  UNL d   1       1.073   1.599   0.293  0.00  0.00     0.020 A 
ATOM      3  C2  UNL d   1      -0.156   1.016  -0.023  0.00  0.00     0.034 A 
ATOM      4  C3  UNL d   1      -0.754   0.112   0.862  0.00  0.00     0.017 A 
ATOM      5  C4  UNL d   1      -0.117  -0.206   2.067  0.00  0.00     0.017 A 
ATOM      6  C5  UNL d   1       1.113   0.381   2.379  0.00  0.00     0.034 A 
ATOM      7 Cl   UNL d   1      -0.793  -1.313   3.210  0.00  0.00    -0.070 Cl
ATOM      8 Cl1  UNL d   1      -2.275  -0.572   0.407  0.00  0.00    -0.070 Cl
ENDROOT
TORSDOF 0
ENDMDL
