MODEL 1
REMARK minimizedAffinity -4.77037191
REMARK minimizedRMSD -1
REMARK  0 active torsions:
REMARK  status: ('A' for Active; 'I' for Inactive)
ROOT
ATOM      1  C   UNL d   1       0.865   0.294  -0.315  0.00  0.00     0.020 A 
ATOM      2  C1  UNL d   1      -0.422  -0.230  -0.200  0.00  0.00     0.020 A 
ATOM      3  C2  UNL d   1      -0.885  -0.679   1.039  0.00  0.00     0.034 A 
ATOM      4  C3  UNL d   1      -0.060  -0.605   2.167  0.00  0.00     0.017 A 
ATOM      5  C4  UNL d   1       1.231  -0.078   2.050  0.00  0.00     0.017 A 
ATOM      6  C5  UNL d   1       1.690   0.370   0.807  0.00  0.00     0.034 A 
ATOM      7 Cl   UNL d   1       2.307   0.045   3.397  0.00  0.00    -0.070 Cl
ATOM      8 Cl1  UNL d   1      -0.698  -1.178   3.667  0.00  0.00    -0.070 Cl
ENDROOT
TORSDOF 0
ENDMDL
