MODEL 1
REMARK minimizedAffinity -4.3286252
REMARK minimizedRMSD -1
REMARK  0 active torsions:
REMARK  status: ('A' for Active; 'I' for Inactive)
ROOT
ATOM      1  C   UNL d   1       0.347   0.367   2.910  0.00  0.00     0.020 A 
ATOM      2  C1  UNL d   1       1.579   0.144   2.297  0.00  0.00     0.020 A 
ATOM      3  C2  UNL d   1       1.652  -0.008   0.910  0.00  0.00     0.034 A 
ATOM      4  C3  UNL d   1       0.490   0.064   0.133  0.00  0.00     0.017 A 
ATOM      5  C4  UNL d   1      -0.746   0.288   0.749  0.00  0.00     0.017 A 
ATOM      6  C5  UNL d   1      -0.813   0.439   2.137  0.00  0.00     0.034 A 
ATOM      7 Cl   UNL d   1      -2.222   0.389  -0.144  0.00  0.00    -0.070 Cl
ATOM      8 Cl1  UNL d   1       0.654  -0.132  -1.576  0.00  0.00    -0.070 Cl
ENDROOT
TORSDOF 0
ENDMDL
