MODEL 1
REMARK minimizedAffinity -2.99374938
REMARK minimizedRMSD -1
REMARK  0 active torsions:
REMARK  status: ('A' for Active; 'I' for Inactive)
ROOT
ATOM      1  C   UNL d   1      -0.189   0.024  -1.592  0.00  0.00     0.020 A 
ATOM      2  C1  UNL d   1      -1.302  -0.569  -0.995  0.00  0.00     0.020 A 
ATOM      3  C2  UNL d   1      -1.340  -0.746   0.389  0.00  0.00     0.034 A 
ATOM      4  C3  UNL d   1      -0.264  -0.330   1.182  0.00  0.00     0.017 A 
ATOM      5  C4  UNL d   1       0.852   0.265   0.583  0.00  0.00     0.017 A 
ATOM      6  C5  UNL d   1       0.885   0.441  -0.804  0.00  0.00     0.034 A 
ATOM      7 Cl   UNL d   1       2.217   0.804   1.495  0.00  0.00    -0.070 Cl
ATOM      8 Cl1  UNL d   1      -0.379  -0.580   2.888  0.00  0.00    -0.070 Cl
ENDROOT
TORSDOF 0
ENDMDL
