MODEL 1
REMARK minimizedAffinity -4.65939331
REMARK minimizedRMSD -1
REMARK  0 active torsions:
REMARK  status: ('A' for Active; 'I' for Inactive)
ROOT
ATOM      1  C   UNL d   1      -0.825  -0.705   2.792  0.00  0.00     0.020 A 
ATOM      2  C1  UNL d   1      -1.625  -0.958   1.679  0.00  0.00     0.020 A 
ATOM      3  C2  UNL d   1      -1.186  -0.590   0.405  0.00  0.00     0.034 A 
ATOM      4  C3  UNL d   1       0.057   0.032   0.242  0.00  0.00     0.017 A 
ATOM      5  C4  UNL d   1       0.860   0.285   1.360  0.00  0.00     0.017 A 
ATOM      6  C5  UNL d   1       0.415  -0.085   2.633  0.00  0.00     0.034 A 
ATOM      7 Cl   UNL d   1       2.406   1.049   1.238  0.00  0.00    -0.070 Cl
ATOM      8 Cl1  UNL d   1       0.538   0.459  -1.362  0.00  0.00    -0.070 Cl
ENDROOT
TORSDOF 0
ENDMDL
