MODEL 1
REMARK minimizedAffinity 11.11619
REMARK minimizedRMSD -1
REMARK  0 active torsions:
REMARK  status: ('A' for Active; 'I' for Inactive)
ROOT
ATOM      1  C   UNL d   1      -1.696   0.635   2.599  0.00  0.00     0.124 A 
ATOM      2  C1  UNL d   1      -0.596  -0.205   2.710  0.00  0.00     0.062 A 
ATOM      3  C2  UNL d   1      -0.395  -1.221   1.781  0.00  0.00     0.162 A 
ATOM      4  C3  UNL d   1      -1.295  -1.403   0.731  0.00  0.00    -0.034 A 
ATOM      5  C4  UNL d   1      -2.399  -0.555   0.626  0.00  0.00     0.162 A 
ATOM      6  C5  UNL d   1      -2.596   0.460   1.558  0.00  0.00     0.062 A 
ATOM      7  F   UNL d   1      -3.658   1.270   1.448  0.00  0.00    -0.097 F 
ATOM      8  F1  UNL d   1      -3.284  -0.702  -0.371  0.00  0.00    -0.096 F 
ATOM      9  I   UNL d   1      -0.998  -2.922  -0.661  0.00  0.00    -0.060 I 
ATOM     10  F2  UNL d   1       0.676  -2.018   1.913  0.00  0.00    -0.096 F 
ATOM     11  F3  UNL d   1       0.274  -0.038   3.717  0.00  0.00    -0.097 F 
ATOM     12  F4  UNL d   1      -1.887   1.612   3.495  0.00  0.00    -0.092 F 
ENDROOT
TORSDOF 0
ENDMDL
