MODEL 1
REMARK minimizedAffinity 6.4395647
REMARK minimizedRMSD -1
REMARK  0 active torsions:
REMARK  status: ('A' for Active; 'I' for Inactive)
ROOT
ATOM      1  C   UNL d   1      -0.211  -0.220  -4.830  0.00  0.00     0.124 A 
ATOM      2  C1  UNL d   1      -0.258   0.471  -3.628  0.00  0.00     0.062 A 
ATOM      3  C2  UNL d   1      -0.454  -0.215  -2.433  0.00  0.00     0.162 A 
ATOM      4  C3  UNL d   1      -0.603  -1.602  -2.434  0.00  0.00    -0.034 A 
ATOM      5  C4  UNL d   1      -0.555  -2.290  -3.648  0.00  0.00     0.162 A 
ATOM      6  C5  UNL d   1      -0.359  -1.600  -4.839  0.00  0.00     0.062 A 
ATOM      7  F   UNL d   1      -0.313  -2.270  -6.000  0.00  0.00    -0.097 F 
ATOM      8  F1  UNL d   1      -0.694  -3.624  -3.685  0.00  0.00    -0.096 F 
ATOM      9  I   UNL d   1      -0.896  -2.632  -0.650  0.00  0.00    -0.060 I 
ATOM     10  F2  UNL d   1      -0.496   0.479  -1.286  0.00  0.00    -0.096 F 
ATOM     11  F3  UNL d   1      -0.116   1.805  -3.617  0.00  0.00    -0.097 F 
ATOM     12  F4  UNL d   1      -0.023   0.443  -5.979  0.00  0.00    -0.092 F 
ENDROOT
TORSDOF 0
ENDMDL
