MODEL 1
REMARK minimizedAffinity -0.287160516
REMARK minimizedRMSD -1
REMARK  0 active torsions:
REMARK  status: ('A' for Active; 'I' for Inactive)
ROOT
ATOM      1  C   UNL d   1      -0.562  -2.305  -3.362  0.00  0.00     0.124 A 
ATOM      2  C1  UNL d   1       0.538  -2.293  -4.208  0.00  0.00     0.062 A 
ATOM      3  C2  UNL d   1       1.814  -2.523  -3.702  0.00  0.00     0.162 A 
ATOM      4  C3  UNL d   1       1.997  -2.766  -2.341  0.00  0.00    -0.034 A 
ATOM      5  C4  UNL d   1       0.887  -2.775  -1.495  0.00  0.00     0.162 A 
ATOM      6  C5  UNL d   1      -0.386  -2.546  -2.006  0.00  0.00     0.062 A 
ATOM      7  F   UNL d   1      -1.448  -2.557  -1.187  0.00  0.00    -0.097 F 
ATOM      8  F1  UNL d   1       1.027  -3.007  -0.181  0.00  0.00    -0.096 F 
ATOM      9  I   UNL d   1       3.904  -3.110  -1.579  0.00  0.00    -0.060 I 
ATOM     10  F2  UNL d   1       2.858  -2.506  -4.543  0.00  0.00    -0.096 F 
ATOM     11  F3  UNL d   1       0.371  -2.060  -5.518  0.00  0.00    -0.097 F 
ATOM     12  F4  UNL d   1      -1.788  -2.083  -3.852  0.00  0.00    -0.092 F 
ENDROOT
TORSDOF 0
ENDMDL
