MODEL 1
REMARK minimizedAffinity 2.69879389
REMARK minimizedRMSD -1
REMARK  0 active torsions:
REMARK  status: ('A' for Active; 'I' for Inactive)
ROOT
ATOM      1  C   UNL d   1      -0.746  -0.229  -4.724  0.00  0.00     0.124 A 
ATOM      2  C1  UNL d   1      -0.658  -1.611  -4.819  0.00  0.00     0.062 A 
ATOM      3  C2  UNL d   1      -0.852  -2.404  -3.692  0.00  0.00     0.162 A 
ATOM      4  C3  UNL d   1      -1.138  -1.817  -2.459  0.00  0.00    -0.034 A 
ATOM      5  C4  UNL d   1      -1.225  -0.427  -2.371  0.00  0.00     0.162 A 
ATOM      6  C5  UNL d   1      -1.030   0.362  -3.501  0.00  0.00     0.062 A 
ATOM      7  F   UNL d   1      -1.116   1.697  -3.407  0.00  0.00    -0.097 F 
ATOM      8  F1  UNL d   1      -1.498   0.171  -1.202  0.00  0.00    -0.096 F 
ATOM      9  I   UNL d   1      -1.429  -2.999  -0.771  0.00  0.00    -0.060 I 
ATOM     10  F2  UNL d   1      -0.760  -3.737  -3.813  0.00  0.00    -0.096 F 
ATOM     11  F3  UNL d   1      -0.383  -2.184  -6.000  0.00  0.00    -0.097 F 
ATOM     12  F4  UNL d   1      -0.558   0.531  -5.810  0.00  0.00    -0.092 F 
ENDROOT
TORSDOF 0
ENDMDL
