MODEL 1
REMARK minimizedAffinity 8.75524139
REMARK minimizedRMSD -1
REMARK  0 active torsions:
REMARK  status: ('A' for Active; 'I' for Inactive)
ROOT
ATOM      1  C   UNL d   1      -0.512  -1.027  -5.737  0.00  0.00     0.124 A 
ATOM      2  C1  UNL d   1      -1.452  -2.038  -5.586  0.00  0.00     0.062 A 
ATOM      3  C2  UNL d   1      -2.779  -1.723  -5.312  0.00  0.00     0.162 A 
ATOM      4  C3  UNL d   1      -3.176  -0.391  -5.189  0.00  0.00    -0.034 A 
ATOM      5  C4  UNL d   1      -2.225   0.619  -5.342  0.00  0.00     0.162 A 
ATOM      6  C5  UNL d   1      -0.899   0.300  -5.615  0.00  0.00     0.062 A 
ATOM      7  F   UNL d   1       0.007   1.277  -5.761  0.00  0.00    -0.097 F 
ATOM      8  F1  UNL d   1      -2.572   1.910  -5.230  0.00  0.00    -0.096 F 
ATOM      9  I   UNL d   1      -5.161   0.083  -4.780  0.00  0.00    -0.060 I 
ATOM     10  F2  UNL d   1      -3.666  -2.719  -5.171  0.00  0.00    -0.096 F 
ATOM     11  F3  UNL d   1      -1.079  -3.320  -5.703  0.00  0.00    -0.097 F 
ATOM     12  F4  UNL d   1       0.765  -1.333  -6.000  0.00  0.00    -0.092 F 
ENDROOT
TORSDOF 0
ENDMDL
