MODEL 1
REMARK minimizedAffinity 4.1609478
REMARK minimizedRMSD -1
REMARK  0 active torsions:
REMARK  status: ('A' for Active; 'I' for Inactive)
ROOT
ATOM      1  C   UNL d   1       0.089  -1.982  -2.392  0.00  0.00     0.124 A 
ATOM      2  C1  UNL d   1       0.372  -2.325  -3.706  0.00  0.00     0.062 A 
ATOM      3  C2  UNL d   1       0.094  -1.434  -4.738  0.00  0.00     0.162 A 
ATOM      4  C3  UNL d   1      -0.471  -0.189  -4.460  0.00  0.00    -0.034 A 
ATOM      5  C4  UNL d   1      -0.754   0.149  -3.135  0.00  0.00     0.162 A 
ATOM      6  C5  UNL d   1      -0.473  -0.746  -2.107  0.00  0.00     0.062 A 
ATOM      7  F   UNL d   1      -0.747  -0.412  -0.838  0.00  0.00    -0.097 F 
ATOM      8  F1  UNL d   1      -1.297   1.337  -2.831  0.00  0.00    -0.096 F 
ATOM      9  I   UNL d   1      -0.889   1.147  -6.000  0.00  0.00    -0.060 I 
ATOM     10  F2  UNL d   1       0.378  -1.792  -5.999  0.00  0.00    -0.096 F 
ATOM     11  F3  UNL d   1       0.915  -3.519  -3.984  0.00  0.00    -0.097 F 
ATOM     12  F4  UNL d   1       0.358  -2.842  -1.401  0.00  0.00    -0.092 F 
ENDROOT
TORSDOF 0
ENDMDL
