MODEL 1
REMARK minimizedAffinity 14.4801168
REMARK minimizedRMSD -1
REMARK  0 active torsions:
REMARK  status: ('A' for Active; 'I' for Inactive)
ROOT
ATOM      1  C   UNL d   1      -0.651  -0.440   2.357  0.00  0.00     0.124 A 
ATOM      2  C1  UNL d   1      -0.365  -1.570   1.605  0.00  0.00     0.062 A 
ATOM      3  C2  UNL d   1      -1.316  -2.088   0.730  0.00  0.00     0.162 A 
ATOM      4  C3  UNL d   1      -2.562  -1.475   0.602  0.00  0.00    -0.034 A 
ATOM      5  C4  UNL d   1      -2.843  -0.338   1.362  0.00  0.00     0.162 A 
ATOM      6  C5  UNL d   1      -1.889   0.175   2.235  0.00  0.00     0.062 A 
ATOM      7  F   UNL d   1      -2.167   1.268   2.961  0.00  0.00    -0.097 F 
ATOM      8  F1  UNL d   1      -4.031   0.276   1.264  0.00  0.00    -0.096 F 
ATOM      9  I   UNL d   1      -3.986  -2.246  -0.705  0.00  0.00    -0.060 I 
ATOM     10  F2  UNL d   1      -1.012  -3.182   0.016  0.00  0.00    -0.096 F 
ATOM     11  F3  UNL d   1       0.830  -2.167   1.722  0.00  0.00    -0.097 F 
ATOM     12  F4  UNL d   1       0.265   0.056   3.199  0.00  0.00    -0.092 F 
ENDROOT
TORSDOF 0
ENDMDL
