MODEL 1
REMARK minimizedAffinity 14.9514818
REMARK minimizedRMSD -1
REMARK  1 active torsions:
REMARK  status: ('A' for Active; 'I' for Inactive)
REMARK    1  A    between atoms: C1_2  and  C2_3 
ROOT
ATOM      1  C2  UNL d   1      -4.920  -3.770   2.138  0.00  0.00    -0.073 A 
ATOM      2  C3  UNL d   1      -3.673  -4.321   2.452  0.00  0.00    -0.002 A 
ATOM      3  C4  UNL d   1      -3.185  -5.415   1.736  0.00  0.00     0.004 A 
ATOM      4  C5  UNL d   1      -3.935  -5.964   0.696  0.00  0.00    -0.004 A 
ATOM      5  C6  UNL d   1      -5.179  -5.420   0.359  0.00  0.00    -0.075 A 
ATOM      6  C7  UNL d   1      -5.999  -6.000  -0.756  0.00  0.00     0.076 C 
ATOM      7  C8  UNL d   1      -5.663  -4.323   1.085  0.00  0.00     0.001 A 
ENDROOT
BRANCH   1   8
ATOM      8  C1  UNL d   1      -5.448  -2.585   2.904  0.00  0.00     0.053 C 
ATOM      9  C   UNL d   1      -4.333  -1.796   3.572  0.00  0.00     0.018 C 
ENDBRANCH   1   8
TORSDOF 1
ENDMDL
