MODEL 1
REMARK minimizedAffinity 8.22493362
REMARK minimizedRMSD -1
REMARK  1 active torsions:
REMARK  status: ('A' for Active; 'I' for Inactive)
REMARK    1  A    between atoms: C1_2  and  C2_3 
ROOT
ATOM      1  C2  UNL d   1       2.257  -1.359  -4.086  0.00  0.00    -0.073 A 
ATOM      2  C3  UNL d   1       2.031   0.021  -4.040  0.00  0.00    -0.002 A 
ATOM      3  C4  UNL d   1       1.845   0.664  -2.815  0.00  0.00     0.004 A 
ATOM      4  C5  UNL d   1       1.888  -0.064  -1.626  0.00  0.00    -0.004 A 
ATOM      5  C6  UNL d   1       2.124  -1.443  -1.652  0.00  0.00    -0.075 A 
ATOM      6  C7  UNL d   1       2.172  -2.241  -0.382  0.00  0.00     0.076 C 
ATOM      7  C8  UNL d   1       2.308  -2.081  -2.885  0.00  0.00     0.001 A 
ENDROOT
BRANCH   1   8
ATOM      8  C1  UNL d   1       2.465  -2.057  -5.406  0.00  0.00     0.053 C 
ATOM      9  C   UNL d   1       3.926  -2.053  -5.828  0.00  0.00     0.018 C 
ENDBRANCH   1   8
TORSDOF 1
ENDMDL
