MODEL 1
REMARK minimizedAffinity 22.9939442
REMARK minimizedRMSD -1
REMARK  1 active torsions:
REMARK  status: ('A' for Active; 'I' for Inactive)
REMARK    1  A    between atoms: C1_2  and  C2_3 
ROOT
ATOM      1  C2  UNL d   1      -3.976   2.305   3.726  0.00  0.00    -0.073 A 
ATOM      2  C3  UNL d   1      -4.297   1.056   3.183  0.00  0.00    -0.002 A 
ATOM      3  C4  UNL d   1      -3.393   0.398   2.347  0.00  0.00     0.004 A 
ATOM      4  C5  UNL d   1      -2.159   0.977   2.053  0.00  0.00    -0.004 A 
ATOM      5  C6  UNL d   1      -1.815   2.219   2.596  0.00  0.00    -0.075 A 
ATOM      6  C7  UNL d   1      -0.493   2.857   2.287  0.00  0.00     0.076 C 
ATOM      7  C8  UNL d   1      -2.729   2.875   3.432  0.00  0.00     0.001 A 
ENDROOT
BRANCH   1   8
ATOM      8  C1  UNL d   1      -4.946   3.017   4.633  0.00  0.00     0.053 C 
ATOM      9  C   UNL d   1      -4.341   3.308   5.998  0.00  0.00     0.018 C 
ENDBRANCH   1   8
TORSDOF 1
ENDMDL
