MODEL 1
REMARK minimizedAffinity 12.1572104
REMARK minimizedRMSD -1
REMARK  1 active torsions:
REMARK  status: ('A' for Active; 'I' for Inactive)
REMARK    1  A    between atoms: C1_2  and  C2_3 
ROOT
ATOM      1  C2  UNL d   1       3.436  -2.001  -1.031  0.00  0.00    -0.073 A 
ATOM      2  C3  UNL d   1       2.486  -1.810  -2.041  0.00  0.00    -0.002 A 
ATOM      3  C4  UNL d   1       2.038  -0.526  -2.354  0.00  0.00     0.004 A 
ATOM      4  C5  UNL d   1       2.539   0.580  -1.666  0.00  0.00    -0.004 A 
ATOM      5  C6  UNL d   1       3.497   0.410  -0.662  0.00  0.00    -0.075 A 
ATOM      6  C7  UNL d   1       4.044   1.589   0.089  0.00  0.00     0.076 C 
ATOM      7  C8  UNL d   1       3.940  -0.882  -0.351  0.00  0.00     0.001 A 
ENDROOT
BRANCH   1   8
ATOM      8  C1  UNL d   1       3.927  -3.385  -0.694  0.00  0.00     0.053 C 
ATOM      9  C   UNL d   1       2.788  -4.386  -0.597  0.00  0.00     0.018 C 
ENDBRANCH   1   8
TORSDOF 1
ENDMDL
