MODEL 1
REMARK minimizedAffinity 7.70517826
REMARK minimizedRMSD -1
REMARK  1 active torsions:
REMARK  status: ('A' for Active; 'I' for Inactive)
REMARK    1  A    between atoms: C1_2  and  C2_3 
ROOT
ATOM      1  C2  UNL d   1       4.202  -1.376  -0.618  0.00  0.00    -0.073 A 
ATOM      2  C3  UNL d   1       3.023  -1.272  -1.365  0.00  0.00    -0.002 A 
ATOM      3  C4  UNL d   1       2.667  -0.059  -1.955  0.00  0.00     0.004 A 
ATOM      4  C5  UNL d   1       3.488   1.060  -1.811  0.00  0.00    -0.004 A 
ATOM      5  C6  UNL d   1       4.677   0.972  -1.079  0.00  0.00    -0.075 A 
ATOM      6  C7  UNL d   1       5.570   2.166  -0.913  0.00  0.00     0.076 C 
ATOM      7  C8  UNL d   1       5.025  -0.249  -0.486  0.00  0.00     0.001 A 
ENDROOT
BRANCH   1   8
ATOM      8  C1  UNL d   1       4.593  -2.686   0.016  0.00  0.00     0.053 C 
ATOM      9  C   UNL d   1       5.999  -3.111  -0.376  0.00  0.00     0.018 C 
ENDBRANCH   1   8
TORSDOF 1
ENDMDL
