MODEL 1
REMARK minimizedAffinity 9.53779125
REMARK minimizedRMSD -1
REMARK  1 active torsions:
REMARK  status: ('A' for Active; 'I' for Inactive)
REMARK    1  A    between atoms: C1_2  and  C2_3 
ROOT
ATOM      1  C2  UNL d   1       1.506   1.462   0.888  0.00  0.00    -0.073 A 
ATOM      2  C3  UNL d   1       1.885   2.682   0.316  0.00  0.00    -0.002 A 
ATOM      3  C4  UNL d   1       2.294   2.739  -1.017  0.00  0.00     0.004 A 
ATOM      4  C5  UNL d   1       2.321   1.580  -1.793  0.00  0.00    -0.004 A 
ATOM      5  C6  UNL d   1       1.934   0.354  -1.243  0.00  0.00    -0.075 A 
ATOM      6  C7  UNL d   1       1.960  -0.902  -2.064  0.00  0.00     0.076 C 
ATOM      7  C8  UNL d   1       1.528   0.304   0.097  0.00  0.00     0.001 A 
ENDROOT
BRANCH   1   8
ATOM      8  C1  UNL d   1       1.058   1.397   2.325  0.00  0.00     0.053 C 
ATOM      9  C   UNL d   1      -0.359   1.918   2.504  0.00  0.00     0.018 C 
ENDBRANCH   1   8
TORSDOF 1
ENDMDL
