MODEL 1
REMARK minimizedAffinity 17.1501694
REMARK minimizedRMSD -1
REMARK  1 active torsions:
REMARK  status: ('A' for Active; 'I' for Inactive)
REMARK    1  A    between atoms: C1_2  and  C2_3 
ROOT
ATOM      1  C2  UNL d   1      -0.864   0.896   2.610  0.00  0.00    -0.073 A 
ATOM      2  C3  UNL d   1       0.284   0.460   1.938  0.00  0.00    -0.002 A 
ATOM      3  C4  UNL d   1       1.530   0.511   2.564  0.00  0.00     0.004 A 
ATOM      4  C5  UNL d   1       1.641   0.990   3.869  0.00  0.00    -0.004 A 
ATOM      5  C6  UNL d   1       0.504   1.419   4.562  0.00  0.00    -0.075 A 
ATOM      6  C7  UNL d   1       0.607   1.940   5.965  0.00  0.00     0.076 C 
ATOM      7  C8  UNL d   1      -0.743   1.368   3.925  0.00  0.00     0.001 A 
ENDROOT
BRANCH   1   8
ATOM      8  C1  UNL d   1      -2.212   0.837   1.941  0.00  0.00     0.053 C 
ATOM      9  C   UNL d   1      -3.341   0.666   2.945  0.00  0.00     0.018 C 
ENDBRANCH   1   8
TORSDOF 1
ENDMDL
