MODEL 1
REMARK minimizedAffinity 16.1688747
REMARK minimizedRMSD -1
REMARK  1 active torsions:
REMARK  status: ('A' for Active; 'I' for Inactive)
REMARK    1  A    between atoms: C1_2  and  C2_3 
ROOT
ATOM      1  C2  UNL d   1       1.205   4.174   1.258  0.00  0.00    -0.073 A 
ATOM      2  C3  UNL d   1       2.398   3.482   1.493  0.00  0.00    -0.002 A 
ATOM      3  C4  UNL d   1       2.377   2.231   2.110  0.00  0.00     0.004 A 
ATOM      4  C5  UNL d   1       1.165   1.656   2.493  0.00  0.00    -0.004 A 
ATOM      5  C6  UNL d   1      -0.039   2.327   2.256  0.00  0.00    -0.075 A 
ATOM      6  C7  UNL d   1      -1.351   1.725   2.663  0.00  0.00     0.076 C 
ATOM      7  C8  UNL d   1      -0.010   3.585   1.638  0.00  0.00     0.001 A 
ENDROOT
BRANCH   1   8
ATOM      8  C1  UNL d   1       1.222   5.522   0.585  0.00  0.00     0.053 C 
ATOM      9  C   UNL d   1       1.516   5.414  -0.902  0.00  0.00     0.018 C 
ENDBRANCH   1   8
TORSDOF 1
ENDMDL
