MODEL 1
REMARK minimizedAffinity 11.1729441
REMARK minimizedRMSD -1
REMARK  1 active torsions:
REMARK  status: ('A' for Active; 'I' for Inactive)
REMARK    1  A    between atoms: C1_2  and  C2_3 
ROOT
ATOM      1  C2  UNL d   1      -2.994   4.632  -5.275  0.00  0.00    -0.073 A 
ATOM      2  C3  UNL d   1      -1.850   4.986  -6.000  0.00  0.00    -0.002 A 
ATOM      3  C4  UNL d   1      -0.717   4.173  -5.971  0.00  0.00     0.004 A 
ATOM      4  C5  UNL d   1      -0.717   2.995  -5.224  0.00  0.00    -0.004 A 
ATOM      5  C6  UNL d   1      -1.854   2.617  -4.503  0.00  0.00    -0.075 A 
ATOM      6  C7  UNL d   1      -1.870   1.354  -3.693  0.00  0.00     0.076 C 
ATOM      7  C8  UNL d   1      -2.988   3.441  -4.535  0.00  0.00     0.001 A 
ENDROOT
BRANCH   1   8
ATOM      8  C1  UNL d   1      -4.222   5.504  -5.309  0.00  0.00     0.053 C 
ATOM      9  C   UNL d   1      -5.390   4.817  -5.999  0.00  0.00     0.018 C 
ENDBRANCH   1   8
TORSDOF 1
ENDMDL
