MODEL 1
REMARK minimizedAffinity 11.6574078
REMARK minimizedRMSD -1
REMARK  1 active torsions:
REMARK  status: ('A' for Active; 'I' for Inactive)
REMARK    1  A    between atoms: C1_2  and  C2_3 
ROOT
ATOM      1  C2  UNL d   1       2.143  -0.282  -0.391  0.00  0.00    -0.073 A 
ATOM      2  C3  UNL d   1       1.351  -0.342  -1.544  0.00  0.00    -0.002 A 
ATOM      3  C4  UNL d   1       1.123  -1.564  -2.179  0.00  0.00     0.004 A 
ATOM      4  C5  UNL d   1       1.678  -2.736  -1.667  0.00  0.00    -0.004 A 
ATOM      5  C6  UNL d   1       2.462  -2.698  -0.509  0.00  0.00    -0.075 A 
ATOM      6  C7  UNL d   1       3.067  -3.951   0.054  0.00  0.00     0.076 C 
ATOM      7  C8  UNL d   1       2.688  -1.468   0.122  0.00  0.00     0.001 A 
ENDROOT
BRANCH   1   8
ATOM      8  C1  UNL d   1       2.386   1.033   0.302  0.00  0.00     0.053 C 
ATOM      9  C   UNL d   1       3.845   1.454   0.229  0.00  0.00     0.018 C 
ENDBRANCH   1   8
TORSDOF 1
ENDMDL
