MODEL 1
REMARK minimizedAffinity 17.4814587
REMARK minimizedRMSD -1
REMARK  1 active torsions:
REMARK  status: ('A' for Active; 'I' for Inactive)
REMARK    1  A    between atoms: C1_2  and  C2_3 
ROOT
ATOM      1  C2  UNL d   1      -3.938  -3.373  -5.050  0.00  0.00    -0.073 A 
ATOM      2  C3  UNL d   1      -4.056  -4.397  -5.997  0.00  0.00    -0.002 A 
ATOM      3  C4  UNL d   1      -3.333  -5.581  -5.847  0.00  0.00     0.004 A 
ATOM      4  C5  UNL d   1      -2.493  -5.758  -4.748  0.00  0.00    -0.004 A 
ATOM      5  C6  UNL d   1      -2.372  -4.751  -3.785  0.00  0.00    -0.075 A 
ATOM      6  C7  UNL d   1      -1.470  -4.924  -2.598  0.00  0.00     0.076 C 
ATOM      7  C8  UNL d   1      -3.098  -3.563  -3.943  0.00  0.00     0.001 A 
ENDROOT
BRANCH   1   8
ATOM      8  C1  UNL d   1      -4.721  -2.095  -5.203  0.00  0.00     0.053 C 
ATOM      9  C   UNL d   1      -6.000  -2.301  -6.000  0.00  0.00     0.018 C 
ENDBRANCH   1   8
TORSDOF 1
ENDMDL
