MODEL 1
REMARK minimizedAffinity -4.45463037
REMARK minimizedRMSD -1
REMARK  0 active torsions:
REMARK  status: ('A' for Active; 'I' for Inactive)
ROOT
ATOM      1  C1  BNZ d   1       0.713   0.791   1.439  0.00  0.00     0.000 A 
ATOM      2  C2  BNZ d   1      -0.076   1.309   2.432  0.00  0.00     0.000 A 
ATOM      3  C3  BNZ d   1      -1.438   1.223   2.359  0.00  0.00     0.000 A 
ATOM      4  C4  BNZ d   1      -2.010   0.656   1.278  0.00  0.00     0.000 A 
ATOM      5  C5  BNZ d   1      -1.228   0.138   0.264  0.00  0.00     0.000 A 
ATOM      6  C6  BNZ d   1       0.143   0.192   0.359  0.00  0.00     0.000 A 
ENDROOT
TORSDOF 0
ENDMDL
