MODEL 1
REMARK minimizedAffinity -2.61339593
REMARK minimizedRMSD -1
REMARK  0 active torsions:
REMARK  status: ('A' for Active; 'I' for Inactive)
ROOT
ATOM      1  C1  BNZ d   1      -0.442   0.686   1.199  0.00  0.00     0.000 A 
ATOM      2  C2  BNZ d   1       0.794   0.277   0.773  0.00  0.00     0.000 A 
ATOM      3  C3  BNZ d   1       0.945  -0.371  -0.420  0.00  0.00     0.000 A 
ATOM      4  C4  BNZ d   1      -0.144  -0.645  -1.168  0.00  0.00     0.000 A 
ATOM      5  C5  BNZ d   1      -1.398  -0.248  -0.748  0.00  0.00     0.000 A 
ATOM      6  C6  BNZ d   1      -1.541   0.439   0.436  0.00  0.00     0.000 A 
ENDROOT
TORSDOF 0
ENDMDL
