MODEL 1
REMARK minimizedAffinity -4.88063526
REMARK minimizedRMSD -1
REMARK  0 active torsions:
REMARK  status: ('A' for Active; 'I' for Inactive)
ROOT
ATOM      1  C1  BNZ d   1      -1.534   0.221   0.307  0.00  0.00     0.000 A 
ATOM      2  C2  BNZ d   1      -1.498   0.852   1.522  0.00  0.00     0.000 A 
ATOM      3  C3  BNZ d   1      -0.307   1.192   2.100  0.00  0.00     0.000 A 
ATOM      4  C4  BNZ d   1       0.847   0.866   1.481  0.00  0.00     0.000 A 
ATOM      5  C5  BNZ d   1       0.827   0.222   0.261  0.00  0.00     0.000 A 
ATOM      6  C6  BNZ d   1      -0.374  -0.085  -0.336  0.00  0.00     0.000 A 
ENDROOT
TORSDOF 0
ENDMDL
