MODEL 1
REMARK minimizedAffinity -4.02396774
REMARK minimizedRMSD -1
REMARK  0 active torsions:
REMARK  status: ('A' for Active; 'I' for Inactive)
ROOT
ATOM      1  C1  BNZ d   1      -0.164   1.092   3.412  0.00  0.00     0.000 A 
ATOM      2  C2  BNZ d   1       1.117   0.638   3.249  0.00  0.00     0.000 A 
ATOM      3  C3  BNZ d   1       1.597   0.326   2.008  0.00  0.00     0.000 A 
ATOM      4  C4  BNZ d   1       0.783   0.430   0.937  0.00  0.00     0.000 A 
ATOM      5  C5  BNZ d   1      -0.515   0.878   1.087  0.00  0.00     0.000 A 
ATOM      6  C6  BNZ d   1      -0.981   1.228   2.333  0.00  0.00     0.000 A 
ENDROOT
TORSDOF 0
ENDMDL
