MODEL 1
REMARK minimizedAffinity -3.6173439
REMARK minimizedRMSD -1
REMARK  0 active torsions:
REMARK  status: ('A' for Active; 'I' for Inactive)
ROOT
ATOM      1  C1  BNZ d   1      -0.265  -0.050   0.153  0.00  0.00     0.000 A 
ATOM      2  C2  BNZ d   1       0.718   0.174   1.080  0.00  0.00     0.000 A 
ATOM      3  C3  BNZ d   1       0.429   0.766   2.278  0.00  0.00     0.000 A 
ATOM      4  C4  BNZ d   1      -0.833   1.168   2.531  0.00  0.00     0.000 A 
ATOM      5  C5  BNZ d   1      -1.834   0.957   1.603  0.00  0.00     0.000 A 
ATOM      6  C6  BNZ d   1      -1.546   0.326   0.415  0.00  0.00     0.000 A 
ENDROOT
TORSDOF 0
ENDMDL
