MODEL 1
REMARK minimizedAffinity -4.37372589
REMARK minimizedRMSD -1
REMARK  0 active torsions:
REMARK  status: ('A' for Active; 'I' for Inactive)
ROOT
ATOM      1  C1  BNZ d   1      -1.838   0.578   1.319  0.00  0.00     0.000 A 
ATOM      2  C2  BNZ d   1      -1.903  -0.154   0.164  0.00  0.00     0.000 A 
ATOM      3  C3  BNZ d   1      -0.764  -0.556  -0.476  0.00  0.00     0.000 A 
ATOM      4  C4  BNZ d   1       0.437  -0.192   0.018  0.00  0.00     0.000 A 
ATOM      5  C5  BNZ d   1       0.519   0.554   1.177  0.00  0.00     0.000 A 
ATOM      6  C6  BNZ d   1      -0.629   0.924   1.839  0.00  0.00     0.000 A 
ENDROOT
TORSDOF 0
ENDMDL
