MODEL 1
REMARK minimizedAffinity -4.59950304
REMARK minimizedRMSD -1
REMARK  0 active torsions:
REMARK  status: ('A' for Active; 'I' for Inactive)
ROOT
ATOM      1  C1  BNZ d   1       0.401   1.333   1.521  0.00  0.00     0.000 A 
ATOM      2  C2  BNZ d   1       0.598   0.527   0.432  0.00  0.00     0.000 A 
ATOM      3  C3  BNZ d   1      -0.436  -0.187  -0.106  0.00  0.00     0.000 A 
ATOM      4  C4  BNZ d   1      -1.654  -0.126   0.469  0.00  0.00     0.000 A 
ATOM      5  C5  BNZ d   1      -1.866   0.675   1.574  0.00  0.00     0.000 A 
ATOM      6  C6  BNZ d   1      -0.832   1.422   2.089  0.00  0.00     0.000 A 
ENDROOT
TORSDOF 0
ENDMDL
