MODEL 1
REMARK minimizedAffinity -4.02020597
REMARK minimizedRMSD -1
REMARK  0 active torsions:
REMARK  status: ('A' for Active; 'I' for Inactive)
ROOT
ATOM      1  C1  BNZ d   1       0.401   0.972   1.872  0.00  0.00     0.000 A 
ATOM      2  C2  BNZ d   1      -0.894   1.093   2.300  0.00  0.00     0.000 A 
ATOM      3  C3  BNZ d   1      -1.928   0.606   1.549  0.00  0.00     0.000 A 
ATOM      4  C4  BNZ d   1      -1.668   0.036   0.354  0.00  0.00     0.000 A 
ATOM      5  C5  BNZ d   1      -0.368  -0.085  -0.095  0.00  0.00     0.000 A 
ATOM      6  C6  BNZ d   1       0.672   0.372   0.681  0.00  0.00     0.000 A 
ENDROOT
TORSDOF 0
ENDMDL
