MODEL 1
REMARK minimizedAffinity -4.96302605
REMARK minimizedRMSD -1
REMARK  0 active torsions:
REMARK  status: ('A' for Active; 'I' for Inactive)
ROOT
ATOM      1  C1  BNZ d   1      -0.064   1.104   2.006  0.00  0.00     0.000 A 
ATOM      2  C2  BNZ d   1       1.000   0.492   1.399  0.00  0.00     0.000 A 
ATOM      3  C3  BNZ d   1       0.857  -0.118   0.185  0.00  0.00     0.000 A 
ATOM      4  C4  BNZ d   1      -0.356  -0.150  -0.402  0.00  0.00     0.000 A 
ATOM      5  C5  BNZ d   1      -1.441   0.454   0.201  0.00  0.00     0.000 A 
ATOM      6  C6  BNZ d   1      -1.285   1.101   1.406  0.00  0.00     0.000 A 
ENDROOT
TORSDOF 0
ENDMDL
