MODEL 1
REMARK minimizedAffinity -3.66160083
REMARK minimizedRMSD -1
REMARK  0 active torsions:
REMARK  status: ('A' for Active; 'I' for Inactive)
ROOT
ATOM      1  C1  BNZ d   1      -0.465  -0.103  -0.641  0.00  0.00     0.000 A 
ATOM      2  C2  BNZ d   1      -1.386   0.631   0.058  0.00  0.00     0.000 A 
ATOM      3  C3  BNZ d   1      -1.179   0.944   1.373  0.00  0.00     0.000 A 
ATOM      4  C4  BNZ d   1      -0.073   0.488   1.996  0.00  0.00     0.000 A 
ATOM      5  C5  BNZ d   1       0.860  -0.261   1.307  0.00  0.00     0.000 A 
ATOM      6  C6  BNZ d   1       0.667  -0.541  -0.026  0.00  0.00     0.000 A 
ENDROOT
TORSDOF 0
ENDMDL
