MODEL 1
REMARK minimizedAffinity -1.62494481
REMARK minimizedRMSD -1
REMARK  0 active torsions:
REMARK  status: ('A' for Active; 'I' for Inactive)
ROOT
ATOM      1  C1  BNZ d   1       3.194   0.978  -3.302  0.00  0.00     0.000 A 
ATOM      2  C2  BNZ d   1       1.930   1.432  -3.037  0.00  0.00     0.000 A 
ATOM      3  C3  BNZ d   1       0.895   1.158  -3.887  0.00  0.00     0.000 A 
ATOM      4  C4  BNZ d   1       1.134   0.466  -5.020  0.00  0.00     0.000 A 
ATOM      5  C5  BNZ d   1       2.405   0.010  -5.306  0.00  0.00     0.000 A 
ATOM      6  C6  BNZ d   1       3.436   0.254  -4.429  0.00  0.00     0.000 A 
ENDROOT
TORSDOF 0
ENDMDL
