MODEL 1
REMARK minimizedAffinity -3.99559903
REMARK minimizedRMSD -1
REMARK  0 active torsions:
REMARK  status: ('A' for Active; 'I' for Inactive)
ROOT
ATOM      1  C1  BNZ d   1      -1.255   0.081   0.192  0.00  0.00     0.000 A 
ATOM      2  C2  BNZ d   1      -1.205   0.748   1.387  0.00  0.00     0.000 A 
ATOM      3  C3  BNZ d   1      -0.019   0.918   2.046  0.00  0.00     0.000 A 
ATOM      4  C4  BNZ d   1       1.107   0.386   1.529  0.00  0.00     0.000 A 
ATOM      5  C5  BNZ d   1       1.072  -0.297   0.330  0.00  0.00     0.000 A 
ATOM      6  C6  BNZ d   1      -0.117  -0.432  -0.349  0.00  0.00     0.000 A 
ENDROOT
TORSDOF 0
ENDMDL
