MODEL 1
REMARK minimizedAffinity -4.1534977
REMARK minimizedRMSD -1
REMARK  0 active torsions:
REMARK  status: ('A' for Active; 'I' for Inactive)
ROOT
ATOM      1  C1  BNZ d   1      -0.737   0.933   1.387  0.00  0.00     0.000 A 
ATOM      2  C2  BNZ d   1      -1.788   0.525   0.610  0.00  0.00     0.000 A 
ATOM      3  C3  BNZ d   1      -1.580  -0.243  -0.502  0.00  0.00     0.000 A 
ATOM      4  C4  BNZ d   1      -0.320  -0.566  -0.858  0.00  0.00     0.000 A 
ATOM      5  C5  BNZ d   1       0.751  -0.155  -0.090  0.00  0.00     0.000 A 
ATOM      6  C6  BNZ d   1       0.535   0.585   1.051  0.00  0.00     0.000 A 
ENDROOT
TORSDOF 0
ENDMDL
