MODEL 1
REMARK minimizedAffinity -4.21468925
REMARK minimizedRMSD -1
REMARK  0 active torsions:
REMARK  status: ('A' for Active; 'I' for Inactive)
ROOT
ATOM      1  C1  BNZ d   1       0.803   0.734   1.121  0.00  0.00     0.000 A 
ATOM      2  C2  BNZ d   1       0.511   0.022  -0.012  0.00  0.00     0.000 A 
ATOM      3  C3  BNZ d   1      -0.785  -0.165  -0.406  0.00  0.00     0.000 A 
ATOM      4  C4  BNZ d   1      -1.786   0.324   0.354  0.00  0.00     0.000 A 
ATOM      5  C5  BNZ d   1      -1.508   1.035   1.504  0.00  0.00     0.000 A 
ATOM      6  C6  BNZ d   1      -0.202   1.256   1.876  0.00  0.00     0.000 A 
ENDROOT
TORSDOF 0
ENDMDL
