MODEL 1
REMARK minimizedAffinity -1.69780695
REMARK minimizedRMSD -1
REMARK  0 active torsions:
REMARK  status: ('A' for Active; 'I' for Inactive)
ROOT
ATOM      1  C   UNL d   1       1.204  -0.532  -1.207  0.00  0.00     0.023 A 
ATOM      2  C1  UNL d   1       0.832  -1.084   0.018  0.00  0.00     0.003 A 
ATOM      3  C2  UNL d   1      -0.002  -0.371   0.882  0.00  0.00     0.048 A 
ATOM      4  C3  UNL d   1      -0.460   0.893   0.514  0.00  0.00     0.023 A 
ATOM      5  C4  UNL d   1      -0.091   1.449  -0.712  0.00  0.00     0.048 A 
ATOM      6  C5  UNL d   1       0.743   0.733  -1.572  0.00  0.00     0.003 A 
ATOM      7  I   UNL d   1      -1.701   1.956   1.798  0.00  0.00    -0.146 I 
ENDROOT
TORSDOF 0
ENDMDL
