MODEL 1
REMARK minimizedAffinity -4.19402838
REMARK minimizedRMSD -1
REMARK  0 active torsions:
REMARK  status: ('A' for Active; 'I' for Inactive)
ROOT
ATOM      1  C   UNL d   1       0.023  -4.956  -2.171  0.00  0.00     0.023 A 
ATOM      2  C1  UNL d   1      -0.160  -3.840  -2.988  0.00  0.00     0.003 A 
ATOM      3  C2  UNL d   1       0.214  -2.573  -2.535  0.00  0.00     0.048 A 
ATOM      4  C3  UNL d   1       0.771  -2.429  -1.265  0.00  0.00     0.023 A 
ATOM      5  C4  UNL d   1       0.957  -3.543  -0.445  0.00  0.00     0.048 A 
ATOM      6  C5  UNL d   1       0.581  -4.807  -0.901  0.00  0.00     0.003 A 
ATOM      7  I   UNL d   1       1.329  -0.544  -0.589  0.00  0.00    -0.146 I 
ENDROOT
TORSDOF 0
ENDMDL
