MODEL 1
REMARK minimizedAffinity -3.71531844
REMARK minimizedRMSD -1
REMARK  0 active torsions:
REMARK  status: ('A' for Active; 'I' for Inactive)
ROOT
ATOM      1  C   UNL d   1      -1.237   0.160   2.699  0.00  0.00     0.023 A 
ATOM      2  C1  UNL d   1      -1.697   1.369   2.177  0.00  0.00     0.003 A 
ATOM      3  C2  UNL d   1      -1.265   1.797   0.920  0.00  0.00     0.048 A 
ATOM      4  C3  UNL d   1      -0.375   1.010   0.189  0.00  0.00     0.023 A 
ATOM      5  C4  UNL d   1       0.087  -0.201   0.707  0.00  0.00     0.048 A 
ATOM      6  C5  UNL d   1      -0.347  -0.624   1.965  0.00  0.00     0.003 A 
ATOM      7  I   UNL d   1       0.269   1.645  -1.682  0.00  0.00    -0.146 I 
ENDROOT
TORSDOF 0
ENDMDL
