MODEL 1
REMARK minimizedAffinity -1.10643435
REMARK minimizedRMSD -1
REMARK  0 active torsions:
REMARK  status: ('A' for Active; 'I' for Inactive)
ROOT
ATOM      1  C   UNL d   1      -1.031   0.419   2.218  0.00  0.00     0.023 A 
ATOM      2  C1  UNL d   1      -0.176  -0.350   1.429  0.00  0.00     0.003 A 
ATOM      3  C2  UNL d   1       0.270   0.138   0.199  0.00  0.00     0.048 A 
ATOM      4  C3  UNL d   1      -0.144   1.396  -0.237  0.00  0.00     0.023 A 
ATOM      5  C4  UNL d   1      -0.999   2.170   0.549  0.00  0.00     0.048 A 
ATOM      6  C5  UNL d   1      -1.443   1.678   1.778  0.00  0.00     0.003 A 
ATOM      7  I   UNL d   1       0.518   2.125  -2.067  0.00  0.00    -0.146 I 
ENDROOT
TORSDOF 0
ENDMDL
