MODEL 1
REMARK minimizedAffinity -3.42527366
REMARK minimizedRMSD -1
REMARK  0 active torsions:
REMARK  status: ('A' for Active; 'I' for Inactive)
ROOT
ATOM      1  C   UNL d   1      -1.424   1.834   1.132  0.00  0.00     0.023 A 
ATOM      2  C1  UNL d   1      -0.857   2.109  -0.113  0.00  0.00     0.003 A 
ATOM      3  C2  UNL d   1      -0.169   1.109  -0.804  0.00  0.00     0.048 A 
ATOM      4  C3  UNL d   1      -0.052  -0.163  -0.245  0.00  0.00     0.023 A 
ATOM      5  C4  UNL d   1      -0.617  -0.442   1.000  0.00  0.00     0.048 A 
ATOM      6  C5  UNL d   1      -1.304   0.560   1.688  0.00  0.00     0.003 A 
ATOM      7  I   UNL d   1       0.972  -1.652  -1.271  0.00  0.00    -0.146 I 
ENDROOT
TORSDOF 0
ENDMDL
