MODEL 1
REMARK minimizedAffinity -2.66778135
REMARK minimizedRMSD -1
REMARK  0 active torsions:
REMARK  status: ('A' for Active; 'I' for Inactive)
ROOT
ATOM      1  C   UNL d   1      -0.393   2.002   0.825  0.00  0.00     0.023 A 
ATOM      2  C1  UNL d   1      -0.645   0.792   1.472  0.00  0.00     0.003 A 
ATOM      3  C2  UNL d   1      -0.239  -0.410   0.889  0.00  0.00     0.048 A 
ATOM      4  C3  UNL d   1       0.421  -0.395  -0.339  0.00  0.00     0.023 A 
ATOM      5  C4  UNL d   1       0.677   0.813  -0.989  0.00  0.00     0.048 A 
ATOM      6  C5  UNL d   1       0.267   2.013  -0.404  0.00  0.00     0.003 A 
ATOM      7  I   UNL d   1       1.027  -2.183  -1.208  0.00  0.00    -0.146 I 
ENDROOT
TORSDOF 0
ENDMDL
