MODEL 1
REMARK minimizedAffinity -0.000358135818
REMARK minimizedRMSD -1
REMARK  0 active torsions:
REMARK  status: ('A' for Active; 'I' for Inactive)
ROOT
ATOM      1  C   UNL d   1      -0.206  -0.649   3.035  0.00  0.00     0.023 A 
ATOM      2  C1  UNL d   1      -1.033   0.433   2.735  0.00  0.00     0.003 A 
ATOM      3  C2  UNL d   1      -0.817   1.179   1.575  0.00  0.00     0.048 A 
ATOM      4  C3  UNL d   1       0.228   0.836   0.717  0.00  0.00     0.023 A 
ATOM      5  C4  UNL d   1       1.058  -0.247   1.012  0.00  0.00     0.048 A 
ATOM      6  C5  UNL d   1       0.838  -0.989   2.174  0.00  0.00     0.003 A 
ATOM      7  I   UNL d   1       0.552   1.944  -1.011  0.00  0.00    -0.146 I 
ENDROOT
TORSDOF 0
ENDMDL
