MODEL 1
REMARK minimizedAffinity 2.81749153
REMARK minimizedRMSD -1
REMARK  0 active torsions:
REMARK  status: ('A' for Active; 'I' for Inactive)
ROOT
ATOM      1  C   UNL d   1       4.351  -3.587  -2.932  0.00  0.00     0.023 A 
ATOM      2  C1  UNL d   1       5.520  -2.914  -2.580  0.00  0.00     0.003 A 
ATOM      3  C2  UNL d   1       5.995  -1.872  -3.379  0.00  0.00     0.048 A 
ATOM      4  C3  UNL d   1       5.295  -1.508  -4.528  0.00  0.00     0.023 A 
ATOM      5  C4  UNL d   1       4.123  -2.178  -4.884  0.00  0.00     0.048 A 
ATOM      6  C5  UNL d   1       3.653  -3.220  -4.083  0.00  0.00     0.003 A 
ATOM      7  I   UNL d   1       5.999   0.043  -5.719  0.00  0.00    -0.146 I 
ENDROOT
TORSDOF 0
ENDMDL
