MODEL 1
REMARK minimizedAffinity -2.98205972
REMARK minimizedRMSD -1
REMARK  0 active torsions:
REMARK  status: ('A' for Active; 'I' for Inactive)
ROOT
ATOM      1  C   UNL d   1      -0.070  -3.245  -3.240  0.00  0.00     0.023 A 
ATOM      2  C1  UNL d   1      -0.235  -1.881  -3.480  0.00  0.00     0.003 A 
ATOM      3  C2  UNL d   1      -0.100  -0.965  -2.434  0.00  0.00     0.048 A 
ATOM      4  C3  UNL d   1       0.200  -1.421  -1.150  0.00  0.00     0.023 A 
ATOM      5  C4  UNL d   1       0.366  -2.785  -0.906  0.00  0.00     0.048 A 
ATOM      6  C5  UNL d   1       0.229  -3.697  -1.954  0.00  0.00     0.003 A 
ATOM      7  I   UNL d   1       0.401  -0.061   0.408  0.00  0.00    -0.146 I 
ENDROOT
TORSDOF 0
ENDMDL
