MODEL 1
REMARK minimizedAffinity -3.67872214
REMARK minimizedRMSD -1
REMARK  0 active torsions:
REMARK  status: ('A' for Active; 'I' for Inactive)
ROOT
ATOM      1  C   UNL d   1      -1.452   2.102   1.227  0.00  0.00     0.023 A 
ATOM      2  C1  UNL d   1      -1.093   0.975   1.967  0.00  0.00     0.003 A 
ATOM      3  C2  UNL d   1      -0.402  -0.072   1.355  0.00  0.00     0.048 A 
ATOM      4  C3  UNL d   1      -0.071   0.014   0.003  0.00  0.00     0.023 A 
ATOM      5  C4  UNL d   1      -0.427   1.140  -0.741  0.00  0.00     0.048 A 
ATOM      6  C5  UNL d   1      -1.119   2.184  -0.125  0.00  0.00     0.003 A 
ATOM      7  I   UNL d   1       0.959  -1.543  -0.909  0.00  0.00    -0.146 I 
ENDROOT
TORSDOF 0
ENDMDL
