MODEL 1
REMARK minimizedAffinity -3.53071809
REMARK minimizedRMSD -1
REMARK  0 active torsions:
REMARK  status: ('A' for Active; 'I' for Inactive)
ROOT
ATOM      1  C   UNL d   1      -1.625   1.426   2.272  0.00  0.00     0.023 A 
ATOM      2  C1  UNL d   1      -1.837   1.791   0.943  0.00  0.00     0.003 A 
ATOM      3  C2  UNL d   1      -1.167   1.121  -0.083  0.00  0.00     0.048 A 
ATOM      4  C3  UNL d   1      -0.286   0.085   0.228  0.00  0.00     0.023 A 
ATOM      5  C4  UNL d   1      -0.072  -0.285   1.557  0.00  0.00     0.048 A 
ATOM      6  C5  UNL d   1      -0.744   0.389   2.579  0.00  0.00     0.003 A 
ATOM      7  I   UNL d   1       0.713  -0.914  -1.296  0.00  0.00    -0.146 I 
ENDROOT
TORSDOF 0
ENDMDL
