MODEL 1
REMARK minimizedAffinity -3.33353782
REMARK minimizedRMSD -1
REMARK  0 active torsions:
REMARK  status: ('A' for Active; 'I' for Inactive)
ROOT
ATOM      1  C   UNL d   1      -1.147   1.621   1.980  0.00  0.00     0.023 A 
ATOM      2  C1  UNL d   1      -1.422   0.274   2.215  0.00  0.00     0.003 A 
ATOM      3  C2  UNL d   1      -0.937  -0.702   1.342  0.00  0.00     0.048 A 
ATOM      4  C3  UNL d   1      -0.176  -0.323   0.236  0.00  0.00     0.023 A 
ATOM      5  C4  UNL d   1       0.103   1.023  -0.002  0.00  0.00     0.048 A 
ATOM      6  C5  UNL d   1      -0.385   1.995   0.873  0.00  0.00     0.003 A 
ATOM      7  I   UNL d   1       0.548  -1.774  -1.064  0.00  0.00    -0.146 I 
ENDROOT
TORSDOF 0
ENDMDL
