MODEL 1
REMARK minimizedAffinity -3.95008516
REMARK minimizedRMSD -1
REMARK  0 active torsions:
REMARK  status: ('A' for Active; 'I' for Inactive)
ROOT
ATOM      1  C   UNL d   1      -0.312   3.385   0.623  0.00  0.00     0.023 A 
ATOM      2  C1  UNL d   1      -0.594   2.243   1.373  0.00  0.00     0.003 A 
ATOM      3  C2  UNL d   1      -0.293   0.978   0.862  0.00  0.00     0.048 A 
ATOM      4  C3  UNL d   1       0.292   0.863  -0.399  0.00  0.00     0.023 A 
ATOM      5  C4  UNL d   1       0.577   2.003  -1.152  0.00  0.00     0.048 A 
ATOM      6  C5  UNL d   1       0.273   3.265  -0.638  0.00  0.00     0.003 A 
ATOM      7  I   UNL d   1       0.742  -1.017  -1.161  0.00  0.00    -0.146 I 
ENDROOT
TORSDOF 0
ENDMDL
