MODEL 1
REMARK minimizedAffinity -2.90526962
REMARK minimizedRMSD -1
REMARK  0 active torsions:
REMARK  status: ('A' for Active; 'I' for Inactive)
ROOT
ATOM      1  C   UNL d   1       0.406   0.546   0.742  0.00  0.00     0.023 A 
ATOM      2  C1  UNL d   1       0.579   0.620  -0.640  0.00  0.00     0.003 A 
ATOM      3  C2  UNL d   1       0.406  -0.519  -1.428  0.00  0.00     0.048 A 
ATOM      4  C3  UNL d   1       0.059  -1.729  -0.828  0.00  0.00     0.023 A 
ATOM      5  C4  UNL d   1      -0.115  -1.808   0.555  0.00  0.00     0.048 A 
ATOM      6  C5  UNL d   1       0.060  -0.666   1.339  0.00  0.00     0.003 A 
ATOM      7  I   UNL d   1      -0.199  -3.427  -1.999  0.00  0.00    -0.146 I 
ENDROOT
TORSDOF 0
ENDMDL
