MODEL 1
REMARK minimizedAffinity -2.36959672
REMARK minimizedRMSD -1
REMARK  0 active torsions:
REMARK  status: ('A' for Active; 'I' for Inactive)
ROOT
ATOM      1  C   UNL d   1      -0.821   0.981   2.677  0.00  0.00     0.023 A 
ATOM      2  C1  UNL d   1      -1.307   2.143   2.076  0.00  0.00     0.003 A 
ATOM      3  C2  UNL d   1      -1.231   2.298   0.690  0.00  0.00     0.048 A 
ATOM      4  C3  UNL d   1      -0.668   1.287  -0.089  0.00  0.00     0.023 A 
ATOM      5  C4  UNL d   1      -0.181   0.123   0.508  0.00  0.00     0.048 A 
ATOM      6  C5  UNL d   1      -0.258  -0.027   1.894  0.00  0.00     0.003 A 
ATOM      7  I   UNL d   1      -0.553   1.516  -2.151  0.00  0.00    -0.146 I 
ENDROOT
TORSDOF 0
ENDMDL
