MODEL 1
REMARK minimizedAffinity 1.12307
REMARK minimizedRMSD -1
REMARK  0 active torsions:
REMARK  status: ('A' for Active; 'I' for Inactive)
ROOT
ATOM      1  C   UNL d   1      -4.118   3.212  -3.928  0.00  0.00     0.023 A 
ATOM      2  C1  UNL d   1      -3.032   3.824  -3.301  0.00  0.00     0.003 A 
ATOM      3  C2  UNL d   1      -2.314   3.138  -2.319  0.00  0.00     0.048 A 
ATOM      4  C3  UNL d   1      -2.686   1.841  -1.970  0.00  0.00     0.023 A 
ATOM      5  C4  UNL d   1      -3.771   1.224  -2.595  0.00  0.00     0.048 A 
ATOM      6  C5  UNL d   1      -4.487   1.914  -3.575  0.00  0.00     0.003 A 
ATOM      7  I   UNL d   1      -1.618   0.818  -0.509  0.00  0.00    -0.146 I 
ENDROOT
TORSDOF 0
ENDMDL
