MODEL 1
REMARK minimizedAffinity 1.91747558
REMARK minimizedRMSD -1
REMARK  0 active torsions:
REMARK  status: ('A' for Active; 'I' for Inactive)
ROOT
ATOM      1  C   UNL d   1      -1.901   1.035  -1.519  0.00  0.00     0.023 A 
ATOM      2  C1  UNL d   1      -2.538   0.481  -0.409  0.00  0.00     0.003 A 
ATOM      3  C2  UNL d   1      -1.783  -0.007   0.660  0.00  0.00     0.048 A 
ATOM      4  C3  UNL d   1      -0.391   0.064   0.613  0.00  0.00     0.023 A 
ATOM      5  C4  UNL d   1       0.251   0.619  -0.496  0.00  0.00     0.048 A 
ATOM      6  C5  UNL d   1      -0.508   1.104  -1.562  0.00  0.00     0.003 A 
ATOM      7  I   UNL d   1       0.734  -0.661   2.202  0.00  0.00    -0.146 I 
ENDROOT
TORSDOF 0
ENDMDL
