MODEL 1
REMARK minimizedAffinity -3.54391861
REMARK minimizedRMSD -1
REMARK  0 active torsions:
REMARK  status: ('A' for Active; 'I' for Inactive)
ROOT
ATOM      1  C   UNL d   1       0.360  -0.089  -1.476  0.00  0.00     0.078 C 
ATOM      2  C1  UNL d   1       0.095  -0.054  -0.001  0.00  0.00    -0.077 A 
ATOM      3  C2  UNL d   1      -1.121  -0.508   0.525  0.00  0.00    -0.001 A 
ATOM      4  C3  UNL d   1      -1.358  -0.459   1.899  0.00  0.00     0.003 A 
ATOM      5  C4  UNL d   1      -0.384   0.043   2.760  0.00  0.00    -0.005 A 
ATOM      6  C5  UNL d   1       0.828   0.499   2.246  0.00  0.00     0.003 A 
ATOM      7  C6  UNL d   1       1.067   0.452   0.872  0.00  0.00    -0.001 A 
ENDROOT
TORSDOF 0
ENDMDL
