MODEL 1
REMARK minimizedAffinity -5.3781724
REMARK minimizedRMSD -1
REMARK  0 active torsions:
REMARK  status: ('A' for Active; 'I' for Inactive)
ROOT
ATOM      1  C   UNL d   1       0.375  -0.156  -0.170  0.00  0.00     0.078 C 
ATOM      2  C1  UNL d   1      -0.631  -0.117   0.942  0.00  0.00    -0.077 A 
ATOM      3  C2  UNL d   1      -0.267  -0.439   2.255  0.00  0.00    -0.001 A 
ATOM      4  C3  UNL d   1      -1.216  -0.407   3.278  0.00  0.00     0.003 A 
ATOM      5  C4  UNL d   1      -2.535  -0.055   2.998  0.00  0.00    -0.005 A 
ATOM      6  C5  UNL d   1      -2.907   0.265   1.694  0.00  0.00     0.003 A 
ATOM      7  C6  UNL d   1      -1.959   0.234   0.670  0.00  0.00    -0.001 A 
ENDROOT
TORSDOF 0
ENDMDL
