MODEL 1
REMARK minimizedAffinity -4.59259319
REMARK minimizedRMSD -1
REMARK  0 active torsions:
REMARK  status: ('A' for Active; 'I' for Inactive)
ROOT
ATOM      1  C   UNL d   1       0.043  -1.153  -2.294  0.00  0.00     0.078 C 
ATOM      2  C1  UNL d   1      -0.051  -0.602  -0.903  0.00  0.00    -0.077 A 
ATOM      3  C2  UNL d   1       0.590   0.594  -0.557  0.00  0.00    -0.001 A 
ATOM      4  C3  UNL d   1       0.502   1.091   0.745  0.00  0.00     0.003 A 
ATOM      5  C4  UNL d   1      -0.225   0.398   1.711  0.00  0.00    -0.005 A 
ATOM      6  C5  UNL d   1      -0.864  -0.794   1.376  0.00  0.00     0.003 A 
ATOM      7  C6  UNL d   1      -0.777  -1.292   0.075  0.00  0.00    -0.001 A 
ENDROOT
TORSDOF 0
ENDMDL
