MODEL 1
REMARK minimizedAffinity -5.16488504
REMARK minimizedRMSD -1
REMARK  0 active torsions:
REMARK  status: ('A' for Active; 'I' for Inactive)
ROOT
ATOM      1  C   UNL d   1       1.127   1.070   0.411  0.00  0.00     0.078 C 
ATOM      2  C1  UNL d   1      -0.107   0.641   1.148  0.00  0.00    -0.077 A 
ATOM      3  C2  UNL d   1      -1.372   0.747   0.558  0.00  0.00    -0.001 A 
ATOM      4  C3  UNL d   1      -2.513   0.352   1.259  0.00  0.00     0.003 A 
ATOM      5  C4  UNL d   1      -2.400  -0.151   2.553  0.00  0.00    -0.005 A 
ATOM      6  C5  UNL d   1      -1.145  -0.258   3.149  0.00  0.00     0.003 A 
ATOM      7  C6  UNL d   1      -0.003   0.136   2.450  0.00  0.00    -0.001 A 
ENDROOT
TORSDOF 0
ENDMDL
