MODEL 1
REMARK minimizedAffinity -5.33215618
REMARK minimizedRMSD -1
REMARK  0 active torsions:
REMARK  status: ('A' for Active; 'I' for Inactive)
ROOT
ATOM      1  C   UNL d   1       0.390   0.523  -0.674  0.00  0.00     0.078 C 
ATOM      2  C1  UNL d   1      -0.120   0.097   0.670  0.00  0.00    -0.077 A 
ATOM      3  C2  UNL d   1       0.752  -0.390   1.652  0.00  0.00    -0.001 A 
ATOM      4  C3  UNL d   1       0.262  -0.793   2.895  0.00  0.00     0.003 A 
ATOM      5  C4  UNL d   1      -1.102  -0.713   3.169  0.00  0.00    -0.005 A 
ATOM      6  C5  UNL d   1      -1.978  -0.232   2.198  0.00  0.00     0.003 A 
ATOM      7  C6  UNL d   1      -1.490   0.171   0.954  0.00  0.00    -0.001 A 
ENDROOT
TORSDOF 0
ENDMDL
