MODEL 1
REMARK minimizedAffinity -2.6902976
REMARK minimizedRMSD -1
REMARK  0 active torsions:
REMARK  status: ('A' for Active; 'I' for Inactive)
ROOT
ATOM      1  C   UNL d   1      -0.009  -0.256  -1.625  0.00  0.00     0.078 C 
ATOM      2  C1  UNL d   1       0.085   0.055  -0.161  0.00  0.00    -0.077 A 
ATOM      3  C2  UNL d   1      -1.057   0.063   0.649  0.00  0.00    -0.001 A 
ATOM      4  C3  UNL d   1      -0.956   0.365   2.008  0.00  0.00     0.003 A 
ATOM      5  C4  UNL d   1       0.285   0.662   2.569  0.00  0.00    -0.005 A 
ATOM      6  C5  UNL d   1       1.426   0.659   1.770  0.00  0.00     0.003 A 
ATOM      7  C6  UNL d   1       1.327   0.358   0.411  0.00  0.00    -0.001 A 
ENDROOT
TORSDOF 0
ENDMDL
