MODEL 1
REMARK minimizedAffinity -4.96806479
REMARK minimizedRMSD -1
REMARK  0 active torsions:
REMARK  status: ('A' for Active; 'I' for Inactive)
ROOT
ATOM      1  C   UNL d   1       0.068   0.050  -1.296  0.00  0.00     0.078 C 
ATOM      2  C1  UNL d   1      -0.024  -0.083   0.194  0.00  0.00    -0.077 A 
ATOM      3  C2  UNL d   1       1.017   0.354   1.023  0.00  0.00    -0.001 A 
ATOM      4  C3  UNL d   1       0.922   0.215   2.408  0.00  0.00     0.003 A 
ATOM      5  C4  UNL d   1      -0.212  -0.362   2.978  0.00  0.00    -0.005 A 
ATOM      6  C5  UNL d   1      -1.252  -0.801   2.161  0.00  0.00     0.003 A 
ATOM      7  C6  UNL d   1      -1.159  -0.663   0.776  0.00  0.00    -0.001 A 
ENDROOT
TORSDOF 0
ENDMDL
