MODEL 1
REMARK minimizedAffinity -5.31053782
REMARK minimizedRMSD -1
REMARK  0 active torsions:
REMARK  status: ('A' for Active; 'I' for Inactive)
ROOT
ATOM      1  C   UNL d   1      -1.044  -0.739   3.017  0.00  0.00     0.078 C 
ATOM      2  C1  UNL d   1      -0.426  -0.342   1.710  0.00  0.00    -0.077 A 
ATOM      3  C2  UNL d   1      -1.222  -0.020   0.604  0.00  0.00    -0.001 A 
ATOM      4  C3  UNL d   1      -0.633   0.339  -0.609  0.00  0.00     0.003 A 
ATOM      5  C4  UNL d   1       0.755   0.377  -0.729  0.00  0.00    -0.005 A 
ATOM      6  C5  UNL d   1       1.556   0.055   0.365  0.00  0.00     0.003 A 
ATOM      7  C6  UNL d   1       0.968  -0.304   1.579  0.00  0.00    -0.001 A 
ENDROOT
TORSDOF 0
ENDMDL
