MODEL 1
REMARK minimizedAffinity -3.7238574
REMARK minimizedRMSD -1
REMARK  0 active torsions:
REMARK  status: ('A' for Active; 'I' for Inactive)
ROOT
ATOM      1  C   UNL d   1      -3.101   0.650   0.327  0.00  0.00     0.078 C 
ATOM      2  C1  UNL d   1      -1.662   0.519   0.727  0.00  0.00    -0.077 A 
ATOM      3  C2  UNL d   1      -1.282   0.552   2.074  0.00  0.00    -0.001 A 
ATOM      4  C3  UNL d   1       0.063   0.439   2.432  0.00  0.00     0.003 A 
ATOM      5  C4  UNL d   1       1.038   0.294   1.448  0.00  0.00    -0.005 A 
ATOM      6  C5  UNL d   1       0.670   0.262   0.104  0.00  0.00     0.003 A 
ATOM      7  C6  UNL d   1      -0.674   0.375  -0.255  0.00  0.00    -0.001 A 
ENDROOT
TORSDOF 0
ENDMDL
