MODEL 1
REMARK minimizedAffinity -5.66824436
REMARK minimizedRMSD -1
REMARK  0 active torsions:
REMARK  status: ('A' for Active; 'I' for Inactive)
ROOT
ATOM      1  C   UNL d   1       1.241  -0.003   0.745  0.00  0.00     0.078 C 
ATOM      2  C1  UNL d   1      -0.128   0.100   1.349  0.00  0.00    -0.077 A 
ATOM      3  C2  UNL d   1      -1.248   0.372   0.555  0.00  0.00    -0.001 A 
ATOM      4  C3  UNL d   1      -2.515   0.475   1.132  0.00  0.00     0.003 A 
ATOM      5  C4  UNL d   1      -2.673   0.309   2.507  0.00  0.00    -0.005 A 
ATOM      6  C5  UNL d   1      -1.564   0.040   3.306  0.00  0.00     0.003 A 
ATOM      7  C6  UNL d   1      -0.296  -0.063   2.730  0.00  0.00    -0.001 A 
ENDROOT
TORSDOF 0
ENDMDL
