MODEL 1
REMARK minimizedAffinity -2.69168496
REMARK minimizedRMSD -1
REMARK  0 active torsions:
REMARK  status: ('A' for Active; 'I' for Inactive)
ROOT
ATOM      1  C   UNL d   1      -0.777  -0.735   2.582  0.00  0.00     0.078 C 
ATOM      2  C1  UNL d   1      -0.517  -0.315   1.167  0.00  0.00    -0.077 A 
ATOM      3  C2  UNL d   1       0.782  -0.041   0.723  0.00  0.00    -0.001 A 
ATOM      4  C3  UNL d   1       1.009   0.359  -0.595  0.00  0.00     0.003 A 
ATOM      5  C4  UNL d   1      -0.060   0.490  -1.480  0.00  0.00    -0.005 A 
ATOM      6  C5  UNL d   1      -1.357   0.221  -1.047  0.00  0.00     0.003 A 
ATOM      7  C6  UNL d   1      -1.585  -0.179   0.271  0.00  0.00    -0.001 A 
ENDROOT
TORSDOF 0
ENDMDL
