MODEL 1
REMARK minimizedAffinity -5.2490406
REMARK minimizedRMSD -1
REMARK  0 active torsions:
REMARK  status: ('A' for Active; 'I' for Inactive)
ROOT
ATOM      1  C   UNL d   1      -2.018  -0.154   2.987  0.00  0.00     0.078 C 
ATOM      2  C1  UNL d   1      -0.849  -0.249   2.052  0.00  0.00    -0.077 A 
ATOM      3  C2  UNL d   1       0.464  -0.245   2.538  0.00  0.00    -0.001 A 
ATOM      4  C3  UNL d   1       1.543  -0.324   1.656  0.00  0.00     0.003 A 
ATOM      5  C4  UNL d   1       1.320  -0.407   0.283  0.00  0.00    -0.005 A 
ATOM      6  C5  UNL d   1       0.017  -0.410  -0.209  0.00  0.00     0.003 A 
ATOM      7  C6  UNL d   1      -1.064  -0.331   0.671  0.00  0.00    -0.001 A 
ENDROOT
TORSDOF 0
ENDMDL
