MODEL 1
REMARK minimizedAffinity -0.743751287
REMARK minimizedRMSD -1
REMARK  0 active torsions:
REMARK  status: ('A' for Active; 'I' for Inactive)
ROOT
ATOM      1  C   UNL d   1      -0.712   0.153  -0.751  0.00  0.00     0.078 C 
ATOM      2  C1  UNL d   1       0.081  -0.331  -1.928  0.00  0.00    -0.077 A 
ATOM      3  C2  UNL d   1      -0.421  -1.325  -2.777  0.00  0.00    -0.001 A 
ATOM      4  C3  UNL d   1       0.333  -1.773  -3.863  0.00  0.00     0.003 A 
ATOM      5  C4  UNL d   1       1.593  -1.233  -4.110  0.00  0.00    -0.005 A 
ATOM      6  C5  UNL d   1       2.102  -0.245  -3.270  0.00  0.00     0.003 A 
ATOM      7  C6  UNL d   1       1.350   0.204  -2.183  0.00  0.00    -0.001 A 
ENDROOT
TORSDOF 0
ENDMDL
