MODEL 1
REMARK minimizedAffinity -4.50703669
REMARK minimizedRMSD -1
REMARK  0 active torsions:
REMARK  status: ('A' for Active; 'I' for Inactive)
ROOT
ATOM      1  C   UNL d   1       0.240   0.311  -1.632  0.00  0.00     0.078 C 
ATOM      2  C1  UNL d   1       0.131   0.085  -0.154  0.00  0.00    -0.077 A 
ATOM      3  C2  UNL d   1      -0.717  -0.903   0.364  0.00  0.00    -0.001 A 
ATOM      4  C3  UNL d   1      -0.816  -1.096   1.743  0.00  0.00     0.003 A 
ATOM      5  C4  UNL d   1      -0.072  -0.304   2.615  0.00  0.00    -0.005 A 
ATOM      6  C5  UNL d   1       0.773   0.682   2.110  0.00  0.00     0.003 A 
ATOM      7  C6  UNL d   1       0.873   0.876   0.731  0.00  0.00    -0.001 A 
ENDROOT
TORSDOF 0
ENDMDL
