MODEL 1
REMARK minimizedAffinity 13.3953753
REMARK minimizedRMSD -1
REMARK  1 active torsions:
REMARK  status: ('A' for Active; 'I' for Inactive)
REMARK    1  A    between atoms: C1_2  and  C2_3 
ROOT
ATOM      1  C2  UNL d   1       0.836   3.075   0.308  0.00  0.00    -0.081 A 
ATOM      2  C3  UNL d   1       1.761   4.116   0.165  0.00  0.00     0.006 A 
ATOM      3  C4  UNL d   1       1.878   4.798  -1.049  0.00  0.00     0.002 A 
ATOM      4  C5  UNL d   1       1.067   4.455  -2.136  0.00  0.00    -0.080 A 
ATOM      5  C6  UNL d   1       1.160   5.199  -3.435  0.00  0.00     0.076 C 
ATOM      6  C7  UNL d   1       0.155   3.403  -1.998  0.00  0.00     0.002 A 
ATOM      7  C8  UNL d   1       0.039   2.721  -0.785  0.00  0.00     0.006 A 
ENDROOT
BRANCH   1   8
ATOM      8  C1  UNL d   1       0.663   2.381   1.635  0.00  0.00     0.054 C 
ATOM      9  C   UNL d   1       1.953   2.403   2.443  0.00  0.00     0.018 C 
ENDBRANCH   1   8
TORSDOF 1
ENDMDL
