MODEL 1
REMARK minimizedAffinity 9.96434116
REMARK minimizedRMSD -1
REMARK  1 active torsions:
REMARK  status: ('A' for Active; 'I' for Inactive)
REMARK    1  A    between atoms: C1_2  and  C2_3 
ROOT
ATOM      1  C2  UNL d   1       0.488   3.144  -0.312  0.00  0.00    -0.081 A 
ATOM      2  C3  UNL d   1      -0.890   3.201  -0.557  0.00  0.00     0.006 A 
ATOM      3  C4  UNL d   1      -1.800   2.792   0.420  0.00  0.00     0.002 A 
ATOM      4  C5  UNL d   1      -1.349   2.328   1.661  0.00  0.00    -0.080 A 
ATOM      5  C6  UNL d   1      -2.316   1.915   2.730  0.00  0.00     0.076 C 
ATOM      6  C7  UNL d   1       0.028   2.255   1.899  0.00  0.00     0.002 A 
ATOM      7  C8  UNL d   1       0.938   2.662   0.922  0.00  0.00     0.006 A 
ENDROOT
BRANCH   1   8
ATOM      8  C1  UNL d   1       1.470   3.645  -1.340  0.00  0.00     0.054 C 
ATOM      9  C   UNL d   1       2.446   4.642  -0.733  0.00  0.00     0.018 C 
ENDBRANCH   1   8
TORSDOF 1
ENDMDL
