MODEL 1
REMARK minimizedAffinity 11.665782
REMARK minimizedRMSD -1
REMARK  1 active torsions:
REMARK  status: ('A' for Active; 'I' for Inactive)
REMARK    1  A    between atoms: C1_2  and  C2_3 
ROOT
ATOM      1  C2  UNL d   1       0.789   3.531  -1.688  0.00  0.00    -0.081 A 
ATOM      2  C3  UNL d   1      -0.490   4.089  -1.567  0.00  0.00     0.006 A 
ATOM      3  C4  UNL d   1      -1.479   3.440  -0.825  0.00  0.00     0.002 A 
ATOM      4  C5  UNL d   1      -1.204   2.227  -0.184  0.00  0.00    -0.080 A 
ATOM      5  C6  UNL d   1      -2.248   1.536   0.641  0.00  0.00     0.076 C 
ATOM      6  C7  UNL d   1       0.067   1.661  -0.319  0.00  0.00     0.002 A 
ATOM      7  C8  UNL d   1       1.057   2.309  -1.062  0.00  0.00     0.006 A 
ENDROOT
BRANCH   1   8
ATOM      8  C1  UNL d   1       1.876   4.260  -2.434  0.00  0.00     0.054 C 
ATOM      9  C   UNL d   1       1.897   5.739  -2.076  0.00  0.00     0.018 C 
ENDBRANCH   1   8
TORSDOF 1
ENDMDL
