MODEL 1
REMARK minimizedAffinity 14.2367601
REMARK minimizedRMSD -1
REMARK  1 active torsions:
REMARK  status: ('A' for Active; 'I' for Inactive)
REMARK    1  A    between atoms: C1_2  and  C2_3 
ROOT
ATOM      1  C2  UNL d   1       0.186   2.419  -0.052  0.00  0.00    -0.081 A 
ATOM      2  C3  UNL d   1      -0.839   2.693  -0.966  0.00  0.00     0.006 A 
ATOM      3  C4  UNL d   1      -0.736   3.777  -1.841  0.00  0.00     0.002 A 
ATOM      4  C5  UNL d   1       0.396   4.600  -1.822  0.00  0.00    -0.080 A 
ATOM      5  C6  UNL d   1       0.533   5.748  -2.777  0.00  0.00     0.076 C 
ATOM      6  C7  UNL d   1       1.412   4.336  -0.897  0.00  0.00     0.002 A 
ATOM      7  C8  UNL d   1       1.309   3.253  -0.022  0.00  0.00     0.006 A 
ENDROOT
BRANCH   1   8
ATOM      8  C1  UNL d   1       0.107   1.213   0.848  0.00  0.00     0.054 C 
ATOM      9  C   UNL d   1       1.465   0.882   1.451  0.00  0.00     0.018 C 
ENDBRANCH   1   8
TORSDOF 1
ENDMDL
