MODEL 1
REMARK minimizedAffinity 13.1246471
REMARK minimizedRMSD -1
REMARK  1 active torsions:
REMARK  status: ('A' for Active; 'I' for Inactive)
REMARK    1  A    between atoms: C1_2  and  C2_3 
ROOT
ATOM      1  C2  UNL d   1       0.566   1.998   1.143  0.00  0.00    -0.081 A 
ATOM      2  C3  UNL d   1       0.707   1.589  -0.188  0.00  0.00     0.006 A 
ATOM      3  C4  UNL d   1      -0.290   1.873  -1.126  0.00  0.00     0.002 A 
ATOM      4  C5  UNL d   1      -1.439   2.576  -0.749  0.00  0.00    -0.080 A 
ATOM      5  C6  UNL d   1      -2.502   2.913  -1.752  0.00  0.00     0.076 C 
ATOM      6  C7  UNL d   1      -1.588   2.970   0.585  0.00  0.00     0.002 A 
ATOM      7  C8  UNL d   1      -0.592   2.686   1.523  0.00  0.00     0.006 A 
ENDROOT
BRANCH   1   8
ATOM      8  C1  UNL d   1       1.668   1.751   2.142  0.00  0.00     0.054 C 
ATOM      9  C   UNL d   1       1.161   0.964   3.342  0.00  0.00     0.018 C 
ENDBRANCH   1   8
TORSDOF 1
ENDMDL
