MODEL 1
REMARK minimizedAffinity 23.2485847
REMARK minimizedRMSD -1
REMARK  1 active torsions:
REMARK  status: ('A' for Active; 'I' for Inactive)
REMARK    1  A    between atoms: C1_2  and  C2_3 
ROOT
ATOM      1  C2  UNL d   1       0.850   4.518  -1.800  0.00  0.00    -0.081 A 
ATOM      2  C3  UNL d   1      -0.260   4.932  -1.054  0.00  0.00     0.006 A 
ATOM      3  C4  UNL d   1      -0.899   4.045  -0.184  0.00  0.00     0.002 A 
ATOM      4  C5  UNL d   1      -0.434   2.734  -0.039  0.00  0.00    -0.080 A 
ATOM      5  C6  UNL d   1      -1.092   1.781   0.914  0.00  0.00     0.076 C 
ATOM      6  C7  UNL d   1       0.665   2.315  -0.798  0.00  0.00     0.002 A 
ATOM      7  C8  UNL d   1       1.303   3.201  -1.669  0.00  0.00     0.006 A 
ENDROOT
BRANCH   1   8
ATOM      8  C1  UNL d   1       1.580   5.491  -2.691  0.00  0.00     0.054 C 
ATOM      9  C   UNL d   1       0.787   5.786  -3.956  0.00  0.00     0.018 C 
ENDBRANCH   1   8
TORSDOF 1
ENDMDL
