MODEL 1
REMARK minimizedAffinity 13.2660484
REMARK minimizedRMSD -1
REMARK  1 active torsions:
REMARK  status: ('A' for Active; 'I' for Inactive)
REMARK    1  A    between atoms: C1_2  and  C2_3 
ROOT
ATOM      1  C2  UNL d   1      -1.139   4.037  -1.897  0.00  0.00    -0.081 A 
ATOM      2  C3  UNL d   1       0.257   3.954  -1.953  0.00  0.00     0.006 A 
ATOM      3  C4  UNL d   1       0.978   3.417  -0.883  0.00  0.00     0.002 A 
ATOM      4  C5  UNL d   1       0.314   2.946   0.255  0.00  0.00    -0.080 A 
ATOM      5  C6  UNL d   1       1.073   2.339   1.397  0.00  0.00     0.076 C 
ATOM      6  C7  UNL d   1      -1.080   3.045   0.317  0.00  0.00     0.002 A 
ATOM      7  C8  UNL d   1      -1.801   3.583  -0.751  0.00  0.00     0.006 A 
ENDROOT
BRANCH   1   8
ATOM      8  C1  UNL d   1      -1.924   4.556  -3.075  0.00  0.00     0.054 C 
ATOM      9  C   UNL d   1      -3.416   4.318  -2.895  0.00  0.00     0.018 C 
ENDBRANCH   1   8
TORSDOF 1
ENDMDL
