MODEL 1
REMARK minimizedAffinity 12.0615568
REMARK minimizedRMSD -1
REMARK  1 active torsions:
REMARK  status: ('A' for Active; 'I' for Inactive)
REMARK    1  A    between atoms: C1_2  and  C2_3 
ROOT
ATOM      1  C2  UNL d   1      -2.077   2.197  -0.139  0.00  0.00    -0.081 A 
ATOM      2  C3  UNL d   1      -2.426   0.861  -0.367  0.00  0.00     0.006 A 
ATOM      3  C4  UNL d   1      -3.471   0.540  -1.236  0.00  0.00     0.002 A 
ATOM      4  C5  UNL d   1      -4.179   1.550  -1.898  0.00  0.00    -0.080 A 
ATOM      5  C6  UNL d   1      -5.283   1.218  -2.857  0.00  0.00     0.076 C 
ATOM      6  C7  UNL d   1      -3.842   2.886  -1.657  0.00  0.00     0.002 A 
ATOM      7  C8  UNL d   1      -2.797   3.207  -0.787  0.00  0.00     0.006 A 
ENDROOT
BRANCH   1   8
ATOM      8  C1  UNL d   1      -0.908   2.544   0.748  0.00  0.00     0.054 C 
ATOM      9  C   UNL d   1       0.412   2.402   0.004  0.00  0.00     0.018 C 
ENDBRANCH   1   8
TORSDOF 1
ENDMDL
