MODEL 1
REMARK minimizedAffinity 5.35467911
REMARK minimizedRMSD -1
REMARK  1 active torsions:
REMARK  status: ('A' for Active; 'I' for Inactive)
REMARK    1  A    between atoms: C1_2  and  C2_3 
ROOT
ATOM      1  C2  UNL d   1      -1.773   2.656  -2.265  0.00  0.00    -0.081 A 
ATOM      2  C3  UNL d   1      -0.430   3.012  -2.436  0.00  0.00     0.006 A 
ATOM      3  C4  UNL d   1       0.586   2.223  -1.891  0.00  0.00     0.002 A 
ATOM      4  C5  UNL d   1       0.276   1.062  -1.174  0.00  0.00    -0.080 A 
ATOM      5  C6  UNL d   1       1.359   0.190  -0.610  0.00  0.00     0.076 C 
ATOM      6  C7  UNL d   1      -1.066   0.716  -0.989  0.00  0.00     0.002 A 
ATOM      7  C8  UNL d   1      -2.083   1.505  -1.533  0.00  0.00     0.006 A 
ENDROOT
BRANCH   1   8
ATOM      8  C1  UNL d   1      -2.869   3.469  -2.906  0.00  0.00     0.054 C 
ATOM      9  C   UNL d   1      -2.491   3.890  -4.320  0.00  0.00     0.018 C 
ENDBRANCH   1   8
TORSDOF 1
ENDMDL
