MODEL 1
REMARK minimizedAffinity 14.1713705
REMARK minimizedRMSD -1
REMARK  1 active torsions:
REMARK  status: ('A' for Active; 'I' for Inactive)
REMARK    1  A    between atoms: C1_2  and  C2_3 
ROOT
ATOM      1  C2  UNL d   1       3.412  -5.464  -3.013  0.00  0.00    -0.081 A 
ATOM      2  C3  UNL d   1       2.555  -4.759  -3.867  0.00  0.00     0.006 A 
ATOM      3  C4  UNL d   1       1.365  -4.212  -3.383  0.00  0.00     0.002 A 
ATOM      4  C5  UNL d   1       1.014  -4.354  -2.037  0.00  0.00    -0.080 A 
ATOM      5  C6  UNL d   1      -0.246  -3.745  -1.498  0.00  0.00     0.076 C 
ATOM      6  C7  UNL d   1       1.861  -5.073  -1.186  0.00  0.00     0.002 A 
ATOM      7  C8  UNL d   1       3.051  -5.621  -1.670  0.00  0.00     0.006 A 
ENDROOT
BRANCH   1   8
ATOM      8  C1  UNL d   1       4.727  -6.000  -3.517  0.00  0.00     0.054 C 
ATOM      9  C   UNL d   1       5.896  -5.171  -3.004  0.00  0.00     0.018 C 
ENDBRANCH   1   8
TORSDOF 1
ENDMDL
