MODEL 1
REMARK minimizedAffinity -2.60270143
REMARK minimizedRMSD -1
REMARK  0 active torsions:
REMARK  status: ('A' for Active; 'I' for Inactive)
ROOT
ATOM      1  C   UNL d   1       2.059   0.036   2.301  0.00  0.00     0.020 A 
ATOM      2  C1  UNL d   1       1.197  -0.884   2.897  0.00  0.00     0.020 A 
ATOM      3  C2  UNL d   1      -0.031  -1.178   2.301  0.00  0.00     0.034 A 
ATOM      4  C3  UNL d   1      -0.401  -0.552   1.105  0.00  0.00     0.017 A 
ATOM      5  C4  UNL d   1       0.465   0.372   0.508  0.00  0.00     0.017 A 
ATOM      6  C5  UNL d   1       1.693   0.662   1.109  0.00  0.00     0.034 A 
ATOM      7 Cl   UNL d   1       0.078   1.185  -0.967  0.00  0.00    -0.070 Cl
ATOM      8 Cl1  UNL d   1      -1.934  -0.963   0.424  0.00  0.00    -0.070 Cl
ENDROOT
TORSDOF 0
ENDMDL
