MODEL 1
REMARK minimizedAffinity -4.73118782
REMARK minimizedRMSD -1
REMARK  0 active torsions:
REMARK  status: ('A' for Active; 'I' for Inactive)
ROOT
ATOM      1  C   UNL d   1       1.005  -1.526   2.713  0.00  0.00     0.020 A 
ATOM      2  C1  UNL d   1       0.132  -0.442   2.796  0.00  0.00     0.020 A 
ATOM      3  C2  UNL d   1      -0.255   0.234   1.637  0.00  0.00     0.034 A 
ATOM      4  C3  UNL d   1       0.232  -0.174   0.389  0.00  0.00     0.017 A 
ATOM      5  C4  UNL d   1       1.108  -1.262   0.307  0.00  0.00     0.017 A 
ATOM      6  C5  UNL d   1       1.491  -1.935   1.471  0.00  0.00     0.034 A 
ATOM      7 Cl   UNL d   1       1.750  -1.823  -1.197  0.00  0.00    -0.070 Cl
ATOM      8 Cl1  UNL d   1      -0.288   0.708  -1.003  0.00  0.00    -0.070 Cl
ENDROOT
TORSDOF 0
ENDMDL
