MODEL 1
REMARK minimizedAffinity -3.92258644
REMARK minimizedRMSD -1
REMARK  0 active torsions:
REMARK  status: ('A' for Active; 'I' for Inactive)
ROOT
ATOM      1  C   UNL d   1       1.814  -0.558   2.241  0.00  0.00     0.020 A 
ATOM      2  C1  UNL d   1       0.858  -1.352   2.872  0.00  0.00     0.020 A 
ATOM      3  C2  UNL d   1      -0.446  -1.405   2.373  0.00  0.00     0.034 A 
ATOM      4  C3  UNL d   1      -0.796  -0.662   1.240  0.00  0.00     0.017 A 
ATOM      5  C4  UNL d   1       0.165   0.135   0.607  0.00  0.00     0.017 A 
ATOM      6  C5  UNL d   1       1.469   0.184   1.111  0.00  0.00     0.034 A 
ATOM      7 Cl   UNL d   1      -0.192   1.080  -0.795  0.00  0.00    -0.070 Cl
ATOM      8 Cl1  UNL d   1      -2.426  -0.774   0.678  0.00  0.00    -0.070 Cl
ENDROOT
TORSDOF 0
ENDMDL
