MODEL 1
REMARK minimizedAffinity -4.3701582
REMARK minimizedRMSD -1
REMARK  0 active torsions:
REMARK  status: ('A' for Active; 'I' for Inactive)
ROOT
ATOM      1  C   UNL d   1       2.048  -0.515   2.185  0.00  0.00     0.020 A 
ATOM      2  C1  UNL d   1       1.055  -1.216   2.869  0.00  0.00     0.020 A 
ATOM      3  C2  UNL d   1      -0.247  -1.252   2.365  0.00  0.00     0.034 A 
ATOM      4  C3  UNL d   1      -0.560  -0.586   1.175  0.00  0.00     0.017 A 
ATOM      5  C4  UNL d   1       0.437   0.117   0.489  0.00  0.00     0.017 A 
ATOM      6  C5  UNL d   1       1.739   0.150   0.997  0.00  0.00     0.034 A 
ATOM      7 Cl   UNL d   1       0.127   0.963  -0.986  0.00  0.00    -0.070 Cl
ATOM      8 Cl1  UNL d   1      -2.191  -0.673   0.610  0.00  0.00    -0.070 Cl
ENDROOT
TORSDOF 0
ENDMDL
