MODEL 1
REMARK minimizedAffinity -1.54477227
REMARK minimizedRMSD -1
REMARK  0 active torsions:
REMARK  status: ('A' for Active; 'I' for Inactive)
ROOT
ATOM      1  C   UNL d   1      -3.881   2.568  -2.113  0.00  0.00     0.020 A 
ATOM      2  C1  UNL d   1      -3.535   3.726  -2.808  0.00  0.00     0.020 A 
ATOM      3  C2  UNL d   1      -2.191   4.030  -3.033  0.00  0.00     0.034 A 
ATOM      4  C3  UNL d   1      -1.188   3.175  -2.562  0.00  0.00     0.017 A 
ATOM      5  C4  UNL d   1      -1.536   2.013  -1.864  0.00  0.00     0.017 A 
ATOM      6  C5  UNL d   1      -2.883   1.714  -1.642  0.00  0.00     0.034 A 
ATOM      7 Cl   UNL d   1      -0.354   0.910  -1.252  0.00  0.00    -0.070 Cl
ATOM      8 Cl1  UNL d   1       0.454   3.613  -2.877  0.00  0.00    -0.070 Cl
ENDROOT
TORSDOF 0
ENDMDL
