MODEL 1
REMARK minimizedAffinity -5.1489563
REMARK minimizedRMSD -1
REMARK  0 active torsions:
REMARK  status: ('A' for Active; 'I' for Inactive)
ROOT
ATOM      1  O1  BZF d   1       1.522  -0.120  -0.718  0.00  0.00    -0.204 OA
ATOM      2  C2  BZF d   1       1.220   1.156  -0.281  0.00  0.00     0.174 A 
ATOM      3  C3  BZF d   1       0.172   1.135   0.567  0.00  0.00    -0.012 A 
ATOM      4  C3A BZF d   1      -0.147  -0.249   0.738  0.00  0.00    -0.107 A 
ATOM      5  C4  BZF d   1      -1.085  -0.912   1.476  0.00  0.00     0.055 A 
ATOM      6  C5  BZF d   1      -1.179  -2.264   1.365  0.00  0.00    -0.016 A 
ATOM      7  C6  BZF d   1      -0.355  -2.982   0.523  0.00  0.00     0.022 A 
ATOM      8  C7  BZF d   1       0.594  -2.368  -0.225  0.00  0.00     0.029 A 
ATOM      9  C7A BZF d   1       0.714  -1.007  -0.090  0.00  0.00     0.058 A 
ENDROOT
TORSDOF 0
ENDMDL
