MODEL 1
REMARK minimizedAffinity -3.3746407
REMARK minimizedRMSD -1
REMARK  0 active torsions:
REMARK  status: ('A' for Active; 'I' for Inactive)
ROOT
ATOM      1  O1  BZF d   1       1.062  -0.873  -1.787  0.00  0.00    -0.204 OA
ATOM      2  C2  BZF d   1       0.448   0.313  -2.142  0.00  0.00     0.174 A 
ATOM      3  C3  BZF d   1      -0.576   0.588  -1.309  0.00  0.00    -0.012 A 
ATOM      4  C3A BZF d   1      -0.546  -0.445  -0.320  0.00  0.00    -0.107 A 
ATOM      5  C4  BZF d   1      -1.303  -0.710   0.785  0.00  0.00     0.055 A 
ATOM      6  C5  BZF d   1      -1.059  -1.841   1.498  0.00  0.00    -0.016 A 
ATOM      7  C6  BZF d   1      -0.070  -2.730   1.132  0.00  0.00     0.022 A 
ATOM      8  C7  BZF d   1       0.711  -2.508   0.047  0.00  0.00     0.029 A 
ATOM      9  C7A BZF d   1       0.488  -1.350  -0.657  0.00  0.00     0.058 A 
ENDROOT
TORSDOF 0
ENDMDL
