MODEL 1
REMARK minimizedAffinity -2.91236281
REMARK minimizedRMSD -1
REMARK  0 active torsions:
REMARK  status: ('A' for Active; 'I' for Inactive)
ROOT
ATOM      1  O1  BZF d   1       1.185  -1.465  -1.235  0.00  0.00    -0.204 OA
ATOM      2  C2  BZF d   1       0.888  -2.661  -0.612  0.00  0.00     0.174 A 
ATOM      3  C3  BZF d   1       0.127  -2.455   0.482  0.00  0.00    -0.012 A 
ATOM      4  C3A BZF d   1      -0.141  -1.049   0.494  0.00  0.00    -0.107 A 
ATOM      5  C4  BZF d   1      -0.858  -0.237   1.325  0.00  0.00     0.055 A 
ATOM      6  C5  BZF d   1      -0.861   1.103   1.099  0.00  0.00    -0.016 A 
ATOM      7  C6  BZF d   1      -0.154   1.664   0.057  0.00  0.00     0.022 A 
ATOM      8  C7  BZF d   1       0.569   0.899  -0.798  0.00  0.00     0.029 A 
ATOM      9  C7A BZF d   1       0.546  -0.459  -0.592  0.00  0.00     0.058 A 
ENDROOT
TORSDOF 0
ENDMDL
