MODEL 1
REMARK minimizedAffinity -2.75355887
REMARK minimizedRMSD -1
REMARK  0 active torsions:
REMARK  status: ('A' for Active; 'I' for Inactive)
ROOT
ATOM      1  O1  BZF d   1      -0.446   1.114   0.347  0.00  0.00    -0.204 OA
ATOM      2  C2  BZF d   1       0.504   1.432  -0.604  0.00  0.00     0.174 A 
ATOM      3  C3  BZF d   1       1.130   0.322  -1.045  0.00  0.00    -0.012 A 
ATOM      4  C3A BZF d   1       0.471  -0.767  -0.391  0.00  0.00    -0.107 A 
ATOM      5  C4  BZF d   1       0.631  -2.123  -0.432  0.00  0.00     0.055 A 
ATOM      6  C5  BZF d   1      -0.126  -2.902   0.384  0.00  0.00    -0.016 A 
ATOM      7  C6  BZF d   1      -1.047  -2.360   1.256  0.00  0.00     0.022 A 
ATOM      8  C7  BZF d   1      -1.245  -1.021   1.329  0.00  0.00     0.029 A 
ATOM      9  C7A BZF d   1      -0.505  -0.233   0.482  0.00  0.00     0.058 A 
ENDROOT
TORSDOF 0
ENDMDL
