MODEL 1
REMARK minimizedAffinity -4.88502121
REMARK minimizedRMSD -1
REMARK  0 active torsions:
REMARK  status: ('A' for Active; 'I' for Inactive)
ROOT
ATOM      1  O1  BZF d   1       0.310   0.215  -1.239  0.00  0.00    -0.204 OA
ATOM      2  C2  BZF d   1      -0.105   0.755  -0.037  0.00  0.00     0.174 A 
ATOM      3  C3  BZF d   1      -0.513  -0.215   0.808  0.00  0.00    -0.012 A 
ATOM      4  C3A BZF d   1      -0.254  -1.444   0.122  0.00  0.00    -0.107 A 
ATOM      5  C4  BZF d   1      -0.431  -2.757   0.451  0.00  0.00     0.055 A 
ATOM      6  C5  BZF d   1      -0.145  -3.713  -0.471  0.00  0.00    -0.016 A 
ATOM      7  C6  BZF d   1       0.313  -3.392  -1.732  0.00  0.00     0.022 A 
ATOM      8  C7  BZF d   1       0.508  -2.103  -2.103  0.00  0.00     0.029 A 
ATOM      9  C7A BZF d   1       0.252  -1.136  -1.162  0.00  0.00     0.058 A 
ENDROOT
TORSDOF 0
ENDMDL
