MODEL 1
REMARK minimizedAffinity -3.78849697
REMARK minimizedRMSD -1
REMARK  0 active torsions:
REMARK  status: ('A' for Active; 'I' for Inactive)
ROOT
ATOM      1  O1  BZF d   1       0.265  -3.158   0.369  0.00  0.00    -0.204 OA
ATOM      2  C2  BZF d   1      -0.922  -3.855   0.473  0.00  0.00     0.174 A 
ATOM      3  C3  BZF d   1      -1.956  -3.013   0.673  0.00  0.00    -0.012 A 
ATOM      4  C3A BZF d   1      -1.391  -1.700   0.603  0.00  0.00    -0.107 A 
ATOM      5  C4  BZF d   1      -1.917  -0.445   0.708  0.00  0.00     0.055 A 
ATOM      6  C5  BZF d   1      -1.082   0.627   0.666  0.00  0.00    -0.016 A 
ATOM      7  C6  BZF d   1       0.282   0.479   0.526  0.00  0.00     0.022 A 
ATOM      8  C7  BZF d   1       0.850  -0.746   0.413  0.00  0.00     0.029 A 
ATOM      9  C7A BZF d   1       0.006  -1.829   0.421  0.00  0.00     0.058 A 
ENDROOT
TORSDOF 0
ENDMDL
