MODEL 1
REMARK minimizedAffinity -3.722157
REMARK minimizedRMSD -1
REMARK  0 active torsions:
REMARK  status: ('A' for Active; 'I' for Inactive)
ROOT
ATOM      1  O1  BZF d   1      -0.801   1.168   0.360  0.00  0.00    -0.204 OA
ATOM      2  C2  BZF d   1       0.122   1.513  -0.609  0.00  0.00     0.174 A 
ATOM      3  C3  BZF d   1       0.869   0.446  -0.959  0.00  0.00    -0.012 A 
ATOM      4  C3A BZF d   1       0.322  -0.654  -0.226  0.00  0.00    -0.107 A 
ATOM      5  C4  BZF d   1       0.626  -1.984  -0.161  0.00  0.00     0.055 A 
ATOM      6  C5  BZF d   1      -0.054  -2.775   0.710  0.00  0.00    -0.016 A 
ATOM      7  C6  BZF d   1      -1.039  -2.271   1.533  0.00  0.00     0.022 A 
ATOM      8  C7  BZF d   1      -1.380  -0.959   1.500  0.00  0.00     0.029 A 
ATOM      9  C7A BZF d   1      -0.717  -0.163   0.598  0.00  0.00     0.058 A 
ENDROOT
TORSDOF 0
ENDMDL
