MODEL 1
REMARK minimizedAffinity -4.13044262
REMARK minimizedRMSD -1
REMARK  0 active torsions:
REMARK  status: ('A' for Active; 'I' for Inactive)
ROOT
ATOM      1  O1  BZF d   1       0.194   0.763   1.270  0.00  0.00    -0.204 OA
ATOM      2  C2  BZF d   1       0.053   0.413  -0.059  0.00  0.00     0.174 A 
ATOM      3  C3  BZF d   1       0.630   1.333  -0.859  0.00  0.00    -0.012 A 
ATOM      4  C3A BZF d   1       1.244   2.272   0.029  0.00  0.00    -0.107 A 
ATOM      5  C4  BZF d   1       1.983   3.404  -0.166  0.00  0.00     0.055 A 
ATOM      6  C5  BZF d   1       2.371   4.133   0.913  0.00  0.00    -0.016 A 
ATOM      7  C6  BZF d   1       2.035   3.763   2.199  0.00  0.00     0.022 A 
ATOM      8  C7  BZF d   1       1.308   2.646   2.442  0.00  0.00     0.029 A 
ATOM      9  C7A BZF d   1       0.942   1.889   1.356  0.00  0.00     0.058 A 
ENDROOT
TORSDOF 0
ENDMDL
