MODEL 1
REMARK minimizedAffinity -6.35432386
REMARK minimizedRMSD -1
REMARK  0 active torsions:
REMARK  status: ('A' for Active; 'I' for Inactive)
ROOT
ATOM      1  O1  BZF d   1       0.325   0.325  -1.116  0.00  0.00    -0.204 OA
ATOM      2  C2  BZF d   1       0.117   0.853   0.143  0.00  0.00     0.174 A 
ATOM      3  C3  BZF d   1      -0.137  -0.126   1.036  0.00  0.00    -0.012 A 
ATOM      4  C3A BZF d   1       0.007  -1.348   0.305  0.00  0.00    -0.107 A 
ATOM      5  C4  BZF d   1      -0.104  -2.665   0.648  0.00  0.00     0.055 A 
ATOM      6  C5  BZF d   1       0.025  -3.612  -0.318  0.00  0.00    -0.016 A 
ATOM      7  C6  BZF d   1       0.262  -3.278  -1.636  0.00  0.00     0.022 A 
ATOM      8  C7  BZF d   1       0.385  -1.985  -2.023  0.00  0.00     0.029 A 
ATOM      9  C7A BZF d   1       0.287  -1.027  -1.043  0.00  0.00     0.058 A 
ENDROOT
TORSDOF 0
ENDMDL
