MODEL 1
REMARK minimizedAffinity -2.43868089
REMARK minimizedRMSD -1
REMARK  0 active torsions:
REMARK  status: ('A' for Active; 'I' for Inactive)
ROOT
ATOM      1  O1  BZF d   1       0.576  -1.001  -2.134  0.00  0.00    -0.204 OA
ATOM      2  C2  BZF d   1       0.352  -2.193  -2.794  0.00  0.00     0.174 A 
ATOM      3  C3  BZF d   1      -0.301  -3.065  -1.999  0.00  0.00    -0.012 A 
ATOM      4  C3A BZF d   1      -0.579  -2.342  -0.796  0.00  0.00    -0.107 A 
ATOM      5  C4  BZF d   1      -1.218  -2.665   0.367  0.00  0.00     0.055 A 
ATOM      6  C5  BZF d   1      -1.254  -1.754   1.375  0.00  0.00    -0.016 A 
ATOM      7  C6  BZF d   1      -0.657  -0.516   1.257  0.00  0.00     0.022 A 
ATOM      8  C7  BZF d   1      -0.015  -0.149   0.122  0.00  0.00     0.029 A 
ATOM      9  C7A BZF d   1      -0.006  -1.055  -0.911  0.00  0.00     0.058 A 
ENDROOT
TORSDOF 0
ENDMDL
