MODEL 1
REMARK minimizedAffinity -5.12365341
REMARK minimizedRMSD -1
REMARK  0 active torsions:
REMARK  status: ('A' for Active; 'I' for Inactive)
ROOT
ATOM      1  O1  BZF d   1      -0.615  -2.625   1.504  0.00  0.00    -0.204 OA
ATOM      2  C2  BZF d   1      -0.940  -1.321   1.823  0.00  0.00     0.174 A 
ATOM      3  C3  BZF d   1      -0.691  -0.498   0.784  0.00  0.00    -0.012 A 
ATOM      4  C3A BZF d   1      -0.266  -1.354  -0.281  0.00  0.00    -0.107 A 
ATOM      5  C4  BZF d   1       0.108  -1.128  -1.575  0.00  0.00     0.055 A 
ATOM      6  C5  BZF d   1       0.537  -2.173  -2.330  0.00  0.00    -0.016 A 
ATOM      7  C6  BZF d   1       0.609  -3.454  -1.823  0.00  0.00     0.022 A 
ATOM      8  C7  BZF d   1       0.244  -3.728  -0.547  0.00  0.00     0.029 A 
ATOM      9  C7A BZF d   1      -0.221  -2.680   0.209  0.00  0.00     0.058 A 
ENDROOT
TORSDOF 0
ENDMDL
