MODEL 1
REMARK minimizedAffinity -5.93906593
REMARK minimizedRMSD -1
REMARK  0 active torsions:
REMARK  status: ('A' for Active; 'I' for Inactive)
ROOT
ATOM      1  O1  BZF d   1       0.367   0.269  -0.959  0.00  0.00    -0.204 OA
ATOM      2  C2  BZF d   1      -0.053   0.758   0.263  0.00  0.00     0.174 A 
ATOM      3  C3  BZF d   1      -0.298  -0.251   1.123  0.00  0.00    -0.012 A 
ATOM      4  C3A BZF d   1       0.075  -1.442   0.422  0.00  0.00    -0.107 A 
ATOM      5  C4  BZF d   1       0.077  -2.766   0.756  0.00  0.00     0.055 A 
ATOM      6  C5  BZF d   1       0.432  -3.683  -0.182  0.00  0.00    -0.016 A 
ATOM      7  C6  BZF d   1       0.786  -3.312  -1.463  0.00  0.00     0.022 A 
ATOM      8  C7  BZF d   1       0.804  -2.010  -1.839  0.00  0.00     0.029 A 
ATOM      9  C7A BZF d   1       0.478  -1.079  -0.884  0.00  0.00     0.058 A 
ENDROOT
TORSDOF 0
ENDMDL
