MODEL 1
REMARK minimizedAffinity -3.02873421
REMARK minimizedRMSD -1
REMARK  0 active torsions:
REMARK  status: ('A' for Active; 'I' for Inactive)
ROOT
ATOM      1  O1  BZF d   1      -1.345  -1.407   0.166  0.00  0.00    -0.204 OA
ATOM      2  C2  BZF d   1      -1.627  -1.178   1.499  0.00  0.00     0.174 A 
ATOM      3  C3  BZF d   1      -1.152   0.022   1.890  0.00  0.00    -0.012 A 
ATOM      4  C3A BZF d   1      -0.615   0.618   0.705  0.00  0.00    -0.107 A 
ATOM      5  C4  BZF d   1      -0.014   1.817   0.447  0.00  0.00     0.055 A 
ATOM      6  C5  BZF d   1       0.462   2.061  -0.802  0.00  0.00    -0.016 A 
ATOM      7  C6  BZF d   1       0.361   1.129  -1.814  0.00  0.00     0.022 A 
ATOM      8  C7  BZF d   1      -0.231  -0.073  -1.607  0.00  0.00     0.029 A 
ATOM      9  C7A BZF d   1      -0.743  -0.310  -0.354  0.00  0.00     0.058 A 
ENDROOT
TORSDOF 0
ENDMDL
