MODEL 1
REMARK minimizedAffinity -5.81004333
REMARK minimizedRMSD -1
REMARK  0 active torsions:
REMARK  status: ('A' for Active; 'I' for Inactive)
ROOT
ATOM      1  O1  BZF d   1      -0.434  -3.023   1.084  0.00  0.00    -0.204 OA
ATOM      2  C2  BZF d   1       0.663  -3.369   0.319  0.00  0.00     0.174 A 
ATOM      3  C3  BZF d   1       1.097  -2.313  -0.399  0.00  0.00    -0.012 A 
ATOM      4  C3A BZF d   1       0.274  -1.217   0.008  0.00  0.00    -0.107 A 
ATOM      5  C4  BZF d   1       0.230   0.104  -0.338  0.00  0.00     0.055 A 
ATOM      6  C5  BZF d   1      -0.743   0.893   0.189  0.00  0.00    -0.016 A 
ATOM      7  C6  BZF d   1      -1.690   0.394   1.060  0.00  0.00     0.022 A 
ATOM      8  C7  BZF d   1      -1.684  -0.908   1.437  0.00  0.00     0.029 A 
ATOM      9  C7A BZF d   1      -0.682  -1.700   0.931  0.00  0.00     0.058 A 
ENDROOT
TORSDOF 0
ENDMDL
