MODEL 1
REMARK minimizedAffinity -3.23752761
REMARK minimizedRMSD -1
REMARK  0 active torsions:
REMARK  status: ('A' for Active; 'I' for Inactive)
ROOT
ATOM      1  O1  BZF d   1      -0.148  -0.352  -0.908  0.00  0.00    -0.204 OA
ATOM      2  C2  BZF d   1       0.273   0.949  -0.711  0.00  0.00     0.174 A 
ATOM      3  C3  BZF d   1      -0.136   1.407   0.490  0.00  0.00    -0.012 A 
ATOM      4  C3A BZF d   1      -0.778   0.293   1.119  0.00  0.00    -0.107 A 
ATOM      5  C4  BZF d   1      -1.376   0.118   2.334  0.00  0.00     0.055 A 
ATOM      6  C5  BZF d   1      -1.971  -1.072   2.611  0.00  0.00    -0.016 A 
ATOM      7  C6  BZF d   1      -1.991  -2.104   1.697  0.00  0.00     0.022 A 
ATOM      8  C7  BZF d   1      -1.407  -1.979   0.480  0.00  0.00     0.029 A 
ATOM      9  C7A BZF d   1      -0.776  -0.790   0.210  0.00  0.00     0.058 A 
ENDROOT
TORSDOF 0
ENDMDL
