MODEL 1
REMARK minimizedAffinity -1.04620659
REMARK minimizedRMSD -1
REMARK  0 active torsions:
REMARK  status: ('A' for Active; 'I' for Inactive)
ROOT
ATOM      1  C1  DEN d   1       5.970  -0.988   2.331  0.00  0.00     0.130 A 
ATOM      2  C2  DEN d   1       5.980  -2.371   2.800  0.00  0.00    -0.031 A 
ATOM      3  C3  DEN d   1       5.976  -2.353   4.276  0.00  0.00     0.027 A 
ATOM      4  C4  DEN d   1       5.952  -0.328   5.874  0.00  0.00     0.027 A 
ATOM      5  C5  DEN d   1       5.952   1.048   5.942  0.00  0.00    -0.003 A 
ATOM      6  C6  DEN d   1       5.993   1.835   4.822  0.00  0.00     0.001 A 
ATOM      7  C7  DEN d   1       5.989   1.252   3.582  0.00  0.00     0.017 A 
ATOM      8  C8  DEN d   1       5.996  -0.135   3.505  0.00  0.00    -0.094 A 
ATOM      9  C9  DEN d   1       5.943  -0.913   4.649  0.00  0.00    -0.072 A 
ENDROOT
TORSDOF 0
ENDMDL
