MODEL 1
REMARK minimizedAffinity 12.5588121
REMARK minimizedRMSD -1
REMARK  0 active torsions:
REMARK  status: ('A' for Active; 'I' for Inactive)
ROOT
ATOM      1  C1  DEN d   1      -1.809  -1.818  -0.007  0.00  0.00     0.130 A 
ATOM      2  C2  DEN d   1      -1.491  -3.153  -0.506  0.00  0.00    -0.031 A 
ATOM      3  C3  DEN d   1      -0.440  -3.019  -1.534  0.00  0.00     0.027 A 
ATOM      4  C4  DEN d   1       0.724  -0.884  -2.395  0.00  0.00     0.027 A 
ATOM      5  C5  DEN d   1       0.781   0.488  -2.280  0.00  0.00    -0.003 A 
ATOM      6  C6  DEN d   1      -0.038   1.184  -1.431  0.00  0.00     0.001 A 
ATOM      7  C7  DEN d   1      -0.920   0.507  -0.630  0.00  0.00     0.017 A 
ATOM      8  C8  DEN d   1      -0.988  -0.876  -0.746  0.00  0.00    -0.094 A 
ATOM      9  C9  DEN d   1      -0.143  -1.562  -1.601  0.00  0.00    -0.072 A 
ENDROOT
TORSDOF 0
ENDMDL
