MODEL 1
REMARK minimizedAffinity -0.820341885
REMARK minimizedRMSD -1
REMARK  0 active torsions:
REMARK  status: ('A' for Active; 'I' for Inactive)
ROOT
ATOM      1  C1  DEN d   1       6.000   3.711   3.140  0.00  0.00     0.130 A 
ATOM      2  C2  DEN d   1       5.968   4.731   4.185  0.00  0.00    -0.031 A 
ATOM      3  C3  DEN d   1       5.953   4.044   5.492  0.00  0.00     0.027 A 
ATOM      4  C4  DEN d   1       5.980   1.514   5.996  0.00  0.00     0.027 A 
ATOM      5  C5  DEN d   1       5.995   0.258   5.433  0.00  0.00    -0.003 A 
ATOM      6  C6  DEN d   1       5.978   0.065   4.077  0.00  0.00     0.001 A 
ATOM      7  C7  DEN d   1       5.991   1.147   3.238  0.00  0.00     0.017 A 
ATOM      8  C8  DEN d   1       5.969   2.418   3.798  0.00  0.00    -0.094 A 
ATOM      9  C9  DEN d   1       5.998   2.592   5.171  0.00  0.00    -0.072 A 
ENDROOT
TORSDOF 0
ENDMDL
