MODEL 1
REMARK minimizedAffinity -4.42464876
REMARK minimizedRMSD -1
REMARK  0 active torsions:
REMARK  status: ('A' for Active; 'I' for Inactive)
ROOT
ATOM      1  C1  DEN d   1       5.788   1.959   5.249  0.00  0.00     0.130 A 
ATOM      2  C2  DEN d   1       5.640   0.880   4.275  0.00  0.00    -0.031 A 
ATOM      3  C3  DEN d   1       5.624   1.481   2.927  0.00  0.00     0.027 A 
ATOM      4  C4  DEN d   1       5.818   3.964   2.254  0.00  0.00     0.027 A 
ATOM      5  C5  DEN d   1       5.949   5.249   2.732  0.00  0.00    -0.003 A 
ATOM      6  C6  DEN d   1       6.000   5.529   4.072  0.00  0.00     0.001 A 
ATOM      7  C7  DEN d   1       5.966   4.504   4.980  0.00  0.00     0.017 A 
ATOM      8  C8  DEN d   1       5.827   3.206   4.507  0.00  0.00    -0.094 A 
ATOM      9  C9  DEN d   1       5.789   2.943   3.148  0.00  0.00    -0.072 A 
ENDROOT
TORSDOF 0
ENDMDL
