MODEL 1
REMARK minimizedAffinity -4.97465611
REMARK minimizedRMSD -1
REMARK  0 active torsions:
REMARK  status: ('A' for Active; 'I' for Inactive)
ROOT
ATOM      1  C1  DEN d   1       6.000   0.985   3.676  0.00  0.00     0.130 A 
ATOM      2  C2  DEN d   1       5.973   1.633   4.984  0.00  0.00    -0.031 A 
ATOM      3  C3  DEN d   1       5.690   0.599   6.000  0.00  0.00     0.027 A 
ATOM      4  C4  DEN d   1       5.299  -1.930   5.676  0.00  0.00     0.027 A 
ATOM      5  C5  DEN d   1       5.213  -2.942   4.746  0.00  0.00    -0.003 A 
ATOM      6  C6  DEN d   1       5.348  -2.713   3.402  0.00  0.00     0.001 A 
ATOM      7  C7  DEN d   1       5.622  -1.448   2.954  0.00  0.00     0.017 A 
ATOM      8  C8  DEN d   1       5.703  -0.421   3.885  0.00  0.00    -0.094 A 
ATOM      9  C9  DEN d   1       5.575  -0.675   5.240  0.00  0.00    -0.072 A 
ENDROOT
TORSDOF 0
ENDMDL
