MODEL 1
REMARK minimizedAffinity -1.38753939
REMARK minimizedRMSD -1
REMARK  0 active torsions:
REMARK  status: ('A' for Active; 'I' for Inactive)
ROOT
ATOM      1  C1  DEN d   1       5.971   3.302   3.151  0.00  0.00     0.130 A 
ATOM      2  C2  DEN d   1       5.944   4.316   4.201  0.00  0.00    -0.031 A 
ATOM      3  C3  DEN d   1       5.943   3.624   5.505  0.00  0.00     0.027 A 
ATOM      4  C4  DEN d   1       5.984   1.093   5.999  0.00  0.00     0.027 A 
ATOM      5  C5  DEN d   1       5.999  -0.161   5.430  0.00  0.00    -0.003 A 
ATOM      6  C6  DEN d   1       5.972  -0.349   4.074  0.00  0.00     0.001 A 
ATOM      7  C7  DEN d   1       5.973   0.737   3.238  0.00  0.00     0.017 A 
ATOM      8  C8  DEN d   1       5.951   2.005   3.804  0.00  0.00    -0.094 A 
ATOM      9  C9  DEN d   1       5.991   2.174   5.178  0.00  0.00    -0.072 A 
ENDROOT
TORSDOF 0
ENDMDL
