MODEL 1
REMARK minimizedAffinity 1.03033495
REMARK minimizedRMSD -1
REMARK  0 active torsions:
REMARK  status: ('A' for Active; 'I' for Inactive)
ROOT
ATOM      1  C1  DEN d   1       5.993   0.622   5.975  0.00  0.00     0.130 A 
ATOM      2  C2  DEN d   1       5.952  -0.478   5.016  0.00  0.00    -0.031 A 
ATOM      3  C3  DEN d   1       5.936   0.101   3.658  0.00  0.00     0.027 A 
ATOM      4  C4  DEN d   1       5.976   2.581   2.950  0.00  0.00     0.027 A 
ATOM      5  C5  DEN d   1       6.000   3.879   3.410  0.00  0.00    -0.003 A 
ATOM      6  C6  DEN d   1       5.989   4.181   4.746  0.00  0.00     0.001 A 
ATOM      7  C7  DEN d   1       5.999   3.170   5.670  0.00  0.00     0.017 A 
ATOM      8  C8  DEN d   1       5.967   1.858   5.214  0.00  0.00    -0.094 A 
ATOM      9  C9  DEN d   1       5.991   1.574   3.860  0.00  0.00    -0.072 A 
ENDROOT
TORSDOF 0
ENDMDL
