MODEL 1
REMARK minimizedAffinity 0.530048072
REMARK minimizedRMSD -1
REMARK  0 active torsions:
REMARK  status: ('A' for Active; 'I' for Inactive)
ROOT
ATOM      1  C1  DEN d   1       5.968   0.982   3.192  0.00  0.00     0.130 A 
ATOM      2  C2  DEN d   1       5.990   0.344   4.505  0.00  0.00    -0.031 A 
ATOM      3  C3  DEN d   1       6.000   1.408   5.530  0.00  0.00     0.027 A 
ATOM      4  C4  DEN d   1       5.978   3.967   5.211  0.00  0.00     0.027 A 
ATOM      5  C5  DEN d   1       5.971   4.982   4.281  0.00  0.00    -0.003 A 
ATOM      6  C6  DEN d   1       5.997   4.738   2.933  0.00  0.00     0.001 A 
ATOM      7  C7  DEN d   1       5.985   3.446   2.477  0.00  0.00     0.017 A 
ATOM      8  C8  DEN d   1       6.000   2.417   3.410  0.00  0.00    -0.094 A 
ATOM      9  C9  DEN d   1       5.961   2.685   4.768  0.00  0.00    -0.072 A 
ENDROOT
TORSDOF 0
ENDMDL
