MODEL 1
REMARK minimizedAffinity -1.53841698
REMARK minimizedRMSD -1
REMARK  0 active torsions:
REMARK  status: ('A' for Active; 'I' for Inactive)
ROOT
ATOM      1  C1  DEN d   1       5.407   0.019   3.666  0.00  0.00     0.130 A 
ATOM      2  C2  DEN d   1       5.509  -0.659   4.955  0.00  0.00    -0.031 A 
ATOM      3  C3  DEN d   1       5.762   0.363   5.990  0.00  0.00     0.027 A 
ATOM      4  C4  DEN d   1       5.999   2.918   5.724  0.00  0.00     0.027 A 
ATOM      5  C5  DEN d   1       6.000   3.957   4.820  0.00  0.00    -0.003 A 
ATOM      6  C6  DEN d   1       5.838   3.754   3.475  0.00  0.00     0.001 A 
ATOM      7  C7  DEN d   1       5.624   2.488   3.000  0.00  0.00     0.017 A 
ATOM      8  C8  DEN d   1       5.629   1.434   3.905  0.00  0.00    -0.094 A 
ATOM      9  C9  DEN d   1       5.782   1.660   5.262  0.00  0.00    -0.072 A 
ENDROOT
TORSDOF 0
ENDMDL
