MODEL 1
REMARK minimizedAffinity -0.574151933
REMARK minimizedRMSD -1
REMARK  0 active torsions:
REMARK  status: ('A' for Active; 'I' for Inactive)
ROOT
ATOM      1  C1  DEN d   1       4.698   3.750   4.880  0.00  0.00     0.130 A 
ATOM      2  C2  DEN d   1       5.354   4.496   3.809  0.00  0.00    -0.031 A 
ATOM      3  C3  DEN d   1       5.983   3.522   2.894  0.00  0.00     0.027 A 
ATOM      4  C4  DEN d   1       6.000   0.947   3.026  0.00  0.00     0.027 A 
ATOM      5  C5  DEN d   1       5.586  -0.142   3.761  0.00  0.00    -0.003 A 
ATOM      6  C6  DEN d   1       4.883  -0.010   4.929  0.00  0.00     0.001 A 
ATOM      7  C7  DEN d   1       4.532   1.237   5.373  0.00  0.00     0.017 A 
ATOM      8  C8  DEN d   1       4.952   2.340   4.641  0.00  0.00    -0.094 A 
ATOM      9  C9  DEN d   1       5.652   2.186   3.457  0.00  0.00    -0.072 A 
ENDROOT
TORSDOF 0
ENDMDL
