MODEL 1
REMARK minimizedAffinity -4.85453129
REMARK minimizedRMSD -1
REMARK  0 active torsions:
REMARK  status: ('A' for Active; 'I' for Inactive)
ROOT
ATOM      1  C1  DEN d   1       5.353  -0.629   3.810  0.00  0.00     0.130 A 
ATOM      2  C2  DEN d   1       5.210  -0.806   5.253  0.00  0.00    -0.031 A 
ATOM      3  C3  DEN d   1       5.337   0.521   5.890  0.00  0.00     0.027 A 
ATOM      4  C4  DEN d   1       5.734   2.819   4.788  0.00  0.00     0.027 A 
ATOM      5  C5  DEN d   1       5.932   3.470   3.590  0.00  0.00    -0.003 A 
ATOM      6  C6  DEN d   1       5.985   2.803   2.396  0.00  0.00     0.001 A 
ATOM      7  C7  DEN d   1       5.792   1.446   2.367  0.00  0.00     0.017 A 
ATOM      8  C8  DEN d   1       5.600   0.782   3.571  0.00  0.00    -0.094 A 
ATOM      9  C9  DEN d   1       5.537   1.476   4.767  0.00  0.00    -0.072 A 
ENDROOT
TORSDOF 0
ENDMDL
