MODEL 1
REMARK minimizedAffinity -2.97382236
REMARK minimizedRMSD -1
REMARK  0 active torsions:
REMARK  status: ('A' for Active; 'I' for Inactive)
ROOT
ATOM      1  C1  DEN d   1       6.000   4.004   5.022  0.00  0.00     0.130 A 
ATOM      2  C2  DEN d   1       5.519   4.569   3.764  0.00  0.00    -0.031 A 
ATOM      3  C3  DEN d   1       4.926   3.474   2.970  0.00  0.00     0.027 A 
ATOM      4  C4  DEN d   1       4.702   0.975   3.564  0.00  0.00     0.027 A 
ATOM      5  C5  DEN d   1       4.974   0.019   4.518  0.00  0.00    -0.003 A 
ATOM      6  C6  DEN d   1       5.631   0.316   5.682  0.00  0.00     0.001 A 
ATOM      7  C7  DEN d   1       5.999   1.609   5.943  0.00  0.00     0.017 A 
ATOM      8  C8  DEN d   1       5.736   2.577   4.983  0.00  0.00    -0.094 A 
ATOM      9  C9  DEN d   1       5.059   2.259   3.817  0.00  0.00    -0.072 A 
ENDROOT
TORSDOF 0
ENDMDL
