MODEL 1
REMARK minimizedAffinity -2.32889962
REMARK minimizedRMSD -1
REMARK  0 active torsions:
REMARK  status: ('A' for Active; 'I' for Inactive)
ROOT
ATOM      1  C1  DEN d   1       5.529   1.131   3.454  0.00  0.00     0.130 A 
ATOM      2  C2  DEN d   1       5.609   0.750   4.861  0.00  0.00    -0.031 A 
ATOM      3  C3  DEN d   1       5.809   1.978   5.656  0.00  0.00     0.027 A 
ATOM      4  C4  DEN d   1       5.995   4.421   4.849  0.00  0.00     0.027 A 
ATOM      5  C5  DEN d   1       5.999   5.240   3.742  0.00  0.00    -0.003 A 
ATOM      6  C6  DEN d   1       5.881   4.748   2.469  0.00  0.00     0.001 A 
ATOM      7  C7  DEN d   1       5.709   3.403   2.275  0.00  0.00     0.017 A 
ATOM      8  C8  DEN d   1       5.712   2.570   3.386  0.00  0.00    -0.094 A 
ATOM      9  C9  DEN d   1       5.820   3.087   4.665  0.00  0.00    -0.072 A 
ENDROOT
TORSDOF 0
ENDMDL
