MODEL 1
REMARK minimizedAffinity -4.4566226
REMARK minimizedRMSD -1
REMARK  0 active torsions:
REMARK  status: ('A' for Active; 'I' for Inactive)
ROOT
ATOM      1  C1  DEN d   1       5.793   4.409   5.315  0.00  0.00     0.130 A 
ATOM      2  C2  DEN d   1       5.900   5.064   4.014  0.00  0.00    -0.031 A 
ATOM      3  C3  DEN d   1       5.997   4.014   2.980  0.00  0.00     0.027 A 
ATOM      4  C4  DEN d   1       5.989   1.451   3.266  0.00  0.00     0.027 A 
ATOM      5  C5  DEN d   1       5.929   0.424   4.182  0.00  0.00    -0.003 A 
ATOM      6  C6  DEN d   1       5.856   0.651   5.531  0.00  0.00     0.001 A 
ATOM      7  C7  DEN d   1       5.794   1.937   6.000  0.00  0.00     0.017 A 
ATOM      8  C8  DEN d   1       5.860   2.978   5.083  0.00  0.00    -0.094 A 
ATOM      9  C9  DEN d   1       5.922   2.727   3.723  0.00  0.00    -0.072 A 
ENDROOT
TORSDOF 0
ENDMDL
