MODEL 1
REMARK minimizedAffinity -0.336883485
REMARK minimizedRMSD -1
REMARK  0 active torsions:
REMARK  status: ('A' for Active; 'I' for Inactive)
ROOT
ATOM      1  C1  DEN d   1       5.998   4.185   2.242  0.00  0.00     0.130 A 
ATOM      2  C2  DEN d   1       5.959   5.406   3.043  0.00  0.00    -0.031 A 
ATOM      3  C3  DEN d   1       5.943   5.018   4.467  0.00  0.00     0.027 A 
ATOM      4  C4  DEN d   1       5.979   2.658   5.507  0.00  0.00     0.027 A 
ATOM      5  C5  DEN d   1       6.000   1.309   5.228  0.00  0.00    -0.003 A 
ATOM      6  C6  DEN d   1       5.988   0.828   3.946  0.00  0.00     0.001 A 
ATOM      7  C7  DEN d   1       5.999   1.703   2.892  0.00  0.00     0.017 A 
ATOM      8  C8  DEN d   1       5.970   3.064   3.165  0.00  0.00    -0.094 A 
ATOM      9  C9  DEN d   1       5.995   3.531   4.468  0.00  0.00    -0.072 A 
ENDROOT
TORSDOF 0
ENDMDL
