MODEL 1
REMARK minimizedAffinity -3.07351613
REMARK minimizedRMSD -1
REMARK  0 active torsions:
REMARK  status: ('A' for Active; 'I' for Inactive)
ROOT
ATOM      1  C1  DEN d   1       4.570   2.061   4.480  0.00  0.00     0.130 A 
ATOM      2  C2  DEN d   1       5.310   1.016   3.778  0.00  0.00    -0.031 A 
ATOM      3  C3  DEN d   1       6.000   1.637   2.630  0.00  0.00     0.027 A 
ATOM      4  C4  DEN d   1       5.999   4.105   1.878  0.00  0.00     0.027 A 
ATOM      5  C5  DEN d   1       5.507   5.362   2.152  0.00  0.00    -0.003 A 
ATOM      6  C6  DEN d   1       4.649   5.599   3.193  0.00  0.00     0.001 A 
ATOM      7  C7  DEN d   1       4.291   4.571   4.025  0.00  0.00     0.017 A 
ATOM      8  C8  DEN d   1       4.777   3.300   3.751  0.00  0.00    -0.094 A 
ATOM      9  C9  DEN d   1       5.654   3.083   2.701  0.00  0.00    -0.072 A 
ENDROOT
TORSDOF 0
ENDMDL
