MODEL 1
REMARK minimizedAffinity -2.0397501
REMARK minimizedRMSD -1
REMARK  0 active torsions:
REMARK  status: ('A' for Active; 'I' for Inactive)
ROOT
ATOM      1  C1  DEN d   1       5.853   2.488   4.877  0.00  0.00     0.130 A 
ATOM      2  C2  DEN d   1       5.690   1.321   4.014  0.00  0.00    -0.031 A 
ATOM      3  C3  DEN d   1       5.633   1.793   2.616  0.00  0.00     0.027 A 
ATOM      4  C4  DEN d   1       5.786   4.202   1.708  0.00  0.00     0.027 A 
ATOM      5  C5  DEN d   1       5.917   5.528   2.059  0.00  0.00    -0.003 A 
ATOM      6  C6  DEN d   1       6.000   5.932   3.365  0.00  0.00     0.001 A 
ATOM      7  C7  DEN d   1       5.999   4.998   4.367  0.00  0.00     0.017 A 
ATOM      8  C8  DEN d   1       5.861   3.660   4.021  0.00  0.00    -0.094 A 
ATOM      9  C9  DEN d   1       5.790   3.270   2.694  0.00  0.00    -0.072 A 
ENDROOT
TORSDOF 0
ENDMDL
