MODEL 1
REMARK minimizedAffinity -5.2212081
REMARK minimizedRMSD -1
REMARK  0 active torsions:
REMARK  status: ('A' for Active; 'I' for Inactive)
ROOT
ATOM      1  C   UNL d   1       0.087  -0.761  -0.677  0.00  0.00     0.078 C 
ATOM      2  C1  UNL d   1      -0.307   0.293   0.314  0.00  0.00    -0.077 A 
ATOM      3  C2  UNL d   1       0.466   0.534   1.457  0.00  0.00    -0.001 A 
ATOM      4  C3  UNL d   1       0.082   1.512   2.376  0.00  0.00     0.003 A 
ATOM      5  C4  UNL d   1      -1.076   2.256   2.163  0.00  0.00    -0.005 A 
ATOM      6  C5  UNL d   1      -1.854   2.022   1.030  0.00  0.00     0.003 A 
ATOM      7  C6  UNL d   1      -1.471   1.044   0.110  0.00  0.00    -0.001 A 
ENDROOT
TORSDOF 0
ENDMDL
