MODEL 1
REMARK minimizedAffinity -4.72352028
REMARK minimizedRMSD -1
REMARK  0 active torsions:
REMARK  status: ('A' for Active; 'I' for Inactive)
ROOT
ATOM      1  C   UNL d   1      -0.373  -0.819   3.905  0.00  0.00     0.078 C 
ATOM      2  C1  UNL d   1      -0.365  -0.133   2.571  0.00  0.00    -0.077 A 
ATOM      3  C2  UNL d   1       0.016  -0.818   1.410  0.00  0.00    -0.001 A 
ATOM      4  C3  UNL d   1       0.027  -0.164   0.177  0.00  0.00     0.003 A 
ATOM      5  C4  UNL d   1      -0.340   1.177   0.092  0.00  0.00    -0.005 A 
ATOM      6  C5  UNL d   1      -0.719   1.867   1.242  0.00  0.00     0.003 A 
ATOM      7  C6  UNL d   1      -0.731   1.215   2.476  0.00  0.00    -0.001 A 
ENDROOT
TORSDOF 0
ENDMDL
