MODEL 1
REMARK minimizedAffinity -4.10054827
REMARK minimizedRMSD -1
REMARK  0 active torsions:
REMARK  status: ('A' for Active; 'I' for Inactive)
ROOT
ATOM      1  C   UNL d   1      -1.470   2.632   1.416  0.00  0.00     0.078 C 
ATOM      2  C1  UNL d   1      -0.646   1.659   0.628  0.00  0.00    -0.077 A 
ATOM      3  C2  UNL d   1       0.106   0.666   1.268  0.00  0.00    -0.001 A 
ATOM      4  C3  UNL d   1       0.876  -0.227   0.522  0.00  0.00     0.003 A 
ATOM      5  C4  UNL d   1       0.902  -0.137  -0.869  0.00  0.00    -0.005 A 
ATOM      6  C5  UNL d   1       0.159   0.849  -1.514  0.00  0.00     0.003 A 
ATOM      7  C6  UNL d   1      -0.612   1.743  -0.770  0.00  0.00    -0.001 A 
ENDROOT
TORSDOF 0
ENDMDL
