MODEL 1
REMARK minimizedAffinity -5.01216269
REMARK minimizedRMSD -1
REMARK  0 active torsions:
REMARK  status: ('A' for Active; 'I' for Inactive)
ROOT
ATOM      1  C   UNL d   1       1.429  -0.115   0.637  0.00  0.00     0.078 C 
ATOM      2  C1  UNL d   1       0.144   0.659   0.604  0.00  0.00    -0.077 A 
ATOM      3  C2  UNL d   1      -0.624   0.730  -0.564  0.00  0.00    -0.001 A 
ATOM      4  C3  UNL d   1      -1.813   1.462  -0.583  0.00  0.00     0.003 A 
ATOM      5  C4  UNL d   1      -2.243   2.128   0.562  0.00  0.00    -0.005 A 
ATOM      6  C5  UNL d   1      -1.484   2.064   1.729  0.00  0.00     0.003 A 
ATOM      7  C6  UNL d   1      -0.295   1.333   1.750  0.00  0.00    -0.001 A 
ENDROOT
TORSDOF 0
ENDMDL
