MODEL 1
REMARK minimizedAffinity -3.27821875
REMARK minimizedRMSD -1
REMARK  0 active torsions:
REMARK  status: ('A' for Active; 'I' for Inactive)
ROOT
ATOM      1  C   UNL d   1       1.733  -0.467   1.499  0.00  0.00     0.078 C 
ATOM      2  C1  UNL d   1       0.718   0.238   0.648  0.00  0.00    -0.077 A 
ATOM      3  C2  UNL d   1       0.972   0.508  -0.702  0.00  0.00    -0.001 A 
ATOM      4  C3  UNL d   1       0.023   1.173  -1.479  0.00  0.00     0.003 A 
ATOM      5  C4  UNL d   1      -1.187   1.575  -0.915  0.00  0.00    -0.005 A 
ATOM      6  C5  UNL d   1      -1.447   1.312   0.428  0.00  0.00     0.003 A 
ATOM      7  C6  UNL d   1      -0.499   0.647   1.207  0.00  0.00    -0.001 A 
ENDROOT
TORSDOF 0
ENDMDL
