MODEL 1
REMARK minimizedAffinity -4.26632071
REMARK minimizedRMSD -1
REMARK  0 active torsions:
REMARK  status: ('A' for Active; 'I' for Inactive)
ROOT
ATOM      1  C   UNL d   1      -0.101   1.683  -1.987  0.00  0.00     0.078 C 
ATOM      2  C1  UNL d   1       0.021   1.143  -0.594  0.00  0.00    -0.077 A 
ATOM      3  C2  UNL d   1       0.370  -0.194  -0.366  0.00  0.00    -0.001 A 
ATOM      4  C3  UNL d   1       0.471  -0.685   0.937  0.00  0.00     0.003 A 
ATOM      5  C4  UNL d   1       0.222   0.154   2.022  0.00  0.00    -0.005 A 
ATOM      6  C5  UNL d   1      -0.128   1.485   1.805  0.00  0.00     0.003 A 
ATOM      7  C6  UNL d   1      -0.229   1.978   0.503  0.00  0.00    -0.001 A 
ENDROOT
TORSDOF 0
ENDMDL
