MODEL 1
REMARK minimizedAffinity -3.15001011
REMARK minimizedRMSD -1
REMARK  0 active torsions:
REMARK  status: ('A' for Active; 'I' for Inactive)
ROOT
ATOM      1  C   UNL d   1      -1.201   2.502   1.279  0.00  0.00     0.078 C 
ATOM      2  C1  UNL d   1      -0.570   1.452   0.414  0.00  0.00    -0.077 A 
ATOM      3  C2  UNL d   1      -0.537   1.589  -0.979  0.00  0.00    -0.001 A 
ATOM      4  C3  UNL d   1       0.045   0.599  -1.772  0.00  0.00     0.003 A 
ATOM      5  C4  UNL d   1       0.598  -0.536  -1.181  0.00  0.00    -0.005 A 
ATOM      6  C5  UNL d   1       0.568  -0.682   0.204  0.00  0.00     0.003 A 
ATOM      7  C6  UNL d   1      -0.014   0.307   0.999  0.00  0.00    -0.001 A 
ENDROOT
TORSDOF 0
ENDMDL
