MODEL 1
REMARK minimizedAffinity -1.89568913
REMARK minimizedRMSD -1
REMARK  0 active torsions:
REMARK  status: ('A' for Active; 'I' for Inactive)
ROOT
ATOM      1  C   UNL d   1       0.151   0.317   1.960  0.00  0.00     0.078 C 
ATOM      2  C1  UNL d   1       0.370  -0.170   0.559  0.00  0.00    -0.077 A 
ATOM      3  C2  UNL d   1       0.180   0.680  -0.538  0.00  0.00    -0.001 A 
ATOM      4  C3  UNL d   1       0.378   0.211  -1.837  0.00  0.00     0.003 A 
ATOM      5  C4  UNL d   1       0.767  -1.110  -2.053  0.00  0.00    -0.005 A 
ATOM      6  C5  UNL d   1       0.956  -1.964  -0.968  0.00  0.00     0.003 A 
ATOM      7  C6  UNL d   1       0.758  -1.496   0.332  0.00  0.00    -0.001 A 
ENDROOT
TORSDOF 0
ENDMDL
