MODEL 1
REMARK minimizedAffinity 4.19533205
REMARK minimizedRMSD -1
REMARK  3 active torsions:
REMARK  status: ('A' for Active; 'I' for Inactive)
REMARK    1  A    between atoms: C3'_2  and  C2'_3 
REMARK    2  A    between atoms: C2'_3  and  C1'_4 
REMARK    3  A    between atoms: C1'_4  and  C1_5 
ROOT
ATOM      1  C1  N4B d   1      -2.040   2.075   0.234  0.00  0.00    -0.075 A 
ATOM      2  C2  N4B d   1      -1.442   1.491   1.372  0.00  0.00     0.002 A 
ATOM      3  C3  N4B d   1      -0.075   1.494   1.506  0.00  0.00     0.002 A 
ATOM      4  C4  N4B d   1       0.711   2.056   0.512  0.00  0.00    -0.004 A 
ATOM      5  C5  N4B d   1       0.124   2.642  -0.572  0.00  0.00     0.002 A 
ATOM      6  C6  N4B d   1      -1.249   2.649  -0.718  0.00  0.00     0.002 A 
ENDROOT
BRANCH   1   7
ATOM      7  C1' N4B d   1      -3.525   2.020   0.001  0.00  0.00     0.057 C 
BRANCH   7   8
ATOM      8  C2' N4B d   1      -4.109   0.837   0.768  0.00  0.00     0.009 C 
BRANCH   8   9
ATOM      9  C3' N4B d   1      -5.585   1.028   1.070  0.00  0.00     0.004 C 
ATOM     10  C4' N4B d   1      -6.000   2.469   1.054  0.00  0.00     0.003 C 
ENDBRANCH   8   9
ENDBRANCH   7   8
ENDBRANCH   1   7
TORSDOF 3
ENDMDL
