MODEL 1
REMARK minimizedAffinity 10.7886715
REMARK minimizedRMSD -1
REMARK  3 active torsions:
REMARK  status: ('A' for Active; 'I' for Inactive)
REMARK    1  A    between atoms: C3'_2  and  C2'_3 
REMARK    2  A    between atoms: C2'_3  and  C1'_4 
REMARK    3  A    between atoms: C1'_4  and  C1_5 
ROOT
ATOM      1  C1  N4B d   1      -0.770   2.321   0.021  0.00  0.00    -0.075 A 
ATOM      2  C2  N4B d   1      -1.740   3.048  -0.704  0.00  0.00     0.002 A 
ATOM      3  C3  N4B d   1      -3.045   2.622  -0.722  0.00  0.00     0.002 A 
ATOM      4  C4  N4B d   1      -3.399   1.467  -0.042  0.00  0.00    -0.004 A 
ATOM      5  C5  N4B d   1      -2.461   0.784   0.677  0.00  0.00     0.002 A 
ATOM      6  C6  N4B d   1      -1.146   1.203   0.707  0.00  0.00     0.002 A 
ENDROOT
BRANCH   1   7
ATOM      7  C1' N4B d   1       0.686   2.700   0.000  0.00  0.00     0.057 C 
BRANCH   7   8
ATOM      8  C2' N4B d   1       0.843   4.047  -0.698  0.00  0.00     0.009 C 
BRANCH   8   9
ATOM      9  C3' N4B d   1       2.256   4.590  -0.575  0.00  0.00     0.004 C 
ATOM     10  C4' N4B d   1       2.385   5.995  -1.082  0.00  0.00     0.003 C 
ENDBRANCH   8   9
ENDBRANCH   7   8
ENDBRANCH   1   7
TORSDOF 3
ENDMDL
