MODEL 1
REMARK minimizedAffinity -0.104869761
REMARK minimizedRMSD -1
REMARK  3 active torsions:
REMARK  status: ('A' for Active; 'I' for Inactive)
REMARK    1  A    between atoms: C3'_2  and  C2'_3 
REMARK    2  A    between atoms: C2'_3  and  C1'_4 
REMARK    3  A    between atoms: C1'_4  and  C1_5 
ROOT
ATOM      1  C1  N4B d   1      -0.815   1.151   0.803  0.00  0.00    -0.075 A 
ATOM      2  C2  N4B d   1      -1.128   2.386   0.194  0.00  0.00     0.002 A 
ATOM      3  C3  N4B d   1      -2.327   2.546  -0.457  0.00  0.00     0.002 A 
ATOM      4  C4  N4B d   1      -3.216   1.484  -0.527  0.00  0.00    -0.004 A 
ATOM      5  C5  N4B d   1      -2.917   0.303   0.085  0.00  0.00     0.002 A 
ATOM      6  C6  N4B d   1      -1.718   0.129   0.746  0.00  0.00     0.002 A 
ENDROOT
BRANCH   1   7
ATOM      7  C1' N4B d   1       0.519   0.901   1.451  0.00  0.00     0.057 C 
BRANCH   7   8
ATOM      8  C2' N4B d   1       1.623   1.461   0.558  0.00  0.00     0.009 C 
BRANCH   8   9
ATOM      9  C3' N4B d   1       2.827   0.537   0.497  0.00  0.00     0.004 C 
ATOM     10  C4' N4B d   1       3.548   0.609  -0.816  0.00  0.00     0.003 C 
ENDBRANCH   8   9
ENDBRANCH   7   8
ENDBRANCH   1   7
TORSDOF 3
ENDMDL
