MODEL 1
REMARK minimizedAffinity -0.235584199
REMARK minimizedRMSD -1
REMARK  3 active torsions:
REMARK  status: ('A' for Active; 'I' for Inactive)
REMARK    1  A    between atoms: C3'_2  and  C2'_3 
REMARK    2  A    between atoms: C2'_3  and  C1'_4 
REMARK    3  A    between atoms: C1'_4  and  C1_5 
ROOT
ATOM      1  C1  N4B d   1      -1.987   0.305   0.986  0.00  0.00    -0.075 A 
ATOM      2  C2  N4B d   1      -0.619   0.369   0.641  0.00  0.00     0.002 A 
ATOM      3  C3  N4B d   1      -0.137   1.448  -0.059  0.00  0.00     0.002 A 
ATOM      4  C4  N4B d   1      -1.003   2.461  -0.440  0.00  0.00    -0.004 A 
ATOM      5  C5  N4B d   1      -2.318   2.404  -0.081  0.00  0.00     0.002 A 
ATOM      6  C6  N4B d   1      -2.816   1.328   0.625  0.00  0.00     0.002 A 
ENDROOT
BRANCH   1   7
ATOM      7  C1' N4B d   1      -2.578  -0.894   1.675  0.00  0.00     0.057 C 
BRANCH   7   8
ATOM      8  C2' N4B d   1      -3.984  -0.552   2.158  0.00  0.00     0.009 C 
BRANCH   8   9
ATOM      9  C3' N4B d   1      -4.054  -0.442   3.672  0.00  0.00     0.004 C 
ATOM     10  C4' N4B d   1      -5.412  -0.037   4.163  0.00  0.00     0.003 C 
ENDBRANCH   8   9
ENDBRANCH   7   8
ENDBRANCH   1   7
TORSDOF 3
ENDMDL
