MODEL 1
REMARK minimizedAffinity 2.47437739
REMARK minimizedRMSD -1
REMARK  3 active torsions:
REMARK  status: ('A' for Active; 'I' for Inactive)
REMARK    1  A    between atoms: C3'_2  and  C2'_3 
REMARK    2  A    between atoms: C2'_3  and  C1'_4 
REMARK    3  A    between atoms: C1'_4  and  C1_5 
ROOT
ATOM      1  C1  N4B d   1      -1.145   1.169   0.190  0.00  0.00    -0.075 A 
ATOM      2  C2  N4B d   1      -2.114   0.152   0.338  0.00  0.00     0.002 A 
ATOM      3  C3  N4B d   1      -3.446   0.478   0.406  0.00  0.00     0.002 A 
ATOM      4  C4  N4B d   1      -3.830   1.810   0.349  0.00  0.00    -0.004 A 
ATOM      5  C5  N4B d   1      -2.890   2.784   0.181  0.00  0.00     0.002 A 
ATOM      6  C6  N4B d   1      -1.548   2.470   0.106  0.00  0.00     0.002 A 
ENDROOT
BRANCH   1   7
ATOM      7  C1' N4B d   1       0.329   0.868   0.197  0.00  0.00     0.057 C 
BRANCH   7   8
ATOM      8  C2' N4B d   1       0.816   0.784   1.640  0.00  0.00     0.009 C 
BRANCH   8   9
ATOM      9  C3' N4B d   1      -0.276   0.308   2.582  0.00  0.00     0.004 C 
ATOM     10  C4' N4B d   1      -0.607   1.314   3.643  0.00  0.00     0.003 C 
ENDBRANCH   8   9
ENDBRANCH   7   8
ENDBRANCH   1   7
TORSDOF 3
ENDMDL
