MODEL 1
REMARK minimizedAffinity 4.64311218
REMARK minimizedRMSD -1
REMARK  3 active torsions:
REMARK  status: ('A' for Active; 'I' for Inactive)
REMARK    1  A    between atoms: C3'_2  and  C2'_3 
REMARK    2  A    between atoms: C2'_3  and  C1'_4 
REMARK    3  A    between atoms: C1'_4  and  C1_5 
ROOT
ATOM      1  C1  N4B d   1      -2.276   1.810   0.378  0.00  0.00    -0.075 A 
ATOM      2  C2  N4B d   1      -1.333   2.693  -0.193  0.00  0.00     0.002 A 
ATOM      3  C3  N4B d   1      -0.026   2.668   0.227  0.00  0.00     0.002 A 
ATOM      4  C4  N4B d   1       0.355   1.785   1.227  0.00  0.00    -0.004 A 
ATOM      5  C5  N4B d   1      -0.556   0.918   1.755  0.00  0.00     0.002 A 
ATOM      6  C6  N4B d   1      -1.872   0.930   1.339  0.00  0.00     0.002 A 
ENDROOT
BRANCH   1   7
ATOM      7  C1' N4B d   1      -3.734   1.860   0.011  0.00  0.00     0.057 C 
BRANCH   7   8
ATOM      8  C2' N4B d   1      -4.537   1.068   1.039  0.00  0.00     0.009 C 
BRANCH   8   9
ATOM      9  C3' N4B d   1      -5.948   1.607   1.196  0.00  0.00     0.004 C 
ATOM     10  C4' N4B d   1      -5.999   3.106   1.222  0.00  0.00     0.003 C 
ENDBRANCH   8   9
ENDBRANCH   7   8
ENDBRANCH   1   7
TORSDOF 3
ENDMDL
