MODEL 1
REMARK minimizedAffinity 2.43568063
REMARK minimizedRMSD -1
REMARK  3 active torsions:
REMARK  status: ('A' for Active; 'I' for Inactive)
REMARK    1  A    between atoms: C3'_2  and  C2'_3 
REMARK    2  A    between atoms: C2'_3  and  C1'_4 
REMARK    3  A    between atoms: C1'_4  and  C1_5 
ROOT
ATOM      1  C1  N4B d   1       0.807   1.662   1.028  0.00  0.00    -0.075 A 
ATOM      2  C2  N4B d   1      -0.605   1.668   1.028  0.00  0.00     0.002 A 
ATOM      3  C3  N4B d   1      -1.288   2.416   1.956  0.00  0.00     0.002 A 
ATOM      4  C4  N4B d   1      -0.583   3.146   2.901  0.00  0.00    -0.004 A 
ATOM      5  C5  N4B d   1       0.781   3.155   2.878  0.00  0.00     0.002 A 
ATOM      6  C6  N4B d   1       1.480   2.411   1.949  0.00  0.00     0.002 A 
ENDROOT
BRANCH   1   7
ATOM      7  C1' N4B d   1       1.596   0.793   0.088  0.00  0.00     0.057 C 
BRANCH   7   8
ATOM      8  C2' N4B d   1       0.852   0.685  -1.240  0.00  0.00     0.009 C 
BRANCH   8   9
ATOM      9  C3' N4B d   1       1.793   0.781  -2.429  0.00  0.00     0.004 C 
ATOM     10  C4' N4B d   1       1.133   1.355  -3.647  0.00  0.00     0.003 C 
ENDBRANCH   8   9
ENDBRANCH   7   8
ENDBRANCH   1   7
TORSDOF 3
ENDMDL
