MODEL 1
REMARK minimizedAffinity 2.04316759
REMARK minimizedRMSD -1
REMARK  3 active torsions:
REMARK  status: ('A' for Active; 'I' for Inactive)
REMARK    1  A    between atoms: C3'_2  and  C2'_3 
REMARK    2  A    between atoms: C2'_3  and  C1'_4 
REMARK    3  A    between atoms: C1'_4  and  C1_5 
ROOT
ATOM      1  C1  N4B d   1       0.217   1.813   0.962  0.00  0.00    -0.075 A 
ATOM      2  C2  N4B d   1      -0.843   2.079   1.857  0.00  0.00     0.002 A 
ATOM      3  C3  N4B d   1      -0.573   2.424   3.158  0.00  0.00     0.002 A 
ATOM      4  C4  N4B d   1       0.743   2.491   3.591  0.00  0.00    -0.004 A 
ATOM      5  C5  N4B d   1       1.762   2.257   2.714  0.00  0.00     0.002 A 
ATOM      6  C6  N4B d   1       1.505   1.913   1.402  0.00  0.00     0.002 A 
ENDROOT
BRANCH   1   7
ATOM      7  C1' N4B d   1      -0.030   1.349  -0.447  0.00  0.00     0.057 C 
BRANCH   7   8
ATOM      8  C2' N4B d   1       1.303   1.001  -1.101  0.00  0.00     0.009 C 
BRANCH   8   9
ATOM      9  C3' N4B d   1       1.757   2.076  -2.074  0.00  0.00     0.004 C 
ATOM     10  C4' N4B d   1       1.139   1.927  -3.433  0.00  0.00     0.003 C 
ENDBRANCH   8   9
ENDBRANCH   7   8
ENDBRANCH   1   7
TORSDOF 3
ENDMDL
