MODEL 1
REMARK minimizedAffinity -5.59903908
REMARK minimizedRMSD -1
REMARK  0 active torsions:
REMARK  status: ('A' for Active; 'I' for Inactive)
ROOT
ATOM      1  N1  IND d   1      -0.032  -1.347  -0.049  0.00  0.00    -0.196 N 
ATOM      2  C2  IND d   1      -1.184  -0.685  -0.370  0.00  0.00     0.054 A 
ATOM      3  C3  IND d   1      -0.997   0.652  -0.289  0.00  0.00    -0.031 A 
ATOM      4  C4  IND d   1       1.144   1.973   0.253  0.00  0.00     0.051 A 
ATOM      5  C5  IND d   1       2.442   1.807   0.649  0.00  0.00    -0.031 A 
ATOM      6  C6  IND d   1       2.993   0.555   0.834  0.00  0.00     0.015 A 
ATOM      7  C7  IND d   1       2.267  -0.581   0.617  0.00  0.00    -0.016 A 
ATOM      8  C8  IND d   1       0.947  -0.416   0.222  0.00  0.00    -0.047 A 
ATOM      9  C9  IND d   1       0.370   0.852   0.074  0.00  0.00    -0.096 A 
ATOM     10  HN1 IND d   1       0.065  -2.201  -0.021  0.00  0.00     0.298 HD
ENDROOT
TORSDOF 0
ENDMDL
