MODEL 1
REMARK minimizedAffinity -3.7667923
REMARK minimizedRMSD -1
REMARK  0 active torsions:
REMARK  status: ('A' for Active; 'I' for Inactive)
ROOT
ATOM      1  N1  IND d   1      -1.051   0.937   0.029  0.00  0.00    -0.196 N 
ATOM      2  C2  IND d   1      -1.484  -0.333  -0.228  0.00  0.00     0.054 A 
ATOM      3  C3  IND d   1      -0.441  -1.194  -0.231  0.00  0.00    -0.031 A 
ATOM      4  C4  IND d   1       2.046  -0.751   0.262  0.00  0.00     0.051 A 
ATOM      5  C5  IND d   1       2.931   0.260   0.514  0.00  0.00    -0.031 A 
ATOM      6  C6  IND d   1       2.525   1.574   0.621  0.00  0.00     0.015 A 
ATOM      7  C7  IND d   1       1.212   1.927   0.492  0.00  0.00    -0.016 A 
ATOM      8  C8  IND d   1       0.311   0.904   0.230  0.00  0.00    -0.047 A 
ATOM      9  C9  IND d   1       0.723  -0.426   0.077  0.00  0.00    -0.096 A 
ATOM     10  HN1 IND d   1      -1.547   1.639   0.061  0.00  0.00     0.298 HD
ENDROOT
TORSDOF 0
ENDMDL
