MODEL 1
REMARK minimizedAffinity -5.3411808
REMARK minimizedRMSD -1
REMARK  0 active torsions:
REMARK  status: ('A' for Active; 'I' for Inactive)
ROOT
ATOM      1  N1  IND d   1      -0.827  -0.902  -0.665  0.00  0.00    -0.196 N 
ATOM      2  C2  IND d   1      -1.564   0.221  -0.920  0.00  0.00     0.054 A 
ATOM      3  C3  IND d   1      -0.878   1.327  -0.555  0.00  0.00    -0.031 A 
ATOM      4  C4  IND d   1       1.509   1.535   0.387  0.00  0.00     0.051 A 
ATOM      5  C5  IND d   1       2.563   0.783   0.826  0.00  0.00    -0.031 A 
ATOM      6  C6  IND d   1       2.541  -0.596   0.787  0.00  0.00     0.015 A 
ATOM      7  C7  IND d   1       1.465  -1.278   0.295  0.00  0.00    -0.016 A 
ATOM      8  C8  IND d   1       0.390  -0.518  -0.145  0.00  0.00    -0.047 A 
ATOM      9  C9  IND d   1       0.389   0.880  -0.069  0.00  0.00    -0.096 A 
ATOM     10  HN1 IND d   1      -1.081  -1.711  -0.806  0.00  0.00     0.298 HD
ENDROOT
TORSDOF 0
ENDMDL
