MODEL 1
REMARK minimizedAffinity -3.74096775
REMARK minimizedRMSD -1
REMARK  0 active torsions:
REMARK  status: ('A' for Active; 'I' for Inactive)
ROOT
ATOM      1  N1  IND d   1      -0.559  -1.017  -0.065  0.00  0.00    -0.196 N 
ATOM      2  C2  IND d   1      -1.220   0.105  -0.480  0.00  0.00     0.054 A 
ATOM      3  C3  IND d   1      -0.404   1.182  -0.417  0.00  0.00    -0.031 A 
ATOM      4  C4  IND d   1       2.082   1.314   0.239  0.00  0.00     0.051 A 
ATOM      5  C5  IND d   1       3.109   0.556   0.727  0.00  0.00    -0.031 A 
ATOM      6  C6  IND d   1       2.964  -0.793   0.979  0.00  0.00     0.015 A 
ATOM      7  C7  IND d   1       1.784  -1.439   0.740  0.00  0.00    -0.016 A 
ATOM      8  C8  IND d   1       0.737  -0.671   0.251  0.00  0.00    -0.047 A 
ATOM      9  C9  IND d   1       0.866   0.707   0.033  0.00  0.00    -0.096 A 
ATOM     10  HN1 IND d   1      -0.895  -1.806  -0.010  0.00  0.00     0.298 HD
ENDROOT
TORSDOF 0
ENDMDL
