MODEL 1
REMARK minimizedAffinity -5.31521273
REMARK minimizedRMSD -1
REMARK  0 active torsions:
REMARK  status: ('A' for Active; 'I' for Inactive)
ROOT
ATOM      1  N1  IND d   1      -0.106  -0.993  -0.817  0.00  0.00    -0.196 N 
ATOM      2  C2  IND d   1      -1.089  -0.162  -1.277  0.00  0.00     0.054 A 
ATOM      3  C3  IND d   1      -0.882   1.100  -0.838  0.00  0.00    -0.031 A 
ATOM      4  C4  IND d   1       1.061   2.046   0.561  0.00  0.00     0.051 A 
ATOM      5  C5  IND d   1       2.181   1.665   1.246  0.00  0.00    -0.031 A 
ATOM      6  C6  IND d   1       2.606   0.353   1.276  0.00  0.00     0.015 A 
ATOM      7  C7  IND d   1       1.930  -0.630   0.611  0.00  0.00    -0.016 A 
ATOM      8  C8  IND d   1       0.788  -0.249  -0.080  0.00  0.00    -0.047 A 
ATOM      9  C9  IND d   1       0.329   1.075  -0.080  0.00  0.00    -0.096 A 
ATOM     10  HN1 IND d   1      -0.054  -1.839  -0.964  0.00  0.00     0.298 HD
ENDROOT
TORSDOF 0
ENDMDL
