MODEL 1
REMARK minimizedAffinity -5.36408377
REMARK minimizedRMSD -1
REMARK  0 active torsions:
REMARK  status: ('A' for Active; 'I' for Inactive)
ROOT
ATOM      1  N1  IND d   1       3.083   0.338   0.746  0.00  0.00    -0.196 N 
ATOM      2  C2  IND d   1       3.011  -1.025   0.675  0.00  0.00     0.054 A 
ATOM      3  C3  IND d   1       1.738  -1.418   0.446  0.00  0.00    -0.031 A 
ATOM      4  C4  IND d   1      -0.369   0.009   0.055  0.00  0.00     0.051 A 
ATOM      5  C5  IND d   1      -0.810   1.302   0.060  0.00  0.00    -0.031 A 
ATOM      6  C6  IND d   1       0.041   2.362   0.297  0.00  0.00     0.015 A 
ATOM      7  C7  IND d   1       1.374   2.168   0.526  0.00  0.00    -0.016 A 
ATOM      8  C8  IND d   1       1.824   0.855   0.529  0.00  0.00    -0.047 A 
ATOM      9  C9  IND d   1       0.957  -0.227   0.331  0.00  0.00    -0.096 A 
ATOM     10  HN1 IND d   1       3.794   0.796   0.901  0.00  0.00     0.298 HD
ENDROOT
TORSDOF 0
ENDMDL
