MODEL 1
REMARK minimizedAffinity -1.99048543
REMARK minimizedRMSD -1
REMARK  0 active torsions:
REMARK  status: ('A' for Active; 'I' for Inactive)
ROOT
ATOM      1  N1  IND d   1      -0.343  -1.046  -0.826  0.00  0.00    -0.196 N 
ATOM      2  C2  IND d   1      -1.421  -0.215  -0.956  0.00  0.00     0.054 A 
ATOM      3  C3  IND d   1      -1.218   0.930  -0.268  0.00  0.00    -0.031 A 
ATOM      4  C4  IND d   1       0.851   1.697   1.058  0.00  0.00     0.051 A 
ATOM      5  C5  IND d   1       2.073   1.266   1.492  0.00  0.00    -0.031 A 
ATOM      6  C6  IND d   1       2.563   0.017   1.167  0.00  0.00     0.015 A 
ATOM      7  C7  IND d   1       1.851  -0.845   0.382  0.00  0.00    -0.016 A 
ATOM      8  C8  IND d   1       0.607  -0.413  -0.055  0.00  0.00    -0.047 A 
ATOM      9  C9  IND d   1       0.086   0.836   0.307  0.00  0.00    -0.096 A 
ATOM     10  HN1 IND d   1      -0.270  -1.831  -1.169  0.00  0.00     0.298 HD
ENDROOT
TORSDOF 0
ENDMDL
