MODEL 1
REMARK minimizedAffinity -3.7788415
REMARK minimizedRMSD -1
REMARK  0 active torsions:
REMARK  status: ('A' for Active; 'I' for Inactive)
ROOT
ATOM      1  N1  IND d   1      -0.085   1.550   0.447  0.00  0.00    -0.196 N 
ATOM      2  C2  IND d   1      -1.034   0.817  -0.209  0.00  0.00     0.054 A 
ATOM      3  C3  IND d   1      -0.558  -0.415  -0.501  0.00  0.00    -0.031 A 
ATOM      4  C4  IND d   1       1.711  -1.475   0.093  0.00  0.00     0.051 A 
ATOM      5  C5  IND d   1       2.922  -1.183   0.655  0.00  0.00    -0.031 A 
ATOM      6  C6  IND d   1       3.197   0.059   1.190  0.00  0.00     0.015 A 
ATOM      7  C7  IND d   1       2.263   1.056   1.193  0.00  0.00    -0.016 A 
ATOM      8  C8  IND d   1       1.035   0.765   0.617  0.00  0.00    -0.047 A 
ATOM      9  C9  IND d   1       0.765  -0.479   0.034  0.00  0.00    -0.096 A 
ATOM     10  HN1 IND d   1      -0.173   2.363   0.710  0.00  0.00     0.298 HD
ENDROOT
TORSDOF 0
ENDMDL
