MODEL 1
REMARK minimizedAffinity 8.97975826
REMARK minimizedRMSD -1
REMARK  1 active torsions:
REMARK  status: ('A' for Active; 'I' for Inactive)
REMARK    1  A    between atoms: C1_2  and  C2_3 
ROOT
ATOM      1  C2  UNL d   1      -4.381   1.118  -3.541  0.00  0.00    -0.073 A 
ATOM      2  C3  UNL d   1      -3.240   1.807  -3.967  0.00  0.00    -0.002 A 
ATOM      3  C4  UNL d   1      -1.990   1.503  -3.426  0.00  0.00     0.004 A 
ATOM      4  C5  UNL d   1      -1.866   0.503  -2.461  0.00  0.00    -0.004 A 
ATOM      5  C6  UNL d   1      -2.993  -0.205  -2.031  0.00  0.00    -0.075 A 
ATOM      6  C7  UNL d   1      -2.878  -1.281  -0.992  0.00  0.00     0.076 C 
ATOM      7  C8  UNL d   1      -4.246   0.108  -2.577  0.00  0.00     0.001 A 
ENDROOT
BRANCH   1   8
ATOM      8  C1  UNL d   1      -5.732   1.438  -4.126  0.00  0.00     0.053 C 
ATOM      9  C   UNL d   1      -5.992   2.936  -4.172  0.00  0.00     0.018 C 
ENDBRANCH   1   8
TORSDOF 1
ENDMDL
