MODEL 1
REMARK minimizedAffinity 4.62650013
REMARK minimizedRMSD -1
REMARK  1 active torsions:
REMARK  status: ('A' for Active; 'I' for Inactive)
REMARK    1  A    between atoms: C1_2  and  C2_3 
ROOT
ATOM      1  C2  UNL d   1       5.399   2.422  -2.119  0.00  0.00    -0.073 A 
ATOM      2  C3  UNL d   1       5.683   2.555  -0.756  0.00  0.00    -0.002 A 
ATOM      3  C4  UNL d   1       5.193   1.624   0.161  0.00  0.00     0.004 A 
ATOM      4  C5  UNL d   1       4.422   0.548  -0.276  0.00  0.00    -0.004 A 
ATOM      5  C6  UNL d   1       4.137   0.390  -1.636  0.00  0.00    -0.075 A 
ATOM      6  C7  UNL d   1       3.307  -0.761  -2.123  0.00  0.00     0.076 C 
ATOM      7  C8  UNL d   1       4.630   1.331  -2.550  0.00  0.00     0.001 A 
ENDROOT
BRANCH   1   8
ATOM      8  C1  UNL d   1       5.931   3.421  -3.114  0.00  0.00     0.053 C 
ATOM      9  C   UNL d   1       5.571   4.849  -2.735  0.00  0.00     0.018 C 
ENDBRANCH   1   8
TORSDOF 1
ENDMDL
