MODEL 1
REMARK minimizedAffinity 3.52288866
REMARK minimizedRMSD -1
REMARK  1 active torsions:
REMARK  status: ('A' for Active; 'I' for Inactive)
REMARK    1  A    between atoms: C1_2  and  C2_3 
ROOT
ATOM      1  C2  UNL d   1       4.634   1.406  -0.081  0.00  0.00    -0.073 A 
ATOM      2  C3  UNL d   1       5.407   1.726  -1.203  0.00  0.00    -0.002 A 
ATOM      3  C4  UNL d   1       5.032   1.275  -2.469  0.00  0.00     0.004 A 
ATOM      4  C5  UNL d   1       3.878   0.507  -2.628  0.00  0.00    -0.004 A 
ATOM      5  C6  UNL d   1       3.086   0.186  -1.520  0.00  0.00    -0.075 A 
ATOM      6  C7  UNL d   1       1.844  -0.641  -1.673  0.00  0.00     0.076 C 
ATOM      7  C8  UNL d   1       3.471   0.641  -0.252  0.00  0.00     0.001 A 
ENDROOT
BRANCH   1   8
ATOM      8  C1  UNL d   1       5.032   1.896   1.287  0.00  0.00     0.053 C 
ATOM      9  C   UNL d   1       4.687   3.363   1.490  0.00  0.00     0.018 C 
ENDBRANCH   1   8
TORSDOF 1
ENDMDL
