MODEL 1
REMARK minimizedAffinity 0.473827541
REMARK minimizedRMSD -1
REMARK  1 active torsions:
REMARK  status: ('A' for Active; 'I' for Inactive)
REMARK    1  A    between atoms: C1_2  and  C2_3 
ROOT
ATOM      1  C2  UNL d   1      -1.519   2.763   2.232  0.00  0.00    -0.073 A 
ATOM      2  C3  UNL d   1      -0.870   3.022   1.020  0.00  0.00    -0.002 A 
ATOM      3  C4  UNL d   1      -1.528   2.809  -0.192  0.00  0.00     0.004 A 
ATOM      4  C5  UNL d   1      -2.843   2.342  -0.204  0.00  0.00    -0.004 A 
ATOM      5  C6  UNL d   1      -3.513   2.088   0.997  0.00  0.00    -0.075 A 
ATOM      6  C7  UNL d   1      -4.926   1.584   1.001  0.00  0.00     0.076 C 
ATOM      7  C8  UNL d   1      -2.844   2.303   2.210  0.00  0.00     0.001 A 
ENDROOT
BRANCH   1   8
ATOM      8  C1  UNL d   1      -0.815   2.998   3.543  0.00  0.00     0.053 C 
ATOM      9  C   UNL d   1       0.544   2.317   3.591  0.00  0.00     0.018 C 
ENDBRANCH   1   8
TORSDOF 1
ENDMDL
