MODEL 1
REMARK minimizedAffinity 12.6388855
REMARK minimizedRMSD -1
REMARK  0 active torsions:
REMARK  status: ('A' for Active; 'I' for Inactive)
ROOT
ATOM      1  C   UNL d   1      -1.057  -5.997   1.566  0.00  0.00     0.077 C 
ATOM      2  C1  UNL d   1       0.423  -5.758   1.531  0.00  0.00    -0.074 A 
ATOM      3  C2  UNL d   1       1.095  -5.587   0.316  0.00  0.00    -0.005 A 
ATOM      4  C3  UNL d   1       2.471  -5.357   0.300  0.00  0.00     0.006 A 
ATOM      5  C4  UNL d   1       3.187  -5.294   1.496  0.00  0.00    -0.005 A 
ATOM      6  C5  UNL d   1       2.532  -5.462   2.720  0.00  0.00    -0.074 A 
ATOM      7  C6  UNL d   1       3.285  -5.388   4.015  0.00  0.00     0.077 C 
ATOM      8  C7  UNL d   1       1.148  -5.687   2.728  0.00  0.00    -0.001 A 
ENDROOT
TORSDOF 0
ENDMDL
