MODEL 1
REMARK minimizedAffinity -0.429943472
REMARK minimizedRMSD -1
REMARK  0 active torsions:
REMARK  status: ('A' for Active; 'I' for Inactive)
ROOT
ATOM      1  C   UNL d   1       1.546   1.128  -3.358  0.00  0.00     0.077 C 
ATOM      2  C1  UNL d   1       2.850   1.740  -3.778  0.00  0.00    -0.074 A 
ATOM      3  C2  UNL d   1       3.157   3.066  -3.457  0.00  0.00    -0.005 A 
ATOM      4  C3  UNL d   1       4.378   3.619  -3.846  0.00  0.00     0.006 A 
ATOM      5  C4  UNL d   1       5.301   2.853  -4.559  0.00  0.00    -0.005 A 
ATOM      6  C5  UNL d   1       5.011   1.525  -4.888  0.00  0.00    -0.074 A 
ATOM      7  C6  UNL d   1       5.995   0.684  -5.645  0.00  0.00     0.077 C 
ATOM      8  C7  UNL d   1       3.785   0.974  -4.488  0.00  0.00    -0.001 A 
ENDROOT
TORSDOF 0
ENDMDL
