MODEL 1
REMARK minimizedAffinity 1.03942776
REMARK minimizedRMSD -1
REMARK  0 active torsions:
REMARK  status: ('A' for Active; 'I' for Inactive)
ROOT
ATOM      1  C   UNL d   1       1.633   0.765  -2.789  0.00  0.00     0.077 C 
ATOM      2  C1  UNL d   1       1.269   1.150  -1.385  0.00  0.00    -0.074 A 
ATOM      3  C2  UNL d   1      -0.006   1.636  -1.081  0.00  0.00    -0.005 A 
ATOM      4  C3  UNL d   1      -0.333   1.980   0.231  0.00  0.00     0.006 A 
ATOM      5  C4  UNL d   1       0.611   1.842   1.249  0.00  0.00    -0.005 A 
ATOM      6  C5  UNL d   1       1.891   1.357   0.964  0.00  0.00    -0.074 A 
ATOM      7  C6  UNL d   1       2.914   1.194   2.049  0.00  0.00     0.077 C 
ATOM      8  C7  UNL d   1       2.210   1.007  -0.355  0.00  0.00    -0.001 A 
ENDROOT
TORSDOF 0
ENDMDL
