MODEL 1
REMARK minimizedAffinity 8.88590908
REMARK minimizedRMSD -1
REMARK  0 active torsions:
REMARK  status: ('A' for Active; 'I' for Inactive)
ROOT
ATOM      1  C   UNL d   1      -0.416  -1.517  -1.996  0.00  0.00     0.077 C 
ATOM      2  C1  UNL d   1       0.309  -0.316  -1.465  0.00  0.00    -0.074 A 
ATOM      3  C2  UNL d   1       1.637  -0.063  -1.821  0.00  0.00    -0.005 A 
ATOM      4  C3  UNL d   1       2.296   1.063  -1.326  0.00  0.00     0.006 A 
ATOM      5  C4  UNL d   1       1.633   1.945  -0.472  0.00  0.00    -0.005 A 
ATOM      6  C5  UNL d   1       0.305   1.709  -0.106  0.00  0.00    -0.074 A 
ATOM      7  C6  UNL d   1      -0.425   2.653   0.803  0.00  0.00     0.077 C 
ATOM      8  C7  UNL d   1      -0.352   0.579  -0.612  0.00  0.00    -0.001 A 
ENDROOT
TORSDOF 0
ENDMDL
