MODEL 1
REMARK minimizedAffinity 6.8963604
REMARK minimizedRMSD -1
REMARK  0 active torsions:
REMARK  status: ('A' for Active; 'I' for Inactive)
ROOT
ATOM      1  C   UNL d   1       1.333  -0.382  -5.633  0.00  0.00     0.077 C 
ATOM      2  C1  UNL d   1       1.363  -0.111  -4.158  0.00  0.00    -0.074 A 
ATOM      3  C2  UNL d   1       1.427   1.198  -3.669  0.00  0.00    -0.005 A 
ATOM      4  C3  UNL d   1       1.444   1.435  -2.294  0.00  0.00     0.006 A 
ATOM      5  C4  UNL d   1       1.397   0.367  -1.397  0.00  0.00    -0.005 A 
ATOM      6  C5  UNL d   1       1.333  -0.948  -1.868  0.00  0.00    -0.074 A 
ATOM      7  C6  UNL d   1       1.272  -2.106  -0.917  0.00  0.00     0.077 C 
ATOM      8  C7  UNL d   1       1.309  -1.178  -3.250  0.00  0.00    -0.001 A 
ENDROOT
TORSDOF 0
ENDMDL
