MODEL 1
REMARK minimizedAffinity 11.7698584
REMARK minimizedRMSD -1
REMARK  0 active torsions:
REMARK  status: ('A' for Active; 'I' for Inactive)
ROOT
ATOM      1  C   UNL d   1       3.043   2.129   1.714  0.00  0.00     0.077 C 
ATOM      2  C1  UNL d   1       1.674   2.331   1.134  0.00  0.00    -0.074 A 
ATOM      3  C2  UNL d   1       0.592   2.674   1.950  0.00  0.00    -0.005 A 
ATOM      4  C3  UNL d   1      -0.673   2.867   1.396  0.00  0.00     0.006 A 
ATOM      5  C4  UNL d   1      -0.868   2.720   0.022  0.00  0.00    -0.005 A 
ATOM      6  C5  UNL d   1       0.203   2.379  -0.810  0.00  0.00    -0.074 A 
ATOM      7  C6  UNL d   1       0.013   2.227  -2.290  0.00  0.00     0.077 C 
ATOM      8  C7  UNL d   1       1.473   2.193  -0.246  0.00  0.00    -0.001 A 
ENDROOT
TORSDOF 0
ENDMDL
