MODEL 1
REMARK minimizedAffinity 7.73800087
REMARK minimizedRMSD -1
REMARK  0 active torsions:
REMARK  status: ('A' for Active; 'I' for Inactive)
ROOT
ATOM      1  C   UNL d   1      -1.905  -0.005  -0.757  0.00  0.00     0.077 C 
ATOM      2  C1  UNL d   1      -0.441  -0.135  -1.055  0.00  0.00    -0.074 A 
ATOM      3  C2  UNL d   1       0.322   0.984  -1.405  0.00  0.00    -0.005 A 
ATOM      4  C3  UNL d   1       1.685   0.849  -1.671  0.00  0.00     0.006 A 
ATOM      5  C4  UNL d   1       2.297  -0.402  -1.590  0.00  0.00    -0.005 A 
ATOM      6  C5  UNL d   1       1.549  -1.531  -1.241  0.00  0.00    -0.074 A 
ATOM      7  C6  UNL d   1       2.193  -2.882  -1.140  0.00  0.00     0.077 C 
ATOM      8  C7  UNL d   1       0.182  -1.387  -0.969  0.00  0.00    -0.001 A 
ENDROOT
TORSDOF 0
ENDMDL
