MODEL 1
REMARK minimizedAffinity 9.5997467
REMARK minimizedRMSD -1
REMARK  0 active torsions:
REMARK  status: ('A' for Active; 'I' for Inactive)
ROOT
ATOM      1  C   UNL d   1       1.749  -2.563  -4.053  0.00  0.00     0.077 C 
ATOM      2  C1  UNL d   1       1.434  -2.046  -2.681  0.00  0.00    -0.074 A 
ATOM      3  C2  UNL d   1       2.450  -1.828  -1.744  0.00  0.00    -0.005 A 
ATOM      4  C3  UNL d   1       2.142  -1.338  -0.475  0.00  0.00     0.006 A 
ATOM      5  C4  UNL d   1       0.819  -1.061  -0.130  0.00  0.00    -0.005 A 
ATOM      6  C5  UNL d   1      -0.210  -1.272  -1.054  0.00  0.00    -0.074 A 
ATOM      7  C6  UNL d   1      -1.636  -0.970  -0.703  0.00  0.00     0.077 C 
ATOM      8  C7  UNL d   1       0.108  -1.758  -2.330  0.00  0.00    -0.001 A 
ENDROOT
TORSDOF 0
ENDMDL
