MODEL 1
REMARK minimizedAffinity -2.73380232
REMARK minimizedRMSD -1
REMARK  0 active torsions:
REMARK  status: ('A' for Active; 'I' for Inactive)
ROOT
ATOM      1  C   UNL d   1       2.867  -2.057  -1.432  0.00  0.00     0.077 C 
ATOM      2  C1  UNL d   1       1.572  -1.318  -1.264  0.00  0.00    -0.074 A 
ATOM      3  C2  UNL d   1       0.436  -1.964  -0.765  0.00  0.00    -0.005 A 
ATOM      4  C3  UNL d   1      -0.758  -1.261  -0.606  0.00  0.00     0.006 A 
ATOM      5  C4  UNL d   1      -0.828   0.091  -0.942  0.00  0.00    -0.005 A 
ATOM      6  C5  UNL d   1       0.298   0.753  -1.441  0.00  0.00    -0.074 A 
ATOM      7  C6  UNL d   1       0.242   2.209  -1.799  0.00  0.00     0.077 C 
ATOM      8  C7  UNL d   1       1.496   0.043  -1.592  0.00  0.00    -0.001 A 
ENDROOT
TORSDOF 0
ENDMDL
