MODEL 1
REMARK minimizedAffinity 1.72762775
REMARK minimizedRMSD -1
REMARK  0 active torsions:
REMARK  status: ('A' for Active; 'I' for Inactive)
ROOT
ATOM      1  C   UNL d   1       1.856  -4.293   2.387  0.00  0.00     0.077 C 
ATOM      2  C1  UNL d   1       2.071  -3.909   0.954  0.00  0.00    -0.074 A 
ATOM      3  C2  UNL d   1       3.101  -4.483   0.202  0.00  0.00    -0.005 A 
ATOM      4  C3  UNL d   1       3.283  -4.123  -1.133  0.00  0.00     0.006 A 
ATOM      5  C4  UNL d   1       2.438  -3.186  -1.729  0.00  0.00    -0.005 A 
ATOM      6  C5  UNL d   1       1.402  -2.602  -0.994  0.00  0.00    -0.074 A 
ATOM      7  C6  UNL d   1       0.479  -1.601  -1.622  0.00  0.00     0.077 C 
ATOM      8  C7  UNL d   1       1.221  -2.974   0.345  0.00  0.00    -0.001 A 
ENDROOT
TORSDOF 0
ENDMDL
