MODEL 1
REMARK minimizedAffinity -2.00664425
REMARK minimizedRMSD -1
REMARK  0 active torsions:
REMARK  status: ('A' for Active; 'I' for Inactive)
ROOT
ATOM      1  C   UNL d   1      -0.446   0.233  -1.104  0.00  0.00     0.077 C 
ATOM      2  C1  UNL d   1       0.806  -0.593  -1.083  0.00  0.00    -0.074 A 
ATOM      3  C2  UNL d   1       1.975  -0.142  -1.705  0.00  0.00    -0.005 A 
ATOM      4  C3  UNL d   1       3.134  -0.917  -1.669  0.00  0.00     0.006 A 
ATOM      5  C4  UNL d   1       3.136  -2.149  -1.012  0.00  0.00    -0.005 A 
ATOM      6  C5  UNL d   1       1.977  -2.615  -0.384  0.00  0.00    -0.074 A 
ATOM      7  C6  UNL d   1       1.965  -3.931   0.334  0.00  0.00     0.077 C 
ATOM      8  C7  UNL d   1       0.818  -1.827  -0.419  0.00  0.00    -0.001 A 
ENDROOT
TORSDOF 0
ENDMDL
