MODEL 1
REMARK minimizedAffinity 5.92863989
REMARK minimizedRMSD -1
REMARK  0 active torsions:
REMARK  status: ('A' for Active; 'I' for Inactive)
ROOT
ATOM      1  C   UNL d   1       1.474  -4.565   0.812  0.00  0.00     0.077 C 
ATOM      2  C1  UNL d   1       1.895  -3.470  -0.122  0.00  0.00    -0.074 A 
ATOM      3  C2  UNL d   1       3.181  -2.923  -0.055  0.00  0.00    -0.005 A 
ATOM      4  C3  UNL d   1       3.561  -1.911  -0.937  0.00  0.00     0.006 A 
ATOM      5  C4  UNL d   1       2.662  -1.437  -1.893  0.00  0.00    -0.005 A 
ATOM      6  C5  UNL d   1       1.373  -1.973  -1.975  0.00  0.00    -0.074 A 
ATOM      7  C6  UNL d   1       0.397  -1.482  -3.003  0.00  0.00     0.077 C 
ATOM      8  C7  UNL d   1       1.000  -2.994  -1.090  0.00  0.00    -0.001 A 
ENDROOT
TORSDOF 0
ENDMDL
