MODEL 1
REMARK minimizedAffinity 3.89468932
REMARK minimizedRMSD -1
REMARK  0 active torsions:
REMARK  status: ('A' for Active; 'I' for Inactive)
ROOT
ATOM      1  C   UNL d   1       0.275   1.302  -1.220  0.00  0.00     0.077 C 
ATOM      2  C1  UNL d   1       0.957  -0.029  -1.108  0.00  0.00    -0.074 A 
ATOM      3  C2  UNL d   1       1.514  -0.648  -2.232  0.00  0.00    -0.005 A 
ATOM      4  C3  UNL d   1       2.153  -1.882  -2.110  0.00  0.00     0.006 A 
ATOM      5  C4  UNL d   1       2.241  -2.508  -0.867  0.00  0.00    -0.005 A 
ATOM      6  C5  UNL d   1       1.691  -1.904   0.268  0.00  0.00    -0.074 A 
ATOM      7  C6  UNL d   1       1.785  -2.559   1.614  0.00  0.00     0.077 C 
ATOM      8  C7  UNL d   1       1.056  -0.661   0.139  0.00  0.00    -0.001 A 
ENDROOT
TORSDOF 0
ENDMDL
