MODEL 1
REMARK minimizedAffinity 9.80413628
REMARK minimizedRMSD -1
REMARK  0 active torsions:
REMARK  status: ('A' for Active; 'I' for Inactive)
ROOT
ATOM      1  C   UNL d   1      -6.000  -1.148  -0.594  0.00  0.00     0.077 C 
ATOM      2  C1  UNL d   1      -4.677  -1.151   0.114  0.00  0.00    -0.074 A 
ATOM      3  C2  UNL d   1      -4.591  -1.465   1.475  0.00  0.00    -0.005 A 
ATOM      4  C3  UNL d   1      -3.353  -1.473   2.117  0.00  0.00     0.006 A 
ATOM      5  C4  UNL d   1      -2.191  -1.168   1.408  0.00  0.00    -0.005 A 
ATOM      6  C5  UNL d   1      -2.258  -0.852   0.047  0.00  0.00    -0.074 A 
ATOM      7  C6  UNL d   1      -1.017  -0.531  -0.732  0.00  0.00     0.077 C 
ATOM      8  C7  UNL d   1      -3.505  -0.853  -0.593  0.00  0.00    -0.001 A 
ENDROOT
TORSDOF 0
ENDMDL
