MODEL 1
REMARK minimizedAffinity 0.31277138
REMARK minimizedRMSD -1
REMARK  0 active torsions:
REMARK  status: ('A' for Active; 'I' for Inactive)
ROOT
ATOM      1  C   UNL d   1       2.612  -2.764  -1.027  0.00  0.00     0.077 C 
ATOM      2  C1  UNL d   1       2.971  -1.365  -1.431  0.00  0.00    -0.074 A 
ATOM      3  C2  UNL d   1       4.299  -0.925  -1.396  0.00  0.00    -0.005 A 
ATOM      4  C3  UNL d   1       4.619   0.376  -1.784  0.00  0.00     0.006 A 
ATOM      5  C4  UNL d   1       3.618   1.248  -2.211  0.00  0.00    -0.005 A 
ATOM      6  C5  UNL d   1       2.285   0.826  -2.254  0.00  0.00    -0.074 A 
ATOM      7  C6  UNL d   1       1.198   1.748  -2.720  0.00  0.00     0.077 C 
ATOM      8  C7  UNL d   1       1.972  -0.485  -1.869  0.00  0.00    -0.001 A 
ENDROOT
TORSDOF 0
ENDMDL
