MODEL 1
REMARK minimizedAffinity 4.01249838
REMARK minimizedRMSD -1
REMARK  0 active torsions:
REMARK  status: ('A' for Active; 'I' for Inactive)
ROOT
ATOM      1  C   UNL d   1       5.456   3.071  -2.578  0.00  0.00     0.023 A 
ATOM      2  C1  UNL d   1       4.096   3.379  -2.612  0.00  0.00     0.003 A 
ATOM      3  C2  UNL d   1       3.277   2.818  -3.594  0.00  0.00     0.048 A 
ATOM      4  C3  UNL d   1       3.824   1.949  -4.538  0.00  0.00     0.023 A 
ATOM      5  C4  UNL d   1       5.184   1.637  -4.506  0.00  0.00     0.048 A 
ATOM      6  C5  UNL d   1       5.999   2.201  -3.523  0.00  0.00     0.003 A 
ATOM      7  I   UNL d   1       2.606   1.113  -6.000  0.00  0.00    -0.146 I 
ENDROOT
TORSDOF 0
ENDMDL
