MODEL 1
REMARK minimizedAffinity -3.1695168
REMARK minimizedRMSD -1
REMARK  0 active torsions:
REMARK  status: ('A' for Active; 'I' for Inactive)
ROOT
ATOM      1  C   UNL d   1       1.332   3.934  -5.971  0.00  0.00     0.023 A 
ATOM      2  C1  UNL d   1       0.584   5.111  -5.975  0.00  0.00     0.003 A 
ATOM      3  C2  UNL d   1      -0.811   5.053  -5.984  0.00  0.00     0.048 A 
ATOM      4  C3  UNL d   1      -1.452   3.815  -5.987  0.00  0.00     0.023 A 
ATOM      5  C4  UNL d   1      -0.707   2.634  -5.981  0.00  0.00     0.048 A 
ATOM      6  C5  UNL d   1       0.688   2.697  -5.974  0.00  0.00     0.003 A 
ATOM      7  I   UNL d   1      -3.528   3.726  -6.000  0.00  0.00    -0.146 I 
ENDROOT
TORSDOF 0
ENDMDL
