MODEL 1
REMARK minimizedAffinity 0.310671061
REMARK minimizedRMSD -1
REMARK  0 active torsions:
REMARK  status: ('A' for Active; 'I' for Inactive)
ROOT
ATOM      1  C   UNL d   1      -3.091   4.685  -5.999  0.00  0.00     0.023 A 
ATOM      2  C1  UNL d   1      -3.079   3.290  -5.998  0.00  0.00     0.003 A 
ATOM      3  C2  UNL d   1      -1.865   2.601  -5.999  0.00  0.00     0.048 A 
ATOM      4  C3  UNL d   1      -0.665   3.313  -5.999  0.00  0.00     0.023 A 
ATOM      5  C4  UNL d   1      -0.672   4.709  -5.999  0.00  0.00     0.048 A 
ATOM      6  C5  UNL d   1      -1.889   5.393  -5.999  0.00  0.00     0.003 A 
ATOM      7  I   UNL d   1       1.143   2.289  -5.999  0.00  0.00    -0.146 I 
ENDROOT
TORSDOF 0
ENDMDL
