MODEL 1
REMARK minimizedAffinity -2.35211062
REMARK minimizedRMSD -1
REMARK  0 active torsions:
REMARK  status: ('A' for Active; 'I' for Inactive)
ROOT
ATOM      1  C   UNL d   1       1.544   3.943  -5.991  0.00  0.00     0.023 A 
ATOM      2  C1  UNL d   1       0.809   5.128  -5.996  0.00  0.00     0.003 A 
ATOM      3  C2  UNL d   1      -0.587   5.085  -5.998  0.00  0.00     0.048 A 
ATOM      4  C3  UNL d   1      -1.241   3.854  -5.994  0.00  0.00     0.023 A 
ATOM      5  C4  UNL d   1      -0.510   2.665  -5.989  0.00  0.00     0.048 A 
ATOM      6  C5  UNL d   1       0.886   2.713  -5.988  0.00  0.00     0.003 A 
ATOM      7  I   UNL d   1      -3.319   3.788  -5.997  0.00  0.00    -0.146 I 
ENDROOT
TORSDOF 0
ENDMDL
