MODEL 1
REMARK minimizedAffinity -1.00956631
REMARK minimizedRMSD -1
REMARK  0 active torsions:
REMARK  status: ('A' for Active; 'I' for Inactive)
ROOT
ATOM      1  C   UNL d   1       1.944   3.460  -5.852  0.00  0.00     0.023 A 
ATOM      2  C1  UNL d   1       1.800   4.843  -5.957  0.00  0.00     0.003 A 
ATOM      3  C2  UNL d   1       0.526   5.413  -5.999  0.00  0.00     0.048 A 
ATOM      4  C3  UNL d   1      -0.600   4.594  -5.935  0.00  0.00     0.023 A 
ATOM      5  C4  UNL d   1      -0.461   3.209  -5.829  0.00  0.00     0.048 A 
ATOM      6  C5  UNL d   1       0.814   2.644  -5.788  0.00  0.00     0.003 A 
ATOM      7  I   UNL d   1      -2.498   5.440  -5.998  0.00  0.00    -0.146 I 
ENDROOT
TORSDOF 0
ENDMDL
