MODEL 1
REMARK minimizedAffinity 2.05131698
REMARK minimizedRMSD -1
REMARK  0 active torsions:
REMARK  status: ('A' for Active; 'I' for Inactive)
ROOT
ATOM      1  C   UNL d   1      -2.762   4.415  -5.987  0.00  0.00     0.023 A 
ATOM      2  C1  UNL d   1      -1.595   5.179  -5.985  0.00  0.00     0.003 A 
ATOM      3  C2  UNL d   1      -0.348   4.551  -5.988  0.00  0.00     0.048 A 
ATOM      4  C3  UNL d   1      -0.275   3.158  -5.995  0.00  0.00     0.023 A 
ATOM      5  C4  UNL d   1      -1.440   2.390  -5.998  0.00  0.00     0.048 A 
ATOM      6  C5  UNL d   1      -2.685   3.022  -5.994  0.00  0.00     0.003 A 
ATOM      7  I   UNL d   1       1.580   2.221  -6.000  0.00  0.00    -0.146 I 
ENDROOT
TORSDOF 0
ENDMDL
