MODEL 1
REMARK minimizedAffinity -1.36619985
REMARK minimizedRMSD -1
REMARK  0 active torsions:
REMARK  status: ('A' for Active; 'I' for Inactive)
ROOT
ATOM      1  C   UNL d   1      -0.034   4.993  -5.992  0.00  0.00     0.023 A 
ATOM      2  C1  UNL d   1      -1.099   5.894  -5.988  0.00  0.00     0.003 A 
ATOM      3  C2  UNL d   1      -2.414   5.423  -5.990  0.00  0.00     0.048 A 
ATOM      4  C3  UNL d   1      -2.656   4.050  -5.996  0.00  0.00     0.023 A 
ATOM      5  C4  UNL d   1      -1.594   3.145  -5.999  0.00  0.00     0.048 A 
ATOM      6  C5  UNL d   1      -0.281   3.620  -5.998  0.00  0.00     0.003 A 
ATOM      7  I   UNL d   1      -4.612   3.347  -6.000  0.00  0.00    -0.146 I 
ENDROOT
TORSDOF 0
ENDMDL
