MODEL 1
REMARK minimizedAffinity 1.30506527
REMARK minimizedRMSD -1
REMARK  0 active torsions:
REMARK  status: ('A' for Active; 'I' for Inactive)
ROOT
ATOM      1  C   UNL d   1      -4.116   5.087  -5.911  0.00  0.00     0.023 A 
ATOM      2  C1  UNL d   1      -3.062   5.999  -5.960  0.00  0.00     0.003 A 
ATOM      3  C2  UNL d   1      -1.743   5.543  -5.985  0.00  0.00     0.048 A 
ATOM      4  C3  UNL d   1      -1.485   4.172  -5.961  0.00  0.00     0.023 A 
ATOM      5  C4  UNL d   1      -2.537   3.256  -5.912  0.00  0.00     0.048 A 
ATOM      6  C5  UNL d   1      -3.854   3.718  -5.887  0.00  0.00     0.003 A 
ATOM      7  I   UNL d   1       0.478   3.490  -5.998  0.00  0.00    -0.146 I 
ENDROOT
TORSDOF 0
ENDMDL
