MODEL 1
REMARK minimizedAffinity -2.58404756
REMARK minimizedRMSD -1
REMARK  0 active torsions:
REMARK  status: ('A' for Active; 'I' for Inactive)
ROOT
ATOM      1  C   UNL d   1      -0.173   2.906  -5.969  0.00  0.00     0.023 A 
ATOM      2  C1  UNL d   1       0.002   4.290  -5.990  0.00  0.00     0.003 A 
ATOM      3  C2  UNL d   1      -1.109   5.136  -5.999  0.00  0.00     0.048 A 
ATOM      4  C3  UNL d   1      -2.393   4.591  -5.986  0.00  0.00     0.023 A 
ATOM      5  C4  UNL d   1      -2.573   3.207  -5.965  0.00  0.00     0.048 A 
ATOM      6  C5  UNL d   1      -1.459   2.365  -5.957  0.00  0.00     0.003 A 
ATOM      7  I   UNL d   1      -4.048   5.847  -6.000  0.00  0.00    -0.146 I 
ENDROOT
TORSDOF 0
ENDMDL
