MODEL 1
REMARK minimizedAffinity 0.986389458
REMARK minimizedRMSD -1
REMARK  0 active torsions:
REMARK  status: ('A' for Active; 'I' for Inactive)
ROOT
ATOM      1  C   UNL d   1      -3.043   4.149  -5.977  0.00  0.00     0.023 A 
ATOM      2  C1  UNL d   1      -2.432   5.404  -5.987  0.00  0.00     0.003 A 
ATOM      3  C2  UNL d   1      -1.040   5.503  -5.993  0.00  0.00     0.048 A 
ATOM      4  C3  UNL d   1      -0.263   4.345  -5.990  0.00  0.00     0.023 A 
ATOM      5  C4  UNL d   1      -0.870   3.088  -5.981  0.00  0.00     0.048 A 
ATOM      6  C5  UNL d   1      -2.263   2.993  -5.973  0.00  0.00     0.003 A 
ATOM      7  I   UNL d   1       1.810   4.491  -6.000  0.00  0.00    -0.146 I 
ENDROOT
TORSDOF 0
ENDMDL
