MODEL 1
REMARK minimizedAffinity -1.52193761
REMARK minimizedRMSD -1
REMARK  0 active torsions:
REMARK  status: ('A' for Active; 'I' for Inactive)
ROOT
ATOM      1  C   UNL d   1      -4.224   4.596  -5.999  0.00  0.00     0.023 A 
ATOM      2  C1  UNL d   1      -3.543   3.379  -5.998  0.00  0.00     0.003 A 
ATOM      3  C2  UNL d   1      -2.147   3.359  -5.999  0.00  0.00     0.048 A 
ATOM      4  C3  UNL d   1      -1.438   4.560  -5.998  0.00  0.00     0.023 A 
ATOM      5  C4  UNL d   1      -2.116   5.780  -5.998  0.00  0.00     0.048 A 
ATOM      6  C5  UNL d   1      -3.512   5.795  -5.999  0.00  0.00     0.003 A 
ATOM      7  I   UNL d   1       0.640   4.533  -5.999  0.00  0.00    -0.146 I 
ENDROOT
TORSDOF 0
ENDMDL
