MODEL 1
REMARK minimizedAffinity 5.09139109
REMARK minimizedRMSD -1
REMARK  0 active torsions:
REMARK  status: ('A' for Active; 'I' for Inactive)
ROOT
ATOM      1  C   UNL d   1      -3.510   4.226  -5.888  0.00  0.00     0.023 A 
ATOM      2  C1  UNL d   1      -2.957   2.946  -5.856  0.00  0.00     0.003 A 
ATOM      3  C2  UNL d   1      -1.571   2.781  -5.889  0.00  0.00     0.048 A 
ATOM      4  C3  UNL d   1      -0.743   3.902  -5.952  0.00  0.00     0.023 A 
ATOM      5  C4  UNL d   1      -1.291   5.185  -5.982  0.00  0.00     0.048 A 
ATOM      6  C5  UNL d   1      -2.678   5.345  -5.951  0.00  0.00     0.003 A 
ATOM      7  I   UNL d   1       1.321   3.659  -6.000  0.00  0.00    -0.146 I 
ENDROOT
TORSDOF 0
ENDMDL
