MODEL 1
REMARK minimizedAffinity -1.86206186
REMARK minimizedRMSD -1
REMARK  0 active torsions:
REMARK  status: ('A' for Active; 'I' for Inactive)
ROOT
ATOM      1  C   UNL d   1       0.974   4.055  -6.000  0.00  0.00     0.023 A 
ATOM      2  C1  UNL d   1       0.198   2.896  -6.000  0.00  0.00     0.003 A 
ATOM      3  C2  UNL d   1      -1.195   2.985  -5.999  0.00  0.00     0.048 A 
ATOM      4  C3  UNL d   1      -1.807   4.238  -5.999  0.00  0.00     0.023 A 
ATOM      5  C4  UNL d   1      -1.036   5.402  -6.000  0.00  0.00     0.048 A 
ATOM      6  C5  UNL d   1       0.357   5.307  -6.000  0.00  0.00     0.003 A 
ATOM      7  I   UNL d   1      -3.881   4.375  -5.998  0.00  0.00    -0.146 I 
ENDROOT
TORSDOF 0
ENDMDL
