MODEL 1
REMARK minimizedAffinity -1.91138184
REMARK minimizedRMSD -1
REMARK  0 active torsions:
REMARK  status: ('A' for Active; 'I' for Inactive)
ROOT
ATOM      1  C   UNL d   1      -3.427   5.338  -6.000  0.00  0.00     0.023 A 
ATOM      2  C1  UNL d   1      -3.483   3.944  -6.000  0.00  0.00     0.003 A 
ATOM      3  C2  UNL d   1      -2.304   3.196  -5.992  0.00  0.00     0.048 A 
ATOM      4  C3  UNL d   1      -1.072   3.849  -5.983  0.00  0.00     0.023 A 
ATOM      5  C4  UNL d   1      -1.010   5.243  -5.982  0.00  0.00     0.048 A 
ATOM      6  C5  UNL d   1      -2.192   5.987  -5.991  0.00  0.00     0.003 A 
ATOM      7  I   UNL d   1       0.685   2.738  -5.971  0.00  0.00    -0.146 I 
ENDROOT
TORSDOF 0
ENDMDL
