MODEL 1
REMARK minimizedAffinity -3.58949685
REMARK minimizedRMSD -1
REMARK  1 active torsions:
REMARK  status: ('A' for Active; 'I' for Inactive)
REMARK    1  A    between atoms: C3_4  and  O_7 
ROOT
ATOM      1  C   UNL d   1       5.311   3.002  -5.482  0.00  0.00    -0.033 A 
ATOM      2  C1  UNL d   1       5.118   4.291  -5.981  0.00  0.00     0.039 A 
ATOM      3  C2  UNL d   1       3.892   4.935  -5.799  0.00  0.00    -0.080 A 
ATOM      4  C3  UNL d   1       2.870   4.280  -5.118  0.00  0.00     0.150 A 
ATOM      5  C4  UNL d   1       3.057   2.997  -4.615  0.00  0.00    -0.007 A 
ATOM      6  C5  UNL d   1       4.281   2.355  -4.798  0.00  0.00     0.039 A 
ENDROOT
BRANCH   4   7
ATOM      7  O   UNL d   1       1.655   4.866  -4.921  0.00  0.00    -0.526 OA
ATOM      8  H5  UNL d   1       1.662   5.739  -5.347  0.00  0.00     0.418 HD
ENDBRANCH   4   7
TORSDOF 1
ENDMDL
