MODEL 1
REMARK minimizedAffinity -2.50737906
REMARK minimizedRMSD -1
REMARK  1 active torsions:
REMARK  status: ('A' for Active; 'I' for Inactive)
REMARK    1  A    between atoms: C3_4  and  O_7 
ROOT
ATOM      1  C   UNL d   1       4.493   5.294  -5.607  0.00  0.00    -0.033 A 
ATOM      2  C1  UNL d   1       3.222   4.873  -5.211  0.00  0.00     0.039 A 
ATOM      3  C2  UNL d   1       2.904   3.513  -5.210  0.00  0.00    -0.080 A 
ATOM      4  C3  UNL d   1       3.865   2.587  -5.605  0.00  0.00     0.150 A 
ATOM      5  C4  UNL d   1       5.134   2.999  -5.997  0.00  0.00    -0.007 A 
ATOM      6  C5  UNL d   1       5.450   4.357  -5.999  0.00  0.00     0.039 A 
ENDROOT
BRANCH   4   7
ATOM      7  O   UNL d   1       3.599   1.250  -5.625  0.00  0.00    -0.526 OA
ATOM      8  H5  UNL d   1       2.675   1.115  -5.357  0.00  0.00     0.418 HD
ENDBRANCH   4   7
TORSDOF 1
ENDMDL
