MODEL 1
REMARK minimizedAffinity -2.94789481
REMARK minimizedRMSD -1
REMARK  1 active torsions:
REMARK  status: ('A' for Active; 'I' for Inactive)
REMARK    1  A    between atoms: C3_4  and  O_7 
ROOT
ATOM      1  C   UNL d   1       4.146   5.030  -5.716  0.00  0.00    -0.033 A 
ATOM      2  C1  UNL d   1       2.832   4.689  -5.391  0.00  0.00     0.039 A 
ATOM      3  C2  UNL d   1       2.446   3.348  -5.353  0.00  0.00    -0.080 A 
ATOM      4  C3  UNL d   1       3.382   2.359  -5.640  0.00  0.00     0.150 A 
ATOM      5  C4  UNL d   1       4.694   2.691  -5.961  0.00  0.00    -0.007 A 
ATOM      6  C5  UNL d   1       5.078   4.031  -6.000  0.00  0.00     0.039 A 
ENDROOT
BRANCH   4   7
ATOM      7  O   UNL d   1       3.051   1.037  -5.621  0.00  0.00    -0.526 OA
ATOM      8  H5  UNL d   1       2.105   0.960  -5.412  0.00  0.00     0.418 HD
ENDBRANCH   4   7
TORSDOF 1
ENDMDL
