MODEL 1
REMARK minimizedAffinity -3.20825505
REMARK minimizedRMSD -1
REMARK  1 active torsions:
REMARK  status: ('A' for Active; 'I' for Inactive)
REMARK    1  A    between atoms: C3_4  and  O_7 
ROOT
ATOM      1  C   UNL d   1       5.709   3.647  -5.624  0.00  0.00    -0.033 A 
ATOM      2  C1  UNL d   1       5.055   4.822  -5.996  0.00  0.00     0.039 A 
ATOM      3  C2  UNL d   1       3.659   4.876  -6.000  0.00  0.00    -0.080 A 
ATOM      4  C3  UNL d   1       2.932   3.748  -5.630  0.00  0.00     0.150 A 
ATOM      5  C4  UNL d   1       3.577   2.575  -5.254  0.00  0.00    -0.007 A 
ATOM      6  C5  UNL d   1       4.970   2.523  -5.251  0.00  0.00     0.039 A 
ENDROOT
BRANCH   4   7
ATOM      7  O   UNL d   1       1.568   3.750  -5.623  0.00  0.00    -0.526 OA
ATOM      8  H5  UNL d   1       1.261   4.619  -5.933  0.00  0.00     0.418 HD
ENDBRANCH   4   7
TORSDOF 1
ENDMDL
