MODEL 1
REMARK minimizedAffinity -2.04678845
REMARK minimizedRMSD -1
REMARK  1 active torsions:
REMARK  status: ('A' for Active; 'I' for Inactive)
REMARK    1  A    between atoms: C3_4  and  O_7 
ROOT
ATOM      1  C   UNL d   1       5.291   5.030  -5.874  0.00  0.00    -0.033 A 
ATOM      2  C1  UNL d   1       5.924   3.792  -5.750  0.00  0.00     0.039 A 
ATOM      3  C2  UNL d   1       5.170   2.617  -5.749  0.00  0.00    -0.080 A 
ATOM      4  C3  UNL d   1       3.785   2.694  -5.873  0.00  0.00     0.150 A 
ATOM      5  C4  UNL d   1       3.148   3.923  -6.000  0.00  0.00    -0.007 A 
ATOM      6  C5  UNL d   1       3.903   5.096  -6.000  0.00  0.00     0.039 A 
ENDROOT
BRANCH   4   7
ATOM      7  O   UNL d   1       3.007   1.575  -5.872  0.00  0.00    -0.526 OA
ATOM      8  H5  UNL d   1       3.581   0.800  -5.747  0.00  0.00     0.418 HD
ENDBRANCH   4   7
TORSDOF 1
ENDMDL
