MODEL 1
REMARK minimizedAffinity -1.71404111
REMARK minimizedRMSD -1
REMARK  1 active torsions:
REMARK  status: ('A' for Active; 'I' for Inactive)
REMARK    1  A    between atoms: C3_4  and  O_7 
ROOT
ATOM      1  C   UNL d   1       4.876   2.999  -5.439  0.00  0.00    -0.033 A 
ATOM      2  C1  UNL d   1       4.670   4.261  -5.999  0.00  0.00     0.039 A 
ATOM      3  C2  UNL d   1       3.394   4.828  -5.999  0.00  0.00    -0.080 A 
ATOM      4  C3  UNL d   1       2.334   4.123  -5.435  0.00  0.00     0.150 A 
ATOM      5  C4  UNL d   1       2.533   2.867  -4.871  0.00  0.00    -0.007 A 
ATOM      6  C5  UNL d   1       3.808   2.302  -4.874  0.00  0.00     0.039 A 
ENDROOT
BRANCH   4   7
ATOM      7  O   UNL d   1       1.070   4.633  -5.415  0.00  0.00    -0.526 OA
ATOM      8  H5  UNL d   1       1.079   5.494  -5.865  0.00  0.00     0.418 HD
ENDBRANCH   4   7
TORSDOF 1
ENDMDL
