MODEL 1
REMARK minimizedAffinity -4.2201438
REMARK minimizedRMSD -1
REMARK  1 active torsions:
REMARK  status: ('A' for Active; 'I' for Inactive)
REMARK    1  A    between atoms: C3_4  and  O_7 
ROOT
ATOM      1  C   UNL d   1       4.312   4.120  -4.892  0.00  0.00    -0.033 A 
ATOM      2  C1  UNL d   1       3.517   5.268  -4.885  0.00  0.00     0.039 A 
ATOM      3  C2  UNL d   1       2.173   5.190  -5.254  0.00  0.00    -0.080 A 
ATOM      4  C3  UNL d   1       1.636   3.961  -5.626  0.00  0.00     0.150 A 
ATOM      5  C4  UNL d   1       2.421   2.812  -5.631  0.00  0.00    -0.007 A 
ATOM      6  C5  UNL d   1       3.763   2.892  -5.263  0.00  0.00     0.039 A 
ENDROOT
BRANCH   4   7
ATOM      7  O   UNL d   1       0.331   3.837  -5.999  0.00  0.00    -0.526 OA
ATOM      8  H5  UNL d   1      -0.081   4.716  -5.975  0.00  0.00     0.418 HD
ENDBRANCH   4   7
TORSDOF 1
ENDMDL
