MODEL 1
REMARK minimizedAffinity -3.35316873
REMARK minimizedRMSD -1
REMARK  1 active torsions:
REMARK  status: ('A' for Active; 'I' for Inactive)
REMARK    1  A    between atoms: C3_4  and  O_7 
ROOT
ATOM      1  C   UNL d   1       4.863   3.702  -5.994  0.00  0.00    -0.033 A 
ATOM      2  C1  UNL d   1       4.585   5.070  -5.990  0.00  0.00     0.039 A 
ATOM      3  C2  UNL d   1       3.316   5.525  -5.626  0.00  0.00    -0.080 A 
ATOM      4  C3  UNL d   1       2.336   4.603  -5.268  0.00  0.00     0.150 A 
ATOM      5  C4  UNL d   1       2.608   3.239  -5.265  0.00  0.00    -0.007 A 
ATOM      6  C5  UNL d   1       3.875   2.787  -5.630  0.00  0.00     0.039 A 
ENDROOT
BRANCH   4   7
ATOM      7  O   UNL d   1       1.082   4.999  -4.910  0.00  0.00    -0.526 OA
ATOM      8  H5  UNL d   1       1.031   5.967  -4.985  0.00  0.00     0.418 HD
ENDBRANCH   4   7
TORSDOF 1
ENDMDL
