MODEL 1
REMARK minimizedAffinity -1.44216144
REMARK minimizedRMSD -1
REMARK  1 active torsions:
REMARK  status: ('A' for Active; 'I' for Inactive)
REMARK    1  A    between atoms: C3_4  and  O_7 
ROOT
ATOM      1  C   UNL d   1       3.524   5.613  -5.999  0.00  0.00    -0.033 A 
ATOM      2  C1  UNL d   1       4.772   4.987  -6.000  0.00  0.00     0.039 A 
ATOM      3  C2  UNL d   1       4.868   3.619  -5.734  0.00  0.00    -0.080 A 
ATOM      4  C3  UNL d   1       3.711   2.891  -5.471  0.00  0.00     0.150 A 
ATOM      5  C4  UNL d   1       2.465   3.508  -5.472  0.00  0.00    -0.007 A 
ATOM      6  C5  UNL d   1       2.371   4.874  -5.737  0.00  0.00     0.039 A 
ENDROOT
BRANCH   4   7
ATOM      7  O   UNL d   1       3.756   1.556  -5.201  0.00  0.00    -0.526 OA
ATOM      8  H5  UNL d   1       4.685   1.271  -5.206  0.00  0.00     0.418 HD
ENDBRANCH   4   7
TORSDOF 1
ENDMDL
