MODEL 1
REMARK minimizedAffinity -0.280341923
REMARK minimizedRMSD -1
REMARK  1 active torsions:
REMARK  status: ('A' for Active; 'I' for Inactive)
REMARK    1  A    between atoms: C3_4  and  O_7 
ROOT
ATOM      1  C   UNL d   1       3.654   3.355  -4.452  0.00  0.00    -0.033 A 
ATOM      2  C1  UNL d   1       3.045   2.827  -5.593  0.00  0.00     0.039 A 
ATOM      3  C2  UNL d   1       1.795   3.296  -6.000  0.00  0.00    -0.080 A 
ATOM      4  C3  UNL d   1       1.164   4.291  -5.258  0.00  0.00     0.150 A 
ATOM      5  C4  UNL d   1       1.766   4.824  -4.123  0.00  0.00    -0.007 A 
ATOM      6  C5  UNL d   1       3.014   4.354  -3.718  0.00  0.00     0.039 A 
ENDROOT
BRANCH   4   7
ATOM      7  O   UNL d   1      -0.059   4.777  -5.613  0.00  0.00    -0.526 OA
ATOM      8  H5  UNL d   1      -0.365   4.296  -6.400  0.00  0.00     0.418 HD
ENDBRANCH   4   7
TORSDOF 1
ENDMDL
