MODEL 1
REMARK minimizedAffinity -2.95225787
REMARK minimizedRMSD -1
REMARK  1 active torsions:
REMARK  status: ('A' for Active; 'I' for Inactive)
REMARK    1  A    between atoms: C3_4  and  O_7 
ROOT
ATOM      1  C   UNL d   1       3.274   5.822  -5.925  0.00  0.00    -0.033 A 
ATOM      2  C1  UNL d   1       2.075   5.123  -5.772  0.00  0.00     0.039 A 
ATOM      3  C2  UNL d   1       2.083   3.729  -5.697  0.00  0.00    -0.080 A 
ATOM      4  C3  UNL d   1       3.294   3.047  -5.775  0.00  0.00     0.150 A 
ATOM      5  C4  UNL d   1       4.492   3.737  -5.923  0.00  0.00    -0.007 A 
ATOM      6  C5  UNL d   1       4.482   5.129  -6.000  0.00  0.00     0.039 A 
ENDROOT
BRANCH   4   7
ATOM      7  O   UNL d   1       3.351   1.686  -5.711  0.00  0.00    -0.526 OA
ATOM      8  H5  UNL d   1       2.445   1.343  -5.637  0.00  0.00     0.418 HD
ENDBRANCH   4   7
TORSDOF 1
ENDMDL
