MODEL 1
REMARK minimizedAffinity -3.29381418
REMARK minimizedRMSD -1
REMARK  1 active torsions:
REMARK  status: ('A' for Active; 'I' for Inactive)
REMARK    1  A    between atoms: C3_4  and  O_7 
ROOT
ATOM      1  C   UNL d   1       5.247   3.655  -5.969  0.00  0.00    -0.033 A 
ATOM      2  C1  UNL d   1       4.573   2.439  -5.841  0.00  0.00     0.039 A 
ATOM      3  C2  UNL d   1       3.181   2.419  -5.731  0.00  0.00    -0.080 A 
ATOM      4  C3  UNL d   1       2.476   3.619  -5.751  0.00  0.00     0.150 A 
ATOM      5  C4  UNL d   1       3.141   4.834  -5.882  0.00  0.00    -0.007 A 
ATOM      6  C5  UNL d   1       4.531   4.853  -5.991  0.00  0.00     0.039 A 
ENDROOT
BRANCH   4   7
ATOM      7  O   UNL d   1       1.118   3.650  -5.641  0.00  0.00    -0.526 OA
ATOM      8  H5  UNL d   1       0.798   2.739  -5.528  0.00  0.00     0.418 HD
ENDBRANCH   4   7
TORSDOF 1
ENDMDL
