MODEL 1
REMARK minimizedAffinity -3.45725179
REMARK minimizedRMSD -1
REMARK  1 active torsions:
REMARK  status: ('A' for Active; 'I' for Inactive)
REMARK    1  A    between atoms: C3_4  and  O_7 
ROOT
ATOM      1  C   UNL d   1       4.945   3.870  -5.450  0.00  0.00    -0.033 A 
ATOM      2  C1  UNL d   1       4.140   4.995  -5.642  0.00  0.00     0.039 A 
ATOM      3  C2  UNL d   1       2.764   4.848  -5.827  0.00  0.00    -0.080 A 
ATOM      4  C3  UNL d   1       2.206   3.572  -5.818  0.00  0.00     0.150 A 
ATOM      5  C4  UNL d   1       3.001   2.448  -5.624  0.00  0.00    -0.007 A 
ATOM      6  C5  UNL d   1       4.375   2.596  -5.439  0.00  0.00     0.039 A 
ENDROOT
BRANCH   4   7
ATOM      7  O   UNL d   1       0.869   3.378  -6.000  0.00  0.00    -0.526 OA
ATOM      8  H5  UNL d   1       0.450   4.242  -6.151  0.00  0.00     0.418 HD
ENDBRANCH   4   7
TORSDOF 1
ENDMDL
