MODEL 1
REMARK minimizedAffinity -2.73516297
REMARK minimizedRMSD -1
REMARK  1 active torsions:
REMARK  status: ('A' for Active; 'I' for Inactive)
REMARK    1  A    between atoms: C3_4  and  O_7 
ROOT
ATOM      1  C   UNL d   1       4.695   5.533  -6.000  0.00  0.00    -0.033 A 
ATOM      2  C1  UNL d   1       5.651   4.526  -5.856  0.00  0.00     0.039 A 
ATOM      3  C2  UNL d   1       5.250   3.203  -5.663  0.00  0.00    -0.080 A 
ATOM      4  C3  UNL d   1       3.892   2.900  -5.617  0.00  0.00     0.150 A 
ATOM      5  C4  UNL d   1       2.934   3.898  -5.764  0.00  0.00    -0.007 A 
ATOM      6  C5  UNL d   1       3.337   5.219  -5.956  0.00  0.00     0.039 A 
ENDROOT
BRANCH   4   7
ATOM      7  O   UNL d   1       3.452   1.624  -5.427  0.00  0.00    -0.526 OA
ATOM      8  H5  UNL d   1       4.225   1.046  -5.312  0.00  0.00     0.418 HD
ENDBRANCH   4   7
TORSDOF 1
ENDMDL
