MODEL 1
REMARK minimizedAffinity -1.31736255
REMARK minimizedRMSD -1
REMARK  1 active torsions:
REMARK  status: ('A' for Active; 'I' for Inactive)
REMARK    1  A    between atoms: C3_4  and  O_7 
ROOT
ATOM      1  C   UNL d   1       3.621   3.506  -4.499  0.00  0.00    -0.033 A 
ATOM      2  C1  UNL d   1       3.013   4.523  -3.760  0.00  0.00     0.039 A 
ATOM      3  C2  UNL d   1       1.763   5.013  -4.142  0.00  0.00    -0.080 A 
ATOM      4  C3  UNL d   1       1.131   4.477  -5.261  0.00  0.00     0.150 A 
ATOM      5  C4  UNL d   1       1.730   3.461  -5.999  0.00  0.00    -0.007 A 
ATOM      6  C5  UNL d   1       2.979   2.974  -5.617  0.00  0.00     0.039 A 
ENDROOT
BRANCH   4   7
ATOM      7  O   UNL d   1      -0.088   4.926  -5.675  0.00  0.00    -0.526 OA
ATOM      8  H5  UNL d   1      -0.365   5.649  -5.087  0.00  0.00     0.418 HD
ENDBRANCH   4   7
TORSDOF 1
ENDMDL
