MODEL 1
REMARK minimizedAffinity 6.93208218
REMARK minimizedRMSD -1
REMARK  0 active torsions:
REMARK  status: ('A' for Active; 'I' for Inactive)
ROOT
ATOM      1  N1  IND d   1       0.674  -1.304   1.943  0.00  0.00    -0.196 N 
ATOM      2  C2  IND d   1       0.288  -0.792   0.735  0.00  0.00     0.054 A 
ATOM      3  C3  IND d   1       0.798   0.448   0.565  0.00  0.00    -0.031 A 
ATOM      4  C4  IND d   1       2.374   1.792   2.095  0.00  0.00     0.051 A 
ATOM      5  C5  IND d   1       2.973   1.756   3.323  0.00  0.00    -0.031 A 
ATOM      6  C6  IND d   1       2.835   0.675   4.169  0.00  0.00     0.015 A 
ATOM      7  C7  IND d   1       2.100  -0.420   3.813  0.00  0.00    -0.016 A 
ATOM      8  C8  IND d   1       1.485  -0.384   2.570  0.00  0.00    -0.047 A 
ATOM      9  C9  IND d   1       1.586   0.728   1.724  0.00  0.00    -0.096 A 
ATOM     10  HN1 IND d   1       0.448  -2.072   2.257  0.00  0.00     0.298 HD
ENDROOT
TORSDOF 0
ENDMDL
