MODEL 1
REMARK minimizedAffinity -1.20086014
REMARK minimizedRMSD -1
REMARK  0 active torsions:
REMARK  status: ('A' for Active; 'I' for Inactive)
ROOT
ATOM      1  N1  IND d   1       2.698   1.188   1.039  0.00  0.00    -0.196 N 
ATOM      2  C2  IND d   1       3.285  -0.032   0.848  0.00  0.00     0.054 A 
ATOM      3  C3  IND d   1       2.419  -0.882   0.253  0.00  0.00    -0.031 A 
ATOM      4  C4  IND d   1       0.023  -0.454  -0.588  0.00  0.00     0.051 A 
ATOM      5  C5  IND d   1      -0.959   0.496  -0.605  0.00  0.00    -0.031 A 
ATOM      6  C6  IND d   1      -0.767   1.752  -0.067  0.00  0.00     0.015 A 
ATOM      7  C7  IND d   1       0.423   2.110   0.501  0.00  0.00    -0.016 A 
ATOM      8  C8  IND d   1       1.420   1.145   0.527  0.00  0.00    -0.047 A 
ATOM      9  C9  IND d   1       1.217  -0.145   0.020  0.00  0.00    -0.096 A 
ATOM     10  HN1 IND d   1       3.066   1.868   1.415  0.00  0.00     0.298 HD
ENDROOT
TORSDOF 0
ENDMDL
