MODEL 1
REMARK minimizedAffinity 0.0256087817
REMARK minimizedRMSD -1
REMARK  0 active torsions:
REMARK  status: ('A' for Active; 'I' for Inactive)
ROOT
ATOM      1  N1  IND d   1       0.756  -2.004   2.598  0.00  0.00    -0.196 N 
ATOM      2  C2  IND d   1      -0.423  -2.522   2.139  0.00  0.00     0.054 A 
ATOM      3  C3  IND d   1      -0.990  -1.682   1.244  0.00  0.00    -0.031 A 
ATOM      4  C4  IND d   1      -0.108   0.549   0.309  0.00  0.00     0.051 A 
ATOM      5  C5  IND d   1       0.909   1.451   0.454  0.00  0.00    -0.031 A 
ATOM      6  C6  IND d   1       1.949   1.242   1.336  0.00  0.00     0.015 A 
ATOM      7  C7  IND d   1       2.017   0.113   2.103  0.00  0.00    -0.016 A 
ATOM      8  C8  IND d   1       0.983  -0.802   1.964  0.00  0.00    -0.047 A 
ATOM      9  C9  IND d   1      -0.097  -0.576   1.101  0.00  0.00    -0.096 A 
ATOM     10  HN1 IND d   1       1.269  -2.367   3.185  0.00  0.00     0.298 HD
ENDROOT
TORSDOF 0
ENDMDL
