MODEL 1
REMARK minimizedAffinity -2.32291722
REMARK minimizedRMSD -1
REMARK  0 active torsions:
REMARK  status: ('A' for Active; 'I' for Inactive)
ROOT
ATOM      1  N1  IND d   1      -0.928  -0.763   1.157  0.00  0.00    -0.196 N 
ATOM      2  C2  IND d   1      -1.885  -0.286   0.306  0.00  0.00     0.054 A 
ATOM      3  C3  IND d   1      -1.393   0.735  -0.430  0.00  0.00    -0.031 A 
ATOM      4  C4  IND d   1       0.984   1.723  -0.474  0.00  0.00     0.051 A 
ATOM      5  C5  IND d   1       2.196   1.641   0.152  0.00  0.00    -0.031 A 
ATOM      6  C6  IND d   1       2.434   0.733   1.164  0.00  0.00     0.015 A 
ATOM      7  C7  IND d   1       1.469  -0.138   1.581  0.00  0.00    -0.016 A 
ATOM      8  C8  IND d   1       0.234  -0.053   0.953  0.00  0.00    -0.047 A 
ATOM      9  C9  IND d   1      -0.026   0.895  -0.045  0.00  0.00    -0.096 A 
ATOM     10  HN1 IND d   1      -1.034  -1.400   1.725  0.00  0.00     0.298 HD
ENDROOT
TORSDOF 0
ENDMDL
