MODEL 1
REMARK minimizedAffinity -3.52793646
REMARK minimizedRMSD -1
REMARK  0 active torsions:
REMARK  status: ('A' for Active; 'I' for Inactive)
ROOT
ATOM      1  N1  IND d   1       2.460  -1.827   0.977  0.00  0.00    -0.196 N 
ATOM      2  C2  IND d   1       1.385  -2.545   1.420  0.00  0.00     0.054 A 
ATOM      3  C3  IND d   1       0.246  -1.835   1.257  0.00  0.00    -0.031 A 
ATOM      4  C4  IND d   1      -0.098   0.483   0.190  0.00  0.00     0.051 A 
ATOM      5  C5  IND d   1       0.591   1.543  -0.328  0.00  0.00    -0.031 A 
ATOM      6  C6  IND d   1       1.966   1.533  -0.443  0.00  0.00     0.015 A 
ATOM      7  C7  IND d   1       2.705   0.453  -0.052  0.00  0.00    -0.016 A 
ATOM      8  C8  IND d   1       2.010  -0.623   0.481  0.00  0.00    -0.047 A 
ATOM      9  C9  IND d   1       0.618  -0.602   0.640  0.00  0.00    -0.096 A 
ATOM     10  HN1 IND d   1       3.280  -2.084   1.003  0.00  0.00     0.298 HD
ENDROOT
TORSDOF 0
ENDMDL
