MODEL 1
REMARK minimizedAffinity -2.70321059
REMARK minimizedRMSD -1
REMARK  0 active torsions:
REMARK  status: ('A' for Active; 'I' for Inactive)
ROOT
ATOM      1  N1  IND d   1      -1.746  -0.773   0.103  0.00  0.00    -0.196 N 
ATOM      2  C2  IND d   1      -1.795   0.216  -0.839  0.00  0.00     0.054 A 
ATOM      3  C3  IND d   1      -0.565   0.434  -1.357  0.00  0.00    -0.031 A 
ATOM      4  C4  IND d   1       1.651  -0.787  -0.878  0.00  0.00     0.051 A 
ATOM      5  C5  IND d   1       2.203  -1.738  -0.067  0.00  0.00    -0.031 A 
ATOM      6  C6  IND d   1       1.452  -2.432   0.859  0.00  0.00     0.015 A 
ATOM      7  C7  IND d   1       0.112  -2.208   1.001  0.00  0.00    -0.016 A 
ATOM      8  C8  IND d   1      -0.451  -1.237   0.184  0.00  0.00    -0.047 A 
ATOM      9  C9  IND d   1       0.315  -0.500  -0.728  0.00  0.00    -0.096 A 
ATOM     10  HN1 IND d   1      -2.411  -1.057   0.568  0.00  0.00     0.298 HD
ENDROOT
TORSDOF 0
ENDMDL
