MODEL 1
REMARK minimizedAffinity -2.79709888
REMARK minimizedRMSD -1
REMARK  0 active torsions:
REMARK  status: ('A' for Active; 'I' for Inactive)
ROOT
ATOM      1  C   UNL d   1      -0.851  -0.343   0.477  0.00  0.00    -0.002 A 
ATOM      2  C1  UNL d   1       0.258  -1.150   0.688  0.00  0.00     0.010 A 
ATOM      3  C2  UNL d   1       1.471  -0.598   1.104  0.00  0.00     0.041 A 
ATOM      4  C3  UNL d   1       1.551   0.794   1.308  0.00  0.00    -0.075 A 
ATOM      5  S   UNL d   1       2.932   1.692   1.818  0.00  0.00     0.015 SA
ATOM      6  C4  UNL d   1       2.082   3.169   1.769  0.00  0.00     0.022 A 
ATOM      7  C5  UNL d   1       0.776   2.999   1.376  0.00  0.00     0.026 A 
ATOM      8  C6  UNL d   1       0.448   1.628   1.104  0.00  0.00    -0.082 A 
ATOM      9  C7  UNL d   1      -0.767   1.037   0.681  0.00  0.00     0.045 A 
ENDROOT
TORSDOF 0
ENDMDL
