MODEL 1
REMARK minimizedAffinity -1.07611918
REMARK minimizedRMSD -1
REMARK  0 active torsions:
REMARK  status: ('A' for Active; 'I' for Inactive)
ROOT
ATOM      1  C   UNL d   1      -2.665  -0.651  -0.246  0.00  0.00    -0.002 A 
ATOM      2  C1  UNL d   1      -2.540  -1.336   0.954  0.00  0.00     0.010 A 
ATOM      3  C2  UNL d   1      -1.299  -1.443   1.584  0.00  0.00     0.041 A 
ATOM      4  C3  UNL d   1      -0.175  -0.842   0.984  0.00  0.00    -0.075 A 
ATOM      5  S   UNL d   1       1.444  -0.842   1.575  0.00  0.00     0.015 SA
ATOM      6  C4  UNL d   1       2.008   0.069   0.249  0.00  0.00     0.022 A 
ATOM      7  C5  UNL d   1       0.998   0.374  -0.633  0.00  0.00     0.026 A 
ATOM      8  C6  UNL d   1      -0.276  -0.145  -0.224  0.00  0.00    -0.082 A 
ATOM      9  C7  UNL d   1      -1.548  -0.055  -0.839  0.00  0.00     0.045 A 
ENDROOT
TORSDOF 0
ENDMDL
