MODEL 1
REMARK minimizedAffinity -0.00826800987
REMARK minimizedRMSD -1
REMARK  0 active torsions:
REMARK  status: ('A' for Active; 'I' for Inactive)
ROOT
ATOM      1  C   UNL d   1       2.705   3.377   1.456  0.00  0.00    -0.002 A 
ATOM      2  C1  UNL d   1       3.186   3.276   0.158  0.00  0.00     0.010 A 
ATOM      3  C2  UNL d   1       2.742   2.257  -0.686  0.00  0.00     0.041 A 
ATOM      4  C3  UNL d   1       1.795   1.333  -0.201  0.00  0.00    -0.075 A 
ATOM      5  S   UNL d   1       1.107   0.004  -1.056  0.00  0.00     0.015 SA
ATOM      6  C4  UNL d   1       0.157  -0.461   0.281  0.00  0.00     0.022 A 
ATOM      7  C5  UNL d   1       0.349   0.367   1.362  0.00  0.00     0.026 A 
ATOM      8  C6  UNL d   1       1.295   1.415   1.102  0.00  0.00    -0.082 A 
ATOM      9  C7  UNL d   1       1.766   2.459   1.934  0.00  0.00     0.045 A 
ENDROOT
TORSDOF 0
ENDMDL
