MODEL 1
REMARK minimizedAffinity -1.42572951
REMARK minimizedRMSD -1
REMARK  0 active torsions:
REMARK  status: ('A' for Active; 'I' for Inactive)
ROOT
ATOM      1  C   UNL d   1       3.278   4.034   0.886  0.00  0.00    -0.002 A 
ATOM      2  C1  UNL d   1       2.515   3.489   1.909  0.00  0.00     0.010 A 
ATOM      3  C2  UNL d   1       2.040   2.179   1.821  0.00  0.00     0.041 A 
ATOM      4  C3  UNL d   1       2.349   1.418   0.677  0.00  0.00    -0.075 A 
ATOM      5  S   UNL d   1       1.877  -0.208   0.350  0.00  0.00     0.015 SA
ATOM      6  C4  UNL d   1       2.678  -0.218  -1.154  0.00  0.00     0.022 A 
ATOM      7  C5  UNL d   1       3.295   0.982  -1.417  0.00  0.00     0.026 A 
ATOM      8  C6  UNL d   1       3.117   1.944  -0.366  0.00  0.00    -0.082 A 
ATOM      9  C7  UNL d   1       3.583   3.276  -0.247  0.00  0.00     0.045 A 
ENDROOT
TORSDOF 0
ENDMDL
