MODEL 1
REMARK minimizedAffinity -4.15448332
REMARK minimizedRMSD -1
REMARK  0 active torsions:
REMARK  status: ('A' for Active; 'I' for Inactive)
ROOT
ATOM      1  C   UNL d   1      -3.105  -0.768  -1.009  0.00  0.00    -0.002 A 
ATOM      2  C1  UNL d   1      -2.781  -0.618   0.332  0.00  0.00     0.010 A 
ATOM      3  C2  UNL d   1      -1.453  -0.441   0.726  0.00  0.00     0.041 A 
ATOM      4  C3  UNL d   1      -0.447  -0.415  -0.260  0.00  0.00    -0.075 A 
ATOM      5  S   UNL d   1       1.247  -0.209  -0.012  0.00  0.00     0.015 SA
ATOM      6  C4  UNL d   1       1.580  -0.314  -1.680  0.00  0.00     0.022 A 
ATOM      7  C5  UNL d   1       0.438  -0.502  -2.423  0.00  0.00     0.026 A 
ATOM      8  C6  UNL d   1      -0.749  -0.562  -1.617  0.00  0.00    -0.082 A 
ATOM      9  C7  UNL d   1      -2.104  -0.741  -1.984  0.00  0.00     0.045 A 
ENDROOT
TORSDOF 0
ENDMDL
