MODEL 1
REMARK minimizedAffinity 2.06590271
REMARK minimizedRMSD -1
REMARK  0 active torsions:
REMARK  status: ('A' for Active; 'I' for Inactive)
ROOT
ATOM      1  C   UNL d   1       2.686   3.844   2.075  0.00  0.00    -0.002 A 
ATOM      2  C1  UNL d   1       3.134   3.950   0.766  0.00  0.00     0.010 A 
ATOM      3  C2  UNL d   1       2.807   2.973  -0.177  0.00  0.00     0.041 A 
ATOM      4  C3  UNL d   1       2.014   1.879   0.221  0.00  0.00    -0.075 A 
ATOM      5  S   UNL d   1       1.489   0.563  -0.762  0.00  0.00     0.015 SA
ATOM      6  C4  UNL d   1       0.657  -0.169   0.533  0.00  0.00     0.022 A 
ATOM      7  C5  UNL d   1       0.767   0.558   1.694  0.00  0.00     0.026 A 
ATOM      8  C6  UNL d   1       1.551   1.751   1.534  0.00  0.00    -0.082 A 
ATOM      9  C7  UNL d   1       1.900   2.757   2.467  0.00  0.00     0.045 A 
ENDROOT
TORSDOF 0
ENDMDL
