MODEL 1
REMARK minimizedAffinity -1.95066428
REMARK minimizedRMSD -1
REMARK  0 active torsions:
REMARK  status: ('A' for Active; 'I' for Inactive)
ROOT
ATOM      1  C   UNL d   1      -1.370  -0.197  -0.139  0.00  0.00    -0.002 A 
ATOM      2  C1  UNL d   1      -0.343  -0.314   0.787  0.00  0.00     0.010 A 
ATOM      3  C2  UNL d   1       0.989  -0.358   0.369  0.00  0.00     0.041 A 
ATOM      4  C3  UNL d   1       1.274  -0.281  -1.008  0.00  0.00    -0.075 A 
ATOM      5  S   UNL d   1       2.829  -0.315  -1.751  0.00  0.00     0.015 SA
ATOM      6  C4  UNL d   1       2.168  -0.174  -3.315  0.00  0.00     0.022 A 
ATOM      7  C5  UNL d   1       0.795  -0.102  -3.290  0.00  0.00     0.026 A 
ATOM      8  C6  UNL d   1       0.257  -0.162  -1.960  0.00  0.00    -0.082 A 
ATOM      9  C7  UNL d   1      -1.083  -0.120  -1.505  0.00  0.00     0.045 A 
ENDROOT
TORSDOF 0
ENDMDL
