MODEL 1
REMARK minimizedAffinity 0.680392623
REMARK minimizedRMSD -1
REMARK  0 active torsions:
REMARK  status: ('A' for Active; 'I' for Inactive)
ROOT
ATOM      1  C   UNL d   1       2.211  -0.624  -4.341  0.00  0.00    -0.002 A 
ATOM      2  C1  UNL d   1       3.271  -0.947  -3.506  0.00  0.00     0.010 A 
ATOM      3  C2  UNL d   1       3.124  -0.897  -2.119  0.00  0.00     0.041 A 
ATOM      4  C3  UNL d   1       1.880  -0.515  -1.579  0.00  0.00    -0.075 A 
ATOM      5  S   UNL d   1       1.467  -0.384   0.090  0.00  0.00     0.015 SA
ATOM      6  C4  UNL d   1      -0.127   0.103  -0.266  0.00  0.00     0.022 A 
ATOM      7  C5  UNL d   1      -0.356   0.169  -1.620  0.00  0.00     0.026 A 
ATOM      8  C6  UNL d   1       0.797  -0.186  -2.399  0.00  0.00    -0.082 A 
ATOM      9  C7  UNL d   1       0.978  -0.246  -3.802  0.00  0.00     0.045 A 
ENDROOT
TORSDOF 0
ENDMDL
