MODEL 1
REMARK minimizedAffinity -4.79900789
REMARK minimizedRMSD -1
REMARK  0 active torsions:
REMARK  status: ('A' for Active; 'I' for Inactive)
ROOT
ATOM      1  C   UNL d   1      -0.438   1.499  -5.480  0.00  0.00    -0.002 A 
ATOM      2  C1  UNL d   1       0.673   0.850  -5.999  0.00  0.00     0.010 A 
ATOM      3  C2  UNL d   1       1.515   0.108  -5.169  0.00  0.00     0.041 A 
ATOM      4  C3  UNL d   1       1.217   0.025  -3.795  0.00  0.00    -0.075 A 
ATOM      5  S   UNL d   1       2.104  -0.828  -2.588  0.00  0.00     0.015 SA
ATOM      6  C4  UNL d   1       1.029  -0.353  -1.354  0.00  0.00     0.022 A 
ATOM      7  C5  UNL d   1       0.011   0.437  -1.834  0.00  0.00     0.026 A 
ATOM      8  C6  UNL d   1       0.102   0.668  -3.248  0.00  0.00    -0.082 A 
ATOM      9  C7  UNL d   1      -0.731   1.414  -4.116  0.00  0.00     0.045 A 
ENDROOT
TORSDOF 0
ENDMDL
