MODEL 1
REMARK minimizedAffinity -3.34525752
REMARK minimizedRMSD -1
REMARK  0 active torsions:
REMARK  status: ('A' for Active; 'I' for Inactive)
ROOT
ATOM      1  C   UNL d   1      -3.259  -1.127  -0.620  0.00  0.00    -0.002 A 
ATOM      2  C1  UNL d   1      -2.905  -1.023   0.718  0.00  0.00     0.010 A 
ATOM      3  C2  UNL d   1      -1.600  -0.687   1.082  0.00  0.00     0.041 A 
ATOM      4  C3  UNL d   1      -0.648  -0.453   0.070  0.00  0.00    -0.075 A 
ATOM      5  S   UNL d   1       1.010  -0.027   0.281  0.00  0.00     0.015 SA
ATOM      6  C4  UNL d   1       1.286   0.028  -1.400  0.00  0.00     0.022 A 
ATOM      7  C5  UNL d   1       0.152  -0.268  -2.119  0.00  0.00     0.026 A 
ATOM      8  C6  UNL d   1      -0.981  -0.550  -1.283  0.00  0.00    -0.082 A 
ATOM      9  C7  UNL d   1      -2.313  -0.893  -1.621  0.00  0.00     0.045 A 
ENDROOT
TORSDOF 0
ENDMDL
