MODEL 1
REMARK minimizedAffinity -3.21457386
REMARK minimizedRMSD -1
REMARK  0 active torsions:
REMARK  status: ('A' for Active; 'I' for Inactive)
ROOT
ATOM      1  C   UNL d   1      -2.939  -0.652  -0.010  0.00  0.00    -0.002 A 
ATOM      2  C1  UNL d   1      -2.405  -1.062  -1.223  0.00  0.00     0.010 A 
ATOM      3  C2  UNL d   1      -1.060  -0.834  -1.521  0.00  0.00     0.041 A 
ATOM      4  C3  UNL d   1      -0.253  -0.181  -0.569  0.00  0.00    -0.075 A 
ATOM      5  S   UNL d   1       1.421   0.205  -0.715  0.00  0.00     0.015 SA
ATOM      6  C4  UNL d   1       1.467   0.923   0.830  0.00  0.00     0.022 A 
ATOM      7  C5  UNL d   1       0.244   0.879   1.456  0.00  0.00     0.026 A 
ATOM      8  C6  UNL d   1      -0.767   0.241   0.660  0.00  0.00    -0.082 A 
ATOM      9  C7  UNL d   1      -2.135  -0.004   0.932  0.00  0.00     0.045 A 
ENDROOT
TORSDOF 0
ENDMDL
