MODEL 1
REMARK minimizedAffinity -4.95473814
REMARK minimizedRMSD -1
REMARK  0 active torsions:
REMARK  status: ('A' for Active; 'I' for Inactive)
ROOT
ATOM      1  C   UNL d   1      -3.416  -1.105   0.526  0.00  0.00    -0.002 A 
ATOM      2  C1  UNL d   1      -3.083  -0.088  -0.357  0.00  0.00     0.010 A 
ATOM      3  C2  UNL d   1      -1.746   0.229  -0.605  0.00  0.00     0.041 A 
ATOM      4  C3  UNL d   1      -0.739  -0.502   0.056  0.00  0.00    -0.075 A 
ATOM      5  S   UNL d   1       0.966  -0.291  -0.092  0.00  0.00     0.015 SA
ATOM      6  C4  UNL d   1       1.292  -1.546   1.014  0.00  0.00     0.022 A 
ATOM      7  C5  UNL d   1       0.140  -2.123   1.494  0.00  0.00     0.026 A 
ATOM      8  C6  UNL d   1      -1.049  -1.531   0.950  0.00  0.00    -0.082 A 
ATOM      9  C7  UNL d   1      -2.414  -1.828   1.180  0.00  0.00     0.045 A 
ENDROOT
TORSDOF 0
ENDMDL
