MODEL 1
REMARK minimizedAffinity -2.01038599
REMARK minimizedRMSD -1
REMARK  0 active torsions:
REMARK  status: ('A' for Active; 'I' for Inactive)
ROOT
ATOM      1  C   UNL d   1      -2.734  -2.368   1.243  0.00  0.00    -0.002 A 
ATOM      2  C1  UNL d   1      -3.108  -1.905  -0.010  0.00  0.00     0.010 A 
ATOM      3  C2  UNL d   1      -2.270  -1.053  -0.732  0.00  0.00     0.041 A 
ATOM      4  C3  UNL d   1      -1.036  -0.673  -0.169  0.00  0.00    -0.075 A 
ATOM      5  S   UNL d   1       0.152   0.361  -0.871  0.00  0.00     0.015 SA
ATOM      6  C4  UNL d   1       1.186   0.211   0.476  0.00  0.00     0.022 A 
ATOM      7  C5  UNL d   1       0.653  -0.604   1.447  0.00  0.00     0.026 A 
ATOM      8  C6  UNL d   1      -0.636  -1.127   1.091  0.00  0.00    -0.082 A 
ATOM      9  C7  UNL d   1      -1.509  -1.989   1.798  0.00  0.00     0.045 A 
ENDROOT
TORSDOF 0
ENDMDL
