MODEL 1
REMARK minimizedAffinity 11.9067125
REMARK minimizedRMSD -1
REMARK  1 active torsions:
REMARK  status: ('A' for Active; 'I' for Inactive)
REMARK    1  A    between atoms: C1_2  and  C2_3 
ROOT
ATOM      1  C2  UNL d   1       0.613   1.333   2.589  0.00  0.00    -0.081 A 
ATOM      2  C3  UNL d   1       1.181   1.107   1.330  0.00  0.00     0.006 A 
ATOM      3  C4  UNL d   1       0.377   1.060   0.188  0.00  0.00     0.002 A 
ATOM      4  C5  UNL d   1      -1.006   1.245   0.286  0.00  0.00    -0.080 A 
ATOM      5  C6  UNL d   1      -1.876   1.227  -0.935  0.00  0.00     0.076 C 
ATOM      6  C7  UNL d   1      -1.576   1.453   1.546  0.00  0.00     0.002 A 
ATOM      7  C8  UNL d   1      -0.773   1.500   2.688  0.00  0.00     0.006 A 
ENDROOT
BRANCH   1   8
ATOM      8  C1  UNL d   1       1.484   1.449   3.814  0.00  0.00     0.054 C 
ATOM      9  C   UNL d   1       2.626   2.430   3.589  0.00  0.00     0.018 C 
ENDBRANCH   1   8
TORSDOF 1
ENDMDL
