MODEL 1
REMARK minimizedAffinity -1.16198075
REMARK minimizedRMSD -1
REMARK  1 active torsions:
REMARK  status: ('A' for Active; 'I' for Inactive)
REMARK    1  A    between atoms: C1_2  and  C2_3 
ROOT
ATOM      1  C2  UNL d   1       1.825  -0.296   0.829  0.00  0.00    -0.081 A 
ATOM      2  C3  UNL d   1       1.963  -1.612   0.370  0.00  0.00     0.006 A 
ATOM      3  C4  UNL d   1       2.889  -1.920  -0.630  0.00  0.00     0.002 A 
ATOM      4  C5  UNL d   1       3.696  -0.919  -1.182  0.00  0.00    -0.080 A 
ATOM      5  C6  UNL d   1       4.715  -1.241  -2.235  0.00  0.00     0.076 C 
ATOM      6  C7  UNL d   1       3.545   0.398  -0.736  0.00  0.00     0.002 A 
ATOM      7  C8  UNL d   1       2.620   0.707   0.263  0.00  0.00     0.006 A 
ENDROOT
BRANCH   1   8
ATOM      8  C1  UNL d   1       0.873   0.028   1.952  0.00  0.00     0.054 C 
ATOM      9  C   UNL d   1       1.512   0.969   2.964  0.00  0.00     0.018 C 
ENDBRANCH   1   8
TORSDOF 1
ENDMDL
