MODEL 1
REMARK minimizedAffinity 8.29820156
REMARK minimizedRMSD -1
REMARK  1 active torsions:
REMARK  status: ('A' for Active; 'I' for Inactive)
REMARK    1  A    between atoms: C1_2  and  C2_3 
ROOT
ATOM      1  C2  UNL d   1      -3.860   1.539  -4.137  0.00  0.00    -0.081 A 
ATOM      2  C3  UNL d   1      -4.246   0.671  -3.108  0.00  0.00     0.006 A 
ATOM      3  C4  UNL d   1      -3.304  -0.151  -2.485  0.00  0.00     0.002 A 
ATOM      4  C5  UNL d   1      -1.961  -0.114  -2.875  0.00  0.00    -0.080 A 
ATOM      5  C6  UNL d   1      -0.935  -0.970  -2.194  0.00  0.00     0.076 C 
ATOM      6  C7  UNL d   1      -1.579   0.739  -3.915  0.00  0.00     0.002 A 
ATOM      7  C8  UNL d   1      -2.520   1.561  -4.539  0.00  0.00     0.006 A 
ENDROOT
BRANCH   1   8
ATOM      8  C1  UNL d   1      -4.861   2.473  -4.767  0.00  0.00     0.054 C 
ATOM      9  C   UNL d   1      -5.060   3.723  -3.921  0.00  0.00     0.018 C 
ENDBRANCH   1   8
TORSDOF 1
ENDMDL
