MODEL 1
REMARK minimizedAffinity 8.55584812
REMARK minimizedRMSD -1
REMARK  1 active torsions:
REMARK  status: ('A' for Active; 'I' for Inactive)
REMARK    1  A    between atoms: C1_2  and  C2_3 
ROOT
ATOM      1  C2  UNL d   1       2.884  -0.190  -0.218  0.00  0.00    -0.081 A 
ATOM      2  C3  UNL d   1       2.659  -0.842  -1.436  0.00  0.00     0.006 A 
ATOM      3  C4  UNL d   1       2.033  -2.090  -1.466  0.00  0.00     0.002 A 
ATOM      4  C5  UNL d   1       1.615  -2.703  -0.280  0.00  0.00    -0.080 A 
ATOM      5  C6  UNL d   1       0.914  -4.029  -0.301  0.00  0.00     0.076 C 
ATOM      6  C7  UNL d   1       1.855  -2.060   0.938  0.00  0.00     0.002 A 
ATOM      7  C8  UNL d   1       2.482  -0.812   0.969  0.00  0.00     0.006 A 
ENDROOT
BRANCH   1   8
ATOM      8  C1  UNL d   1       3.501   1.185  -0.187  0.00  0.00     0.054 C 
ATOM      9  C   UNL d   1       5.009   1.120  -0.388  0.00  0.00     0.018 C 
ENDBRANCH   1   8
TORSDOF 1
ENDMDL
