MODEL 1
REMARK minimizedAffinity 2.95448613
REMARK minimizedRMSD -1
REMARK  1 active torsions:
REMARK  status: ('A' for Active; 'I' for Inactive)
REMARK    1  A    between atoms: C1_2  and  C2_3 
ROOT
ATOM      1  C2  UNL d   1      -0.734   1.581   0.865  0.00  0.00    -0.081 A 
ATOM      2  C3  UNL d   1       0.386   0.886   0.392  0.00  0.00     0.006 A 
ATOM      3  C4  UNL d   1       1.129   0.073   1.250  0.00  0.00     0.002 A 
ATOM      4  C5  UNL d   1       0.761  -0.067   2.592  0.00  0.00    -0.080 A 
ATOM      5  C6  UNL d   1       1.533  -0.961   3.517  0.00  0.00     0.076 C 
ATOM      6  C7  UNL d   1      -0.347   0.641   3.070  0.00  0.00     0.002 A 
ATOM      7  C8  UNL d   1      -1.091   1.455   2.212  0.00  0.00     0.006 A 
ENDROOT
BRANCH   1   8
ATOM      8  C1  UNL d   1      -1.576   2.408  -0.072  0.00  0.00     0.054 C 
ATOM      9  C   UNL d   1      -2.106   3.657   0.616  0.00  0.00     0.018 C 
ENDBRANCH   1   8
TORSDOF 1
ENDMDL
