MODEL 1
REMARK minimizedAffinity -0.102843441
REMARK minimizedRMSD -1
REMARK  0 active torsions:
REMARK  status: ('A' for Active; 'I' for Inactive)
ROOT
ATOM      1  C   UNL d   1      -2.429  -5.631  -3.588  0.00  0.00     0.172 C 
ATOM      2  N   UNL d   1      -3.865  -5.739  -3.478  0.00  0.00    -0.070 N 
ATOM      3  C1  UNL d   1      -4.586  -5.641  -2.319  0.00  0.00    -0.004 A 
ATOM      4  C2  UNL d   1      -5.918  -5.798  -2.635  0.00  0.00    -0.047 A 
ATOM      5  C3  UNL d   1      -6.000  -6.000  -4.034  0.00  0.00    -0.047 A 
ATOM      6  C4  UNL d   1      -4.714  -5.958  -4.530  0.00  0.00    -0.004 A 
ENDROOT
TORSDOF 0
ENDMDL
