MODEL 1
REMARK minimizedAffinity 2.90353274
REMARK minimizedRMSD -1
REMARK  0 active torsions:
REMARK  status: ('A' for Active; 'I' for Inactive)
ROOT
ATOM      1  C   UNL d   1       0.747   2.821   0.533  0.00  0.00     0.172 C 
ATOM      2  N   UNL d   1       0.263   4.114   0.108  0.00  0.00    -0.070 N 
ATOM      3  C1  UNL d   1      -0.751   4.820   0.698  0.00  0.00    -0.004 A 
ATOM      4  C2  UNL d   1      -0.907   5.998   0.000  0.00  0.00    -0.047 A 
ATOM      5  C3  UNL d   1       0.046   6.000  -1.046  0.00  0.00    -0.047 A 
ATOM      6  C4  UNL d   1       0.757   4.822  -0.956  0.00  0.00    -0.004 A 
ENDROOT
TORSDOF 0
ENDMDL
