MODEL 1
REMARK minimizedAffinity 5.50711107
REMARK minimizedRMSD -1
REMARK  0 active torsions:
REMARK  status: ('A' for Active; 'I' for Inactive)
ROOT
ATOM      1  C   UNL d   1       0.982   2.987   2.395  0.00  0.00     0.172 C 
ATOM      2  N   UNL d   1       0.851   3.681   1.136  0.00  0.00    -0.070 N 
ATOM      3  C1  UNL d   1       1.594   4.761   0.739  0.00  0.00    -0.004 A 
ATOM      4  C2  UNL d   1       1.166   5.127  -0.519  0.00  0.00    -0.047 A 
ATOM      5  C3  UNL d   1       0.130   4.238  -0.891  0.00  0.00    -0.047 A 
ATOM      6  C4  UNL d   1      -0.044   3.352   0.152  0.00  0.00    -0.004 A 
ENDROOT
TORSDOF 0
ENDMDL
