MODEL 1
REMARK minimizedAffinity 7.82524395
REMARK minimizedRMSD -1
REMARK  0 active torsions:
REMARK  status: ('A' for Active; 'I' for Inactive)
ROOT
ATOM      1  C   UNL d   1      -4.190   4.443  -2.619  0.00  0.00     0.172 C 
ATOM      2  N   UNL d   1      -4.834   4.720  -3.881  0.00  0.00    -0.070 N 
ATOM      3  C1  UNL d   1      -4.861   3.883  -4.965  0.00  0.00    -0.004 A 
ATOM      4  C2  UNL d   1      -5.572   4.510  -5.965  0.00  0.00    -0.047 A 
ATOM      5  C3  UNL d   1      -5.986   5.768  -5.467  0.00  0.00    -0.047 A 
ATOM      6  C4  UNL d   1      -5.516   5.872  -4.175  0.00  0.00    -0.004 A 
ENDROOT
TORSDOF 0
ENDMDL
