MODEL 1
REMARK minimizedAffinity 9.38490486
REMARK minimizedRMSD -1
REMARK  2 active torsions:
REMARK  status: ('A' for Active; 'I' for Inactive)
REMARK    1  A    between atoms: C1_2  and  C2_3 
REMARK    2  A    between atoms: C2_3  and  C3_4 
ROOT
ATOM      1  C3  UNL d   1       3.565  -0.732   1.288  0.00  0.00    -0.075 A 
ATOM      2  C4  UNL d   1       3.952  -1.922   0.655  0.00  0.00     0.002 A 
ATOM      3  C5  UNL d   1       5.160  -2.539   0.982  0.00  0.00     0.002 A 
ATOM      4  C6  UNL d   1       6.000  -1.970   1.936  0.00  0.00    -0.004 A 
ATOM      5  C7  UNL d   1       5.634  -0.779   2.560  0.00  0.00     0.002 A 
ATOM      6  C8  UNL d   1       4.424  -0.162   2.238  0.00  0.00     0.002 A 
ENDROOT
BRANCH   1   7
ATOM      7  C2  UNL d   1       2.246  -0.076   0.960  0.00  0.00     0.056 C 
BRANCH   7   8
ATOM      8  C1  UNL d   1       1.217  -1.022   0.331  0.00  0.00     0.007 C 
ATOM      9  C   UNL d   1      -0.128  -0.359   0.070  0.00  0.00     0.009 C 
ENDBRANCH   7   8
ENDBRANCH   1   7
TORSDOF 2
ENDMDL
