MODEL 1
REMARK minimizedAffinity -0.597761989
REMARK minimizedRMSD -1
REMARK  2 active torsions:
REMARK  status: ('A' for Active; 'I' for Inactive)
REMARK    1  A    between atoms: C1_2  and  C2_3 
REMARK    2  A    between atoms: C2_3  and  C3_4 
ROOT
ATOM      1  C3  UNL d   1      -2.168  -5.274  -5.841  0.00  0.00    -0.075 A 
ATOM      2  C4  UNL d   1      -3.366  -5.999  -5.916  0.00  0.00     0.002 A 
ATOM      3  C5  UNL d   1      -4.591  -5.336  -6.000  0.00  0.00     0.002 A 
ATOM      4  C6  UNL d   1      -4.635  -3.944  -6.000  0.00  0.00    -0.004 A 
ATOM      5  C7  UNL d   1      -3.452  -3.214  -5.909  0.00  0.00     0.002 A 
ATOM      6  C8  UNL d   1      -2.224  -3.874  -5.830  0.00  0.00     0.002 A 
ENDROOT
BRANCH   1   7
ATOM      7  C2  UNL d   1      -0.837  -5.985  -5.780  0.00  0.00     0.056 C 
BRANCH   7   8
ATOM      8  C1  UNL d   1      -0.111  -5.835  -4.439  0.00  0.00     0.007 C 
ATOM      9  C   UNL d   1      -1.034  -5.981  -3.237  0.00  0.00     0.009 C 
ENDBRANCH   7   8
ENDBRANCH   1   7
TORSDOF 2
ENDMDL
