MODEL 1
REMARK minimizedAffinity 0.606470287
REMARK minimizedRMSD -1
REMARK  2 active torsions:
REMARK  status: ('A' for Active; 'I' for Inactive)
REMARK    1  A    between atoms: C1_2  and  C2_3 
REMARK    2  A    between atoms: C2_3  and  C3_4 
ROOT
ATOM      1  C3  UNL d   1      -1.905  -5.291  -5.126  0.00  0.00    -0.075 A 
ATOM      2  C4  UNL d   1      -3.119  -5.992  -5.180  0.00  0.00     0.002 A 
ATOM      3  C5  UNL d   1      -4.285  -5.359  -5.611  0.00  0.00     0.002 A 
ATOM      4  C6  UNL d   1      -4.255  -4.016  -5.982  0.00  0.00    -0.004 A 
ATOM      5  C7  UNL d   1      -3.059  -3.305  -5.917  0.00  0.00     0.002 A 
ATOM      6  C8  UNL d   1      -1.890  -3.938  -5.490  0.00  0.00     0.002 A 
ENDROOT
BRANCH   1   7
ATOM      7  C2  UNL d   1      -0.634  -5.979  -4.689  0.00  0.00     0.056 C 
BRANCH   7   8
ATOM      8  C1  UNL d   1      -0.190  -5.623  -3.267  0.00  0.00     0.007 C 
ATOM      9  C   UNL d   1      -1.260  -5.894  -2.217  0.00  0.00     0.009 C 
ENDBRANCH   7   8
ENDBRANCH   1   7
TORSDOF 2
ENDMDL
