MODEL 1
REMARK minimizedAffinity 0.20186919
REMARK minimizedRMSD -1
REMARK  2 active torsions:
REMARK  status: ('A' for Active; 'I' for Inactive)
REMARK    1  A    between atoms: C1_2  and  C2_3 
REMARK    2  A    between atoms: C2_3  and  C3_4 
ROOT
ATOM      1  C3  UNL d   1      -0.309  -1.956   2.294  0.00  0.00    -0.075 A 
ATOM      2  C4  UNL d   1      -1.178  -2.517   3.242  0.00  0.00     0.002 A 
ATOM      3  C5  UNL d   1      -0.684  -3.333   4.260  0.00  0.00     0.002 A 
ATOM      4  C6  UNL d   1       0.679  -3.606   4.339  0.00  0.00    -0.004 A 
ATOM      5  C7  UNL d   1       1.550  -3.068   3.394  0.00  0.00     0.002 A 
ATOM      6  C8  UNL d   1       1.059  -2.248   2.376  0.00  0.00     0.002 A 
ENDROOT
BRANCH   1   7
ATOM      7  C2  UNL d   1      -0.833  -1.049   1.207  0.00  0.00     0.056 C 
BRANCH   7   8
ATOM      8  C1  UNL d   1       0.248  -0.204   0.525  0.00  0.00     0.007 C 
ATOM      9  C   UNL d   1       0.949  -0.930  -0.615  0.00  0.00     0.009 C 
ENDBRANCH   7   8
ENDBRANCH   1   7
TORSDOF 2
ENDMDL
