MODEL 1
REMARK minimizedAffinity 8.24142456
REMARK minimizedRMSD -1
REMARK  2 active torsions:
REMARK  status: ('A' for Active; 'I' for Inactive)
REMARK    1  A    between atoms: C1_2  and  C2_3 
REMARK    2  A    between atoms: C2_3  and  C3_4 
ROOT
ATOM      1  C3  UNL d   1      -2.813  -0.207  -1.076  0.00  0.00    -0.075 A 
ATOM      2  C4  UNL d   1      -2.598   1.175  -0.970  0.00  0.00     0.002 A 
ATOM      3  C5  UNL d   1      -1.510   1.670  -0.251  0.00  0.00     0.002 A 
ATOM      4  C6  UNL d   1      -0.630   0.793   0.379  0.00  0.00    -0.004 A 
ATOM      5  C7  UNL d   1      -0.843  -0.582   0.294  0.00  0.00     0.002 A 
ATOM      6  C8  UNL d   1      -1.929  -1.080  -0.428  0.00  0.00     0.002 A 
ENDROOT
BRANCH   1   7
ATOM      7  C2  UNL d   1      -3.972  -0.750  -1.877  0.00  0.00     0.056 C 
BRANCH   7   8
ATOM      8  C1  UNL d   1      -5.316  -0.087  -1.557  0.00  0.00     0.007 C 
ATOM      9  C   UNL d   1      -6.000  -0.677  -0.331  0.00  0.00     0.009 C 
ENDBRANCH   7   8
ENDBRANCH   1   7
TORSDOF 2
ENDMDL
