MODEL 1
REMARK minimizedAffinity 2.83905745
REMARK minimizedRMSD -1
REMARK  2 active torsions:
REMARK  status: ('A' for Active; 'I' for Inactive)
REMARK    1  A    between atoms: C1_2  and  C2_3 
REMARK    2  A    between atoms: C2_3  and  C3_4 
ROOT
ATOM      1  C3  UNL d   1      -0.642  -1.939   2.696  0.00  0.00    -0.075 A 
ATOM      2  C4  UNL d   1      -0.064  -3.081   2.124  0.00  0.00     0.002 A 
ATOM      3  C5  UNL d   1       0.374  -3.065   0.799  0.00  0.00     0.002 A 
ATOM      4  C6  UNL d   1       0.231  -1.913   0.029  0.00  0.00    -0.004 A 
ATOM      5  C7  UNL d   1      -0.358  -0.778   0.582  0.00  0.00     0.002 A 
ATOM      6  C8  UNL d   1      -0.793  -0.790   1.908  0.00  0.00     0.002 A 
ENDROOT
BRANCH   1   7
ATOM      7  C2  UNL d   1      -1.091  -1.940   4.138  0.00  0.00     0.056 C 
BRANCH   7   8
ATOM      8  C1  UNL d   1      -2.610  -2.026   4.318  0.00  0.00     0.007 C 
ATOM      9  C   UNL d   1      -3.267  -0.670   4.538  0.00  0.00     0.009 C 
ENDBRANCH   7   8
ENDBRANCH   1   7
TORSDOF 2
ENDMDL
