MODEL 1
REMARK minimizedAffinity 0.320389509
REMARK minimizedRMSD -1
REMARK  2 active torsions:
REMARK  status: ('A' for Active; 'I' for Inactive)
REMARK    1  A    between atoms: C1_2  and  C2_3 
REMARK    2  A    between atoms: C2_3  and  C3_4 
ROOT
ATOM      1  C3  UNL d   1       1.417  -0.139   0.330  0.00  0.00    -0.075 A 
ATOM      2  C4  UNL d   1       2.126  -1.349   0.319  0.00  0.00     0.002 A 
ATOM      3  C5  UNL d   1       3.434  -1.408   0.801  0.00  0.00     0.002 A 
ATOM      4  C6  UNL d   1       4.052  -0.259   1.290  0.00  0.00    -0.004 A 
ATOM      5  C7  UNL d   1       3.363   0.952   1.291  0.00  0.00     0.002 A 
ATOM      6  C8  UNL d   1       2.052   1.013   0.813  0.00  0.00     0.002 A 
ENDROOT
BRANCH   1   7
ATOM      7  C2  UNL d   1      -0.009  -0.075  -0.163  0.00  0.00     0.056 C 
BRANCH   7   8
ATOM      8  C1  UNL d   1      -0.939  -1.107   0.483  0.00  0.00     0.007 C 
ATOM      9  C   UNL d   1      -2.041  -1.590  -0.451  0.00  0.00     0.009 C 
ENDBRANCH   7   8
ENDBRANCH   1   7
TORSDOF 2
ENDMDL
