MODEL 1
REMARK minimizedAffinity 6.80611563
REMARK minimizedRMSD -1
REMARK  2 active torsions:
REMARK  status: ('A' for Active; 'I' for Inactive)
REMARK    1  A    between atoms: C1_2  and  C2_3 
REMARK    2  A    between atoms: C2_3  and  C3_4 
ROOT
ATOM      1  C3  UNL d   1      -3.652  -0.629  -1.472  0.00  0.00    -0.075 A 
ATOM      2  C4  UNL d   1      -4.830  -0.252  -0.810  0.00  0.00     0.002 A 
ATOM      3  C5  UNL d   1      -5.997   0.003  -1.531  0.00  0.00     0.002 A 
ATOM      4  C6  UNL d   1      -6.000  -0.107  -2.919  0.00  0.00    -0.004 A 
ATOM      5  C7  UNL d   1      -4.831  -0.465  -3.589  0.00  0.00     0.002 A 
ATOM      6  C8  UNL d   1      -3.663  -0.724  -2.870  0.00  0.00     0.002 A 
ENDROOT
BRANCH   1   7
ATOM      7  C2  UNL d   1      -2.394  -0.934  -0.695  0.00  0.00     0.056 C 
BRANCH   7   8
ATOM      8  C1  UNL d   1      -1.552   0.302  -0.361  0.00  0.00     0.007 C 
ATOM      9  C   UNL d   1      -0.273  -0.030   0.397  0.00  0.00     0.009 C 
ENDBRANCH   7   8
ENDBRANCH   1   7
TORSDOF 2
ENDMDL
