MODEL 1
REMARK minimizedAffinity -1.7057482
REMARK minimizedRMSD -1
REMARK  2 active torsions:
REMARK  status: ('A' for Active; 'I' for Inactive)
REMARK    1  A    between atoms: C1_2  and  C2_3 
REMARK    2  A    between atoms: C2_3  and  C3_4 
ROOT
ATOM      1  C3  UNL d   1      -4.166  -2.267  -4.253  0.00  0.00    -0.075 A 
ATOM      2  C4  UNL d   1      -3.814  -2.403  -2.903  0.00  0.00     0.002 A 
ATOM      3  C5  UNL d   1      -4.555  -1.763  -1.909  0.00  0.00     0.002 A 
ATOM      4  C6  UNL d   1      -5.648  -0.971  -2.253  0.00  0.00    -0.004 A 
ATOM      5  C7  UNL d   1      -5.998  -0.815  -3.592  0.00  0.00     0.002 A 
ATOM      6  C8  UNL d   1      -5.261  -1.459  -4.588  0.00  0.00     0.002 A 
ENDROOT
BRANCH   1   7
ATOM      7  C2  UNL d   1      -3.387  -2.982  -5.331  0.00  0.00     0.056 C 
BRANCH   7   8
ATOM      8  C1  UNL d   1      -2.657  -4.238  -4.844  0.00  0.00     0.007 C 
ATOM      9  C   UNL d   1      -2.650  -5.364  -5.870  0.00  0.00     0.009 C 
ENDBRANCH   7   8
ENDBRANCH   1   7
TORSDOF 2
ENDMDL
