MODEL 1
REMARK minimizedAffinity -1.50329113
REMARK minimizedRMSD -1
REMARK  2 active torsions:
REMARK  status: ('A' for Active; 'I' for Inactive)
REMARK    1  A    between atoms: C1_2  and  C2_3 
REMARK    2  A    between atoms: C2_3  and  C3_4 
ROOT
ATOM      1  C3  UNL d   1      -2.977  -4.756  -5.975  0.00  0.00    -0.075 A 
ATOM      2  C4  UNL d   1      -3.693  -5.961  -5.940  0.00  0.00     0.002 A 
ATOM      3  C5  UNL d   1      -5.088  -5.957  -5.945  0.00  0.00     0.002 A 
ATOM      4  C6  UNL d   1      -5.784  -4.751  -5.975  0.00  0.00    -0.004 A 
ATOM      5  C7  UNL d   1      -5.083  -3.547  -5.994  0.00  0.00     0.002 A 
ATOM      6  C8  UNL d   1      -3.687  -3.548  -5.993  0.00  0.00     0.002 A 
ENDROOT
BRANCH   1   7
ATOM      7  C2  UNL d   1      -1.467  -4.754  -6.000  0.00  0.00     0.056 C 
BRANCH   7   8
ATOM      8  C1  UNL d   1      -0.828  -5.848  -5.137  0.00  0.00     0.007 C 
ATOM      9  C   UNL d   1      -0.323  -5.335  -3.795  0.00  0.00     0.009 C 
ENDBRANCH   7   8
ENDBRANCH   1   7
TORSDOF 2
ENDMDL
