MODEL 1
REMARK minimizedAffinity -2.13302255
REMARK minimizedRMSD -1
REMARK  2 active torsions:
REMARK  status: ('A' for Active; 'I' for Inactive)
REMARK    1  A    between atoms: C1_2  and  C2_3 
REMARK    2  A    between atoms: C2_3  and  C3_4 
ROOT
ATOM      1  C3  UNL d   1      -3.221  -4.815  -5.812  0.00  0.00    -0.075 A 
ATOM      2  C4  UNL d   1      -3.774  -3.528  -5.876  0.00  0.00     0.002 A 
ATOM      3  C5  UNL d   1      -5.155  -3.353  -5.963  0.00  0.00     0.002 A 
ATOM      4  C6  UNL d   1      -5.999  -4.461  -5.997  0.00  0.00    -0.004 A 
ATOM      5  C7  UNL d   1      -5.460  -5.745  -5.950  0.00  0.00     0.002 A 
ATOM      6  C8  UNL d   1      -4.079  -5.922  -5.859  0.00  0.00     0.002 A 
ENDROOT
BRANCH   1   7
ATOM      7  C2  UNL d   1      -1.729  -5.010  -5.688  0.00  0.00     0.056 C 
BRANCH   7   8
ATOM      8  C1  UNL d   1      -1.214  -4.984  -4.245  0.00  0.00     0.007 C 
ATOM      9  C   UNL d   1      -2.312  -4.732  -3.220  0.00  0.00     0.009 C 
ENDBRANCH   7   8
ENDBRANCH   1   7
TORSDOF 2
ENDMDL
