MODEL 1
REMARK minimizedAffinity 1.77265346
REMARK minimizedRMSD -1
REMARK  2 active torsions:
REMARK  status: ('A' for Active; 'I' for Inactive)
REMARK    1  A    between atoms: C1_2  and  C2_3 
REMARK    2  A    between atoms: C2_3  and  C3_4 
ROOT
ATOM      1  C3  UNL d   1      -5.639  -0.219  -3.421  0.00  0.00    -0.075 A 
ATOM      2  C4  UNL d   1      -5.999  -1.497  -3.873  0.00  0.00     0.002 A 
ATOM      3  C5  UNL d   1      -5.642  -1.922  -5.153  0.00  0.00     0.002 A 
ATOM      4  C6  UNL d   1      -4.932  -1.074  -5.999  0.00  0.00    -0.004 A 
ATOM      5  C7  UNL d   1      -4.583   0.203  -5.566  0.00  0.00     0.002 A 
ATOM      6  C8  UNL d   1      -4.935   0.630  -4.285  0.00  0.00     0.002 A 
ENDROOT
BRANCH   1   7
ATOM      7  C2  UNL d   1      -5.997   0.236  -2.026  0.00  0.00     0.056 C 
BRANCH   7   8
ATOM      8  C1  UNL d   1      -5.350  -0.596  -0.914  0.00  0.00     0.007 C 
ATOM      9  C   UNL d   1      -3.842  -0.736  -1.068  0.00  0.00     0.009 C 
ENDBRANCH   7   8
ENDBRANCH   1   7
TORSDOF 2
ENDMDL
