MODEL 1
REMARK minimizedAffinity -5.31679869
REMARK minimizedRMSD -1
REMARK  0 active torsions:
REMARK  status: ('A' for Active; 'I' for Inactive)
ROOT
ATOM      1  C   UNL d   1      -0.766   0.636  -0.418  0.00  0.00     0.078 C 
ATOM      2  C1  UNL d   1       0.084  -0.541  -0.043  0.00  0.00    -0.077 A 
ATOM      3  C2  UNL d   1      -0.456  -1.832   0.014  0.00  0.00    -0.001 A 
ATOM      4  C3  UNL d   1       0.344  -2.917   0.373  0.00  0.00     0.003 A 
ATOM      5  C4  UNL d   1       1.690  -2.723   0.679  0.00  0.00    -0.005 A 
ATOM      6  C5  UNL d   1       2.236  -1.442   0.627  0.00  0.00     0.003 A 
ATOM      7  C6  UNL d   1       1.437  -0.355   0.268  0.00  0.00    -0.001 A 
ENDROOT
TORSDOF 0
ENDMDL
