MODEL 1
REMARK minimizedAffinity -4.02599049
REMARK minimizedRMSD -1
REMARK  0 active torsions:
REMARK  status: ('A' for Active; 'I' for Inactive)
ROOT
ATOM      1  C   UNL d   1       0.719   0.087  -1.383  0.00  0.00     0.078 C 
ATOM      2  C1  UNL d   1       0.459  -0.788  -0.193  0.00  0.00    -0.077 A 
ATOM      3  C2  UNL d   1       1.403  -1.734   0.226  0.00  0.00    -0.001 A 
ATOM      4  C3  UNL d   1       1.143  -2.548   1.330  0.00  0.00     0.003 A 
ATOM      5  C4  UNL d   1      -0.060  -2.425   2.023  0.00  0.00    -0.005 A 
ATOM      6  C5  UNL d   1      -1.006  -1.488   1.611  0.00  0.00     0.003 A 
ATOM      7  C6  UNL d   1      -0.748  -0.673   0.508  0.00  0.00    -0.001 A 
ENDROOT
TORSDOF 0
ENDMDL
