MODEL 1
REMARK minimizedAffinity -2.17584491
REMARK minimizedRMSD -1
REMARK  0 active torsions:
REMARK  status: ('A' for Active; 'I' for Inactive)
ROOT
ATOM      1  C   UNL d   1      -0.573   1.140  -0.851  0.00  0.00     0.078 C 
ATOM      2  C1  UNL d   1      -0.004   0.145   0.116  0.00  0.00    -0.077 A 
ATOM      3  C2  UNL d   1      -0.841  -0.671   0.886  0.00  0.00    -0.001 A 
ATOM      4  C3  UNL d   1      -0.297  -1.586   1.790  0.00  0.00     0.003 A 
ATOM      5  C4  UNL d   1       1.085  -1.691   1.933  0.00  0.00    -0.005 A 
ATOM      6  C5  UNL d   1       1.925  -0.881   1.172  0.00  0.00     0.003 A 
ATOM      7  C6  UNL d   1       1.384   0.034   0.268  0.00  0.00    -0.001 A 
ENDROOT
TORSDOF 0
ENDMDL
