MODEL 1
REMARK minimizedAffinity -2.98516607
REMARK minimizedRMSD -1
REMARK  0 active torsions:
REMARK  status: ('A' for Active; 'I' for Inactive)
ROOT
ATOM      1  C   UNL d   1      -0.781  -0.218  -0.812  0.00  0.00     0.078 C 
ATOM      2  C1  UNL d   1       0.421  -0.738  -0.080  0.00  0.00    -0.077 A 
ATOM      3  C2  UNL d   1       1.696  -0.215  -0.327  0.00  0.00    -0.001 A 
ATOM      4  C3  UNL d   1       2.807  -0.715   0.354  0.00  0.00     0.003 A 
ATOM      5  C4  UNL d   1       2.654  -1.741   1.285  0.00  0.00    -0.005 A 
ATOM      6  C5  UNL d   1       1.389  -2.268   1.535  0.00  0.00     0.003 A 
ATOM      7  C6  UNL d   1       0.277  -1.770   0.855  0.00  0.00    -0.001 A 
ENDROOT
TORSDOF 0
ENDMDL
