MODEL 1
REMARK minimizedAffinity -4.4556284
REMARK minimizedRMSD -1
REMARK  0 active torsions:
REMARK  status: ('A' for Active; 'I' for Inactive)
ROOT
ATOM      1  C   UNL d   1       1.508  -2.828   0.762  0.00  0.00     0.078 C 
ATOM      2  C1  UNL d   1       1.184  -1.396   0.458  0.00  0.00    -0.077 A 
ATOM      3  C2  UNL d   1       2.191  -0.486   0.116  0.00  0.00    -0.001 A 
ATOM      4  C3  UNL d   1       1.876   0.847  -0.155  0.00  0.00     0.003 A 
ATOM      5  C4  UNL d   1       0.554   1.281  -0.086  0.00  0.00    -0.005 A 
ATOM      6  C5  UNL d   1      -0.455   0.383   0.255  0.00  0.00     0.003 A 
ATOM      7  C6  UNL d   1      -0.142  -0.950   0.527  0.00  0.00    -0.001 A 
ENDROOT
TORSDOF 0
ENDMDL
