MODEL 1
REMARK minimizedAffinity -4.03582668
REMARK minimizedRMSD -1
REMARK  0 active torsions:
REMARK  status: ('A' for Active; 'I' for Inactive)
ROOT
ATOM      1  C   UNL d   1       2.581  -1.065   0.409  0.00  0.00     0.078 C 
ATOM      2  C1  UNL d   1       1.346  -0.488  -0.217  0.00  0.00    -0.077 A 
ATOM      3  C2  UNL d   1       0.315   0.036   0.572  0.00  0.00    -0.001 A 
ATOM      4  C3  UNL d   1      -0.833   0.562  -0.025  0.00  0.00     0.003 A 
ATOM      5  C4  UNL d   1      -0.960   0.567  -1.412  0.00  0.00    -0.005 A 
ATOM      6  C5  UNL d   1       0.060   0.045  -2.205  0.00  0.00     0.003 A 
ATOM      7  C6  UNL d   1       1.208  -0.480  -1.611  0.00  0.00    -0.001 A 
ENDROOT
TORSDOF 0
ENDMDL
