MODEL 1
REMARK minimizedAffinity -5.75482941
REMARK minimizedRMSD -1
REMARK  0 active torsions:
REMARK  status: ('A' for Active; 'I' for Inactive)
ROOT
ATOM      1  C   UNL d   1      -1.011   0.613  -1.116  0.00  0.00     0.078 C 
ATOM      2  C1  UNL d   1      -0.032  -0.341  -0.501  0.00  0.00    -0.077 A 
ATOM      3  C2  UNL d   1       1.348  -0.138  -0.625  0.00  0.00    -0.001 A 
ATOM      4  C3  UNL d   1       2.248  -1.040  -0.056  0.00  0.00     0.003 A 
ATOM      5  C4  UNL d   1       1.779  -2.152   0.640  0.00  0.00    -0.005 A 
ATOM      6  C5  UNL d   1       0.407  -2.364   0.767  0.00  0.00     0.003 A 
ATOM      7  C6  UNL d   1      -0.495  -1.463   0.199  0.00  0.00    -0.001 A 
ENDROOT
TORSDOF 0
ENDMDL
