MODEL 1
REMARK minimizedAffinity -2.60165358
REMARK minimizedRMSD -1
REMARK  0 active torsions:
REMARK  status: ('A' for Active; 'I' for Inactive)
ROOT
ATOM      1  C   UNL d   1      -0.464   1.026  -1.256  0.00  0.00     0.078 C 
ATOM      2  C1  UNL d   1       0.517   0.051  -0.676  0.00  0.00    -0.077 A 
ATOM      3  C2  UNL d   1       0.839   0.076   0.686  0.00  0.00    -0.001 A 
ATOM      4  C3  UNL d   1       1.761  -0.831   1.211  0.00  0.00     0.003 A 
ATOM      5  C4  UNL d   1       2.369  -1.770   0.379  0.00  0.00    -0.005 A 
ATOM      6  C5  UNL d   1       2.056  -1.801  -0.978  0.00  0.00     0.003 A 
ATOM      7  C6  UNL d   1       1.134  -0.895  -1.504  0.00  0.00    -0.001 A 
ENDROOT
TORSDOF 0
ENDMDL
