MODEL 1
REMARK minimizedAffinity -3.20573044
REMARK minimizedRMSD -1
REMARK  0 active torsions:
REMARK  status: ('A' for Active; 'I' for Inactive)
ROOT
ATOM      1  C   UNL d   1       1.927  -2.036   1.212  0.00  0.00     0.078 C 
ATOM      2  C1  UNL d   1       0.964  -0.958   0.815  0.00  0.00    -0.077 A 
ATOM      3  C2  UNL d   1       1.246  -0.095  -0.251  0.00  0.00    -0.001 A 
ATOM      4  C3  UNL d   1       0.345   0.910  -0.603  0.00  0.00     0.003 A 
ATOM      5  C4  UNL d   1      -0.845   1.063   0.106  0.00  0.00    -0.005 A 
ATOM      6  C5  UNL d   1      -1.134   0.211   1.170  0.00  0.00     0.003 A 
ATOM      7  C6  UNL d   1      -0.233  -0.795   1.524  0.00  0.00    -0.001 A 
ENDROOT
TORSDOF 0
ENDMDL
