MODEL 1
REMARK minimizedAffinity -5.71183825
REMARK minimizedRMSD -1
REMARK  0 active torsions:
REMARK  status: ('A' for Active; 'I' for Inactive)
ROOT
ATOM      1  C   UNL d   1       3.061   0.741  -1.051  0.00  0.00     0.078 C 
ATOM      2  C1  UNL d   1       2.191  -0.160  -0.227  0.00  0.00    -0.077 A 
ATOM      3  C2  UNL d   1       2.726  -1.271   0.437  0.00  0.00    -0.001 A 
ATOM      4  C3  UNL d   1       1.902  -2.106   1.192  0.00  0.00     0.003 A 
ATOM      5  C4  UNL d   1       0.537  -1.841   1.291  0.00  0.00    -0.005 A 
ATOM      6  C5  UNL d   1      -0.005  -0.739   0.632  0.00  0.00     0.003 A 
ATOM      7  C6  UNL d   1       0.818   0.097  -0.124  0.00  0.00    -0.001 A 
ENDROOT
TORSDOF 0
ENDMDL
