MODEL 1
REMARK minimizedAffinity -3.00499105
REMARK minimizedRMSD -1
REMARK  0 active torsions:
REMARK  status: ('A' for Active; 'I' for Inactive)
ROOT
ATOM      1  C   UNL d   1       2.486  -1.230   0.516  0.00  0.00     0.078 C 
ATOM      2  C1  UNL d   1       1.346  -0.501  -0.129  0.00  0.00    -0.077 A 
ATOM      3  C2  UNL d   1       0.867  -0.882  -1.389  0.00  0.00    -0.001 A 
ATOM      4  C3  UNL d   1      -0.189  -0.187  -1.982  0.00  0.00     0.003 A 
ATOM      5  C4  UNL d   1      -0.774   0.893  -1.323  0.00  0.00    -0.005 A 
ATOM      6  C5  UNL d   1      -0.302   1.280  -0.070  0.00  0.00     0.003 A 
ATOM      7  C6  UNL d   1       0.753   0.587   0.524  0.00  0.00    -0.001 A 
ENDROOT
TORSDOF 0
ENDMDL
