MODEL 1
REMARK minimizedAffinity -3.7511549
REMARK minimizedRMSD -1
REMARK  0 active torsions:
REMARK  status: ('A' for Active; 'I' for Inactive)
ROOT
ATOM      1  C   UNL d   1      -2.375   2.082  -2.705  0.00  0.00     0.078 C 
ATOM      2  C1  UNL d   1      -1.394   1.225  -1.964  0.00  0.00    -0.077 A 
ATOM      3  C2  UNL d   1      -1.191   1.385  -0.587  0.00  0.00    -0.001 A 
ATOM      4  C3  UNL d   1      -0.267   0.587   0.088  0.00  0.00     0.003 A 
ATOM      5  C4  UNL d   1       0.463  -0.377  -0.604  0.00  0.00    -0.005 A 
ATOM      6  C5  UNL d   1       0.270  -0.543  -1.974  0.00  0.00     0.003 A 
ATOM      7  C6  UNL d   1      -0.654   0.255  -2.652  0.00  0.00    -0.001 A 
ENDROOT
TORSDOF 0
ENDMDL
