MODEL 1
REMARK minimizedAffinity -2.63629603
REMARK minimizedRMSD -1
REMARK  0 active torsions:
REMARK  status: ('A' for Active; 'I' for Inactive)
ROOT
ATOM      1  C   UNL d   1       4.336  -0.549   1.948  0.00  0.00     0.078 C 
ATOM      2  C1  UNL d   1       3.131  -0.572   1.056  0.00  0.00    -0.077 A 
ATOM      3  C2  UNL d   1       2.881   0.470   0.154  0.00  0.00    -0.001 A 
ATOM      4  C3  UNL d   1       1.751   0.439  -0.664  0.00  0.00     0.003 A 
ATOM      5  C4  UNL d   1       0.860  -0.629  -0.587  0.00  0.00    -0.005 A 
ATOM      6  C5  UNL d   1       1.099  -1.669   0.309  0.00  0.00     0.003 A 
ATOM      7  C6  UNL d   1       2.229  -1.641   1.128  0.00  0.00    -0.001 A 
ENDROOT
TORSDOF 0
ENDMDL
