MODEL 1
REMARK minimizedAffinity -2.8269093
REMARK minimizedRMSD -1
REMARK  0 active torsions:
REMARK  status: ('A' for Active; 'I' for Inactive)
ROOT
ATOM      1  C   UNL d   1      -0.922   1.298  -0.793  0.00  0.00     0.078 C 
ATOM      2  C1  UNL d   1       0.084   0.244  -0.437  0.00  0.00    -0.077 A 
ATOM      3  C2  UNL d   1      -0.267  -0.845   0.370  0.00  0.00    -0.001 A 
ATOM      4  C3  UNL d   1       0.682  -1.813   0.701  0.00  0.00     0.003 A 
ATOM      5  C4  UNL d   1       1.989  -1.702   0.231  0.00  0.00    -0.005 A 
ATOM      6  C5  UNL d   1       2.348  -0.620  -0.571  0.00  0.00     0.003 A 
ATOM      7  C6  UNL d   1       1.401   0.349  -0.903  0.00  0.00    -0.001 A 
ENDROOT
TORSDOF 0
ENDMDL
