MODEL 1
REMARK minimizedAffinity -2.83187556
REMARK minimizedRMSD -1
REMARK  1 active torsions:
REMARK  status: ('A' for Active; 'I' for Inactive)
REMARK    1  A    between atoms: C1_2  and  C2_3 
ROOT
ATOM      1  C2  UNL d   1      -5.334   4.946  -3.291  0.00  0.00    -0.077 A 
ATOM      2  C3  UNL d   1      -5.665   5.354  -1.991  0.00  0.00     0.002 A 
ATOM      3  C4  UNL d   1      -5.997   4.410  -1.017  0.00  0.00     0.002 A 
ATOM      4  C5  UNL d   1      -5.997   3.053  -1.332  0.00  0.00    -0.004 A 
ATOM      5  C6  UNL d   1      -5.672   2.637  -2.623  0.00  0.00     0.002 A 
ATOM      6  C7  UNL d   1      -5.341   3.580  -3.597  0.00  0.00     0.002 A 
ENDROOT
BRANCH   1   7
ATOM      7  C1  UNL d   1      -4.928   5.960  -4.329  0.00  0.00     0.055 C 
ATOM      8  C   UNL d   1      -5.889   5.958  -5.509  0.00  0.00     0.019 C 
ENDBRANCH   1   7
TORSDOF 1
ENDMDL
