MODEL 1
REMARK minimizedAffinity 5.4768219
REMARK minimizedRMSD -1
REMARK  1 active torsions:
REMARK  status: ('A' for Active; 'I' for Inactive)
REMARK    1  A    between atoms: C1_2  and  C2_3 
ROOT
ATOM      1  C2  UNL d   1       4.125   3.792   1.574  0.00  0.00    -0.077 A 
ATOM      2  C3  UNL d   1       4.467   5.078   2.016  0.00  0.00     0.002 A 
ATOM      3  C4  UNL d   1       5.398   5.247   3.043  0.00  0.00     0.002 A 
ATOM      4  C5  UNL d   1       5.998   4.136   3.632  0.00  0.00    -0.004 A 
ATOM      5  C6  UNL d   1       5.663   2.853   3.201  0.00  0.00     0.002 A 
ATOM      6  C7  UNL d   1       4.732   2.682   2.176  0.00  0.00     0.002 A 
ENDROOT
BRANCH   1   7
ATOM      7  C1  UNL d   1       3.158   3.608   0.434  0.00  0.00     0.055 C 
ATOM      8  C   UNL d   1       3.747   2.723  -0.654  0.00  0.00     0.019 C 
ENDBRANCH   1   7
TORSDOF 1
ENDMDL
