MODEL 1
REMARK minimizedAffinity 7.5807991
REMARK minimizedRMSD -1
REMARK  1 active torsions:
REMARK  status: ('A' for Active; 'I' for Inactive)
REMARK    1  A    between atoms: C1_2  and  C2_3 
ROOT
ATOM      1  C2  UNL d   1      -2.508  -1.661   1.236  0.00  0.00    -0.077 A 
ATOM      2  C3  UNL d   1      -2.874  -1.956  -0.085  0.00  0.00     0.002 A 
ATOM      3  C4  UNL d   1      -2.631  -3.223  -0.619  0.00  0.00     0.002 A 
ATOM      4  C5  UNL d   1      -2.025  -4.205   0.161  0.00  0.00    -0.004 A 
ATOM      5  C6  UNL d   1      -1.655  -3.921   1.475  0.00  0.00     0.002 A 
ATOM      6  C7  UNL d   1      -1.896  -2.655   2.010  0.00  0.00     0.002 A 
ENDROOT
BRANCH   1   7
ATOM      7  C1  UNL d   1      -2.814  -0.311   1.829  0.00  0.00     0.055 C 
ATOM      8  C   UNL d   1      -3.265   0.675   0.761  0.00  0.00     0.019 C 
ENDBRANCH   1   7
TORSDOF 1
ENDMDL
