MODEL 1
REMARK minimizedAffinity -1.06044042
REMARK minimizedRMSD -1
REMARK  1 active torsions:
REMARK  status: ('A' for Active; 'I' for Inactive)
REMARK    1  A    between atoms: C1_2  and  C2_3 
ROOT
ATOM      1  C2  UNL d   1      -5.992   5.049  -3.359  0.00  0.00    -0.077 A 
ATOM      2  C3  UNL d   1      -5.994   5.906  -2.250  0.00  0.00     0.002 A 
ATOM      3  C4  UNL d   1      -5.998   5.385  -0.955  0.00  0.00     0.002 A 
ATOM      4  C5  UNL d   1      -5.997   4.006  -0.757  0.00  0.00    -0.004 A 
ATOM      5  C6  UNL d   1      -5.998   3.145  -1.854  0.00  0.00     0.002 A 
ATOM      6  C7  UNL d   1      -5.995   3.664  -3.149  0.00  0.00     0.002 A 
ENDROOT
BRANCH   1   7
ATOM      7  C1  UNL d   1      -5.938   5.609  -4.757  0.00  0.00     0.055 C 
ATOM      8  C   UNL d   1      -4.518   5.998  -5.142  0.00  0.00     0.019 C 
ENDBRANCH   1   7
TORSDOF 1
ENDMDL
