MODEL 1
REMARK minimizedAffinity 2.11913252
REMARK minimizedRMSD -1
REMARK  1 active torsions:
REMARK  status: ('A' for Active; 'I' for Inactive)
REMARK    1  A    between atoms: C1_2  and  C2_3 
ROOT
ATOM      1  C2  UNL d   1       2.243   2.703   1.805  0.00  0.00    -0.077 A 
ATOM      2  C3  UNL d   1       2.618   1.546   1.109  0.00  0.00     0.002 A 
ATOM      3  C4  UNL d   1       1.653   0.620   0.708  0.00  0.00     0.002 A 
ATOM      4  C5  UNL d   1       0.308   0.844   0.994  0.00  0.00    -0.004 A 
ATOM      5  C6  UNL d   1      -0.074   1.991   1.688  0.00  0.00     0.002 A 
ATOM      6  C7  UNL d   1       0.889   2.917   2.091  0.00  0.00     0.002 A 
ENDROOT
BRANCH   1   7
ATOM      7  C1  UNL d   1       3.277   3.727   2.195  0.00  0.00     0.055 C 
ATOM      8  C   UNL d   1       4.681   3.141   2.151  0.00  0.00     0.019 C 
ENDBRANCH   1   7
TORSDOF 1
ENDMDL
