MODEL 1
REMARK minimizedAffinity 3.04414964
REMARK minimizedRMSD -1
REMARK  1 active torsions:
REMARK  status: ('A' for Active; 'I' for Inactive)
REMARK    1  A    between atoms: C1_2  and  C2_3 
ROOT
ATOM      1  C2  UNL d   1       4.412   5.957   2.860  0.00  0.00    -0.077 A 
ATOM      2  C3  UNL d   1       5.733   5.933   2.393  0.00  0.00     0.002 A 
ATOM      3  C4  UNL d   1       5.999   5.941   1.022  0.00  0.00     0.002 A 
ATOM      4  C5  UNL d   1       4.948   5.977   0.108  0.00  0.00    -0.004 A 
ATOM      5  C6  UNL d   1       3.630   5.998   0.562  0.00  0.00     0.002 A 
ATOM      6  C7  UNL d   1       3.363   5.989   1.931  0.00  0.00     0.002 A 
ENDROOT
BRANCH   1   7
ATOM      7  C1  UNL d   1       4.124   5.998   4.338  0.00  0.00     0.055 C 
ATOM      8  C   UNL d   1       2.628   5.949   4.613  0.00  0.00     0.019 C 
ENDBRANCH   1   7
TORSDOF 1
ENDMDL
