MODEL 1
REMARK minimizedAffinity 3.26005983
REMARK minimizedRMSD -1
REMARK  1 active torsions:
REMARK  status: ('A' for Active; 'I' for Inactive)
REMARK    1  A    between atoms: C1_2  and  C2_3 
ROOT
ATOM      1  C2  UNL d   1      -0.779   2.461   3.107  0.00  0.00    -0.077 A 
ATOM      2  C3  UNL d   1       0.497   2.023   2.727  0.00  0.00     0.002 A 
ATOM      3  C4  UNL d   1       0.677   1.322   1.532  0.00  0.00     0.002 A 
ATOM      4  C5  UNL d   1      -0.414   1.057   0.707  0.00  0.00    -0.004 A 
ATOM      5  C6  UNL d   1      -1.688   1.487   1.078  0.00  0.00     0.002 A 
ATOM      6  C7  UNL d   1      -1.869   2.186   2.272  0.00  0.00     0.002 A 
ENDROOT
BRANCH   1   7
ATOM      7  C1  UNL d   1      -0.967   3.259   4.371  0.00  0.00     0.055 C 
ATOM      8  C   UNL d   1       0.363   3.767   4.907  0.00  0.00     0.019 C 
ENDBRANCH   1   7
TORSDOF 1
ENDMDL
