MODEL 1
REMARK minimizedAffinity 8.73153114
REMARK minimizedRMSD -1
REMARK  1 active torsions:
REMARK  status: ('A' for Active; 'I' for Inactive)
REMARK    1  A    between atoms: C1_2  and  C2_3 
ROOT
ATOM      1  C2  UNL d   1       5.598   3.667  -0.230  0.00  0.00    -0.077 A 
ATOM      2  C3  UNL d   1       4.922   4.895  -0.221  0.00  0.00     0.002 A 
ATOM      3  C4  UNL d   1       4.592   5.511   0.988  0.00  0.00     0.002 A 
ATOM      4  C5  UNL d   1       4.936   4.908   2.196  0.00  0.00    -0.004 A 
ATOM      5  C6  UNL d   1       5.606   3.685   2.197  0.00  0.00     0.002 A 
ATOM      6  C7  UNL d   1       5.936   3.068   0.990  0.00  0.00     0.002 A 
ENDROOT
BRANCH   1   7
ATOM      7  C1  UNL d   1       5.999   3.026  -1.533  0.00  0.00     0.055 C 
ATOM      8  C   UNL d   1       4.877   3.106  -2.558  0.00  0.00     0.019 C 
ENDBRANCH   1   7
TORSDOF 1
ENDMDL
