MODEL 1
REMARK minimizedAffinity -2.32317281
REMARK minimizedRMSD -1
REMARK  1 active torsions:
REMARK  status: ('A' for Active; 'I' for Inactive)
REMARK    1  A    between atoms: C1_2  and  C2_3 
ROOT
ATOM      1  C2  UNL d   1      -2.797  -3.487  -0.492  0.00  0.00    -0.077 A 
ATOM      2  C3  UNL d   1      -2.700  -2.105  -0.274  0.00  0.00     0.002 A 
ATOM      3  C4  UNL d   1      -2.113  -1.614   0.895  0.00  0.00     0.002 A 
ATOM      4  C5  UNL d   1      -1.616  -2.497   1.851  0.00  0.00    -0.004 A 
ATOM      5  C6  UNL d   1      -1.710  -3.873   1.644  0.00  0.00     0.002 A 
ATOM      6  C7  UNL d   1      -2.297  -4.365   0.477  0.00  0.00     0.002 A 
ENDROOT
BRANCH   1   7
ATOM      7  C1  UNL d   1      -3.385  -4.017  -1.773  0.00  0.00     0.055 C 
ATOM      8  C   UNL d   1      -2.375  -4.859  -2.539  0.00  0.00     0.019 C 
ENDBRANCH   1   7
TORSDOF 1
ENDMDL
