MODEL 1
REMARK minimizedAffinity 15.4758272
REMARK minimizedRMSD -1
REMARK  1 active torsions:
REMARK  status: ('A' for Active; 'I' for Inactive)
REMARK    1  A    between atoms: C1_2  and  C2_3 
ROOT
ATOM      1  C2  UNL d   1      -2.895  -3.468   0.874  0.00  0.00    -0.077 A 
ATOM      2  C3  UNL d   1      -3.718  -2.997  -0.159  0.00  0.00     0.002 A 
ATOM      3  C4  UNL d   1      -4.245  -3.882  -1.101  0.00  0.00     0.002 A 
ATOM      4  C5  UNL d   1      -3.961  -5.244  -1.016  0.00  0.00    -0.004 A 
ATOM      5  C6  UNL d   1      -3.142  -5.722   0.006  0.00  0.00     0.002 A 
ATOM      6  C7  UNL d   1      -2.613  -4.838   0.948  0.00  0.00     0.002 A 
ENDROOT
BRANCH   1   7
ATOM      7  C1  UNL d   1      -2.365  -2.522   1.920  0.00  0.00     0.055 C 
ATOM      8  C   UNL d   1      -3.146  -1.216   1.931  0.00  0.00     0.019 C 
ENDBRANCH   1   7
TORSDOF 1
ENDMDL
