MODEL 1
REMARK minimizedAffinity -3.55693531
REMARK minimizedRMSD -1
REMARK  0 active torsions:
REMARK  status: ('A' for Active; 'I' for Inactive)
ROOT
ATOM      1  C   UNL d   1       1.099   3.252   0.347  0.00  0.00     0.023 A 
ATOM      2  C1  UNL d   1      -0.228   2.841   0.219  0.00  0.00     0.003 A 
ATOM      3  C2  UNL d   1      -0.533   1.481   0.127  0.00  0.00     0.048 A 
ATOM      4  C3  UNL d   1       0.493   0.538   0.167  0.00  0.00     0.023 A 
ATOM      5  C4  UNL d   1       1.822   0.944   0.296  0.00  0.00     0.048 A 
ATOM      6  C5  UNL d   1       2.122   2.305   0.386  0.00  0.00     0.003 A 
ATOM      7  I   UNL d   1       0.041  -1.486   0.031  0.00  0.00    -0.146 I 
ENDROOT
TORSDOF 0
ENDMDL
