MODEL 1
REMARK minimizedAffinity -3.90884209
REMARK minimizedRMSD -1
REMARK  0 active torsions:
REMARK  status: ('A' for Active; 'I' for Inactive)
ROOT
ATOM      1  C   UNL d   1      -0.076   2.601   0.422  0.00  0.00     0.023 A 
ATOM      2  C1  UNL d   1       1.072   1.968  -0.056  0.00  0.00     0.003 A 
ATOM      3  C2  UNL d   1       1.068   0.590  -0.284  0.00  0.00     0.048 A 
ATOM      4  C3  UNL d   1      -0.088  -0.148  -0.033  0.00  0.00     0.023 A 
ATOM      5  C4  UNL d   1      -1.239   0.481   0.443  0.00  0.00     0.048 A 
ATOM      6  C5  UNL d   1      -1.230   1.858   0.671  0.00  0.00     0.003 A 
ATOM      7  I   UNL d   1      -0.097  -2.199  -0.372  0.00  0.00    -0.146 I 
ENDROOT
TORSDOF 0
ENDMDL
