MODEL 1
REMARK minimizedAffinity -4.23256159
REMARK minimizedRMSD -1
REMARK  0 active torsions:
REMARK  status: ('A' for Active; 'I' for Inactive)
ROOT
ATOM      1  C   UNL d   1      -0.244   3.388   0.048  0.00  0.00     0.023 A 
ATOM      2  C1  UNL d   1      -1.302   2.591   0.484  0.00  0.00     0.003 A 
ATOM      3  C2  UNL d   1      -1.212   1.200   0.402  0.00  0.00     0.048 A 
ATOM      4  C3  UNL d   1      -0.059   0.612  -0.117  0.00  0.00     0.023 A 
ATOM      5  C4  UNL d   1       1.004   1.405  -0.554  0.00  0.00     0.048 A 
ATOM      6  C5  UNL d   1       0.908   2.795  -0.471  0.00  0.00     0.003 A 
ATOM      7  I   UNL d   1       0.079  -1.458  -0.240  0.00  0.00    -0.146 I 
ENDROOT
TORSDOF 0
ENDMDL
