MODEL 1
REMARK minimizedAffinity -1.61863983
REMARK minimizedRMSD -1
REMARK  0 active torsions:
REMARK  status: ('A' for Active; 'I' for Inactive)
ROOT
ATOM      1  C   UNL d   1      -0.243   2.998   0.343  0.00  0.00     0.023 A 
ATOM      2  C1  UNL d   1      -1.229   2.141   0.832  0.00  0.00     0.003 A 
ATOM      3  C2  UNL d   1      -1.109   0.762   0.653  0.00  0.00     0.048 A 
ATOM      4  C3  UNL d   1       0.001   0.245  -0.015  0.00  0.00     0.023 A 
ATOM      5  C4  UNL d   1       0.991   1.098  -0.505  0.00  0.00     0.048 A 
ATOM      6  C5  UNL d   1       0.866   2.477  -0.325  0.00  0.00     0.003 A 
ATOM      7  I   UNL d   1       0.181  -1.808  -0.283  0.00  0.00    -0.146 I 
ENDROOT
TORSDOF 0
ENDMDL
