MODEL 1
REMARK minimizedAffinity -4.23627901
REMARK minimizedRMSD -1
REMARK  0 active torsions:
REMARK  status: ('A' for Active; 'I' for Inactive)
ROOT
ATOM      1  C   UNL d   1       0.155   2.666   0.573  0.00  0.00     0.023 A 
ATOM      2  C1  UNL d   1      -1.091   2.072   0.778  0.00  0.00     0.003 A 
ATOM      3  C2  UNL d   1      -1.307   0.749   0.387  0.00  0.00     0.048 A 
ATOM      4  C3  UNL d   1      -0.274   0.026  -0.207  0.00  0.00     0.023 A 
ATOM      5  C4  UNL d   1       0.974   0.616  -0.413  0.00  0.00     0.048 A 
ATOM      6  C5  UNL d   1       1.186   1.939  -0.022  0.00  0.00     0.003 A 
ATOM      7  I   UNL d   1      -0.594  -1.944  -0.789  0.00  0.00    -0.146 I 
ENDROOT
TORSDOF 0
ENDMDL
