MODEL 1
REMARK minimizedAffinity -4.55430651
REMARK minimizedRMSD -1
REMARK  0 active torsions:
REMARK  status: ('A' for Active; 'I' for Inactive)
ROOT
ATOM      1  C   UNL d   1      -0.191   3.113  -0.225  0.00  0.00     0.023 A 
ATOM      2  C1  UNL d   1      -1.345   2.397   0.090  0.00  0.00     0.003 A 
ATOM      3  C2  UNL d   1      -1.302   1.004   0.179  0.00  0.00     0.048 A 
ATOM      4  C3  UNL d   1      -0.100   0.334  -0.046  0.00  0.00     0.023 A 
ATOM      5  C4  UNL d   1       1.058   1.046  -0.360  0.00  0.00     0.048 A 
ATOM      6  C5  UNL d   1       1.010   2.439  -0.449  0.00  0.00     0.003 A 
ATOM      7  I   UNL d   1      -0.033  -1.739   0.086  0.00  0.00    -0.146 I 
ENDROOT
TORSDOF 0
ENDMDL
