MODEL 1
REMARK minimizedAffinity -1.91392589
REMARK minimizedRMSD -1
REMARK  0 active torsions:
REMARK  status: ('A' for Active; 'I' for Inactive)
ROOT
ATOM      1  C   UNL d   1       0.441   3.089   0.367  0.00  0.00     0.023 A 
ATOM      2  C1  UNL d   1       1.495   2.406  -0.240  0.00  0.00     0.003 A 
ATOM      3  C2  UNL d   1       1.371   1.047  -0.536  0.00  0.00     0.048 A 
ATOM      4  C3  UNL d   1       0.189   0.377  -0.223  0.00  0.00     0.023 A 
ATOM      5  C4  UNL d   1      -0.869   1.057   0.384  0.00  0.00     0.048 A 
ATOM      6  C5  UNL d   1      -0.740   2.415   0.679  0.00  0.00     0.003 A 
ATOM      7  I   UNL d   1       0.000  -1.645  -0.662  0.00  0.00    -0.146 I 
ENDROOT
TORSDOF 0
ENDMDL
