MODEL 1
REMARK minimizedAffinity -4.63774204
REMARK minimizedRMSD -1
REMARK  0 active torsions:
REMARK  status: ('A' for Active; 'I' for Inactive)
ROOT
ATOM      1  C   UNL d   1       0.034   2.415   0.737  0.00  0.00     0.023 A 
ATOM      2  C1  UNL d   1       1.142   1.641   0.392  0.00  0.00     0.003 A 
ATOM      3  C2  UNL d   1       0.965   0.357  -0.126  0.00  0.00     0.048 A 
ATOM      4  C3  UNL d   1      -0.324  -0.147  -0.299  0.00  0.00     0.023 A 
ATOM      5  C4  UNL d   1      -1.436   0.623   0.044  0.00  0.00     0.048 A 
ATOM      6  C5  UNL d   1      -1.254   1.907   0.563  0.00  0.00     0.003 A 
ATOM      7  I   UNL d   1      -0.590  -2.059  -1.071  0.00  0.00    -0.146 I 
ENDROOT
TORSDOF 0
ENDMDL
