MODEL 1
REMARK minimizedAffinity -0.659085274
REMARK minimizedRMSD -1
REMARK  0 active torsions:
REMARK  status: ('A' for Active; 'I' for Inactive)
ROOT
ATOM      1  C   UNL d   1       0.381  -1.514   0.291  0.00  0.00     0.023 A 
ATOM      2  C1  UNL d   1       1.473  -0.647   0.312  0.00  0.00     0.003 A 
ATOM      3  C2  UNL d   1       1.275   0.724   0.489  0.00  0.00     0.048 A 
ATOM      4  C3  UNL d   1      -0.019   1.221   0.644  0.00  0.00     0.023 A 
ATOM      5  C4  UNL d   1      -1.115   0.357   0.623  0.00  0.00     0.048 A 
ATOM      6  C5  UNL d   1      -0.912  -1.013   0.446  0.00  0.00     0.003 A 
ATOM      7  I   UNL d   1      -0.317   3.261   0.907  0.00  0.00    -0.146 I 
ENDROOT
TORSDOF 0
ENDMDL
