MODEL 1
REMARK minimizedAffinity -3.56907797
REMARK minimizedRMSD -1
REMARK  0 active torsions:
REMARK  status: ('A' for Active; 'I' for Inactive)
ROOT
ATOM      1  C   UNL d   1       0.401   2.968   0.111  0.00  0.00     0.023 A 
ATOM      2  C1  UNL d   1       1.456   2.241  -0.442  0.00  0.00     0.003 A 
ATOM      3  C2  UNL d   1       1.369   0.852  -0.546  0.00  0.00     0.048 A 
ATOM      4  C3  UNL d   1       0.224   0.195  -0.096  0.00  0.00     0.023 A 
ATOM      5  C4  UNL d   1      -0.834   0.918   0.457  0.00  0.00     0.048 A 
ATOM      6  C5  UNL d   1      -0.742   2.307   0.560  0.00  0.00     0.003 A 
ATOM      7  I   UNL d   1       0.092  -1.874  -0.250  0.00  0.00    -0.146 I 
ENDROOT
TORSDOF 0
ENDMDL
