MODEL 1
REMARK minimizedAffinity -1.67932379
REMARK minimizedRMSD -1
REMARK  0 active torsions:
REMARK  status: ('A' for Active; 'I' for Inactive)
ROOT
ATOM      1  C   UNL d   1      -0.044   2.495   0.525  0.00  0.00     0.023 A 
ATOM      2  C1  UNL d   1       1.073   1.757   0.133  0.00  0.00     0.003 A 
ATOM      3  C2  UNL d   1       0.925   0.431  -0.282  0.00  0.00     0.048 A 
ATOM      4  C3  UNL d   1      -0.342  -0.150  -0.301  0.00  0.00     0.023 A 
ATOM      5  C4  UNL d   1      -1.463   0.585   0.090  0.00  0.00     0.048 A 
ATOM      6  C5  UNL d   1      -1.310   1.910   0.504  0.00  0.00     0.003 A 
ATOM      7  I   UNL d   1      -0.565  -2.122  -0.918  0.00  0.00    -0.146 I 
ENDROOT
TORSDOF 0
ENDMDL
