MODEL 1
REMARK minimizedAffinity 0.198610321
REMARK minimizedRMSD -1
REMARK  0 active torsions:
REMARK  status: ('A' for Active; 'I' for Inactive)
ROOT
ATOM      1  C   UNL d   1       0.457   3.542   0.089  0.00  0.00     0.023 A 
ATOM      2  C1  UNL d   1       0.736   2.733  -1.013  0.00  0.00     0.003 A 
ATOM      3  C2  UNL d   1       0.394   1.380  -0.991  0.00  0.00     0.048 A 
ATOM      4  C3  UNL d   1      -0.227   0.841   0.135  0.00  0.00     0.023 A 
ATOM      5  C4  UNL d   1      -0.509   1.647   1.240  0.00  0.00     0.048 A 
ATOM      6  C5  UNL d   1      -0.165   2.999   1.214  0.00  0.00     0.003 A 
ATOM      7  I   UNL d   1      -0.736  -1.174   0.169  0.00  0.00    -0.146 I 
ENDROOT
TORSDOF 0
ENDMDL
