MODEL 1
REMARK minimizedAffinity 15.4461479
REMARK minimizedRMSD -1
REMARK  0 active torsions:
REMARK  status: ('A' for Active; 'I' for Inactive)
ROOT
ATOM      1  C   UNL d   1       0.957  -5.962  -2.140  0.00  0.00     0.023 A 
ATOM      2  C1  UNL d   1       0.875  -4.883  -3.020  0.00  0.00     0.003 A 
ATOM      3  C2  UNL d   1       1.747  -3.801  -2.883  0.00  0.00     0.048 A 
ATOM      4  C3  UNL d   1       2.700  -3.806  -1.865  0.00  0.00     0.023 A 
ATOM      5  C4  UNL d   1       2.786  -4.884  -0.983  0.00  0.00     0.048 A 
ATOM      6  C5  UNL d   1       1.911  -5.963  -1.123  0.00  0.00     0.003 A 
ATOM      7  I   UNL d   1       4.000  -2.197  -1.659  0.00  0.00    -0.146 I 
ENDROOT
TORSDOF 0
ENDMDL
