MODEL 1
REMARK minimizedAffinity 4.80369949
REMARK minimizedRMSD -1
REMARK  2 active torsions:
REMARK  status: ('A' for Active; 'I' for Inactive)
REMARK    1  A    between atoms: C2'_3  and  C1'_4 
REMARK    2  A    between atoms: C1'_4  and  C1_5 
ROOT
ATOM      1  C1  I4B d   1      -0.226   1.022   0.180  0.00  0.00    -0.075 A 
ATOM      2  C2  I4B d   1      -0.060   2.342   0.516  0.00  0.00     0.003 A 
ATOM      3  C3  I4B d   1       0.179   2.710   1.862  0.00  0.00     0.002 A 
ATOM      4  C4  I4B d   1       0.193   1.737   2.841  0.00  0.00    -0.004 A 
ATOM      5  C5  I4B d   1       0.047   0.397   2.495  0.00  0.00     0.002 A 
ATOM      6  C6  I4B d   1      -0.152   0.035   1.154  0.00  0.00     0.003 A 
ENDROOT
BRANCH   1   7
ATOM      7  C1' I4B d   1      -0.510   0.672  -1.247  0.00  0.00     0.060 C 
BRANCH   7   8
ATOM      8  C2' I4B d   1      -2.001   0.446  -1.384  0.00  0.00    -0.013 C 
ATOM      9  C4' I4B d   1      -2.677   1.634  -2.018  0.00  0.00     0.013 C 
ATOM     10  C3' I4B d   1      -2.208  -0.794  -2.202  0.00  0.00     0.013 C 
ENDBRANCH   7   8
ENDBRANCH   1   7
TORSDOF 2
ENDMDL
