MODEL 1
REMARK minimizedAffinity 9.07107067
REMARK minimizedRMSD -1
REMARK  2 active torsions:
REMARK  status: ('A' for Active; 'I' for Inactive)
REMARK    1  A    between atoms: C2'_3  and  C1'_4 
REMARK    2  A    between atoms: C1'_4  and  C1_5 
ROOT
ATOM      1  C1  I4B d   1       0.039   2.074   1.049  0.00  0.00    -0.075 A 
ATOM      2  C2  I4B d   1      -1.169   1.991   1.695  0.00  0.00     0.003 A 
ATOM      3  C3  I4B d   1      -1.282   1.262   2.904  0.00  0.00     0.002 A 
ATOM      4  C4  I4B d   1      -0.181   0.595   3.400  0.00  0.00    -0.004 A 
ATOM      5  C5  I4B d   1       1.048   0.699   2.756  0.00  0.00     0.002 A 
ATOM      6  C6  I4B d   1       1.163   1.454   1.579  0.00  0.00     0.003 A 
ENDROOT
BRANCH   1   7
ATOM      7  C1' I4B d   1       0.116   2.825  -0.243  0.00  0.00     0.060 C 
BRANCH   7   8
ATOM      8  C2' I4B d   1      -0.166   1.850  -1.367  0.00  0.00    -0.013 C 
ATOM      9  C4' I4B d   1      -0.370   2.569  -2.675  0.00  0.00     0.013 C 
ATOM     10  C3' I4B d   1       0.985   0.892  -1.449  0.00  0.00     0.013 C 
ENDBRANCH   7   8
ENDBRANCH   1   7
TORSDOF 2
ENDMDL
