MODEL 1
REMARK minimizedAffinity 10.7533045
REMARK minimizedRMSD -1
REMARK  2 active torsions:
REMARK  status: ('A' for Active; 'I' for Inactive)
REMARK    1  A    between atoms: C2'_3  and  C1'_4 
REMARK    2  A    between atoms: C1'_4  and  C1_5 
ROOT
ATOM      1  C1  I4B d   1       0.785   2.425   1.110  0.00  0.00    -0.075 A 
ATOM      2  C2  I4B d   1       0.722   1.471   0.125  0.00  0.00     0.003 A 
ATOM      3  C3  I4B d   1       0.329   1.827  -1.188  0.00  0.00     0.002 A 
ATOM      4  C4  I4B d   1      -0.039   3.129  -1.458  0.00  0.00    -0.004 A 
ATOM      5  C5  I4B d   1       0.047   4.099  -0.464  0.00  0.00     0.002 A 
ATOM      6  C6  I4B d   1       0.473   3.748   0.825  0.00  0.00     0.003 A 
ENDROOT
BRANCH   1   7
ATOM      7  C1' I4B d   1       1.172   2.009   2.493  0.00  0.00     0.060 C 
BRANCH   7   8
ATOM      8  C2' I4B d   1       0.450   0.715   2.811  0.00  0.00    -0.013 C 
ATOM      9  C4' I4B d   1       0.935   0.125   4.109  0.00  0.00     0.013 C 
ATOM     10  C3' I4B d   1      -1.020   1.007   2.864  0.00  0.00     0.013 C 
ENDBRANCH   7   8
ENDBRANCH   1   7
TORSDOF 2
ENDMDL
