MODEL 1
REMARK minimizedAffinity 7.62694836
REMARK minimizedRMSD -1
REMARK  2 active torsions:
REMARK  status: ('A' for Active; 'I' for Inactive)
REMARK    1  A    between atoms: C2'_3  and  C1'_4 
REMARK    2  A    between atoms: C1'_4  and  C1_5 
ROOT
ATOM      1  C1  I4B d   1       1.045   0.209   2.381  0.00  0.00    -0.075 A 
ATOM      2  C2  I4B d   1      -0.189   0.374   1.804  0.00  0.00     0.003 A 
ATOM      3  C3  I4B d   1      -0.713   1.674   1.601  0.00  0.00     0.002 A 
ATOM      4  C4  I4B d   1       0.004   2.771   2.033  0.00  0.00    -0.004 A 
ATOM      5  C5  I4B d   1       1.265   2.603   2.597  0.00  0.00     0.002 A 
ATOM      6  C6  I4B d   1       1.795   1.315   2.761  0.00  0.00     0.003 A 
ENDROOT
BRANCH   1   7
ATOM      7  C1' I4B d   1       1.554  -1.179   2.611  0.00  0.00     0.060 C 
BRANCH   7   8
ATOM      8  C2' I4B d   1       1.839  -1.333   4.091  0.00  0.00    -0.013 C 
ATOM      9  C4' I4B d   1       0.587  -1.681   4.854  0.00  0.00     0.013 C 
ATOM     10  C3' I4B d   1       2.885  -2.395   4.253  0.00  0.00     0.013 C 
ENDBRANCH   7   8
ENDBRANCH   1   7
TORSDOF 2
ENDMDL
