MODEL 1
REMARK minimizedAffinity 4.64489365
REMARK minimizedRMSD -1
REMARK  2 active torsions:
REMARK  status: ('A' for Active; 'I' for Inactive)
REMARK    1  A    between atoms: C2'_3  and  C1'_4 
REMARK    2  A    between atoms: C1'_4  and  C1_5 
ROOT
ATOM      1  C1  I4B d   1       0.367   1.373   1.944  0.00  0.00    -0.075 A 
ATOM      2  C2  I4B d   1      -0.007   1.236   0.631  0.00  0.00     0.003 A 
ATOM      3  C3  I4B d   1       0.454   0.135  -0.131  0.00  0.00     0.002 A 
ATOM      4  C4  I4B d   1       1.323  -0.771   0.441  0.00  0.00    -0.004 A 
ATOM      5  C5  I4B d   1       1.684  -0.644   1.780  0.00  0.00     0.002 A 
ATOM      6  C6  I4B d   1       1.193   0.428   2.540  0.00  0.00     0.003 A 
ENDROOT
BRANCH   1   7
ATOM      7  C1' I4B d   1      -0.112   2.565   2.710  0.00  0.00     0.060 C 
BRANCH   7   8
ATOM      8  C2' I4B d   1       0.900   3.677   2.523  0.00  0.00    -0.013 C 
ATOM      9  C4' I4B d   1       2.240   3.297   3.094  0.00  0.00     0.013 C 
ATOM     10  C3' I4B d   1       1.000   3.970   1.055  0.00  0.00     0.013 C 
ENDBRANCH   7   8
ENDBRANCH   1   7
TORSDOF 2
ENDMDL
