MODEL 1
REMARK minimizedAffinity 4.80591536
REMARK minimizedRMSD -1
REMARK  2 active torsions:
REMARK  status: ('A' for Active; 'I' for Inactive)
REMARK    1  A    between atoms: C2'_3  and  C1'_4 
REMARK    2  A    between atoms: C1'_4  and  C1_5 
ROOT
ATOM      1  C1  I4B d   1       0.598   2.146   0.588  0.00  0.00    -0.075 A 
ATOM      2  C2  I4B d   1       1.003   2.698   1.778  0.00  0.00     0.003 A 
ATOM      3  C3  I4B d   1       1.441   4.044   1.826  0.00  0.00     0.002 A 
ATOM      4  C4  I4B d   1       1.504   4.781   0.661  0.00  0.00    -0.004 A 
ATOM      5  C5  I4B d   1       1.071   4.226  -0.540  0.00  0.00     0.002 A 
ATOM      6  C6  I4B d   1       0.604   2.905  -0.575  0.00  0.00     0.003 A 
ENDROOT
BRANCH   1   7
ATOM      7  C1' I4B d   1       0.173   0.712   0.567  0.00  0.00     0.060 C 
BRANCH   7   8
ATOM      8  C2' I4B d   1       0.788   0.025   1.770  0.00  0.00    -0.013 C 
ATOM      9  C4' I4B d   1      -0.074  -1.114   2.247  0.00  0.00     0.013 C 
ATOM     10  C3' I4B d   1       2.154  -0.455   1.380  0.00  0.00     0.013 C 
ENDBRANCH   7   8
ENDBRANCH   1   7
TORSDOF 2
ENDMDL
