MODEL 1
REMARK minimizedAffinity 13.5449343
REMARK minimizedRMSD -1
REMARK  0 active torsions:
REMARK  status: ('A' for Active; 'I' for Inactive)
ROOT
ATOM      1  C   UNL d   1      -0.211  -0.450   3.285  0.00  0.00     0.020 A 
ATOM      2  C1  UNL d   1      -0.560   0.826   2.846  0.00  0.00     0.020 A 
ATOM      3  C2  UNL d   1      -1.299   0.984   1.672  0.00  0.00     0.034 A 
ATOM      4  C3  UNL d   1      -1.692  -0.138   0.932  0.00  0.00     0.017 A 
ATOM      5  C4  UNL d   1      -1.340  -1.419   1.373  0.00  0.00     0.017 A 
ATOM      6  C5  UNL d   1      -0.600  -1.570   2.549  0.00  0.00     0.034 A 
ATOM      7 Cl   UNL d   1      -1.788  -2.850   0.513  0.00  0.00    -0.070 Cl
ATOM      8 Cl1  UNL d   1      -2.605   0.131  -0.510  0.00  0.00    -0.070 Cl
ENDROOT
TORSDOF 0
ENDMDL
