MODEL 1
REMARK minimizedAffinity 6.53346443
REMARK minimizedRMSD -1
REMARK  0 active torsions:
REMARK  status: ('A' for Active; 'I' for Inactive)
ROOT
ATOM      1  C   UNL d   1      -4.663  -2.573  -5.999  0.00  0.00     0.020 A 
ATOM      2  C1  UNL d   1      -3.949  -3.771  -5.999  0.00  0.00     0.020 A 
ATOM      3  C2  UNL d   1      -2.553  -3.752  -5.998  0.00  0.00     0.034 A 
ATOM      4  C3  UNL d   1      -1.866  -2.532  -5.999  0.00  0.00     0.017 A 
ATOM      5  C4  UNL d   1      -2.583  -1.331  -5.999  0.00  0.00     0.017 A 
ATOM      6  C5  UNL d   1      -3.981  -1.356  -5.999  0.00  0.00     0.034 A 
ATOM      7 Cl   UNL d   1      -1.805   0.213  -6.000  0.00  0.00    -0.070 Cl
ATOM      8 Cl1  UNL d   1      -0.139  -2.583  -5.998  0.00  0.00    -0.070 Cl
ENDROOT
TORSDOF 0
ENDMDL
