MODEL 1
REMARK minimizedAffinity 1.3105092
REMARK minimizedRMSD -1
REMARK  0 active torsions:
REMARK  status: ('A' for Active; 'I' for Inactive)
ROOT
ATOM      1  C   UNL d   1       2.053  -5.261   1.608  0.00  0.00     0.020 A 
ATOM      2  C1  UNL d   1       1.722  -5.792   2.855  0.00  0.00     0.020 A 
ATOM      3  C2  UNL d   1       2.718  -5.999   3.811  0.00  0.00     0.034 A 
ATOM      4  C3  UNL d   1       4.049  -5.676   3.523  0.00  0.00     0.017 A 
ATOM      5  C4  UNL d   1       4.380  -5.143   2.272  0.00  0.00     0.017 A 
ATOM      6  C5  UNL d   1       3.379  -4.937   1.318  0.00  0.00     0.034 A 
ATOM      7 Cl   UNL d   1       6.000  -4.719   1.844  0.00  0.00    -0.070 Cl
ATOM      8 Cl1  UNL d   1       5.229  -5.959   4.754  0.00  0.00    -0.070 Cl
ENDROOT
TORSDOF 0
ENDMDL
