MODEL 1
REMARK minimizedAffinity 7.10097742
REMARK minimizedRMSD -1
REMARK  0 active torsions:
REMARK  status: ('A' for Active; 'I' for Inactive)
ROOT
ATOM      1  C   UNL d   1      -3.877   0.651   0.803  0.00  0.00     0.020 A 
ATOM      2  C1  UNL d   1      -2.954  -0.384   0.656  0.00  0.00     0.020 A 
ATOM      3  C2  UNL d   1      -1.698  -0.291   1.260  0.00  0.00     0.034 A 
ATOM      4  C3  UNL d   1      -1.361   0.840   2.012  0.00  0.00     0.017 A 
ATOM      5  C4  UNL d   1      -2.288   1.879   2.159  0.00  0.00     0.017 A 
ATOM      6  C5  UNL d   1      -3.544   1.780   1.553  0.00  0.00     0.034 A 
ATOM      7 Cl   UNL d   1      -1.944   3.305   3.072  0.00  0.00    -0.070 Cl
ATOM      8 Cl1  UNL d   1       0.209   0.888   2.731  0.00  0.00    -0.070 Cl
ENDROOT
TORSDOF 0
ENDMDL
