MODEL 1
REMARK minimizedAffinity 8.16913033
REMARK minimizedRMSD -1
REMARK  0 active torsions:
REMARK  status: ('A' for Active; 'I' for Inactive)
ROOT
ATOM      1  C   UNL d   1      -3.977  -0.941   5.991  0.00  0.00     0.020 A 
ATOM      2  C1  UNL d   1      -3.193  -1.357   4.916  0.00  0.00     0.020 A 
ATOM      3  C2  UNL d   1      -3.132  -0.583   3.755  0.00  0.00     0.034 A 
ATOM      4  C3  UNL d   1      -3.857   0.611   3.667  0.00  0.00     0.017 A 
ATOM      5  C4  UNL d   1      -4.644   1.028   4.746  0.00  0.00     0.017 A 
ATOM      6  C5  UNL d   1      -4.701   0.249   5.906  0.00  0.00     0.034 A 
ATOM      7 Cl   UNL d   1      -5.567   2.489   4.711  0.00  0.00    -0.070 Cl
ATOM      8 Cl1  UNL d   1      -3.736   1.518   2.201  0.00  0.00    -0.070 Cl
ENDROOT
TORSDOF 0
ENDMDL
