MODEL 1
REMARK minimizedAffinity 6.99676323
REMARK minimizedRMSD -1
REMARK  0 active torsions:
REMARK  status: ('A' for Active; 'I' for Inactive)
ROOT
ATOM      1  C   UNL d   1       5.994  -5.248   5.796  0.00  0.00     0.020 A 
ATOM      2  C1  UNL d   1       5.994  -5.763   4.500  0.00  0.00     0.020 A 
ATOM      3  C2  UNL d   1       5.990  -4.897   3.405  0.00  0.00     0.034 A 
ATOM      4  C3  UNL d   1       5.985  -3.511   3.603  0.00  0.00     0.017 A 
ATOM      5  C4  UNL d   1       5.985  -2.995   4.904  0.00  0.00     0.017 A 
ATOM      6  C5  UNL d   1       5.989  -3.867   5.997  0.00  0.00     0.034 A 
ATOM      7 Cl   UNL d   1       5.979  -1.298   5.228  0.00  0.00    -0.070 Cl
ATOM      8 Cl1  UNL d   1       5.980  -2.499   2.203  0.00  0.00    -0.070 Cl
ENDROOT
TORSDOF 0
ENDMDL
