MODEL 1
REMARK minimizedAffinity 7.35843611
REMARK minimizedRMSD -1
REMARK  0 active torsions:
REMARK  status: ('A' for Active; 'I' for Inactive)
ROOT
ATOM      1  C   UNL d   1       4.388   2.621  -5.937  0.00  0.00     0.020 A 
ATOM      2  C1  UNL d   1       4.416   3.527  -4.877  0.00  0.00     0.020 A 
ATOM      3  C2  UNL d   1       3.836   3.187  -3.653  0.00  0.00     0.034 A 
ATOM      4  C3  UNL d   1       3.225   1.938  -3.486  0.00  0.00     0.017 A 
ATOM      5  C4  UNL d   1       3.198   1.030  -4.551  0.00  0.00     0.017 A 
ATOM      6  C5  UNL d   1       3.781   1.376  -5.774  0.00  0.00     0.034 A 
ATOM      7 Cl   UNL d   1       2.463  -0.529  -4.421  0.00  0.00    -0.070 Cl
ATOM      8 Cl1  UNL d   1       2.528   1.585  -1.946  0.00  0.00    -0.070 Cl
ENDROOT
TORSDOF 0
ENDMDL
