MODEL 1
REMARK minimizedAffinity 9.66271114
REMARK minimizedRMSD -1
REMARK  0 active torsions:
REMARK  status: ('A' for Active; 'I' for Inactive)
ROOT
ATOM      1  C   UNL d   1      -3.356  -1.126   5.999  0.00  0.00     0.020 A 
ATOM      2  C1  UNL d   1      -4.537  -0.412   5.801  0.00  0.00     0.020 A 
ATOM      3  C2  UNL d   1      -4.719   0.324   4.629  0.00  0.00     0.034 A 
ATOM      4  C3  UNL d   1      -3.719   0.348   3.650  0.00  0.00     0.017 A 
ATOM      5  C4  UNL d   1      -2.534  -0.370   3.850  0.00  0.00     0.017 A 
ATOM      6  C5  UNL d   1      -2.357  -1.106   5.026  0.00  0.00     0.034 A 
ATOM      7 Cl   UNL d   1      -1.255  -0.390   2.687  0.00  0.00    -0.070 Cl
ATOM      8 Cl1  UNL d   1      -4.011   1.279   2.224  0.00  0.00    -0.070 Cl
ENDROOT
TORSDOF 0
ENDMDL
