MODEL 1
REMARK minimizedAffinity 2.72498083
REMARK minimizedRMSD -1
REMARK  0 active torsions:
REMARK  status: ('A' for Active; 'I' for Inactive)
ROOT
ATOM      1  C   UNL d   1      -5.597  -2.290  -5.949  0.00  0.00     0.020 A 
ATOM      2  C1  UNL d   1      -4.988  -3.543  -5.903  0.00  0.00     0.020 A 
ATOM      3  C2  UNL d   1      -3.595  -3.643  -5.884  0.00  0.00     0.034 A 
ATOM      4  C3  UNL d   1      -2.807  -2.486  -5.911  0.00  0.00     0.017 A 
ATOM      5  C4  UNL d   1      -3.419  -1.229  -5.957  0.00  0.00     0.017 A 
ATOM      6  C5  UNL d   1      -4.814  -1.135  -5.976  0.00  0.00     0.034 A 
ATOM      7 Cl   UNL d   1      -2.513   0.243  -5.993  0.00  0.00    -0.070 Cl
ATOM      8 Cl1  UNL d   1      -1.091  -2.684  -5.884  0.00  0.00    -0.070 Cl
ENDROOT
TORSDOF 0
ENDMDL
