MODEL 1
REMARK minimizedAffinity 6.30647469
REMARK minimizedRMSD -1
REMARK  0 active torsions:
REMARK  status: ('A' for Active; 'I' for Inactive)
ROOT
ATOM      1  C   UNL d   1      -2.018  -0.584  -5.984  0.00  0.00     0.020 A 
ATOM      2  C1  UNL d   1      -1.222  -1.729  -5.983  0.00  0.00     0.020 A 
ATOM      3  C2  UNL d   1      -1.817  -2.993  -5.987  0.00  0.00     0.034 A 
ATOM      4  C3  UNL d   1      -3.211  -3.114  -5.992  0.00  0.00     0.017 A 
ATOM      5  C4  UNL d   1      -4.009  -1.964  -5.993  0.00  0.00     0.017 A 
ATOM      6  C5  UNL d   1      -3.408  -0.702  -5.989  0.00  0.00     0.034 A 
ATOM      7 Cl   UNL d   1      -5.736  -2.035  -6.000  0.00  0.00    -0.070 Cl
ATOM      8 Cl1  UNL d   1      -3.878  -4.708  -5.997  0.00  0.00    -0.070 Cl
ENDROOT
TORSDOF 0
ENDMDL
