MODEL 1
REMARK minimizedAffinity 8.75876617
REMARK minimizedRMSD -1
REMARK  0 active torsions:
REMARK  status: ('A' for Active; 'I' for Inactive)
ROOT
ATOM      1  C   UNL d   1      -4.577  -3.854  -6.000  0.00  0.00     0.020 A 
ATOM      2  C1  UNL d   1      -5.295  -2.659  -6.000  0.00  0.00     0.020 A 
ATOM      3  C2  UNL d   1      -4.618  -1.438  -6.000  0.00  0.00     0.034 A 
ATOM      4  C3  UNL d   1      -3.219  -1.409  -5.999  0.00  0.00     0.017 A 
ATOM      5  C4  UNL d   1      -2.499  -2.610  -6.000  0.00  0.00     0.017 A 
ATOM      6  C5  UNL d   1      -3.182  -3.830  -6.000  0.00  0.00     0.034 A 
ATOM      7 Cl   UNL d   1      -0.771  -2.654  -5.999  0.00  0.00    -0.070 Cl
ATOM      8 Cl1  UNL d   1      -2.447   0.137  -6.000  0.00  0.00    -0.070 Cl
ENDROOT
TORSDOF 0
ENDMDL
