MODEL 1
REMARK minimizedAffinity 0.573267221
REMARK minimizedRMSD -1
REMARK  0 active torsions:
REMARK  status: ('A' for Active; 'I' for Inactive)
ROOT
ATOM      1  C   UNL d   1      -5.498  -1.670  -5.999  0.00  0.00     0.020 A 
ATOM      2  C1  UNL d   1      -5.366  -3.058  -6.000  0.00  0.00     0.020 A 
ATOM      3  C2  UNL d   1      -4.095  -3.638  -6.000  0.00  0.00     0.034 A 
ATOM      4  C3  UNL d   1      -2.952  -2.830  -6.000  0.00  0.00     0.017 A 
ATOM      5  C4  UNL d   1      -3.087  -1.437  -5.999  0.00  0.00     0.017 A 
ATOM      6  C5  UNL d   1      -4.361  -0.861  -5.999  0.00  0.00     0.034 A 
ATOM      7 Cl   UNL d   1      -1.723  -0.375  -5.999  0.00  0.00    -0.070 Cl
ATOM      8 Cl1  UNL d   1      -1.413  -3.615  -5.999  0.00  0.00    -0.070 Cl
ENDROOT
TORSDOF 0
ENDMDL
