MODEL 1
REMARK minimizedAffinity -0.117509879
REMARK minimizedRMSD -1
REMARK  0 active torsions:
REMARK  status: ('A' for Active; 'I' for Inactive)
ROOT
ATOM      1  C   UNL d   1      -5.664   3.574   2.231  0.00  0.00     0.020 A 
ATOM      2  C1  UNL d   1      -4.872   2.960   1.262  0.00  0.00     0.020 A 
ATOM      3  C2  UNL d   1      -4.414   1.655   1.459  0.00  0.00     0.034 A 
ATOM      4  C3  UNL d   1      -4.749   0.960   2.627  0.00  0.00     0.017 A 
ATOM      5  C4  UNL d   1      -5.544   1.577   3.599  0.00  0.00     0.017 A 
ATOM      6  C5  UNL d   1      -6.000   2.884   3.397  0.00  0.00     0.034 A 
ATOM      7 Cl   UNL d   1      -5.999   0.783   5.065  0.00  0.00    -0.070 Cl
ATOM      8 Cl1  UNL d   1      -4.148  -0.651   2.803  0.00  0.00    -0.070 Cl
ENDROOT
TORSDOF 0
ENDMDL
