MODEL 1
REMARK minimizedAffinity 8.37289333
REMARK minimizedRMSD -1
REMARK  0 active torsions:
REMARK  status: ('A' for Active; 'I' for Inactive)
ROOT
ATOM      1  C   UNL d   1      -1.272  -1.387  -5.974  0.00  0.00     0.020 A 
ATOM      2  C1  UNL d   1      -2.152  -0.306  -5.992  0.00  0.00     0.020 A 
ATOM      3  C2  UNL d   1      -3.531  -0.527  -5.988  0.00  0.00     0.034 A 
ATOM      4  C3  UNL d   1      -4.034  -1.833  -5.966  0.00  0.00     0.017 A 
ATOM      5  C4  UNL d   1      -3.149  -2.918  -5.948  0.00  0.00     0.017 A 
ATOM      6  C5  UNL d   1      -1.770  -2.690  -5.952  0.00  0.00     0.034 A 
ATOM      7 Cl   UNL d   1      -3.695  -4.558  -5.920  0.00  0.00    -0.070 Cl
ATOM      8 Cl1  UNL d   1      -5.750  -2.033  -5.962  0.00  0.00    -0.070 Cl
ENDROOT
TORSDOF 0
ENDMDL
