MODEL 1
REMARK minimizedAffinity 4.59739923
REMARK minimizedRMSD -1
REMARK  0 active torsions:
REMARK  status: ('A' for Active; 'I' for Inactive)
ROOT
ATOM      1  C   UNL d   1      -6.000   1.141   2.235  0.00  0.00     0.020 A 
ATOM      2  C1  UNL d   1      -4.904   1.907   2.628  0.00  0.00     0.020 A 
ATOM      3  C2  UNL d   1      -3.618   1.548   2.220  0.00  0.00     0.034 A 
ATOM      4  C3  UNL d   1      -3.425   0.419   1.415  0.00  0.00     0.017 A 
ATOM      5  C4  UNL d   1      -4.526  -0.349   1.020  0.00  0.00     0.017 A 
ATOM      6  C5  UNL d   1      -5.811   0.015   1.432  0.00  0.00     0.034 A 
ATOM      7 Cl   UNL d   1      -4.367  -1.756   0.028  0.00  0.00    -0.070 Cl
ATOM      8 Cl1  UNL d   1      -1.807   0.033   0.947  0.00  0.00    -0.070 Cl
ENDROOT
TORSDOF 0
ENDMDL
