MODEL 1
REMARK minimizedAffinity 11.9692717
REMARK minimizedRMSD -1
REMARK  0 active torsions:
REMARK  status: ('A' for Active; 'I' for Inactive)
ROOT
ATOM      1  C   UNL d   1       2.163  -5.940   2.390  0.00  0.00     0.020 A 
ATOM      2  C1  UNL d   1       1.530  -4.704   2.266  0.00  0.00     0.020 A 
ATOM      3  C2  UNL d   1       2.276  -3.526   2.355  0.00  0.00     0.034 A 
ATOM      4  C3  UNL d   1       3.658  -3.582   2.569  0.00  0.00     0.017 A 
ATOM      5  C4  UNL d   1       4.292  -4.824   2.693  0.00  0.00     0.017 A 
ATOM      6  C5  UNL d   1       3.540  -6.000   2.603  0.00  0.00     0.034 A 
ATOM      7 Cl   UNL d   1       5.993  -4.973   2.958  0.00  0.00    -0.070 Cl
ATOM      8 Cl1  UNL d   1       4.517  -2.087   2.668  0.00  0.00    -0.070 Cl
ENDROOT
TORSDOF 0
ENDMDL
