MODEL 1
REMARK minimizedAffinity 1.17069995
REMARK minimizedRMSD -1
REMARK  0 active torsions:
REMARK  status: ('A' for Active; 'I' for Inactive)
ROOT
ATOM      1  C   UNL d   1      -3.895  -4.800  -5.991  0.00  0.00     0.020 A 
ATOM      2  C1  UNL d   1      -2.571  -4.363  -5.994  0.00  0.00     0.020 A 
ATOM      3  C2  UNL d   1      -2.287  -2.996  -5.995  0.00  0.00     0.034 A 
ATOM      4  C3  UNL d   1      -3.329  -2.061  -5.993  0.00  0.00     0.017 A 
ATOM      5  C4  UNL d   1      -4.658  -2.500  -5.989  0.00  0.00     0.017 A 
ATOM      6  C5  UNL d   1      -4.936  -3.871  -5.988  0.00  0.00     0.034 A 
ATOM      7 Cl   UNL d   1      -5.996  -1.407  -5.986  0.00  0.00    -0.070 Cl
ATOM      8 Cl1  UNL d   1      -2.905  -0.386  -5.994  0.00  0.00    -0.070 Cl
ENDROOT
TORSDOF 0
ENDMDL
