MODEL 1
REMARK minimizedAffinity 1.65230203
REMARK minimizedRMSD -1
REMARK  0 active torsions:
REMARK  status: ('A' for Active; 'I' for Inactive)
ROOT
ATOM      1  C   UNL d   1      -5.439  -4.181  -5.979  0.00  0.00     0.020 A 
ATOM      2  C1  UNL d   1      -5.936  -2.878  -5.979  0.00  0.00     0.020 A 
ATOM      3  C2  UNL d   1      -5.055  -1.794  -5.986  0.00  0.00     0.034 A 
ATOM      4  C3  UNL d   1      -3.672  -2.012  -5.992  0.00  0.00     0.017 A 
ATOM      5  C4  UNL d   1      -3.174  -3.320  -5.992  0.00  0.00     0.017 A 
ATOM      6  C5  UNL d   1      -4.061  -4.401  -5.986  0.00  0.00     0.034 A 
ATOM      7 Cl   UNL d   1      -1.481  -3.667  -6.000  0.00  0.00    -0.070 Cl
ATOM      8 Cl1  UNL d   1      -2.641  -0.625  -6.000  0.00  0.00    -0.070 Cl
ENDROOT
TORSDOF 0
ENDMDL
