MODEL 1
REMARK minimizedAffinity -0.641804993
REMARK minimizedRMSD -1
REMARK  0 active torsions:
REMARK  status: ('A' for Active; 'I' for Inactive)
ROOT
ATOM      1  C   UNL d   1      -5.936  -2.632  -5.996  0.00  0.00     0.020 A 
ATOM      2  C1  UNL d   1      -5.339  -3.893  -5.992  0.00  0.00     0.020 A 
ATOM      3  C2  UNL d   1      -3.947  -4.006  -5.986  0.00  0.00     0.034 A 
ATOM      4  C3  UNL d   1      -3.147  -2.857  -5.984  0.00  0.00     0.017 A 
ATOM      5  C4  UNL d   1      -3.747  -1.593  -5.988  0.00  0.00     0.017 A 
ATOM      6  C5  UNL d   1      -5.141  -1.485  -5.994  0.00  0.00     0.034 A 
ATOM      7 Cl   UNL d   1      -2.827  -0.130  -5.985  0.00  0.00    -0.070 Cl
ATOM      8 Cl1  UNL d   1      -1.433  -3.072  -5.976  0.00  0.00    -0.070 Cl
ENDROOT
TORSDOF 0
ENDMDL
