MODEL 1
REMARK minimizedAffinity 2.63907409
REMARK minimizedRMSD -1
REMARK  0 active torsions:
REMARK  status: ('A' for Active; 'I' for Inactive)
ROOT
ATOM      1  C   UNL d   1       0.098   0.135  -1.234  0.00  0.00     0.020 A 
ATOM      2  C1  UNL d   1       1.221  -0.691  -1.209  0.00  0.00     0.020 A 
ATOM      3  C2  UNL d   1       2.074  -0.675  -0.103  0.00  0.00     0.034 A 
ATOM      4  C3  UNL d   1       1.805   0.167   0.981  0.00  0.00     0.017 A 
ATOM      5  C4  UNL d   1       0.678   0.996   0.955  0.00  0.00     0.017 A 
ATOM      6  C5  UNL d   1      -0.173   0.977  -0.155  0.00  0.00     0.034 A 
ATOM      7 Cl   UNL d   1       0.280   2.063   2.256  0.00  0.00    -0.070 Cl
ATOM      8 Cl1  UNL d   1       2.902   0.134   2.316  0.00  0.00    -0.070 Cl
ENDROOT
TORSDOF 0
ENDMDL
