MODEL 1
REMARK minimizedAffinity -1.15439057
REMARK minimizedRMSD -1
REMARK  0 active torsions:
REMARK  status: ('A' for Active; 'I' for Inactive)
ROOT
ATOM      1  C   UNL d   1      -1.242  -0.151  -0.894  0.00  0.00     0.020 A 
ATOM      2  C1  UNL d   1       0.004  -0.700  -1.196  0.00  0.00     0.020 A 
ATOM      3  C2  UNL d   1       1.062  -0.568  -0.294  0.00  0.00     0.034 A 
ATOM      4  C3  UNL d   1       0.876   0.115   0.914  0.00  0.00     0.017 A 
ATOM      5  C4  UNL d   1      -0.374   0.666   1.215  0.00  0.00     0.017 A 
ATOM      6  C5  UNL d   1      -1.430   0.531   0.309  0.00  0.00     0.034 A 
ATOM      7 Cl   UNL d   1      -0.680   1.522   2.685  0.00  0.00    -0.070 Cl
ATOM      8 Cl1  UNL d   1       2.229   0.240   1.982  0.00  0.00    -0.070 Cl
ENDROOT
TORSDOF 0
ENDMDL
