MODEL 1
REMARK minimizedAffinity 0.229927003
REMARK minimizedRMSD -1
REMARK  0 active torsions:
REMARK  status: ('A' for Active; 'I' for Inactive)
ROOT
ATOM      1  C   UNL d   1      -0.159  -0.159   1.717  0.00  0.00     0.020 A 
ATOM      2  C1  UNL d   1      -1.403   0.369   2.058  0.00  0.00     0.020 A 
ATOM      3  C2  UNL d   1      -2.466   0.293   1.155  0.00  0.00     0.034 A 
ATOM      4  C3  UNL d   1      -2.286  -0.312  -0.094  0.00  0.00     0.017 A 
ATOM      5  C4  UNL d   1      -1.037  -0.843  -0.435  0.00  0.00     0.017 A 
ATOM      6  C5  UNL d   1       0.024  -0.764   0.473  0.00  0.00     0.034 A 
ATOM      7 Cl   UNL d   1      -0.738  -1.605  -1.958  0.00  0.00    -0.070 Cl
ATOM      8 Cl1  UNL d   1      -3.644  -0.372  -1.161  0.00  0.00    -0.070 Cl
ENDROOT
TORSDOF 0
ENDMDL
