MODEL 1
REMARK minimizedAffinity 0.70093888
REMARK minimizedRMSD -1
REMARK  0 active torsions:
REMARK  status: ('A' for Active; 'I' for Inactive)
ROOT
ATOM      1  C   UNL d   1       1.525  -0.379   3.463  0.00  0.00     0.020 A 
ATOM      2  C1  UNL d   1       1.284  -1.663   3.948  0.00  0.00     0.020 A 
ATOM      3  C2  UNL d   1       0.003  -2.213   3.863  0.00  0.00     0.034 A 
ATOM      4  C3  UNL d   1      -1.042  -1.477   3.292  0.00  0.00     0.017 A 
ATOM      5  C4  UNL d   1      -0.799  -0.188   2.805  0.00  0.00     0.017 A 
ATOM      6  C5  UNL d   1       0.486   0.357   2.893  0.00  0.00     0.034 A 
ATOM      7 Cl   UNL d   1      -2.038   0.780   2.087  0.00  0.00    -0.070 Cl
ATOM      8 Cl1  UNL d   1      -2.601  -2.219   3.220  0.00  0.00    -0.070 Cl
ENDROOT
TORSDOF 0
ENDMDL
