MODEL 1
REMARK minimizedAffinity -0.461325109
REMARK minimizedRMSD -1
REMARK  0 active torsions:
REMARK  status: ('A' for Active; 'I' for Inactive)
ROOT
ATOM      1  C   UNL d   1      -0.152  -2.136   4.698  0.00  0.00     0.020 A 
ATOM      2  C1  UNL d   1       0.561  -1.263   3.877  0.00  0.00     0.020 A 
ATOM      3  C2  UNL d   1      -0.114  -0.478   2.940  0.00  0.00     0.034 A 
ATOM      4  C3  UNL d   1      -1.506  -0.565   2.821  0.00  0.00     0.017 A 
ATOM      5  C4  UNL d   1      -2.221  -1.442   3.645  0.00  0.00     0.017 A 
ATOM      6  C5  UNL d   1      -1.540  -2.225   4.582  0.00  0.00     0.034 A 
ATOM      7 Cl   UNL d   1      -3.939  -1.604   3.556  0.00  0.00    -0.070 Cl
ATOM      8 Cl1  UNL d   1      -2.275   0.435   1.640  0.00  0.00    -0.070 Cl
ENDROOT
TORSDOF 0
ENDMDL
