MODEL 1
REMARK minimizedAffinity 3.07340956
REMARK minimizedRMSD -1
REMARK  0 active torsions:
REMARK  status: ('A' for Active; 'I' for Inactive)
ROOT
ATOM      1  C   UNL d   1       0.497  -0.698   3.308  0.00  0.00     0.020 A 
ATOM      2  C1  UNL d   1       1.233  -0.877   2.137  0.00  0.00     0.020 A 
ATOM      3  C2  UNL d   1       0.677  -0.532   0.903  0.00  0.00     0.034 A 
ATOM      4  C3  UNL d   1      -0.619  -0.006   0.838  0.00  0.00     0.017 A 
ATOM      5  C4  UNL d   1      -1.356   0.174   2.014  0.00  0.00     0.017 A 
ATOM      6  C5  UNL d   1      -0.794  -0.174   3.246  0.00  0.00     0.034 A 
ATOM      7 Cl   UNL d   1      -2.961   0.817   2.013  0.00  0.00    -0.070 Cl
ATOM      8 Cl1  UNL d   1      -1.244   0.399  -0.722  0.00  0.00    -0.070 Cl
ENDROOT
TORSDOF 0
ENDMDL
