MODEL 1
REMARK minimizedAffinity 0.88286221
REMARK minimizedRMSD -1
REMARK  0 active torsions:
REMARK  status: ('A' for Active; 'I' for Inactive)
ROOT
ATOM      1  C   UNL d   1       0.222  -0.044   0.388  0.00  0.00     0.020 A 
ATOM      2  C1  UNL d   1      -1.121  -0.062   0.762  0.00  0.00     0.020 A 
ATOM      3  C2  UNL d   1      -1.469  -0.091   2.114  0.00  0.00     0.034 A 
ATOM      4  C3  UNL d   1      -0.473  -0.103   3.097  0.00  0.00     0.017 A 
ATOM      5  C4  UNL d   1       0.875  -0.085   2.721  0.00  0.00     0.017 A 
ATOM      6  C5  UNL d   1       1.218  -0.055   1.365  0.00  0.00     0.034 A 
ATOM      7 Cl   UNL d   1       2.160  -0.097   3.876  0.00  0.00    -0.070 Cl
ATOM      8 Cl1  UNL d   1      -0.975  -0.139   4.750  0.00  0.00    -0.070 Cl
ENDROOT
TORSDOF 0
ENDMDL
