MODEL 1
REMARK minimizedAffinity 2.05846667
REMARK minimizedRMSD -1
REMARK  0 active torsions:
REMARK  status: ('A' for Active; 'I' for Inactive)
ROOT
ATOM      1  C   UNL d   1      -2.578   1.355   1.209  0.00  0.00     0.020 A 
ATOM      2  C1  UNL d   1      -3.118   0.890   0.010  0.00  0.00     0.020 A 
ATOM      3  C2  UNL d   1      -2.457  -0.103  -0.715  0.00  0.00     0.034 A 
ATOM      4  C3  UNL d   1      -1.251  -0.634  -0.243  0.00  0.00     0.017 A 
ATOM      5  C4  UNL d   1      -0.709  -0.167   0.960  0.00  0.00     0.017 A 
ATOM      6  C5  UNL d   1      -1.376   0.828   1.682  0.00  0.00     0.034 A 
ATOM      7 Cl   UNL d   1       0.774  -0.774   1.606  0.00  0.00    -0.070 Cl
ATOM      8 Cl1  UNL d   1      -0.487  -1.860  -1.192  0.00  0.00    -0.070 Cl
ENDROOT
TORSDOF 0
ENDMDL
