MODEL 1
REMARK minimizedAffinity 1.56134856
REMARK minimizedRMSD -1
REMARK  0 active torsions:
REMARK  status: ('A' for Active; 'I' for Inactive)
ROOT
ATOM      1  C   UNL d   1      -2.236  -0.263   3.751  0.00  0.00     0.020 A 
ATOM      2  C1  UNL d   1      -2.739   0.476   2.681  0.00  0.00     0.020 A 
ATOM      3  C2  UNL d   1      -1.895   0.850   1.633  0.00  0.00     0.034 A 
ATOM      4  C3  UNL d   1      -0.544   0.485   1.652  0.00  0.00     0.017 A 
ATOM      5  C4  UNL d   1      -0.040  -0.257   2.727  0.00  0.00     0.017 A 
ATOM      6  C5  UNL d   1      -0.890  -0.629   3.773  0.00  0.00     0.034 A 
ATOM      7 Cl   UNL d   1       1.615  -0.744   2.821  0.00  0.00    -0.070 Cl
ATOM      8 Cl1  UNL d   1       0.441   0.982   0.323  0.00  0.00    -0.070 Cl
ENDROOT
TORSDOF 0
ENDMDL
