MODEL 1
REMARK minimizedAffinity 1.57067788
REMARK minimizedRMSD -1
REMARK  0 active torsions:
REMARK  status: ('A' for Active; 'I' for Inactive)
ROOT
ATOM      1  C   UNL d   1      -2.190  -1.688   4.228  0.00  0.00     0.020 A 
ATOM      2  C1  UNL d   1      -0.896  -2.025   4.624  0.00  0.00     0.020 A 
ATOM      3  C2  UNL d   1       0.192  -1.684   3.818  0.00  0.00     0.034 A 
ATOM      4  C3  UNL d   1      -0.011  -1.005   2.611  0.00  0.00     0.017 A 
ATOM      5  C4  UNL d   1      -1.310  -0.668   2.214  0.00  0.00     0.017 A 
ATOM      6  C5  UNL d   1      -2.396  -1.011   3.026  0.00  0.00     0.034 A 
ATOM      7 Cl   UNL d   1      -1.640   0.170   0.739  0.00  0.00    -0.070 Cl
ATOM      8 Cl1  UNL d   1       1.380  -0.615   1.665  0.00  0.00    -0.070 Cl
ENDROOT
TORSDOF 0
ENDMDL
