MODEL 1
REMARK minimizedAffinity 2.8519721
REMARK minimizedRMSD -1
REMARK  0 active torsions:
REMARK  status: ('A' for Active; 'I' for Inactive)
ROOT
ATOM      1  C   UNL d   1      -2.152   0.637   1.218  0.00  0.00     0.020 A 
ATOM      2  C1  UNL d   1      -2.588   0.283   2.495  0.00  0.00     0.020 A 
ATOM      3  C2  UNL d   1      -1.698  -0.300   3.399  0.00  0.00     0.034 A 
ATOM      4  C3  UNL d   1      -0.369  -0.532   3.029  0.00  0.00     0.017 A 
ATOM      5  C4  UNL d   1       0.068  -0.176   1.748  0.00  0.00     0.017 A 
ATOM      6  C5  UNL d   1      -0.827   0.407   0.846  0.00  0.00     0.034 A 
ATOM      7 Cl   UNL d   1       1.694  -0.431   1.219  0.00  0.00    -0.070 Cl
ATOM      8 Cl1  UNL d   1       0.677  -1.256   4.199  0.00  0.00    -0.070 Cl
ENDROOT
TORSDOF 0
ENDMDL
