MODEL 1
REMARK minimizedAffinity 2.19999194
REMARK minimizedRMSD -1
REMARK  0 active torsions:
REMARK  status: ('A' for Active; 'I' for Inactive)
ROOT
ATOM      1  C   UNL d   1      -1.275   0.011   0.934  0.00  0.00     0.020 A 
ATOM      2  C1  UNL d   1      -0.011   0.093   1.516  0.00  0.00     0.020 A 
ATOM      3  C2  UNL d   1       0.198  -0.405   2.804  0.00  0.00     0.034 A 
ATOM      4  C3  UNL d   1      -0.858  -0.987   3.513  0.00  0.00     0.017 A 
ATOM      5  C4  UNL d   1      -2.127  -1.069   2.928  0.00  0.00     0.017 A 
ATOM      6  C5  UNL d   1      -2.331  -0.568   1.638  0.00  0.00     0.034 A 
ATOM      7 Cl   UNL d   1      -3.480  -1.773   3.741  0.00  0.00    -0.070 Cl
ATOM      8 Cl1  UNL d   1      -0.528  -1.582   5.101  0.00  0.00    -0.070 Cl
ENDROOT
TORSDOF 0
ENDMDL
