MODEL 1
REMARK minimizedAffinity 8.08442688
REMARK minimizedRMSD -1
REMARK  2 active torsions:
REMARK  status: ('A' for Active; 'I' for Inactive)
REMARK    1  A    between atoms: C2'_3  and  C1'_4 
REMARK    2  A    between atoms: C1'_4  and  C1_5 
ROOT
ATOM      1  C1  I4B d   1       2.942   3.885  -4.876  0.00  0.00    -0.075 A 
ATOM      2  C2  I4B d   1       2.249   4.262  -5.999  0.00  0.00     0.003 A 
ATOM      3  C3  I4B d   1       0.868   4.565  -5.916  0.00  0.00     0.002 A 
ATOM      4  C4  I4B d   1       0.214   4.429  -4.709  0.00  0.00    -0.004 A 
ATOM      5  C5  I4B d   1       0.923   4.068  -3.567  0.00  0.00     0.002 A 
ATOM      6  C6  I4B d   1       2.298   3.806  -3.648  0.00  0.00     0.003 A 
ENDROOT
BRANCH   1   7
ATOM      7  C1' I4B d   1       4.392   3.540  -5.005  0.00  0.00     0.060 C 
BRANCH   7   8
ATOM      8  C2' I4B d   1       4.501   2.295  -5.861  0.00  0.00    -0.013 C 
ATOM      9  C4' I4B d   1       5.934   1.853  -6.000  0.00  0.00     0.013 C 
ATOM     10  C3' I4B d   1       3.663   1.224  -5.230  0.00  0.00     0.013 C 
ENDBRANCH   7   8
ENDBRANCH   1   7
TORSDOF 2
ENDMDL
