MODEL 1
REMARK minimizedAffinity -1.42580497
REMARK minimizedRMSD -1
REMARK  2 active torsions:
REMARK  status: ('A' for Active; 'I' for Inactive)
REMARK    1  A    between atoms: C2'_3  and  C1'_4 
REMARK    2  A    between atoms: C1'_4  and  C1_5 
ROOT
ATOM      1  C1  I4B d   1       3.254   4.937  -5.916  0.00  0.00    -0.075 A 
ATOM      2  C2  I4B d   1       4.542   5.408  -5.846  0.00  0.00     0.003 A 
ATOM      3  C3  I4B d   1       5.628   4.503  -5.774  0.00  0.00     0.002 A 
ATOM      4  C4  I4B d   1       5.380   3.146  -5.724  0.00  0.00    -0.004 A 
ATOM      5  C5  I4B d   1       4.076   2.670  -5.817  0.00  0.00     0.002 A 
ATOM      6  C6  I4B d   1       3.006   3.571  -5.926  0.00  0.00     0.003 A 
ENDROOT
BRANCH   1   7
ATOM      7  C1' I4B d   1       2.128   5.922  -5.958  0.00  0.00     0.060 C 
BRANCH   7   8
ATOM      8  C2' I4B d   1       0.876   5.219  -5.475  0.00  0.00    -0.013 C 
ATOM      9  C4' I4B d   1       0.849   5.123  -3.973  0.00  0.00     0.013 C 
ATOM     10  C3' I4B d   1      -0.309   5.980  -5.990  0.00  0.00     0.013 C 
ENDBRANCH   7   8
ENDBRANCH   1   7
TORSDOF 2
ENDMDL
