MODEL 1
REMARK minimizedAffinity -2.80105925
REMARK minimizedRMSD -1
REMARK  2 active torsions:
REMARK  status: ('A' for Active; 'I' for Inactive)
REMARK    1  A    between atoms: C2'_3  and  C1'_4 
REMARK    2  A    between atoms: C1'_4  and  C1_5 
ROOT
ATOM      1  C1  I4B d   1       3.049   4.698  -5.562  0.00  0.00    -0.075 A 
ATOM      2  C2  I4B d   1       2.949   3.449  -5.003  0.00  0.00     0.003 A 
ATOM      3  C3  I4B d   1       4.098   2.630  -4.877  0.00  0.00     0.002 A 
ATOM      4  C4  I4B d   1       5.308   3.078  -5.366  0.00  0.00    -0.004 A 
ATOM      5  C5  I4B d   1       5.412   4.354  -5.912  0.00  0.00     0.002 A 
ATOM      6  C6  I4B d   1       4.278   5.175  -6.000  0.00  0.00     0.003 A 
ENDROOT
BRANCH   1   7
ATOM      7  C1' I4B d   1       1.810   5.523  -5.710  0.00  0.00     0.060 C 
BRANCH   7   8
ATOM      8  C2' I4B d   1       0.616   4.612  -5.506  0.00  0.00    -0.013 C 
ATOM      9  C4' I4B d   1       0.470   4.221  -4.059  0.00  0.00     0.013 C 
ATOM     10  C3' I4B d   1      -0.604   5.332  -5.998  0.00  0.00     0.013 C 
ENDBRANCH   7   8
ENDBRANCH   1   7
TORSDOF 2
ENDMDL
