MODEL 1
REMARK minimizedAffinity 11.2808075
REMARK minimizedRMSD -1
REMARK  2 active torsions:
REMARK  status: ('A' for Active; 'I' for Inactive)
REMARK    1  A    between atoms: C2'_3  and  C1'_4 
REMARK    2  A    between atoms: C1'_4  and  C1_5 
ROOT
ATOM      1  C1  I4B d   1       3.298   3.602  -4.823  0.00  0.00    -0.075 A 
ATOM      2  C2  I4B d   1       3.530   3.015  -3.604  0.00  0.00     0.003 A 
ATOM      3  C3  I4B d   1       4.005   1.683  -3.533  0.00  0.00     0.002 A 
ATOM      4  C4  I4B d   1       4.184   0.963  -4.696  0.00  0.00    -0.004 A 
ATOM      5  C5  I4B d   1       3.970   1.567  -5.932  0.00  0.00     0.002 A 
ATOM      6  C6  I4B d   1       3.536   2.899  -5.997  0.00  0.00     0.003 A 
ENDROOT
BRANCH   1   7
ATOM      7  C1' I4B d   1       2.766   5.000  -4.860  0.00  0.00     0.060 C 
BRANCH   7   8
ATOM      8  C2' I4B d   1       1.253   4.924  -4.829  0.00  0.00    -0.013 C 
ATOM      9  C4' I4B d   1       0.728   4.045  -5.934  0.00  0.00     0.013 C 
ATOM     10  C3' I4B d   1       0.843   4.404  -3.484  0.00  0.00     0.013 C 
ENDBRANCH   7   8
ENDBRANCH   1   7
TORSDOF 2
ENDMDL
