MODEL 1
REMARK minimizedAffinity 4.52093887
REMARK minimizedRMSD -1
REMARK  2 active torsions:
REMARK  status: ('A' for Active; 'I' for Inactive)
REMARK    1  A    between atoms: C2'_3  and  C1'_4 
REMARK    2  A    between atoms: C1'_4  and  C1_5 
ROOT
ATOM      1  C1  I4B d   1       2.983   3.356  -4.568  0.00  0.00    -0.075 A 
ATOM      2  C2  I4B d   1       3.691   4.275  -5.302  0.00  0.00     0.003 A 
ATOM      3  C3  I4B d   1       3.015   5.304  -6.000  0.00  0.00     0.002 A 
ATOM      4  C4  I4B d   1       1.636   5.347  -5.977  0.00  0.00    -0.004 A 
ATOM      5  C5  I4B d   1       0.920   4.429  -5.214  0.00  0.00     0.002 A 
ATOM      6  C6  I4B d   1       1.598   3.435  -4.495  0.00  0.00     0.003 A 
ENDROOT
BRANCH   1   7
ATOM      7  C1' I4B d   1       3.728   2.262  -3.870  0.00  0.00     0.060 C 
BRANCH   7   8
ATOM      8  C2' I4B d   1       4.214   1.285  -4.921  0.00  0.00    -0.013 C 
ATOM      9  C4' I4B d   1       3.072   0.487  -5.493  0.00  0.00     0.013 C 
ATOM     10  C3' I4B d   1       4.918   2.066  -5.990  0.00  0.00     0.013 C 
ENDBRANCH   7   8
ENDBRANCH   1   7
TORSDOF 2
ENDMDL
