MODEL 1
REMARK minimizedAffinity 1.49092853
REMARK minimizedRMSD -1
REMARK  2 active torsions:
REMARK  status: ('A' for Active; 'I' for Inactive)
REMARK    1  A    between atoms: C2'_3  and  C1'_4 
REMARK    2  A    between atoms: C1'_4  and  C1_5 
ROOT
ATOM      1  C1  I4B d   1       3.295   3.788  -5.901  0.00  0.00    -0.075 A 
ATOM      2  C2  I4B d   1       3.455   5.149  -5.989  0.00  0.00     0.003 A 
ATOM      3  C3  I4B d   1       2.323   6.000  -6.000  0.00  0.00     0.002 A 
ATOM      4  C4  I4B d   1       1.058   5.449  -5.971  0.00  0.00    -0.004 A 
ATOM      5  C5  I4B d   1       0.899   4.071  -5.859  0.00  0.00     0.002 A 
ATOM      6  C6  I4B d   1       2.024   3.235  -5.811  0.00  0.00     0.003 A 
ENDROOT
BRANCH   1   7
ATOM      7  C1' I4B d   1       4.511   2.917  -5.925  0.00  0.00     0.060 C 
BRANCH   7   8
ATOM      8  C2' I4B d   1       4.450   1.996  -4.723  0.00  0.00    -0.013 C 
ATOM      9  C4' I4B d   1       4.081   2.754  -3.475  0.00  0.00     0.013 C 
ATOM     10  C3' I4B d   1       3.450   0.918  -5.017  0.00  0.00     0.013 C 
ENDBRANCH   7   8
ENDBRANCH   1   7
TORSDOF 2
ENDMDL
