MODEL 1
REMARK minimizedAffinity -2.11670566
REMARK minimizedRMSD -1
REMARK  2 active torsions:
REMARK  status: ('A' for Active; 'I' for Inactive)
REMARK    1  A    between atoms: C2'_3  and  C1'_4 
REMARK    2  A    between atoms: C1'_4  and  C1_5 
ROOT
ATOM      1  C1  I4B d   1       3.320   3.251  -5.943  0.00  0.00    -0.075 A 
ATOM      2  C2  I4B d   1       3.511   1.894  -5.877  0.00  0.00     0.003 A 
ATOM      3  C3  I4B d   1       4.823   1.359  -5.854  0.00  0.00     0.002 A 
ATOM      4  C4  I4B d   1       5.905   2.210  -5.950  0.00  0.00    -0.004 A 
ATOM      5  C5  I4B d   1       5.709   3.587  -5.994  0.00  0.00     0.002 A 
ATOM      6  C6  I4B d   1       4.408   4.112  -5.978  0.00  0.00     0.003 A 
ENDROOT
BRANCH   1   7
ATOM      7  C1' I4B d   1       1.921   3.779  -5.998  0.00  0.00     0.060 C 
BRANCH   7   8
ATOM      8  C2' I4B d   1       1.987   5.288  -5.876  0.00  0.00    -0.013 C 
ATOM      9  C4' I4B d   1       0.619   5.905  -5.998  0.00  0.00     0.013 C 
ATOM     10  C3' I4B d   1       2.614   5.619  -4.554  0.00  0.00     0.013 C 
ENDBRANCH   7   8
ENDBRANCH   1   7
TORSDOF 2
ENDMDL
