MODEL 1
REMARK minimizedAffinity -0.831238151
REMARK minimizedRMSD -1
REMARK  2 active torsions:
REMARK  status: ('A' for Active; 'I' for Inactive)
REMARK    1  A    between atoms: C2'_3  and  C1'_4 
REMARK    2  A    between atoms: C1'_4  and  C1_5 
ROOT
ATOM      1  C1  I4B d   1       3.114   3.295  -5.590  0.00  0.00    -0.075 A 
ATOM      2  C2  I4B d   1       4.143   4.153  -5.887  0.00  0.00     0.003 A 
ATOM      3  C3  I4B d   1       4.050   5.523  -5.542  0.00  0.00     0.002 A 
ATOM      4  C4  I4B d   1       2.897   5.999  -4.951  0.00  0.00    -0.004 A 
ATOM      5  C5  I4B d   1       1.864   5.123  -4.630  0.00  0.00     0.002 A 
ATOM      6  C6  I4B d   1       1.978   3.760  -4.940  0.00  0.00     0.003 A 
ENDROOT
BRANCH   1   7
ATOM      7  C1' I4B d   1       3.232   1.860  -5.998  0.00  0.00     0.060 C 
BRANCH   7   8
ATOM      8  C2' I4B d   1       4.294   1.214  -5.132  0.00  0.00    -0.013 C 
ATOM      9  C4' I4B d   1       3.780  -0.047  -4.490  0.00  0.00     0.013 C 
ATOM     10  C3' I4B d   1       5.488   0.935  -5.995  0.00  0.00     0.013 C 
ENDBRANCH   7   8
ENDBRANCH   1   7
TORSDOF 2
ENDMDL
