MODEL 1
REMARK minimizedAffinity 12.4805756
REMARK minimizedRMSD -1
REMARK  2 active torsions:
REMARK  status: ('A' for Active; 'I' for Inactive)
REMARK    1  A    between atoms: C2'_3  and  C1'_4 
REMARK    2  A    between atoms: C1'_4  and  C1_5 
ROOT
ATOM      1  C1  I4B d   1      -1.227  -2.892  -5.269  0.00  0.00    -0.075 A 
ATOM      2  C2  I4B d   1       0.100  -2.540  -5.290  0.00  0.00     0.003 A 
ATOM      3  C3  I4B d   1       1.080  -3.481  -5.685  0.00  0.00     0.002 A 
ATOM      4  C4  I4B d   1       0.698  -4.769  -6.000  0.00  0.00    -0.004 A 
ATOM      5  C5  I4B d   1      -0.649  -5.118  -5.999  0.00  0.00     0.002 A 
ATOM      6  C6  I4B d   1      -1.620  -4.170  -5.644  0.00  0.00     0.003 A 
ENDROOT
BRANCH   1   7
ATOM      7  C1' I4B d   1      -2.233  -1.882  -4.815  0.00  0.00     0.060 C 
BRANCH   7   8
ATOM      8  C2' I4B d   1      -2.586  -2.190  -3.374  0.00  0.00    -0.013 C 
ATOM      9  C4' I4B d   1      -2.110  -3.563  -2.977  0.00  0.00     0.013 C 
ATOM     10  C3' I4B d   1      -1.967  -1.132  -2.510  0.00  0.00     0.013 C 
ENDBRANCH   7   8
ENDBRANCH   1   7
TORSDOF 2
ENDMDL
