MODEL 1
REMARK minimizedAffinity -1.68452787
REMARK minimizedRMSD -1
REMARK  1 active torsions:
REMARK  status: ('A' for Active; 'I' for Inactive)
REMARK    1  A    between atoms: C1_2  and  C2_3 
ROOT
ATOM      1  C2  UNL d   1       0.145   0.027   0.676  0.00  0.00    -0.076 A 
ATOM      2  C3  UNL d   1       1.494  -0.347   0.798  0.00  0.00     0.004 A 
ATOM      3  C4  UNL d   1       1.981  -0.899   1.982  0.00  0.00    -0.003 A 
ATOM      4  C5  UNL d   1       1.126  -1.087   3.062  0.00  0.00     0.000 A 
ATOM      5  C6  UNL d   1      -0.219  -0.738   2.952  0.00  0.00     0.000 A 
ATOM      6  C7  UNL d   1      -0.730  -0.195   1.761  0.00  0.00    -0.073 A 
ATOM      7  C8  UNL d   1      -2.188   0.168   1.700  0.00  0.00     0.078 C 
ENDROOT
BRANCH   1   8
ATOM      8  C1  UNL d   1      -0.320   0.646  -0.623  0.00  0.00     0.053 C 
ATOM      9  C   UNL d   1       0.039  -0.201  -1.834  0.00  0.00     0.018 C 
ENDBRANCH   1   8
TORSDOF 1
ENDMDL
