MODEL 1
REMARK minimizedAffinity -4.26704693
REMARK minimizedRMSD -1
REMARK  1 active torsions:
REMARK  status: ('A' for Active; 'I' for Inactive)
REMARK    1  A    between atoms: C1_2  and  C2_3 
ROOT
ATOM      1  C2  UNL d   1       0.174   0.046   0.169  0.00  0.00    -0.076 A 
ATOM      2  C3  UNL d   1       1.508  -0.388   0.077  0.00  0.00     0.004 A 
ATOM      3  C4  UNL d   1       2.208  -0.799   1.209  0.00  0.00    -0.003 A 
ATOM      4  C5  UNL d   1       1.586  -0.785   2.453  0.00  0.00     0.000 A 
ATOM      5  C6  UNL d   1       0.258  -0.374   2.560  0.00  0.00     0.000 A 
ATOM      6  C7  UNL d   1      -0.468   0.028   1.426  0.00  0.00    -0.073 A 
ATOM      7  C8  UNL d   1      -1.896   0.467   1.601  0.00  0.00     0.078 C 
ENDROOT
BRANCH   1   8
ATOM      8  C1  UNL d   1      -0.527   0.507  -1.089  0.00  0.00     0.053 C 
ATOM      9  C   UNL d   1      -0.302   1.984  -1.374  0.00  0.00     0.018 C 
ENDBRANCH   1   8
TORSDOF 1
ENDMDL
