MODEL 1
REMARK minimizedAffinity -0.778631508
REMARK minimizedRMSD -1
REMARK  1 active torsions:
REMARK  status: ('A' for Active; 'I' for Inactive)
REMARK    1  A    between atoms: C1_2  and  C2_3 
ROOT
ATOM      1  C2  UNL d   1      -0.004  -0.064  -0.069  0.00  0.00    -0.076 A 
ATOM      2  C3  UNL d   1      -1.096   0.412   0.677  0.00  0.00     0.004 A 
ATOM      3  C4  UNL d   1      -1.181   0.186   2.050  0.00  0.00    -0.003 A 
ATOM      4  C5  UNL d   1      -0.175  -0.520   2.699  0.00  0.00     0.000 A 
ATOM      5  C6  UNL d   1       0.925  -0.985   1.978  0.00  0.00     0.000 A 
ATOM      6  C7  UNL d   1       1.034  -0.751   0.597  0.00  0.00    -0.073 A 
ATOM      7  C8  UNL d   1       2.239  -1.279  -0.132  0.00  0.00     0.078 C 
ENDROOT
BRANCH   1   8
ATOM      8  C1  UNL d   1       0.020   0.189  -1.559  0.00  0.00     0.053 C 
ATOM      9  C   UNL d   1      -0.831   1.383  -1.962  0.00  0.00     0.018 C 
ENDBRANCH   1   8
TORSDOF 1
ENDMDL
