MODEL 1
REMARK minimizedAffinity -3.0177598
REMARK minimizedRMSD -1
REMARK  1 active torsions:
REMARK  status: ('A' for Active; 'I' for Inactive)
REMARK    1  A    between atoms: C1_2  and  C2_3 
ROOT
ATOM      1  C2  UNL d   1       0.177  -0.128   0.092  0.00  0.00    -0.076 A 
ATOM      2  C3  UNL d   1       1.548  -0.412   0.218  0.00  0.00     0.004 A 
ATOM      3  C4  UNL d   1       2.129  -0.600   1.471  0.00  0.00    -0.003 A 
ATOM      4  C5  UNL d   1       1.348  -0.509   2.618  0.00  0.00     0.000 A 
ATOM      5  C6  UNL d   1      -0.017  -0.246   2.510  0.00  0.00     0.000 A 
ATOM      6  C7  UNL d   1      -0.622  -0.069   1.254  0.00  0.00    -0.073 A 
ATOM      7  C8  UNL d   1      -2.097   0.218   1.197  0.00  0.00     0.078 C 
ENDROOT
BRANCH   1   8
ATOM      8  C1  UNL d   1      -0.393   0.093  -1.291  0.00  0.00     0.053 C 
ATOM      9  C   UNL d   1      -0.220   1.527  -1.770  0.00  0.00     0.018 C 
ENDBRANCH   1   8
TORSDOF 1
ENDMDL
