MODEL 1
REMARK minimizedAffinity -3.81745863
REMARK minimizedRMSD -1
REMARK  1 active torsions:
REMARK  status: ('A' for Active; 'I' for Inactive)
REMARK    1  A    between atoms: C1_2  and  C2_3 
ROOT
ATOM      1  C2  UNL d   1       0.738  -0.423   0.907  0.00  0.00    -0.076 A 
ATOM      2  C3  UNL d   1      -0.569   0.067   0.741  0.00  0.00     0.004 A 
ATOM      3  C4  UNL d   1      -1.100   0.279  -0.530  0.00  0.00    -0.003 A 
ATOM      4  C5  UNL d   1      -0.333   0.005  -1.656  0.00  0.00     0.000 A 
ATOM      5  C6  UNL d   1       0.960  -0.498  -1.511  0.00  0.00     0.000 A 
ATOM      6  C7  UNL d   1       1.504  -0.733  -0.237  0.00  0.00    -0.073 A 
ATOM      7  C8  UNL d   1       2.906  -1.271  -0.139  0.00  0.00     0.078 C 
ENDROOT
BRANCH   1   8
ATOM      8  C1  UNL d   1       1.270  -0.608   2.310  0.00  0.00     0.053 C 
ATOM      9  C   UNL d   1       0.715  -1.853   2.984  0.00  0.00     0.018 C 
ENDBRANCH   1   8
TORSDOF 1
ENDMDL
