MODEL 1
REMARK minimizedAffinity -3.34803915
REMARK minimizedRMSD -1
REMARK  1 active torsions:
REMARK  status: ('A' for Active; 'I' for Inactive)
REMARK    1  A    between atoms: C1_2  and  C2_3 
ROOT
ATOM      1  C2  UNL d   1       0.636  -0.091   0.404  0.00  0.00    -0.076 A 
ATOM      2  C3  UNL d   1      -0.410  -0.067  -0.535  0.00  0.00     0.004 A 
ATOM      3  C4  UNL d   1      -1.741  -0.148  -0.129  0.00  0.00    -0.003 A 
ATOM      4  C5  UNL d   1      -2.047  -0.253   1.223  0.00  0.00     0.000 A 
ATOM      5  C6  UNL d   1      -1.023  -0.261   2.170  0.00  0.00     0.000 A 
ATOM      6  C7  UNL d   1       0.323  -0.164   1.778  0.00  0.00    -0.073 A 
ATOM      7  C8  UNL d   1       1.387  -0.183   2.841  0.00  0.00     0.078 C 
ENDROOT
BRANCH   1   8
ATOM      8  C1  UNL d   1       2.061  -0.028  -0.097  0.00  0.00     0.053 C 
ATOM      9  C   UNL d   1       2.357  -1.088  -1.148  0.00  0.00     0.018 C 
ENDBRANCH   1   8
TORSDOF 1
ENDMDL
