MODEL 1
REMARK minimizedAffinity -2.29349804
REMARK minimizedRMSD -1
REMARK  0 active torsions:
REMARK  status: ('A' for Active; 'I' for Inactive)
ROOT
ATOM      1  C2' OXE d   1       0.839  -0.554  -0.465  0.00  0.00     0.078 C 
ATOM      2  C1' OXE d   1       1.307  -0.026   2.252  0.00  0.00     0.078 C 
ATOM      3  C1  OXE d   1       0.034   0.504   1.642  0.00  0.00    -0.078 A 
ATOM      4  C2  OXE d   1      -0.165   0.281   0.301  0.00  0.00    -0.078 A 
ATOM      5  C3  OXE d   1      -1.348   0.701  -0.300  0.00  0.00     0.003 A 
ATOM      6  C4  OXE d   1      -2.267   1.482   0.412  0.00  0.00    -0.002 A 
ATOM      7  C5  OXE d   1      -2.065   1.754   1.770  0.00  0.00    -0.002 A 
ATOM      8  C6  OXE d   1      -0.943   1.238   2.409  0.00  0.00     0.003 A 
ENDROOT
TORSDOF 0
ENDMDL
