MODEL 1
REMARK minimizedAffinity -5.74771261
REMARK minimizedRMSD -1
REMARK  0 active torsions:
REMARK  status: ('A' for Active; 'I' for Inactive)
ROOT
ATOM      1  C2' OXE d   1      -1.140  -0.497   1.470  0.00  0.00     0.078 C 
ATOM      2  C1' OXE d   1       0.559   0.130  -0.675  0.00  0.00     0.078 C 
ATOM      3  C1  OXE d   1      -0.363   1.211  -0.169  0.00  0.00    -0.078 A 
ATOM      4  C2  OXE d   1      -1.224   0.881   0.850  0.00  0.00    -0.078 A 
ATOM      5  C3  OXE d   1      -2.058   1.856   1.390  0.00  0.00     0.003 A 
ATOM      6  C4  OXE d   1      -2.137   3.125   0.804  0.00  0.00    -0.002 A 
ATOM      7  C5  OXE d   1      -1.297   3.469  -0.260  0.00  0.00    -0.002 A 
ATOM      8  C6  OXE d   1      -0.377   2.539  -0.730  0.00  0.00     0.003 A 
ENDROOT
TORSDOF 0
ENDMDL
