MODEL 1
REMARK minimizedAffinity -3.44485188
REMARK minimizedRMSD -1
REMARK  0 active torsions:
REMARK  status: ('A' for Active; 'I' for Inactive)
ROOT
ATOM      1  C2' OXE d   1       0.580  -1.179  -0.496  0.00  0.00     0.078 C 
ATOM      2  C1' OXE d   1       1.206  -0.042   1.993  0.00  0.00     0.078 C 
ATOM      3  C1  OXE d   1      -0.057   0.416   1.308  0.00  0.00    -0.078 A 
ATOM      4  C2  OXE d   1      -0.332  -0.111   0.069  0.00  0.00    -0.078 A 
ATOM      5  C3  OXE d   1      -1.512   0.237  -0.582  0.00  0.00     0.003 A 
ATOM      6  C4  OXE d   1      -2.344   1.233  -0.057  0.00  0.00    -0.002 A 
ATOM      7  C5  OXE d   1      -2.062   1.812   1.185  0.00  0.00    -0.002 A 
ATOM      8  C6  OXE d   1      -0.948   1.384   1.899  0.00  0.00     0.003 A 
ENDROOT
TORSDOF 0
ENDMDL
