MODEL 1
REMARK minimizedAffinity -2.54040623
REMARK minimizedRMSD -1
REMARK  0 active torsions:
REMARK  status: ('A' for Active; 'I' for Inactive)
ROOT
ATOM      1  C2' OXE d   1       1.858  -3.418   0.304  0.00  0.00     0.078 C 
ATOM      2  C1' OXE d   1       1.493  -0.697  -0.286  0.00  0.00     0.078 C 
ATOM      3  C1  OXE d   1       0.880  -1.708  -1.222  0.00  0.00    -0.078 A 
ATOM      4  C2  OXE d   1       1.103  -3.037  -0.952  0.00  0.00    -0.078 A 
ATOM      5  C3  OXE d   1       0.514  -4.012  -1.752  0.00  0.00     0.003 A 
ATOM      6  C4  OXE d   1      -0.174  -3.652  -2.917  0.00  0.00    -0.002 A 
ATOM      7  C5  OXE d   1      -0.379  -2.304  -3.232  0.00  0.00    -0.002 A 
ATOM      8  C6  OXE d   1       0.104  -1.322  -2.374  0.00  0.00     0.003 A 
ENDROOT
TORSDOF 0
ENDMDL
