MODEL 1
REMARK minimizedAffinity -5.90644026
REMARK minimizedRMSD -1
REMARK  0 active torsions:
REMARK  status: ('A' for Active; 'I' for Inactive)
ROOT
ATOM      1  C2' OXE d   1      -0.689   3.558  -0.676  0.00  0.00     0.078 C 
ATOM      2  C1' OXE d   1      -1.912   2.386   1.562  0.00  0.00     0.078 C 
ATOM      3  C1  OXE d   1      -0.880   1.575   0.819  0.00  0.00    -0.078 A 
ATOM      4  C2  OXE d   1      -0.321   2.138  -0.303  0.00  0.00    -0.078 A 
ATOM      5  C3  OXE d   1       0.676   1.455  -0.994  0.00  0.00     0.003 A 
ATOM      6  C4  OXE d   1       1.003   0.138  -0.647  0.00  0.00    -0.002 A 
ATOM      7  C5  OXE d   1       0.417  -0.469   0.468  0.00  0.00    -0.002 A 
ATOM      8  C6  OXE d   1      -0.494   0.249   1.235  0.00  0.00     0.003 A 
ENDROOT
TORSDOF 0
ENDMDL
