MODEL 1
REMARK minimizedAffinity -6.057549
REMARK minimizedRMSD -1
REMARK  0 active torsions:
REMARK  status: ('A' for Active; 'I' for Inactive)
ROOT
ATOM      1  C2' OXE d   1      -0.738  -0.339   1.937  0.00  0.00     0.078 C 
ATOM      2  C1' OXE d   1       0.751  -0.147  -0.435  0.00  0.00     0.078 C 
ATOM      3  C1  OXE d   1      -0.035   1.063   0.001  0.00  0.00    -0.078 A 
ATOM      4  C2  OXE d   1      -0.798   0.945   1.138  0.00  0.00    -0.078 A 
ATOM      5  C3  OXE d   1      -1.500   2.049   1.615  0.00  0.00     0.003 A 
ATOM      6  C4  OXE d   1      -1.558   3.230   0.866  0.00  0.00    -0.002 A 
ATOM      7  C5  OXE d   1      -0.820   3.358  -0.316  0.00  0.00    -0.002 A 
ATOM      8  C6  OXE d   1      -0.022   2.301  -0.739  0.00  0.00     0.003 A 
ENDROOT
TORSDOF 0
ENDMDL
