MODEL 1
REMARK minimizedAffinity -4.00975227
REMARK minimizedRMSD -1
REMARK  0 active torsions:
REMARK  status: ('A' for Active; 'I' for Inactive)
ROOT
ATOM      1  C2' OXE d   1       0.525   0.275  -1.152  0.00  0.00     0.078 C 
ATOM      2  C1' OXE d   1       0.303   3.066  -1.352  0.00  0.00     0.078 C 
ATOM      3  C1  OXE d   1      -0.172   2.412  -0.078  0.00  0.00    -0.078 A 
ATOM      4  C2  OXE d   1      -0.103   1.041  -0.008  0.00  0.00    -0.078 A 
ATOM      5  C3  OXE d   1      -0.477   0.392   1.165  0.00  0.00     0.003 A 
ATOM      6  C4  OXE d   1      -1.066   1.107   2.214  0.00  0.00    -0.002 A 
ATOM      7  C5  OXE d   1      -1.183   2.499   2.147  0.00  0.00    -0.002 A 
ATOM      8  C6  OXE d   1      -0.703   3.170   1.028  0.00  0.00     0.003 A 
ENDROOT
TORSDOF 0
ENDMDL
