MODEL 1
REMARK minimizedAffinity -4.08303547
REMARK minimizedRMSD -1
REMARK  0 active torsions:
REMARK  status: ('A' for Active; 'I' for Inactive)
ROOT
ATOM      1  C2' OXE d   1      -0.009  -0.131  -0.446  0.00  0.00     0.078 C 
ATOM      2  C1' OXE d   1      -1.726   0.347   1.722  0.00  0.00     0.078 C 
ATOM      3  C1  OXE d   1      -1.337   1.523   0.861  0.00  0.00    -0.078 A 
ATOM      4  C2  OXE d   1      -0.459   1.288  -0.169  0.00  0.00    -0.078 A 
ATOM      5  C3  OXE d   1      -0.109   2.326  -1.027  0.00  0.00     0.003 A 
ATOM      6  C4  OXE d   1      -0.522   3.637  -0.759  0.00  0.00    -0.002 A 
ATOM      7  C5  OXE d   1      -1.384   3.905   0.310  0.00  0.00    -0.002 A 
ATOM      8  C6  OXE d   1      -1.834   2.855   1.102  0.00  0.00     0.003 A 
ENDROOT
TORSDOF 0
ENDMDL
