MODEL 1
REMARK minimizedAffinity -4.76900625
REMARK minimizedRMSD -1
REMARK  0 active torsions:
REMARK  status: ('A' for Active; 'I' for Inactive)
ROOT
ATOM      1  C2' OXE d   1      -0.461  -0.118   1.735  0.00  0.00     0.078 C 
ATOM      2  C1' OXE d   1      -1.923   2.182   1.061  0.00  0.00     0.078 C 
ATOM      3  C1  OXE d   1      -0.754   1.809   0.184  0.00  0.00    -0.078 A 
ATOM      4  C2  OXE d   1      -0.016   0.709   0.548  0.00  0.00    -0.078 A 
ATOM      5  C3  OXE d   1       1.039   0.289  -0.257  0.00  0.00     0.003 A 
ATOM      6  C4  OXE d   1       1.451   1.065  -1.347  0.00  0.00    -0.002 A 
ATOM      7  C5  OXE d   1       0.737   2.212  -1.713  0.00  0.00    -0.002 A 
ATOM      8  C6  OXE d   1      -0.391   2.573  -0.984  0.00  0.00     0.003 A 
ENDROOT
TORSDOF 0
ENDMDL
