MODEL 1
REMARK minimizedAffinity -5.65535212
REMARK minimizedRMSD -1
REMARK  0 active torsions:
REMARK  status: ('A' for Active; 'I' for Inactive)
ROOT
ATOM      1  C2' OXE d   1      -0.415  -0.485   1.684  0.00  0.00     0.078 C 
ATOM      2  C1' OXE d   1       0.637   0.288  -0.801  0.00  0.00     0.078 C 
ATOM      3  C1  OXE d   1      -0.255   1.267  -0.080  0.00  0.00    -0.078 A 
ATOM      4  C2  OXE d   1      -0.803   0.863   1.114  0.00  0.00    -0.078 A 
ATOM      5  C3  OXE d   1      -1.588   1.748   1.846  0.00  0.00     0.003 A 
ATOM      6  C4  OXE d   1      -1.950   2.988   1.307  0.00  0.00    -0.002 A 
ATOM      7  C5  OXE d   1      -1.435   3.404   0.075  0.00  0.00    -0.002 A 
ATOM      8  C6  OXE d   1      -0.554   2.574  -0.610  0.00  0.00     0.003 A 
ENDROOT
TORSDOF 0
ENDMDL
