MODEL 1
REMARK minimizedAffinity -4.78679371
REMARK minimizedRMSD -1
REMARK  0 active torsions:
REMARK  status: ('A' for Active; 'I' for Inactive)
ROOT
ATOM      1  C2' OXE d   1       0.725  -0.786  -0.368  0.00  0.00     0.078 C 
ATOM      2  C1' OXE d   1      -0.882  -0.393   1.899  0.00  0.00     0.078 C 
ATOM      3  C1  OXE d   1      -0.518   0.818   1.077  0.00  0.00    -0.078 A 
ATOM      4  C2  OXE d   1       0.308   0.622  -0.004  0.00  0.00    -0.078 A 
ATOM      5  C3  OXE d   1       0.630   1.697  -0.828  0.00  0.00     0.003 A 
ATOM      6  C4  OXE d   1       0.248   2.998  -0.479  0.00  0.00    -0.002 A 
ATOM      7  C5  OXE d   1      -0.559   3.224   0.641  0.00  0.00    -0.002 A 
ATOM      8  C6  OXE d   1      -0.986   2.142   1.403  0.00  0.00     0.003 A 
ENDROOT
TORSDOF 0
ENDMDL
