MODEL 1
REMARK minimizedAffinity -5.28244734
REMARK minimizedRMSD -1
REMARK  0 active torsions:
REMARK  status: ('A' for Active; 'I' for Inactive)
ROOT
ATOM      1  C2' OXE d   1       0.773  -3.242  -2.832  0.00  0.00     0.078 C 
ATOM      2  C1' OXE d   1       0.456  -4.262  -0.236  0.00  0.00     0.078 C 
ATOM      3  C1  OXE d   1       0.487  -2.764  -0.404  0.00  0.00    -0.078 A 
ATOM      4  C2  OXE d   1       0.690  -2.274  -1.672  0.00  0.00    -0.078 A 
ATOM      5  C3  OXE d   1       0.672  -0.899  -1.891  0.00  0.00     0.003 A 
ATOM      6  C4  OXE d   1       0.604  -0.010  -0.811  0.00  0.00    -0.002 A 
ATOM      7  C5  OXE d   1       0.438  -0.489   0.493  0.00  0.00    -0.002 A 
ATOM      8  C6  OXE d   1       0.335  -1.859   0.708  0.00  0.00     0.003 A 
ENDROOT
TORSDOF 0
ENDMDL
