MODEL 1
REMARK minimizedAffinity -4.79176283
REMARK minimizedRMSD -1
REMARK  0 active torsions:
REMARK  status: ('A' for Active; 'I' for Inactive)
ROOT
ATOM      1  C2' OXE d   1      -1.177  -0.031   2.382  0.00  0.00     0.078 C 
ATOM      2  C1' OXE d   1      -2.337   2.208   1.148  0.00  0.00     0.078 C 
ATOM      3  C1  OXE d   1      -1.091   1.627   0.525  0.00  0.00    -0.078 A 
ATOM      4  C2  OXE d   1      -0.504   0.561   1.162  0.00  0.00    -0.078 A 
ATOM      5  C3  OXE d   1       0.615  -0.047   0.600  0.00  0.00     0.003 A 
ATOM      6  C4  OXE d   1       1.237   0.513  -0.522  0.00  0.00    -0.002 A 
ATOM      7  C5  OXE d   1       0.678   1.623  -1.164  0.00  0.00    -0.002 A 
ATOM      8  C6  OXE d   1      -0.507   2.165  -0.679  0.00  0.00     0.003 A 
ENDROOT
TORSDOF 0
ENDMDL
