MODEL 1
REMARK minimizedAffinity -4.46650267
REMARK minimizedRMSD -1
REMARK  0 active torsions:
REMARK  status: ('A' for Active; 'I' for Inactive)
ROOT
ATOM      1  C2' OXE d   1       0.200  -0.644  -0.476  0.00  0.00     0.078 C 
ATOM      2  C1' OXE d   1      -1.349  -0.345   1.846  0.00  0.00     0.078 C 
ATOM      3  C1  OXE d   1      -1.046   0.892   1.039  0.00  0.00    -0.078 A 
ATOM      4  C2  OXE d   1      -0.248   0.743  -0.070  0.00  0.00    -0.078 A 
ATOM      5  C3  OXE d   1       0.017   1.843  -0.881  0.00  0.00     0.003 A 
ATOM      6  C4  OXE d   1      -0.393   3.125  -0.494  0.00  0.00    -0.002 A 
ATOM      7  C5  OXE d   1      -1.173   3.304   0.654  0.00  0.00    -0.002 A 
ATOM      8  C6  OXE d   1      -1.543   2.195   1.406  0.00  0.00     0.003 A 
ENDROOT
TORSDOF 0
ENDMDL
