MODEL 1
REMARK minimizedAffinity -4.31737089
REMARK minimizedRMSD -1
REMARK  0 active torsions:
REMARK  status: ('A' for Active; 'I' for Inactive)
ROOT
ATOM      1  C2' OXE d   1      -0.893   3.745  -0.889  0.00  0.00     0.078 C 
ATOM      2  C1' OXE d   1      -2.237   2.393   1.171  0.00  0.00     0.078 C 
ATOM      3  C1  OXE d   1      -1.133   1.659   0.451  0.00  0.00    -0.078 A 
ATOM      4  C2  OXE d   1      -0.513   2.312  -0.587  0.00  0.00    -0.078 A 
ATOM      5  C3  OXE d   1       0.549   1.701  -1.249  0.00  0.00     0.003 A 
ATOM      6  C4  OXE d   1       0.888   0.372  -0.969  0.00  0.00    -0.002 A 
ATOM      7  C5  OXE d   1       0.242  -0.325   0.057  0.00  0.00    -0.002 A 
ATOM      8  C6  OXE d   1      -0.740   0.317   0.804  0.00  0.00     0.003 A 
ENDROOT
TORSDOF 0
ENDMDL
