MODEL 1
REMARK minimizedAffinity -5.31874418
REMARK minimizedRMSD -1
REMARK  0 active torsions:
REMARK  status: ('A' for Active; 'I' for Inactive)
ROOT
ATOM      1  C2' OXE d   1      -0.355  -0.417   1.609  0.00  0.00     0.078 C 
ATOM      2  C1' OXE d   1       0.714   0.256  -0.898  0.00  0.00     0.078 C 
ATOM      3  C1  OXE d   1      -0.260   1.219  -0.267  0.00  0.00    -0.078 A 
ATOM      4  C2  OXE d   1      -0.813   0.860   0.938  0.00  0.00    -0.078 A 
ATOM      5  C3  OXE d   1      -1.676   1.737   1.589  0.00  0.00     0.003 A 
ATOM      6  C4  OXE d   1      -2.102   2.912   0.958  0.00  0.00    -0.002 A 
ATOM      7  C5  OXE d   1      -1.581   3.277  -0.288  0.00  0.00    -0.002 A 
ATOM      8  C6  OXE d   1      -0.629   2.465  -0.893  0.00  0.00     0.003 A 
ENDROOT
TORSDOF 0
ENDMDL
