MODEL 1
REMARK minimizedAffinity -2.09996533
REMARK minimizedRMSD -1
REMARK  0 active torsions:
REMARK  status: ('A' for Active; 'I' for Inactive)
ROOT
ATOM      1  C2' OXE d   1       0.884   2.226  -1.495  0.00  0.00     0.078 C 
ATOM      2  C1' OXE d   1      -0.180   3.995   0.408  0.00  0.00     0.078 C 
ATOM      3  C1  OXE d   1      -0.313   2.515   0.670  0.00  0.00    -0.078 A 
ATOM      4  C2  OXE d   1       0.169   1.657  -0.288  0.00  0.00    -0.078 A 
ATOM      5  C3  OXE d   1       0.122   0.283  -0.070  0.00  0.00     0.003 A 
ATOM      6  C4  OXE d   1      -0.550  -0.235   1.043  0.00  0.00    -0.002 A 
ATOM      7  C5  OXE d   1      -1.083   0.621   2.013  0.00  0.00    -0.002 A 
ATOM      8  C6  OXE d   1      -0.936   1.996   1.863  0.00  0.00     0.003 A 
ENDROOT
TORSDOF 0
ENDMDL
