MODEL 1
REMARK minimizedAffinity 4.56185007
REMARK minimizedRMSD -1
REMARK  0 active torsions:
REMARK  status: ('A' for Active; 'I' for Inactive)
ROOT
ATOM      1  C   UNL d   1      -1.846  -4.792  -3.875  0.00  0.00     0.078 C 
ATOM      2  C1  UNL d   1      -3.154  -4.799  -4.608  0.00  0.00    -0.077 A 
ATOM      3  C2  UNL d   1      -3.820  -6.000  -4.884  0.00  0.00    -0.001 A 
ATOM      4  C3  UNL d   1      -5.032  -5.992  -5.576  0.00  0.00     0.003 A 
ATOM      5  C4  UNL d   1      -5.588  -4.787  -6.000  0.00  0.00    -0.005 A 
ATOM      6  C5  UNL d   1      -4.932  -3.587  -5.732  0.00  0.00     0.003 A 
ATOM      7  C6  UNL d   1      -3.720  -3.593  -5.040  0.00  0.00    -0.001 A 
ENDROOT
TORSDOF 0
ENDMDL
