MODEL 1
REMARK minimizedAffinity 10.6836433
REMARK minimizedRMSD -1
REMARK  0 active torsions:
REMARK  status: ('A' for Active; 'I' for Inactive)
ROOT
ATOM      1  C   UNL d   1      -0.026   1.774  -0.800  0.00  0.00     0.078 C 
ATOM      2  C1  UNL d   1      -0.299   3.185  -1.227  0.00  0.00    -0.077 A 
ATOM      3  C2  UNL d   1      -1.598   3.708  -1.198  0.00  0.00    -0.001 A 
ATOM      4  C3  UNL d   1      -1.839   5.020  -1.607  0.00  0.00     0.003 A 
ATOM      5  C4  UNL d   1      -0.787   5.820  -2.050  0.00  0.00    -0.005 A 
ATOM      6  C5  UNL d   1       0.508   5.307  -2.084  0.00  0.00     0.003 A 
ATOM      7  C6  UNL d   1       0.751   3.995  -1.676  0.00  0.00    -0.001 A 
ENDROOT
TORSDOF 0
ENDMDL
