MODEL 1
REMARK minimizedAffinity 11.7132874
REMARK minimizedRMSD -1
REMARK  0 active torsions:
REMARK  status: ('A' for Active; 'I' for Inactive)
ROOT
ATOM      1  C   UNL d   1       0.789  -4.429  -0.271  0.00  0.00     0.078 C 
ATOM      2  C1  UNL d   1       1.546  -4.498  -1.564  0.00  0.00    -0.077 A 
ATOM      3  C2  UNL d   1       0.893  -4.336  -2.792  0.00  0.00    -0.001 A 
ATOM      4  C3  UNL d   1       1.609  -4.411  -3.988  0.00  0.00     0.003 A 
ATOM      5  C4  UNL d   1       2.981  -4.650  -3.968  0.00  0.00    -0.005 A 
ATOM      6  C5  UNL d   1       3.640  -4.815  -2.751  0.00  0.00     0.003 A 
ATOM      7  C6  UNL d   1       2.926  -4.740  -1.554  0.00  0.00    -0.001 A 
ENDROOT
TORSDOF 0
ENDMDL
