MODEL 1
REMARK minimizedAffinity 2.01535511
REMARK minimizedRMSD -1
REMARK  0 active torsions:
REMARK  status: ('A' for Active; 'I' for Inactive)
ROOT
ATOM      1  C   UNL d   1       0.721   2.015   3.073  0.00  0.00     0.078 C 
ATOM      2  C1  UNL d   1      -0.222   2.384   1.967  0.00  0.00    -0.077 A 
ATOM      3  C2  UNL d   1      -1.547   2.744   2.240  0.00  0.00    -0.001 A 
ATOM      4  C3  UNL d   1      -2.417   3.076   1.199  0.00  0.00     0.003 A 
ATOM      5  C4  UNL d   1      -1.971   3.050  -0.121  0.00  0.00    -0.005 A 
ATOM      6  C5  UNL d   1      -0.654   2.691  -0.402  0.00  0.00     0.003 A 
ATOM      7  C6  UNL d   1       0.217   2.359   0.637  0.00  0.00    -0.001 A 
ENDROOT
TORSDOF 0
ENDMDL
