MODEL 1
REMARK minimizedAffinity 3.64067864
REMARK minimizedRMSD -1
REMARK  0 active torsions:
REMARK  status: ('A' for Active; 'I' for Inactive)
ROOT
ATOM      1  C   UNL d   1      -2.820   5.996  -2.276  0.00  0.00     0.078 C 
ATOM      2  C1  UNL d   1      -1.576   5.353  -1.741  0.00  0.00    -0.077 A 
ATOM      3  C2  UNL d   1      -0.337   6.000  -1.822  0.00  0.00    -0.001 A 
ATOM      4  C3  UNL d   1       0.814   5.385  -1.329  0.00  0.00     0.003 A 
ATOM      5  C4  UNL d   1       0.739   4.119  -0.751  0.00  0.00    -0.005 A 
ATOM      6  C5  UNL d   1      -0.490   3.466  -0.667  0.00  0.00     0.003 A 
ATOM      7  C6  UNL d   1      -1.642   4.080  -1.161  0.00  0.00    -0.001 A 
ENDROOT
TORSDOF 0
ENDMDL
