MODEL 1
REMARK minimizedAffinity 5.12350798
REMARK minimizedRMSD -1
REMARK  0 active torsions:
REMARK  status: ('A' for Active; 'I' for Inactive)
ROOT
ATOM      1  C   UNL d   1       1.588   0.910  -0.007  0.00  0.00     0.078 C 
ATOM      2  C1  UNL d   1       0.734   2.126  -0.212  0.00  0.00    -0.077 A 
ATOM      3  C2  UNL d   1      -0.527   2.232   0.388  0.00  0.00    -0.001 A 
ATOM      4  C3  UNL d   1      -1.315   3.365   0.181  0.00  0.00     0.003 A 
ATOM      5  C4  UNL d   1      -0.852   4.400  -0.628  0.00  0.00    -0.005 A 
ATOM      6  C5  UNL d   1       0.400   4.303  -1.232  0.00  0.00     0.003 A 
ATOM      7  C6  UNL d   1       1.190   3.171  -1.026  0.00  0.00    -0.001 A 
ENDROOT
TORSDOF 0
ENDMDL
