MODEL 1
REMARK minimizedAffinity 1.47622979
REMARK minimizedRMSD -1
REMARK  2 active torsions:
REMARK  status: ('A' for Active; 'I' for Inactive)
REMARK    1  A    between atoms: C2'_3  and  C1'_4 
REMARK    2  A    between atoms: C1'_4  and  C1_5 
ROOT
ATOM      1  C1  I4B d   1      -1.038   1.234   1.703  0.00  0.00    -0.075 A 
ATOM      2  C2  I4B d   1      -2.190   0.489   1.737  0.00  0.00     0.003 A 
ATOM      3  C3  I4B d   1      -3.391   1.055   2.230  0.00  0.00     0.002 A 
ATOM      4  C4  I4B d   1      -3.383   2.345   2.720  0.00  0.00    -0.004 A 
ATOM      5  C5  I4B d   1      -2.219   3.107   2.663  0.00  0.00     0.002 A 
ATOM      6  C6  I4B d   1      -1.042   2.553   2.140  0.00  0.00     0.003 A 
ENDROOT
BRANCH   1   7
ATOM      7  C1' I4B d   1       0.220   0.594   1.207  0.00  0.00     0.060 C 
BRANCH   7   8
ATOM      8  C2' I4B d   1       0.176   0.588  -0.307  0.00  0.00    -0.013 C 
ATOM      9  C4' I4B d   1       1.487   1.041  -0.893  0.00  0.00     0.013 C 
ATOM     10  C3' I4B d   1      -0.166  -0.802  -0.755  0.00  0.00     0.013 C 
ENDBRANCH   7   8
ENDBRANCH   1   7
TORSDOF 2
ENDMDL
