MODEL 1
REMARK minimizedAffinity -4.31464863
REMARK minimizedRMSD -1
REMARK  2 active torsions:
REMARK  status: ('A' for Active; 'I' for Inactive)
REMARK    1  A    between atoms: C2'_3  and  C1'_4 
REMARK    2  A    between atoms: C1'_4  and  C1_5 
ROOT
ATOM      1  C1  I4B d   1      -0.577   0.706   0.737  0.00  0.00    -0.075 A 
ATOM      2  C2  I4B d   1      -0.790   0.976  -0.592  0.00  0.00     0.003 A 
ATOM      3  C3  I4B d   1       0.298   1.299  -1.438  0.00  0.00     0.002 A 
ATOM      4  C4  I4B d   1       1.569   1.389  -0.906  0.00  0.00    -0.004 A 
ATOM      5  C5  I4B d   1       1.787   1.092   0.437  0.00  0.00     0.002 A 
ATOM      6  C6  I4B d   1       0.709   0.737   1.261  0.00  0.00     0.003 A 
ENDROOT
BRANCH   1   7
ATOM      7  C1' I4B d   1      -1.753   0.402   1.609  0.00  0.00     0.060 C 
BRANCH   7   8
ATOM      8  C2' I4B d   1      -2.965   1.091   1.015  0.00  0.00    -0.013 C 
ATOM      9  C4' I4B d   1      -4.211   0.268   1.210  0.00  0.00     0.013 C 
ATOM     10  C3' I4B d   1      -3.098   2.436   1.666  0.00  0.00     0.013 C 
ENDBRANCH   7   8
ENDBRANCH   1   7
TORSDOF 2
ENDMDL
