MODEL 1
REMARK minimizedAffinity -0.741091847
REMARK minimizedRMSD -1
REMARK  2 active torsions:
REMARK  status: ('A' for Active; 'I' for Inactive)
REMARK    1  A    between atoms: C2'_3  and  C1'_4 
REMARK    2  A    between atoms: C1'_4  and  C1_5 
ROOT
ATOM      1  C1  I4B d   1      -0.019  -0.974  -0.296  0.00  0.00    -0.075 A 
ATOM      2  C2  I4B d   1      -0.324  -1.411  -1.561  0.00  0.00     0.003 A 
ATOM      3  C3  I4B d   1      -0.353  -2.797  -1.849  0.00  0.00     0.002 A 
ATOM      4  C4  I4B d   1      -0.024  -3.703  -0.861  0.00  0.00    -0.004 A 
ATOM      5  C5  I4B d   1       0.262  -3.260   0.427  0.00  0.00     0.002 A 
ATOM      6  C6  I4B d   1       0.252  -1.887   0.715  0.00  0.00     0.003 A 
ENDROOT
BRANCH   1   7
ATOM      7  C1' I4B d   1       0.034   0.498  -0.035  0.00  0.00     0.060 C 
BRANCH   7   8
ATOM      8  C2' I4B d   1       1.479   0.872   0.229  0.00  0.00    -0.013 C 
ATOM      9  C4' I4B d   1       2.233   1.076  -1.059  0.00  0.00     0.013 C 
ATOM     10  C3' I4B d   1       1.489   2.117   1.065  0.00  0.00     0.013 C 
ENDBRANCH   7   8
ENDBRANCH   1   7
TORSDOF 2
ENDMDL
