MODEL 1
REMARK minimizedAffinity -2.39297485
REMARK minimizedRMSD -1
REMARK  2 active torsions:
REMARK  status: ('A' for Active; 'I' for Inactive)
REMARK    1  A    between atoms: C2'_3  and  C1'_4 
REMARK    2  A    between atoms: C1'_4  and  C1_5 
ROOT
ATOM      1  C1  I4B d   1      -1.450   0.234   1.881  0.00  0.00    -0.075 A 
ATOM      2  C2  I4B d   1      -1.820   1.412   2.480  0.00  0.00     0.003 A 
ATOM      3  C3  I4B d   1      -3.166   1.624   2.864  0.00  0.00     0.002 A 
ATOM      4  C4  I4B d   1      -4.112   0.659   2.587  0.00  0.00    -0.004 A 
ATOM      5  C5  I4B d   1      -3.731  -0.544   2.000  0.00  0.00     0.002 A 
ATOM      6  C6  I4B d   1      -2.389  -0.764   1.656  0.00  0.00     0.003 A 
ENDROOT
BRANCH   1   7
ATOM      7  C1' I4B d   1      -0.026   0.057   1.458  0.00  0.00     0.060 C 
BRANCH   7   8
ATOM      8  C2' I4B d   1       0.027   0.152  -0.053  0.00  0.00    -0.013 C 
ATOM      9  C4' I4B d   1       0.978   1.232  -0.499  0.00  0.00     0.013 C 
ATOM     10  C3' I4B d   1       0.441  -1.187  -0.587  0.00  0.00     0.013 C 
ENDBRANCH   7   8
ENDBRANCH   1   7
TORSDOF 2
ENDMDL
