MODEL 1
REMARK minimizedAffinity -2.76823545
REMARK minimizedRMSD -1
REMARK  2 active torsions:
REMARK  status: ('A' for Active; 'I' for Inactive)
REMARK    1  A    between atoms: C2'_3  and  C1'_4 
REMARK    2  A    between atoms: C1'_4  and  C1_5 
ROOT
ATOM      1  C1  I4B d   1      -0.517   0.198   0.248  0.00  0.00    -0.075 A 
ATOM      2  C2  I4B d   1      -0.730  -0.108   1.569  0.00  0.00     0.003 A 
ATOM      3  C3  I4B d   1      -2.049  -0.265   2.060  0.00  0.00     0.002 A 
ATOM      4  C4  I4B d   1      -3.119  -0.059   1.214  0.00  0.00    -0.004 A 
ATOM      5  C5  I4B d   1      -2.900   0.229  -0.131  0.00  0.00     0.002 A 
ATOM      6  C6  I4B d   1      -1.591   0.346  -0.620  0.00  0.00     0.003 A 
ENDROOT
BRANCH   1   7
ATOM      7  C1' I4B d   1       0.888   0.390  -0.230  0.00  0.00     0.060 C 
BRANCH   7   8
ATOM      8  C2' I4B d   1       1.074  -0.448  -1.479  0.00  0.00    -0.013 C 
ATOM      9  C4' I4B d   1       2.359  -0.099  -2.183  0.00  0.00     0.013 C 
ATOM     10  C3' I4B d   1       1.053  -1.892  -1.075  0.00  0.00     0.013 C 
ENDBRANCH   7   8
ENDBRANCH   1   7
TORSDOF 2
ENDMDL
