MODEL 1
REMARK minimizedAffinity -5.78666735
REMARK minimizedRMSD -1
REMARK  2 active torsions:
REMARK  status: ('A' for Active; 'I' for Inactive)
REMARK    1  A    between atoms: C2'_3  and  C1'_4 
REMARK    2  A    between atoms: C1'_4  and  C1_5 
ROOT
ATOM      1  C1  I4B d   1       0.163  -0.047   0.218  0.00  0.00    -0.075 A 
ATOM      2  C2  I4B d   1       0.775   1.173   0.073  0.00  0.00     0.003 A 
ATOM      3  C3  I4B d   1       1.525   1.460  -1.093  0.00  0.00     0.002 A 
ATOM      4  C4  I4B d   1       1.679   0.487  -2.059  0.00  0.00    -0.004 A 
ATOM      5  C5  I4B d   1       1.039  -0.741  -1.921  0.00  0.00     0.002 A 
ATOM      6  C6  I4B d   1       0.266  -1.006  -0.781  0.00  0.00     0.003 A 
ENDROOT
BRANCH   1   7
ATOM      7  C1' I4B d   1      -0.594  -0.329   1.477  0.00  0.00     0.060 C 
BRANCH   7   8
ATOM      8  C2' I4B d   1      -1.843   0.530   1.472  0.00  0.00    -0.013 C 
ATOM      9  C4' I4B d   1      -3.079  -0.305   1.680  0.00  0.00     0.013 C 
ATOM     10  C3' I4B d   1      -1.699   1.562   2.550  0.00  0.00     0.013 C 
ENDBRANCH   7   8
ENDBRANCH   1   7
TORSDOF 2
ENDMDL
