MODEL 1
REMARK minimizedAffinity -4.49130344
REMARK minimizedRMSD -1
REMARK  2 active torsions:
REMARK  status: ('A' for Active; 'I' for Inactive)
REMARK    1  A    between atoms: C2'_3  and  C1'_4 
REMARK    2  A    between atoms: C1'_4  and  C1_5 
ROOT
ATOM      1  C1  I4B d   1       0.511  -0.922  -1.060  0.00  0.00    -0.075 A 
ATOM      2  C2  I4B d   1       0.980  -2.211  -1.128  0.00  0.00     0.003 A 
ATOM      3  C3  I4B d   1       2.053  -2.534  -1.992  0.00  0.00     0.002 A 
ATOM      4  C4  I4B d   1       2.592  -1.556  -2.803  0.00  0.00    -0.004 A 
ATOM      5  C5  I4B d   1       2.131  -0.245  -2.716  0.00  0.00     0.002 A 
ATOM      6  C6  I4B d   1       1.092   0.077  -1.831  0.00  0.00     0.003 A 
ENDROOT
BRANCH   1   7
ATOM      7  C1' I4B d   1      -0.646  -0.622  -0.161  0.00  0.00     0.060 C 
BRANCH   7   8
ATOM      8  C2' I4B d   1      -0.137   0.223   0.988  0.00  0.00    -0.013 C 
ATOM      9  C4' I4B d   1       0.607   1.433   0.487  0.00  0.00     0.013 C 
ATOM     10  C3' I4B d   1      -1.315   0.621   1.827  0.00  0.00     0.013 C 
ENDBRANCH   7   8
ENDBRANCH   1   7
TORSDOF 2
ENDMDL
