MODEL 1
REMARK minimizedAffinity -2.2856648
REMARK minimizedRMSD -1
REMARK  2 active torsions:
REMARK  status: ('A' for Active; 'I' for Inactive)
REMARK    1  A    between atoms: C2'_3  and  C1'_4 
REMARK    2  A    between atoms: C1'_4  and  C1_5 
ROOT
ATOM      1  C1  I4B d   1      -0.084  -0.715  -0.462  0.00  0.00    -0.075 A 
ATOM      2  C2  I4B d   1      -0.461  -1.416  -1.580  0.00  0.00     0.003 A 
ATOM      3  C3  I4B d   1       0.192  -1.191  -2.817  0.00  0.00     0.002 A 
ATOM      4  C4  I4B d   1       1.175  -0.227  -2.901  0.00  0.00    -0.004 A 
ATOM      5  C5  I4B d   1       1.572   0.467  -1.761  0.00  0.00     0.002 A 
ATOM      6  C6  I4B d   1       0.947   0.213  -0.531  0.00  0.00     0.003 A 
ENDROOT
BRANCH   1   7
ATOM      7  C1' I4B d   1      -0.817  -0.954   0.820  0.00  0.00     0.060 C 
BRANCH   7   8
ATOM      8  C2' I4B d   1      -1.881   0.116   0.955  0.00  0.00    -0.013 C 
ATOM      9  C4' I4B d   1      -3.263  -0.472   0.842  0.00  0.00     0.013 C 
ATOM     10  C3' I4B d   1      -1.688   0.796   2.278  0.00  0.00     0.013 C 
ENDBRANCH   7   8
ENDBRANCH   1   7
TORSDOF 2
ENDMDL
