MODEL 1
REMARK minimizedAffinity -4.7160306
REMARK minimizedRMSD -1
REMARK  2 active torsions:
REMARK  status: ('A' for Active; 'I' for Inactive)
REMARK    1  A    between atoms: C2'_3  and  C1'_4 
REMARK    2  A    between atoms: C1'_4  and  C1_5 
ROOT
ATOM      1  C1  I4B d   1       0.489   0.769  -0.565  0.00  0.00    -0.075 A 
ATOM      2  C2  I4B d   1       1.792   1.196  -0.501  0.00  0.00     0.003 A 
ATOM      3  C3  I4B d   1       2.701   0.867  -1.536  0.00  0.00     0.002 A 
ATOM      4  C4  I4B d   1       2.280   0.074  -2.584  0.00  0.00    -0.004 A 
ATOM      5  C5  I4B d   1       0.953  -0.339  -2.658  0.00  0.00     0.002 A 
ATOM      6  C6  I4B d   1       0.048   0.021  -1.649  0.00  0.00     0.003 A 
ENDROOT
BRANCH   1   7
ATOM      7  C1' I4B d   1      -0.435   1.106   0.562  0.00  0.00     0.060 C 
BRANCH   7   8
ATOM      8  C2' I4B d   1      -1.282  -0.117   0.852  0.00  0.00    -0.013 C 
ATOM      9  C4' I4B d   1      -0.479  -1.184   1.547  0.00  0.00     0.013 C 
ATOM     10  C3' I4B d   1      -2.448   0.317   1.690  0.00  0.00     0.013 C 
ENDBRANCH   7   8
ENDBRANCH   1   7
TORSDOF 2
ENDMDL
