MODEL 1
REMARK minimizedAffinity -2.57292795
REMARK minimizedRMSD -1
REMARK  2 active torsions:
REMARK  status: ('A' for Active; 'I' for Inactive)
REMARK    1  A    between atoms: C2'_3  and  C1'_4 
REMARK    2  A    between atoms: C1'_4  and  C1_5 
ROOT
ATOM      1  C1  I4B d   1      -0.296  -0.260   0.620  0.00  0.00    -0.075 A 
ATOM      2  C2  I4B d   1       0.229   0.975   0.331  0.00  0.00     0.003 A 
ATOM      3  C3  I4B d   1       1.192   1.117  -0.698  0.00  0.00     0.002 A 
ATOM      4  C4  I4B d   1       1.634  -0.002  -1.374  0.00  0.00    -0.004 A 
ATOM      5  C5  I4B d   1       1.084  -1.249  -1.096  0.00  0.00     0.002 A 
ATOM      6  C6  I4B d   1       0.104  -1.378  -0.101  0.00  0.00     0.003 A 
ENDROOT
BRANCH   1   7
ATOM      7  C1' I4B d   1      -1.286  -0.379   1.735  0.00  0.00     0.060 C 
BRANCH   7   8
ATOM      8  C2' I4B d   1      -2.606   0.182   1.248  0.00  0.00    -0.013 C 
ATOM      9  C4' I4B d   1      -3.663  -0.888   1.183  0.00  0.00     0.013 C 
ATOM     10  C3' I4B d   1      -3.010   1.287   2.179  0.00  0.00     0.013 C 
ENDBRANCH   7   8
ENDBRANCH   1   7
TORSDOF 2
ENDMDL
