MODEL 1
REMARK minimizedAffinity -0.964001477
REMARK minimizedRMSD -1
REMARK  2 active torsions:
REMARK  status: ('A' for Active; 'I' for Inactive)
REMARK    1  A    between atoms: C2'_3  and  C1'_4 
REMARK    2  A    between atoms: C1'_4  and  C1_5 
ROOT
ATOM      1  C1  I4B d   1       2.178  -0.290  -1.374  0.00  0.00    -0.075 A 
ATOM      2  C2  I4B d   1       1.104  -0.644  -0.595  0.00  0.00     0.003 A 
ATOM      3  C3  I4B d   1       0.347   0.351   0.069  0.00  0.00     0.002 A 
ATOM      4  C4  I4B d   1       0.726   1.674  -0.031  0.00  0.00    -0.004 A 
ATOM      5  C5  I4B d   1       1.802   2.033  -0.839  0.00  0.00     0.002 A 
ATOM      6  C6  I4B d   1       2.525   1.046  -1.525  0.00  0.00     0.003 A 
ENDROOT
BRANCH   1   7
ATOM      7  C1' I4B d   1       2.975  -1.370  -2.034  0.00  0.00     0.060 C 
BRANCH   7   8
ATOM      8  C2' I4B d   1       3.091  -2.526  -1.062  0.00  0.00    -0.013 C 
ATOM      9  C4' I4B d   1       2.110  -3.619  -1.395  0.00  0.00     0.013 C 
ATOM     10  C3' I4B d   1       4.502  -3.032  -1.111  0.00  0.00     0.013 C 
ENDBRANCH   7   8
ENDBRANCH   1   7
TORSDOF 2
ENDMDL
