MODEL 1
REMARK minimizedAffinity -5.73415565
REMARK minimizedRMSD -1
REMARK  2 active torsions:
REMARK  status: ('A' for Active; 'I' for Inactive)
REMARK    1  A    between atoms: C2'_3  and  C1'_4 
REMARK    2  A    between atoms: C1'_4  and  C1_5 
ROOT
ATOM      1  C1  I4B d   1       0.183   0.021  -0.006  0.00  0.00    -0.075 A 
ATOM      2  C2  I4B d   1       0.513  -1.048  -0.802  0.00  0.00     0.003 A 
ATOM      3  C3  I4B d   1       1.231  -0.846  -2.006  0.00  0.00     0.002 A 
ATOM      4  C4  I4B d   1       1.552   0.437  -2.398  0.00  0.00    -0.004 A 
ATOM      5  C5  I4B d   1       1.237   1.518  -1.579  0.00  0.00     0.002 A 
ATOM      6  C6  I4B d   1       0.559   1.308  -0.369  0.00  0.00     0.003 A 
ENDROOT
BRANCH   1   7
ATOM      7  C1' I4B d   1      -0.604  -0.225   1.241  0.00  0.00     0.060 C 
BRANCH   7   8
ATOM      8  C2' I4B d   1      -1.852   0.633   1.183  0.00  0.00    -0.013 C 
ATOM      9  C4' I4B d   1      -3.012  -0.131   0.601  0.00  0.00     0.013 C 
ATOM     10  C3' I4B d   1      -2.156   1.103   2.574  0.00  0.00     0.013 C 
ENDBRANCH   7   8
ENDBRANCH   1   7
TORSDOF 2
ENDMDL
