MODEL 1
REMARK minimizedAffinity -3.76422668
REMARK minimizedRMSD -1
REMARK  2 active torsions:
REMARK  status: ('A' for Active; 'I' for Inactive)
REMARK    1  A    between atoms: C2'_3  and  C1'_4 
REMARK    2  A    between atoms: C1'_4  and  C1_5 
ROOT
ATOM      1  C1  I4B d   1       0.399   0.251  -0.826  0.00  0.00    -0.075 A 
ATOM      2  C2  I4B d   1       0.047   0.483   0.480  0.00  0.00     0.003 A 
ATOM      3  C3  I4B d   1      -0.365  -0.589   1.309  0.00  0.00     0.002 A 
ATOM      4  C4  I4B d   1      -0.460  -1.859   0.779  0.00  0.00    -0.004 A 
ATOM      5  C5  I4B d   1      -0.081  -2.097  -0.539  0.00  0.00     0.002 A 
ATOM      6  C6  I4B d   1       0.363  -1.037  -1.344  0.00  0.00     0.003 A 
ENDROOT
BRANCH   1   7
ATOM      7  C1' I4B d   1       0.798   1.411  -1.682  0.00  0.00     0.060 C 
BRANCH   7   8
ATOM      8  C2' I4B d   1       2.091   1.050  -2.384  0.00  0.00    -0.013 C 
ATOM      9  C4' I4B d   1       3.149   0.632  -1.397  0.00  0.00     0.013 C 
ATOM     10  C3' I4B d   1       1.796  -0.050  -3.360  0.00  0.00     0.013 C 
ENDBRANCH   7   8
ENDBRANCH   1   7
TORSDOF 2
ENDMDL
