MODEL 1
REMARK minimizedAffinity -2.61193943
REMARK minimizedRMSD -1
REMARK  0 active torsions:
REMARK  status: ('A' for Active; 'I' for Inactive)
ROOT
ATOM      1  O1  BZF d   1       1.260  -0.315   0.770  0.00  0.00    -0.204 OA
ATOM      2  C2  BZF d   1       1.296  -0.838  -0.509  0.00  0.00     0.174 A 
ATOM      3  C3  BZF d   1       0.090  -0.730  -1.103  0.00  0.00    -0.012 A 
ATOM      4  C3A BZF d   1      -0.727  -0.018  -0.170  0.00  0.00    -0.107 A 
ATOM      5  C4  BZF d   1      -2.024   0.410  -0.192  0.00  0.00     0.055 A 
ATOM      6  C5  BZF d   1      -2.540   1.014   0.910  0.00  0.00    -0.016 A 
ATOM      7  C6  BZF d   1      -1.790   1.201   2.053  0.00  0.00     0.022 A 
ATOM      8  C7  BZF d   1      -0.498   0.798   2.122  0.00  0.00     0.029 A 
ATOM      9  C7A BZF d   1       0.036   0.217   0.997  0.00  0.00     0.058 A 
ENDROOT
TORSDOF 0
ENDMDL
