MODEL 1
REMARK minimizedAffinity -2.42077279
REMARK minimizedRMSD -1
REMARK  0 active torsions:
REMARK  status: ('A' for Active; 'I' for Inactive)
ROOT
ATOM      1  O1  BZF d   1       0.776   0.643  -0.927  0.00  0.00    -0.204 OA
ATOM      2  C2  BZF d   1       0.110  -0.281  -0.145  0.00  0.00     0.174 A 
ATOM      3  C3  BZF d   1      -0.490  -1.214  -0.911  0.00  0.00    -0.012 A 
ATOM      4  C3A BZF d   1      -0.101  -0.905  -2.253  0.00  0.00    -0.107 A 
ATOM      5  C4  BZF d   1      -0.365  -1.480  -3.463  0.00  0.00     0.055 A 
ATOM      6  C5  BZF d   1       0.107  -0.889  -4.593  0.00  0.00    -0.016 A 
ATOM      7  C6  BZF d   1       0.840   0.279  -4.549  0.00  0.00     0.022 A 
ATOM      8  C7  BZF d   1       1.131   0.884  -3.372  0.00  0.00     0.029 A 
ATOM      9  C7A BZF d   1       0.683   0.271  -2.227  0.00  0.00     0.058 A 
ENDROOT
TORSDOF 0
ENDMDL
