MODEL 1
REMARK minimizedAffinity -4.19115639
REMARK minimizedRMSD -1
REMARK  0 active torsions:
REMARK  status: ('A' for Active; 'I' for Inactive)
ROOT
ATOM      1  O1  BZF d   1       1.321   0.925  -0.828  0.00  0.00    -0.204 OA
ATOM      2  C2  BZF d   1       1.044   0.036  -1.849  0.00  0.00     0.174 A 
ATOM      3  C3  BZF d   1      -0.085  -0.653  -1.590  0.00  0.00    -0.012 A 
ATOM      4  C3A BZF d   1      -0.594  -0.099  -0.373  0.00  0.00    -0.107 A 
ATOM      5  C4  BZF d   1      -1.700  -0.356   0.385  0.00  0.00     0.055 A 
ATOM      6  C5  BZF d   1      -1.868   0.313   1.556  0.00  0.00    -0.016 A 
ATOM      7  C6  BZF d   1      -0.948   1.239   2.002  0.00  0.00     0.022 A 
ATOM      8  C7  BZF d   1       0.163   1.531   1.282  0.00  0.00     0.029 A 
ATOM      9  C7A BZF d   1       0.318   0.881   0.082  0.00  0.00     0.058 A 
ENDROOT
TORSDOF 0
ENDMDL
