MODEL 1
REMARK minimizedAffinity -3.3361392
REMARK minimizedRMSD -1
REMARK  0 active torsions:
REMARK  status: ('A' for Active; 'I' for Inactive)
ROOT
ATOM      1  O1  BZF d   1       0.427   0.873   2.093  0.00  0.00    -0.204 OA
ATOM      2  C2  BZF d   1      -0.749   1.097   2.783  0.00  0.00     0.174 A 
ATOM      3  C3  BZF d   1      -1.816   0.741   2.039  0.00  0.00    -0.012 A 
ATOM      4  C3A BZF d   1      -1.269   0.179   0.842  0.00  0.00    -0.107 A 
ATOM      5  C4  BZF d   1      -1.826  -0.369  -0.278  0.00  0.00     0.055 A 
ATOM      6  C5  BZF d   1      -1.015  -0.758  -1.297  0.00  0.00    -0.016 A 
ATOM      7  C6  BZF d   1       0.354  -0.610  -1.231  0.00  0.00     0.022 A 
ATOM      8  C7  BZF d   1       0.954  -0.077  -0.139  0.00  0.00     0.029 A 
ATOM      9  C7A BZF d   1       0.139   0.287   0.906  0.00  0.00     0.058 A 
ENDROOT
TORSDOF 0
ENDMDL
