MODEL 1
REMARK minimizedAffinity -3.16044617
REMARK minimizedRMSD -1
REMARK  0 active torsions:
REMARK  status: ('A' for Active; 'I' for Inactive)
ROOT
ATOM      1  O1  BZF d   1      -0.481  -0.785  -1.082  0.00  0.00    -0.204 OA
ATOM      2  C2  BZF d   1       0.898  -0.749  -1.170  0.00  0.00     0.174 A 
ATOM      3  C3  BZF d   1       1.425  -0.058  -0.139  0.00  0.00    -0.012 A 
ATOM      4  C3A BZF d   1       0.312   0.285   0.692  0.00  0.00    -0.107 A 
ATOM      5  C4  BZF d   1       0.196   0.959   1.874  0.00  0.00     0.055 A 
ATOM      6  C5  BZF d   1      -1.042   1.187   2.386  0.00  0.00    -0.016 A 
ATOM      7  C6  BZF d   1      -2.184   0.760   1.740  0.00  0.00     0.022 A 
ATOM      8  C7  BZF d   1      -2.119   0.083   0.568  0.00  0.00     0.029 A 
ATOM      9  C7A BZF d   1      -0.868  -0.178   0.065  0.00  0.00     0.058 A 
ENDROOT
TORSDOF 0
ENDMDL
