MODEL 1
REMARK minimizedAffinity -2.04734921
REMARK minimizedRMSD -1
REMARK  0 active torsions:
REMARK  status: ('A' for Active; 'I' for Inactive)
ROOT
ATOM      1  O1  BZF d   1       1.546   0.027   0.087  0.00  0.00    -0.204 OA
ATOM      2  C2  BZF d   1       1.481  -0.639  -1.121  0.00  0.00     0.174 A 
ATOM      3  C3  BZF d   1       0.200  -0.894  -1.459  0.00  0.00    -0.012 A 
ATOM      4  C3A BZF d   1      -0.589  -0.271  -0.440  0.00  0.00    -0.107 A 
ATOM      5  C4  BZF d   1      -1.933  -0.161  -0.230  0.00  0.00     0.055 A 
ATOM      6  C5  BZF d   1      -2.377   0.449   0.901  0.00  0.00    -0.016 A 
ATOM      7  C6  BZF d   1      -1.506   0.955   1.843  0.00  0.00     0.022 A 
ATOM      8  C7  BZF d   1      -0.163   0.875   1.675  0.00  0.00     0.029 A 
ATOM      9  C7A BZF d   1       0.288   0.288   0.518  0.00  0.00     0.058 A 
ENDROOT
TORSDOF 0
ENDMDL
