MODEL 1
REMARK minimizedAffinity -5.25380707
REMARK minimizedRMSD -1
REMARK  0 active torsions:
REMARK  status: ('A' for Active; 'I' for Inactive)
ROOT
ATOM      1  O1  BZF d   1       1.172  -0.671  -0.140  0.00  0.00    -0.204 OA
ATOM      2  C2  BZF d   1       0.386  -1.016  -1.223  0.00  0.00     0.174 A 
ATOM      3  C3  BZF d   1      -0.860  -0.519  -1.087  0.00  0.00    -0.012 A 
ATOM      4  C3A BZF d   1      -0.827   0.258   0.114  0.00  0.00    -0.107 A 
ATOM      5  C4  BZF d   1      -1.757   1.012   0.771  0.00  0.00     0.055 A 
ATOM      6  C5  BZF d   1      -1.425   1.584   1.958  0.00  0.00    -0.016 A 
ATOM      7  C6  BZF d   1      -0.176   1.419   2.519  0.00  0.00     0.022 A 
ATOM      8  C7  BZF d   1       0.782   0.684   1.902  0.00  0.00     0.029 A 
ATOM      9  C7A BZF d   1       0.460   0.132   0.687  0.00  0.00     0.058 A 
ENDROOT
TORSDOF 0
ENDMDL
