MODEL 1
REMARK minimizedAffinity -4.79460144
REMARK minimizedRMSD -1
REMARK  0 active torsions:
REMARK  status: ('A' for Active; 'I' for Inactive)
ROOT
ATOM      1  O1  BZF d   1      -0.950  -1.175   0.299  0.00  0.00    -0.204 OA
ATOM      2  C2  BZF d   1      -0.016  -1.135  -0.718  0.00  0.00     0.174 A 
ATOM      3  C3  BZF d   1       0.724  -0.010  -0.643  0.00  0.00    -0.012 A 
ATOM      4  C3A BZF d   1       0.283   0.652   0.546  0.00  0.00    -0.107 A 
ATOM      5  C4  BZF d   1       0.652   1.811   1.167  0.00  0.00     0.055 A 
ATOM      6  C5  BZF d   1      -0.027   2.212   2.274  0.00  0.00    -0.016 A 
ATOM      7  C6  BZF d   1      -1.081   1.483   2.783  0.00  0.00     0.022 A 
ATOM      8  C7  BZF d   1      -1.480   0.324   2.205  0.00  0.00     0.029 A 
ATOM      9  C7A BZF d   1      -0.774  -0.101   1.105  0.00  0.00     0.058 A 
ENDROOT
TORSDOF 0
ENDMDL
