MODEL 1
REMARK minimizedAffinity -4.10713625
REMARK minimizedRMSD -1
REMARK  0 active torsions:
REMARK  status: ('A' for Active; 'I' for Inactive)
ROOT
ATOM      1  O1  BZF d   1      -1.012  -0.674  -0.746  0.00  0.00    -0.204 OA
ATOM      2  C2  BZF d   1       0.256  -0.745  -1.289  0.00  0.00     0.174 A 
ATOM      3  C3  BZF d   1       1.129  -0.018  -0.562  0.00  0.00    -0.012 A 
ATOM      4  C3A BZF d   1       0.377   0.466   0.554  0.00  0.00    -0.107 A 
ATOM      5  C4  BZF d   1       0.694   1.234   1.638  0.00  0.00     0.055 A 
ATOM      6  C5  BZF d   1      -0.289   1.589   2.507  0.00  0.00    -0.016 A 
ATOM      7  C6  BZF d   1      -1.599   1.198   2.320  0.00  0.00     0.022 A 
ATOM      8  C7  BZF d   1      -1.961   0.432   1.263  0.00  0.00     0.029 A 
ATOM      9  C7A BZF d   1      -0.964   0.044   0.401  0.00  0.00     0.058 A 
ENDROOT
TORSDOF 0
ENDMDL
