MODEL 1
REMARK minimizedAffinity 7.3876214
REMARK minimizedRMSD -1
REMARK  0 active torsions:
REMARK  status: ('A' for Active; 'I' for Inactive)
ROOT
ATOM      1  O1  BZF d   1      -4.090   5.959  -2.000  0.00  0.00    -0.204 OA
ATOM      2  C2  BZF d   1      -4.016   5.955  -0.620  0.00  0.00     0.174 A 
ATOM      3  C3  BZF d   1      -2.731   5.912  -0.211  0.00  0.00    -0.012 A 
ATOM      4  C3A BZF d   1      -1.952   5.982  -1.409  0.00  0.00    -0.107 A 
ATOM      5  C4  BZF d   1      -0.609   5.997  -1.655  0.00  0.00     0.055 A 
ATOM      6  C5  BZF d   1      -0.174   5.997  -2.943  0.00  0.00    -0.016 A 
ATOM      7  C6  BZF d   1      -1.052   5.976  -4.006  0.00  0.00     0.022 A 
ATOM      8  C7  BZF d   1      -2.394   5.966  -3.811  0.00  0.00     0.029 A 
ATOM      9  C7A BZF d   1      -2.837   6.000  -2.512  0.00  0.00     0.058 A 
ENDROOT
TORSDOF 0
ENDMDL
