MODEL 1
REMARK minimizedAffinity 3.68689942
REMARK minimizedRMSD -1
REMARK  0 active torsions:
REMARK  status: ('A' for Active; 'I' for Inactive)
ROOT
ATOM      1  O1  BZF d   1      -0.458   5.699  -6.000  0.00  0.00    -0.204 OA
ATOM      2  C2  BZF d   1       0.898   5.437  -5.950  0.00  0.00     0.174 A 
ATOM      3  C3  BZF d   1       1.326   5.371  -4.673  0.00  0.00    -0.012 A 
ATOM      4  C3A BZF d   1       0.148   5.515  -3.873  0.00  0.00    -0.107 A 
ATOM      5  C4  BZF d   1      -0.078   5.517  -2.527  0.00  0.00     0.055 A 
ATOM      6  C5  BZF d   1      -1.335   5.754  -2.068  0.00  0.00    -0.016 A 
ATOM      7  C6  BZF d   1      -2.387   5.997  -2.927  0.00  0.00     0.022 A 
ATOM      8  C7  BZF d   1      -2.213   6.000  -4.271  0.00  0.00     0.029 A 
ATOM      9  C7A BZF d   1      -0.950   5.728  -4.738  0.00  0.00     0.058 A 
ENDROOT
TORSDOF 0
ENDMDL
