MODEL 1
REMARK minimizedAffinity 0.818177044
REMARK minimizedRMSD -1
REMARK  0 active torsions:
REMARK  status: ('A' for Active; 'I' for Inactive)
ROOT
ATOM      1  O1  BZF d   1       2.144   4.018  -4.995  0.00  0.00    -0.204 OA
ATOM      2  C2  BZF d   1       1.578   5.039  -5.733  0.00  0.00     0.174 A 
ATOM      3  C3  BZF d   1       2.487   5.999  -5.999  0.00  0.00    -0.012 A 
ATOM      4  C3A BZF d   1       3.721   5.505  -5.468  0.00  0.00    -0.107 A 
ATOM      5  C4  BZF d   1       4.993   6.000  -5.435  0.00  0.00     0.055 A 
ATOM      6  C5  BZF d   1       5.956   5.303  -4.775  0.00  0.00    -0.016 A 
ATOM      7  C6  BZF d   1       5.680   4.113  -4.134  0.00  0.00     0.022 A 
ATOM      8  C7  BZF d   1       4.434   3.581  -4.143  0.00  0.00     0.029 A 
ATOM      9  C7A BZF d   1       3.467   4.266  -4.837  0.00  0.00     0.058 A 
ENDROOT
TORSDOF 0
ENDMDL
