MODEL 1
REMARK minimizedAffinity 1.6395483
REMARK minimizedRMSD -1
REMARK  0 active torsions:
REMARK  status: ('A' for Active; 'I' for Inactive)
ROOT
ATOM      1  O1  BZF d   1       0.348   5.969  -3.034  0.00  0.00    -0.204 OA
ATOM      2  C2  BZF d   1       0.564   5.980  -4.399  0.00  0.00     0.174 A 
ATOM      3  C3  BZF d   1      -0.606   5.939  -5.069  0.00  0.00    -0.012 A 
ATOM      4  C3A BZF d   1      -1.619   5.992  -4.060  0.00  0.00    -0.107 A 
ATOM      5  C4  BZF d   1      -2.984   6.000  -4.100  0.00  0.00     0.055 A 
ATOM      6  C5  BZF d   1      -3.679   5.983  -2.932  0.00  0.00    -0.016 A 
ATOM      7  C6  BZF d   1      -3.042   5.954  -1.708  0.00  0.00     0.022 A 
ATOM      8  C7  BZF d   1      -1.690   5.950  -1.618  0.00  0.00     0.029 A 
ATOM      9  C7A BZF d   1      -0.985   6.000  -2.796  0.00  0.00     0.058 A 
ENDROOT
TORSDOF 0
ENDMDL
