MODEL 1
REMARK minimizedAffinity 1.39655054
REMARK minimizedRMSD -1
REMARK  0 active torsions:
REMARK  status: ('A' for Active; 'I' for Inactive)
ROOT
ATOM      1  O1  BZF d   1       4.192   2.750  -3.623  0.00  0.00    -0.204 OA
ATOM      2  C2  BZF d   1       5.289   1.993  -3.987  0.00  0.00     0.174 A 
ATOM      3  C3  BZF d   1       5.993   2.607  -4.960  0.00  0.00    -0.012 A 
ATOM      4  C3A BZF d   1       5.345   3.867  -5.156  0.00  0.00    -0.107 A 
ATOM      5  C4  BZF d   1       5.587   4.930  -5.978  0.00  0.00     0.055 A 
ATOM      6  C5  BZF d   1       4.722   5.977  -5.976  0.00  0.00    -0.016 A 
ATOM      7  C6  BZF d   1       3.603   5.994  -5.169  0.00  0.00     0.022 A 
ATOM      8  C7  BZF d   1       3.324   4.965  -4.333  0.00  0.00     0.029 A 
ATOM      9  C7A BZF d   1       4.214   3.919  -4.309  0.00  0.00     0.058 A 
ENDROOT
TORSDOF 0
ENDMDL
