MODEL 1
REMARK minimizedAffinity 1.83536613
REMARK minimizedRMSD -1
REMARK  0 active torsions:
REMARK  status: ('A' for Active; 'I' for Inactive)
ROOT
ATOM      1  O1  BZF d   1       0.649   1.623   1.972  0.00  0.00    -0.204 OA
ATOM      2  C2  BZF d   1       0.199   0.320   2.071  0.00  0.00     0.174 A 
ATOM      3  C3  BZF d   1       0.286  -0.308   0.881  0.00  0.00    -0.012 A 
ATOM      4  C3A BZF d   1       0.910   0.633   0.003  0.00  0.00    -0.107 A 
ATOM      5  C4  BZF d   1       1.281   0.589  -1.311  0.00  0.00     0.055 A 
ATOM      6  C5  BZF d   1       1.801   1.704  -1.888  0.00  0.00    -0.016 A 
ATOM      7  C6  BZF d   1       1.958   2.880  -1.185  0.00  0.00     0.022 A 
ATOM      8  C7  BZF d   1       1.609   2.971   0.122  0.00  0.00     0.029 A 
ATOM      9  C7A BZF d   1       1.115   1.836   0.717  0.00  0.00     0.058 A 
ENDROOT
TORSDOF 0
ENDMDL
