MODEL 1
REMARK minimizedAffinity 0.674279153
REMARK minimizedRMSD -1
REMARK  0 active torsions:
REMARK  status: ('A' for Active; 'I' for Inactive)
ROOT
ATOM      1  O1  BZF d   1      -2.719   5.955  -1.027  0.00  0.00    -0.204 OA
ATOM      2  C2  BZF d   1      -4.100   5.944  -0.985  0.00  0.00     0.174 A 
ATOM      3  C3  BZF d   1      -4.617   5.997  -2.229  0.00  0.00    -0.012 A 
ATOM      4  C3A BZF d   1      -3.488   5.951  -3.108  0.00  0.00    -0.107 A 
ATOM      5  C4  BZF d   1      -3.356   5.956  -4.467  0.00  0.00     0.055 A 
ATOM      6  C5  BZF d   1      -2.110   5.976  -5.009  0.00  0.00    -0.016 A 
ATOM      7  C6  BZF d   1      -0.976   5.998  -4.223  0.00  0.00     0.022 A 
ATOM      8  C7  BZF d   1      -1.057   5.990  -2.870  0.00  0.00     0.029 A 
ATOM      9  C7A BZF d   1      -2.314   5.935  -2.319  0.00  0.00     0.058 A 
ENDROOT
TORSDOF 0
ENDMDL
