MODEL 1
REMARK minimizedAffinity 3.25493813
REMARK minimizedRMSD -1
REMARK  0 active torsions:
REMARK  status: ('A' for Active; 'I' for Inactive)
ROOT
ATOM      1  O1  BZF d   1      -1.364   5.984  -5.200  0.00  0.00    -0.204 OA
ATOM      2  C2  BZF d   1      -0.024   5.964  -4.864  0.00  0.00     0.174 A 
ATOM      3  C3  BZF d   1       0.134   5.992  -3.525  0.00  0.00    -0.012 A 
ATOM      4  C3A BZF d   1      -1.191   5.939  -2.988  0.00  0.00    -0.107 A 
ATOM      5  C4  BZF d   1      -1.689   5.921  -1.717  0.00  0.00     0.055 A 
ATOM      6  C5  BZF d   1      -3.035   5.941  -1.535  0.00  0.00    -0.016 A 
ATOM      7  C6  BZF d   1      -3.912   5.984  -2.599  0.00  0.00     0.022 A 
ATOM      8  C7  BZF d   1      -3.465   5.998  -3.879  0.00  0.00     0.029 A 
ATOM      9  C7A BZF d   1      -2.105   5.945  -4.067  0.00  0.00     0.058 A 
ENDROOT
TORSDOF 0
ENDMDL
