MODEL 1
REMARK minimizedAffinity 4.18444443
REMARK minimizedRMSD -1
REMARK  0 active torsions:
REMARK  status: ('A' for Active; 'I' for Inactive)
ROOT
ATOM      1  O1  BZF d   1      -3.973   6.000  -1.908  0.00  0.00    -0.204 OA
ATOM      2  C2  BZF d   1      -3.896   5.999  -0.529  0.00  0.00     0.174 A 
ATOM      3  C3  BZF d   1      -2.614   5.908  -0.122  0.00  0.00    -0.012 A 
ATOM      4  C3A BZF d   1      -1.835   5.940  -1.321  0.00  0.00    -0.107 A 
ATOM      5  C4  BZF d   1      -0.492   5.899  -1.570  0.00  0.00     0.055 A 
ATOM      6  C5  BZF d   1      -0.060   5.875  -2.859  0.00  0.00    -0.016 A 
ATOM      7  C6  BZF d   1      -0.941   5.885  -3.920  0.00  0.00     0.022 A 
ATOM      8  C7  BZF d   1      -2.281   5.930  -3.723  0.00  0.00     0.029 A 
ATOM      9  C7A BZF d   1      -2.720   5.988  -2.423  0.00  0.00     0.058 A 
ENDROOT
TORSDOF 0
ENDMDL
