MODEL 1
REMARK minimizedAffinity -2.72813749
REMARK minimizedRMSD -1
REMARK  0 active torsions:
REMARK  status: ('A' for Active; 'I' for Inactive)
ROOT
ATOM      1  O1  BZF d   1      -1.929   5.307  -4.211  0.00  0.00    -0.204 OA
ATOM      2  C2  BZF d   1      -1.976   5.482  -2.842  0.00  0.00     0.174 A 
ATOM      3  C3  BZF d   1      -0.743   5.716  -2.348  0.00  0.00    -0.012 A 
ATOM      4  C3A BZF d   1       0.115   5.778  -3.491  0.00  0.00    -0.107 A 
ATOM      5  C4  BZF d   1       1.453   6.000  -3.649  0.00  0.00     0.055 A 
ATOM      6  C5  BZF d   1       1.993   5.922  -4.894  0.00  0.00    -0.016 A 
ATOM      7  C6  BZF d   1       1.226   5.619  -6.000  0.00  0.00     0.022 A 
ATOM      8  C7  BZF d   1      -0.106   5.396  -5.893  0.00  0.00     0.029 A 
ATOM      9  C7A BZF d   1      -0.660   5.507  -4.641  0.00  0.00     0.058 A 
ENDROOT
TORSDOF 0
ENDMDL
