MODEL 1
REMARK minimizedAffinity 10.0086012
REMARK minimizedRMSD -1
REMARK  0 active torsions:
REMARK  status: ('A' for Active; 'I' for Inactive)
ROOT
ATOM      1  O1  BZF d   1      -2.877   1.325   3.027  0.00  0.00    -0.204 OA
ATOM      2  C2  BZF d   1      -2.049   1.231   4.129  0.00  0.00     0.174 A 
ATOM      3  C3  BZF d   1      -0.854   0.708   3.786  0.00  0.00    -0.012 A 
ATOM      4  C3A BZF d   1      -0.908   0.545   2.365  0.00  0.00    -0.107 A 
ATOM      5  C4  BZF d   1      -0.018   0.084   1.438  0.00  0.00     0.055 A 
ATOM      6  C5  BZF d   1      -0.407  -0.014   0.140  0.00  0.00    -0.016 A 
ATOM      7  C6  BZF d   1      -1.679   0.334  -0.265  0.00  0.00     0.022 A 
ATOM      8  C7  BZF d   1      -2.596   0.801   0.617  0.00  0.00     0.029 A 
ATOM      9  C7A BZF d   1      -2.195   0.933   1.924  0.00  0.00     0.058 A 
ENDROOT
TORSDOF 0
ENDMDL
