MODEL 1
REMARK minimizedAffinity 6.00843668
REMARK minimizedRMSD -1
REMARK  0 active torsions:
REMARK  status: ('A' for Active; 'I' for Inactive)
ROOT
ATOM      1  O1  BZF d   1      -4.500   5.953  -1.027  0.00  0.00    -0.204 OA
ATOM      2  C2  BZF d   1      -4.135   5.945   0.305  0.00  0.00     0.174 A 
ATOM      3  C3  BZF d   1      -2.793   5.903   0.433  0.00  0.00    -0.012 A 
ATOM      4  C3A BZF d   1      -2.285   5.977  -0.903  0.00  0.00    -0.107 A 
ATOM      5  C4  BZF d   1      -1.025   5.994  -1.429  0.00  0.00     0.055 A 
ATOM      6  C5  BZF d   1      -0.873   5.997  -2.779  0.00  0.00    -0.016 A 
ATOM      7  C6  BZF d   1      -1.957   5.979  -3.632  0.00  0.00     0.022 A 
ATOM      8  C7  BZF d   1      -3.227   5.967  -3.157  0.00  0.00     0.029 A 
ATOM      9  C7A BZF d   1      -3.384   5.997  -1.793  0.00  0.00     0.058 A 
ENDROOT
TORSDOF 0
ENDMDL
