MODEL 1
REMARK minimizedAffinity 3.39979529
REMARK minimizedRMSD -1
REMARK  0 active torsions:
REMARK  status: ('A' for Active; 'I' for Inactive)
ROOT
ATOM      1  O1  BZF d   1      -1.058   5.938  -4.136  0.00  0.00    -0.204 OA
ATOM      2  C2  BZF d   1      -1.047   5.996  -2.756  0.00  0.00     0.174 A 
ATOM      3  C3  BZF d   1       0.217   5.975  -2.286  0.00  0.00    -0.012 A 
ATOM      4  C3A BZF d   1       1.051   5.993  -3.449  0.00  0.00    -0.107 A 
ATOM      5  C4  BZF d   1       2.404   6.000  -3.634  0.00  0.00     0.055 A 
ATOM      6  C5  BZF d   1       2.897   5.943  -4.899  0.00  0.00    -0.016 A 
ATOM      7  C6  BZF d   1       2.069   5.873  -6.000  0.00  0.00     0.022 A 
ATOM      8  C7  BZF d   1       0.720   5.868  -5.866  0.00  0.00     0.029 A 
ATOM      9  C7A BZF d   1       0.218   5.959  -4.591  0.00  0.00     0.058 A 
ENDROOT
TORSDOF 0
ENDMDL
