MODEL 1
REMARK minimizedAffinity 1.82859087
REMARK minimizedRMSD -1
REMARK  0 active torsions:
REMARK  status: ('A' for Active; 'I' for Inactive)
ROOT
ATOM      1  O1  BZF d   1      -3.994   5.941  -1.963  0.00  0.00    -0.204 OA
ATOM      2  C2  BZF d   1      -4.903   5.935  -3.003  0.00  0.00     0.174 A 
ATOM      3  C3  BZF d   1      -4.270   5.998  -4.192  0.00  0.00    -0.012 A 
ATOM      4  C3A BZF d   1      -2.875   5.953  -3.879  0.00  0.00    -0.107 A 
ATOM      5  C4  BZF d   1      -1.741   5.965  -4.640  0.00  0.00     0.055 A 
ATOM      6  C5  BZF d   1      -0.531   5.984  -4.021  0.00  0.00    -0.016 A 
ATOM      7  C6  BZF d   1      -0.418   5.997  -2.647  0.00  0.00     0.022 A 
ATOM      8  C7  BZF d   1      -1.515   5.981  -1.850  0.00  0.00     0.029 A 
ATOM      9  C7A BZF d   1      -2.738   5.928  -2.472  0.00  0.00     0.058 A 
ENDROOT
TORSDOF 0
ENDMDL
