MODEL 1
REMARK minimizedAffinity 6.58987999
REMARK minimizedRMSD -1
REMARK  0 active torsions:
REMARK  status: ('A' for Active; 'I' for Inactive)
ROOT
ATOM      1  O1  BZF d   1       5.248   4.325  -4.839  0.00  0.00    -0.204 OA
ATOM      2  C2  BZF d   1       5.192   3.021  -4.387  0.00  0.00     0.174 A 
ATOM      3  C3  BZF d   1       3.925   2.559  -4.413  0.00  0.00    -0.012 A 
ATOM      4  C3A BZF d   1       3.153   3.612  -4.999  0.00  0.00    -0.107 A 
ATOM      5  C4  BZF d   1       1.829   3.746  -5.305  0.00  0.00     0.055 A 
ATOM      6  C5  BZF d   1       1.383   4.930  -5.802  0.00  0.00    -0.016 A 
ATOM      7  C6  BZF d   1       2.230   6.000  -6.000  0.00  0.00     0.022 A 
ATOM      8  C7  BZF d   1       3.553   5.913  -5.715  0.00  0.00     0.029 A 
ATOM      9  C7A BZF d   1       4.013   4.707  -5.244  0.00  0.00     0.058 A 
ENDROOT
TORSDOF 0
ENDMDL
