MODEL 1
REMARK minimizedAffinity -0.277851313
REMARK minimizedRMSD -1
REMARK  1 active torsions:
REMARK  status: ('A' for Active; 'I' for Inactive)
REMARK    1  A    between atoms: C1_2  and  C2_3 
ROOT
ATOM      1  C2  UNL d   1       1.061   0.633   0.244  0.00  0.00    -0.076 A 
ATOM      2  C3  UNL d   1       0.224   1.276  -0.685  0.00  0.00     0.004 A 
ATOM      3  C4  UNL d   1      -0.986   0.704  -1.076  0.00  0.00    -0.003 A 
ATOM      4  C5  UNL d   1      -1.379  -0.519  -0.544  0.00  0.00     0.000 A 
ATOM      5  C6  UNL d   1      -0.569  -1.162   0.392  0.00  0.00     0.000 A 
ATOM      6  C7  UNL d   1       0.646  -0.592   0.809  0.00  0.00    -0.073 A 
ATOM      7  C8  UNL d   1       1.482  -1.332   1.816  0.00  0.00     0.078 C 
ENDROOT
BRANCH   1   8
ATOM      8  C1  UNL d   1       2.374   1.287   0.610  0.00  0.00     0.053 C 
ATOM      9  C   UNL d   1       2.214   2.359   1.676  0.00  0.00     0.018 C 
ENDBRANCH   1   8
TORSDOF 1
ENDMDL
