MODEL 1
REMARK minimizedAffinity -1.48893595
REMARK minimizedRMSD -1
REMARK  1 active torsions:
REMARK  status: ('A' for Active; 'I' for Inactive)
REMARK    1  A    between atoms: C1_2  and  C2_3 
ROOT
ATOM      1  C2  UNL d   1       0.128  -0.077  -0.071  0.00  0.00    -0.076 A 
ATOM      2  C3  UNL d   1      -0.258   0.699  -1.178  0.00  0.00     0.004 A 
ATOM      3  C4  UNL d   1      -1.543   0.603  -1.709  0.00  0.00    -0.003 A 
ATOM      4  C5  UNL d   1      -2.464  -0.270  -1.141  0.00  0.00     0.000 A 
ATOM      5  C6  UNL d   1      -2.104  -1.034  -0.031  0.00  0.00     0.000 A 
ATOM      6  C7  UNL d   1      -0.818  -0.937   0.526  0.00  0.00    -0.073 A 
ATOM      7  C8  UNL d   1      -0.482  -1.789   1.720  0.00  0.00     0.078 C 
ENDROOT
BRANCH   1   8
ATOM      8  C1  UNL d   1       1.544   0.050   0.444  0.00  0.00     0.053 C 
ATOM      9  C   UNL d   1       1.752   1.307   1.274  0.00  0.00     0.018 C 
ENDBRANCH   1   8
TORSDOF 1
ENDMDL
