MODEL 1
REMARK minimizedAffinity -1.23518181
REMARK minimizedRMSD -1
REMARK  1 active torsions:
REMARK  status: ('A' for Active; 'I' for Inactive)
REMARK    1  A    between atoms: C1_2  and  C2_3 
ROOT
ATOM      1  C2  UNL d   1      -0.533  -0.771  -0.588  0.00  0.00    -0.076 A 
ATOM      2  C3  UNL d   1      -1.416  -1.859  -0.475  0.00  0.00     0.004 A 
ATOM      3  C4  UNL d   1      -1.356  -2.721   0.618  0.00  0.00    -0.003 A 
ATOM      4  C5  UNL d   1      -0.412  -2.509   1.617  0.00  0.00     0.000 A 
ATOM      5  C6  UNL d   1       0.460  -1.425   1.530  0.00  0.00     0.000 A 
ATOM      6  C7  UNL d   1       0.402  -0.536   0.442  0.00  0.00    -0.073 A 
ATOM      7  C8  UNL d   1       1.371   0.614   0.397  0.00  0.00     0.078 C 
ENDROOT
BRANCH   1   8
ATOM      8  C1  UNL d   1      -0.627   0.114  -1.810  0.00  0.00     0.053 C 
ATOM      9  C   UNL d   1      -2.056   0.539  -2.113  0.00  0.00     0.018 C 
ENDBRANCH   1   8
TORSDOF 1
ENDMDL
