MODEL 1
REMARK minimizedAffinity -1.45645034
REMARK minimizedRMSD -1
REMARK  1 active torsions:
REMARK  status: ('A' for Active; 'I' for Inactive)
REMARK    1  A    between atoms: C1_2  and  C2_3 
ROOT
ATOM      1  C2  UNL d   1      -0.141  -0.125  -1.164  0.00  0.00    -0.076 A 
ATOM      2  C3  UNL d   1       1.109  -0.097  -0.522  0.00  0.00     0.004 A 
ATOM      3  C4  UNL d   1       1.293  -0.709   0.717  0.00  0.00    -0.003 A 
ATOM      4  C5  UNL d   1       0.230  -1.360   1.333  0.00  0.00     0.000 A 
ATOM      5  C6  UNL d   1      -1.012  -1.413   0.702  0.00  0.00     0.000 A 
ATOM      6  C7  UNL d   1      -1.211  -0.815  -0.554  0.00  0.00    -0.073 A 
ATOM      7  C8  UNL d   1      -2.573  -0.897  -1.186  0.00  0.00     0.078 C 
ENDROOT
BRANCH   1   8
ATOM      8  C1  UNL d   1      -0.289   0.580  -2.493  0.00  0.00     0.053 C 
ATOM      9  C   UNL d   1       0.809   0.204  -3.477  0.00  0.00     0.018 C 
ENDBRANCH   1   8
TORSDOF 1
ENDMDL
