MODEL 1
REMARK minimizedAffinity -0.655565619
REMARK minimizedRMSD -1
REMARK  1 active torsions:
REMARK  status: ('A' for Active; 'I' for Inactive)
REMARK    1  A    between atoms: C1_2  and  C2_3 
ROOT
ATOM      1  C2  UNL d   1      -0.092  -0.165   0.138  0.00  0.00    -0.076 A 
ATOM      2  C3  UNL d   1       0.006  -1.409   0.785  0.00  0.00     0.004 A 
ATOM      3  C4  UNL d   1       0.589  -1.518   2.046  0.00  0.00    -0.003 A 
ATOM      4  C5  UNL d   1       1.083  -0.384   2.682  0.00  0.00     0.000 A 
ATOM      5  C6  UNL d   1       0.978   0.861   2.063  0.00  0.00     0.000 A 
ATOM      6  C7  UNL d   1       0.378   0.991   0.798  0.00  0.00    -0.073 A 
ATOM      7  C8  UNL d   1       0.297   2.357   0.174  0.00  0.00     0.078 C 
ENDROOT
BRANCH   1   8
ATOM      8  C1  UNL d   1      -0.710  -0.112  -1.241  0.00  0.00     0.053 C 
ATOM      9  C   UNL d   1      -2.143  -0.621  -1.257  0.00  0.00     0.018 C 
ENDBRANCH   1   8
TORSDOF 1
ENDMDL
