MODEL 1
REMARK minimizedAffinity -3.03258657
REMARK minimizedRMSD -1
REMARK  1 active torsions:
REMARK  status: ('A' for Active; 'I' for Inactive)
REMARK    1  A    between atoms: C1_2  and  C2_3 
ROOT
ATOM      1  C2  UNL d   1       0.553   0.023  -0.131  0.00  0.00    -0.076 A 
ATOM      2  C3  UNL d   1       0.179   0.805  -1.237  0.00  0.00     0.004 A 
ATOM      3  C4  UNL d   1      -0.994   0.538  -1.941  0.00  0.00    -0.003 A 
ATOM      4  C5  UNL d   1      -1.812  -0.516  -1.550  0.00  0.00     0.000 A 
ATOM      5  C6  UNL d   1      -1.466  -1.292  -0.445  0.00  0.00     0.000 A 
ATOM      6  C7  UNL d   1      -0.295  -1.026   0.286  0.00  0.00    -0.073 A 
ATOM      7  C8  UNL d   1       0.034  -1.898   1.467  0.00  0.00     0.078 C 
ENDROOT
BRANCH   1   8
ATOM      8  C1  UNL d   1       1.850   0.343   0.577  0.00  0.00     0.053 C 
ATOM      9  C   UNL d   1       2.422   1.690   0.164  0.00  0.00     0.018 C 
ENDBRANCH   1   8
TORSDOF 1
ENDMDL
