MODEL 1
REMARK minimizedAffinity -1.18519163
REMARK minimizedRMSD -1
REMARK  1 active torsions:
REMARK  status: ('A' for Active; 'I' for Inactive)
REMARK    1  A    between atoms: C1_2  and  C2_3 
ROOT
ATOM      1  C2  UNL d   1       0.388  -0.044  -0.295  0.00  0.00    -0.076 A 
ATOM      2  C3  UNL d   1      -0.023   0.637  -1.453  0.00  0.00     0.004 A 
ATOM      3  C4  UNL d   1      -1.275   0.400  -2.019  0.00  0.00    -0.003 A 
ATOM      4  C5  UNL d   1      -2.136  -0.523  -1.436  0.00  0.00     0.000 A 
ATOM      5  C6  UNL d   1      -1.751  -1.195  -0.276  0.00  0.00     0.000 A 
ATOM      6  C7  UNL d   1      -0.500  -0.956   0.317  0.00  0.00    -0.073 A 
ATOM      7  C8  UNL d   1      -0.135  -1.714   1.563  0.00  0.00     0.078 C 
ENDROOT
BRANCH   1   8
ATOM      8  C1  UNL d   1       1.767   0.234   0.259  0.00  0.00     0.053 C 
ATOM      9  C   UNL d   1       1.860   1.593   0.935  0.00  0.00     0.018 C 
ENDBRANCH   1   8
TORSDOF 1
ENDMDL
