MODEL 1
REMARK minimizedAffinity 1.78006852
REMARK minimizedRMSD -1
REMARK  1 active torsions:
REMARK  status: ('A' for Active; 'I' for Inactive)
REMARK    1  A    between atoms: C1_2  and  C2_3 
ROOT
ATOM      1  C2  UNL d   1      -1.941   0.466  -0.188  0.00  0.00    -0.076 A 
ATOM      2  C3  UNL d   1      -2.737  -0.492  -0.838  0.00  0.00     0.004 A 
ATOM      3  C4  UNL d   1      -2.506  -0.835  -2.169  0.00  0.00    -0.003 A 
ATOM      4  C5  UNL d   1      -1.473  -0.224  -2.872  0.00  0.00     0.000 A 
ATOM      5  C6  UNL d   1      -0.661   0.716  -2.238  0.00  0.00     0.000 A 
ATOM      6  C7  UNL d   1      -0.871   1.060  -0.891  0.00  0.00    -0.073 A 
ATOM      7  C8  UNL d   1       0.030   2.085  -0.259  0.00  0.00     0.078 C 
ENDROOT
BRANCH   1   8
ATOM      8  C1  UNL d   1      -2.256   0.817   1.249  0.00  0.00     0.053 C 
ATOM      9  C   UNL d   1      -1.484  -0.039   2.240  0.00  0.00     0.018 C 
ENDBRANCH   1   8
TORSDOF 1
ENDMDL
