MODEL 1
REMARK minimizedAffinity -5.31479836
REMARK minimizedRMSD -1
REMARK  1 active torsions:
REMARK  status: ('A' for Active; 'I' for Inactive)
REMARK    1  A    between atoms: C1_2  and  C2_3 
ROOT
ATOM      1  C2  UNL d   1       0.144  -1.021   0.021  0.00  0.00    -0.076 A 
ATOM      2  C3  UNL d   1      -0.195  -1.906   1.059  0.00  0.00     0.004 A 
ATOM      3  C4  UNL d   1      -1.432  -2.549   1.078  0.00  0.00    -0.003 A 
ATOM      4  C5  UNL d   1      -2.349  -2.317   0.059  0.00  0.00     0.000 A 
ATOM      5  C6  UNL d   1      -2.022  -1.456  -0.988  0.00  0.00     0.000 A 
ATOM      6  C7  UNL d   1      -0.774  -0.813  -1.030  0.00  0.00    -0.073 A 
ATOM      7  C8  UNL d   1      -0.476   0.111  -2.180  0.00  0.00     0.078 C 
ENDROOT
BRANCH   1   8
ATOM      8  C1  UNL d   1       1.489  -0.332   0.068  0.00  0.00     0.053 C 
ATOM      9  C   UNL d   1       1.568   0.719   1.165  0.00  0.00     0.018 C 
ENDBRANCH   1   8
TORSDOF 1
ENDMDL
