MODEL 1
REMARK minimizedAffinity -2.62992191
REMARK minimizedRMSD -1
REMARK  1 active torsions:
REMARK  status: ('A' for Active; 'I' for Inactive)
REMARK    1  A    between atoms: C1_2  and  C2_3 
ROOT
ATOM      1  C2  UNL d   1       0.821   1.218   0.059  0.00  0.00    -0.076 A 
ATOM      2  C3  UNL d   1       0.025   2.022  -0.774  0.00  0.00     0.004 A 
ATOM      3  C4  UNL d   1      -1.124   1.513  -1.378  0.00  0.00    -0.003 A 
ATOM      4  C5  UNL d   1      -1.495   0.191  -1.157  0.00  0.00     0.000 A 
ATOM      5  C6  UNL d   1      -0.727  -0.616  -0.319  0.00  0.00     0.000 A 
ATOM      6  C7  UNL d   1       0.425  -0.113   0.311  0.00  0.00    -0.073 A 
ATOM      7  C8  UNL d   1       1.220  -1.030   1.200  0.00  0.00     0.078 C 
ENDROOT
BRANCH   1   8
ATOM      8  C1  UNL d   1       2.070   1.817   0.665  0.00  0.00     0.053 C 
ATOM      9  C   UNL d   1       1.997   3.332   0.771  0.00  0.00     0.018 C 
ENDBRANCH   1   8
TORSDOF 1
ENDMDL
