MODEL 1
REMARK minimizedAffinity -0.164124131
REMARK minimizedRMSD -1
REMARK  1 active torsions:
REMARK  status: ('A' for Active; 'I' for Inactive)
REMARK    1  A    between atoms: C1_2  and  C2_3 
ROOT
ATOM      1  C2  UNL d   1       1.312   0.407  -0.070  0.00  0.00    -0.076 A 
ATOM      2  C3  UNL d   1       2.360   1.321  -0.281  0.00  0.00     0.004 A 
ATOM      3  C4  UNL d   1       3.022   1.914   0.792  0.00  0.00    -0.003 A 
ATOM      4  C5  UNL d   1       2.649   1.603   2.094  0.00  0.00     0.000 A 
ATOM      5  C6  UNL d   1       1.624   0.686   2.323  0.00  0.00     0.000 A 
ATOM      6  C7  UNL d   1       0.956   0.066   1.253  0.00  0.00    -0.073 A 
ATOM      7  C8  UNL d   1      -0.145  -0.911   1.558  0.00  0.00     0.078 C 
ENDROOT
BRANCH   1   8
ATOM      8  C1  UNL d   1       0.613  -0.184  -1.272  0.00  0.00     0.053 C 
ATOM      9  C   UNL d   1      -0.733   0.470  -1.543  0.00  0.00     0.018 C 
ENDBRANCH   1   8
TORSDOF 1
ENDMDL
