MODEL 1
REMARK minimizedAffinity 0.437129825
REMARK minimizedRMSD -1
REMARK  0 active torsions:
REMARK  status: ('A' for Active; 'I' for Inactive)
ROOT
ATOM      1  C1  BNZ d   1       2.623  -5.997  -4.462  0.00  0.00     0.000 A 
ATOM      2  C2  BNZ d   1       2.354  -5.985  -3.119  0.00  0.00     0.000 A 
ATOM      3  C3  BNZ d   1       3.367  -5.954  -2.203  0.00  0.00     0.000 A 
ATOM      4  C4  BNZ d   1       4.647  -5.976  -2.628  0.00  0.00     0.000 A 
ATOM      5  C5  BNZ d   1       4.935  -5.999  -3.978  0.00  0.00     0.000 A 
ATOM      6  C6  BNZ d   1       3.912  -5.990  -4.899  0.00  0.00     0.000 A 
ENDROOT
TORSDOF 0
ENDMDL
