MODEL 1
REMARK minimizedAffinity 3.52917862
REMARK minimizedRMSD -1
REMARK  0 active torsions:
REMARK  status: ('A' for Active; 'I' for Inactive)
ROOT
ATOM      1  C1  BNZ d   1       2.846  -2.473   2.653  0.00  0.00     0.000 A 
ATOM      2  C2  BNZ d   1       1.931  -1.543   3.068  0.00  0.00     0.000 A 
ATOM      3  C3  BNZ d   1       0.708  -1.927   3.542  0.00  0.00     0.000 A 
ATOM      4  C4  BNZ d   1       0.386  -3.236   3.561  0.00  0.00     0.000 A 
ATOM      5  C5  BNZ d   1       1.293  -4.186   3.137  0.00  0.00     0.000 A 
ATOM      6  C6  BNZ d   1       2.538  -3.798   2.697  0.00  0.00     0.000 A 
ENDROOT
TORSDOF 0
ENDMDL
