MODEL 1
REMARK minimizedAffinity 2.68068576
REMARK minimizedRMSD -1
REMARK  0 active torsions:
REMARK  status: ('A' for Active; 'I' for Inactive)
ROOT
ATOM      1  C1  BNZ d   1       1.619  -3.131   3.017  0.00  0.00     0.000 A 
ATOM      2  C2  BNZ d   1       2.068  -4.076   3.900  0.00  0.00     0.000 A 
ATOM      3  C3  BNZ d   1       3.362  -4.066   4.339  0.00  0.00     0.000 A 
ATOM      4  C4  BNZ d   1       4.216  -3.135   3.864  0.00  0.00     0.000 A 
ATOM      5  C5  BNZ d   1       3.781  -2.181   2.966  0.00  0.00     0.000 A 
ATOM      6  C6  BNZ d   1       2.467  -2.171   2.557  0.00  0.00     0.000 A 
ENDROOT
TORSDOF 0
ENDMDL
