MODEL 1
REMARK minimizedAffinity 4.3382287
REMARK minimizedRMSD -1
REMARK  0 active torsions:
REMARK  status: ('A' for Active; 'I' for Inactive)
ROOT
ATOM      1  C1  BNZ d   1       2.391  -5.961  -3.423  0.00  0.00     0.000 A 
ATOM      2  C2  BNZ d   1       2.234  -5.960  -4.784  0.00  0.00     0.000 A 
ATOM      3  C3  BNZ d   1       3.319  -6.000  -5.614  0.00  0.00     0.000 A 
ATOM      4  C4  BNZ d   1       4.559  -5.999  -5.085  0.00  0.00     0.000 A 
ATOM      5  C5  BNZ d   1       4.735  -5.991  -3.715  0.00  0.00     0.000 A 
ATOM      6  C6  BNZ d   1       3.640  -5.991  -2.882  0.00  0.00     0.000 A 
ENDROOT
TORSDOF 0
ENDMDL
