MODEL 1
REMARK minimizedAffinity -0.293185055
REMARK minimizedRMSD -1
REMARK  0 active torsions:
REMARK  status: ('A' for Active; 'I' for Inactive)
ROOT
ATOM      1  C1  BNZ d   1      -3.256   2.792  -1.770  0.00  0.00     0.000 A 
ATOM      2  C2  BNZ d   1      -3.366   1.964  -2.856  0.00  0.00     0.000 A 
ATOM      3  C3  BNZ d   1      -2.859   0.696  -2.823  0.00  0.00     0.000 A 
ATOM      4  C4  BNZ d   1      -2.207   0.271  -1.721  0.00  0.00     0.000 A 
ATOM      5  C5  BNZ d   1      -2.079   1.097  -0.622  0.00  0.00     0.000 A 
ATOM      6  C6  BNZ d   1      -2.626   2.359  -0.644  0.00  0.00     0.000 A 
ENDROOT
TORSDOF 0
ENDMDL
