MODEL 1
REMARK minimizedAffinity 7.86887598
REMARK minimizedRMSD -1
REMARK  0 active torsions:
REMARK  status: ('A' for Active; 'I' for Inactive)
ROOT
ATOM      1  C1  BNZ d   1      -3.597  -1.004  -3.525  0.00  0.00     0.000 A 
ATOM      2  C2  BNZ d   1      -2.939  -0.108  -2.725  0.00  0.00     0.000 A 
ATOM      3  C3  BNZ d   1      -2.347  -0.513  -1.561  0.00  0.00     0.000 A 
ATOM      4  C4  BNZ d   1      -2.446  -1.802  -1.180  0.00  0.00     0.000 A 
ATOM      5  C5  BNZ d   1      -3.114  -2.716  -1.971  0.00  0.00     0.000 A 
ATOM      6  C6  BNZ d   1      -3.676  -2.313  -3.161  0.00  0.00     0.000 A 
ENDROOT
TORSDOF 0
ENDMDL
