MODEL 1
REMARK minimizedAffinity 8.26696301
REMARK minimizedRMSD -1
REMARK  0 active torsions:
REMARK  status: ('A' for Active; 'I' for Inactive)
ROOT
ATOM      1  C1  BNZ d   1       2.255  -6.000  -1.666  0.00  0.00     0.000 A 
ATOM      2  C2  BNZ d   1       2.626  -5.972  -0.348  0.00  0.00     0.000 A 
ATOM      3  C3  BNZ d   1       3.946  -5.933   0.007  0.00  0.00     0.000 A 
ATOM      4  C4  BNZ d   1       4.892  -5.962  -0.954  0.00  0.00     0.000 A 
ATOM      5  C5  BNZ d   1       4.533  -6.000  -2.287  0.00  0.00     0.000 A 
ATOM      6  C6  BNZ d   1       3.203  -6.000  -2.641  0.00  0.00     0.000 A 
ENDROOT
TORSDOF 0
ENDMDL
