MODEL 1
REMARK minimizedAffinity 5.95839691
REMARK minimizedRMSD -1
REMARK  0 active torsions:
REMARK  status: ('A' for Active; 'I' for Inactive)
ROOT
ATOM      1  C1  BNZ d   1       3.024   1.388   2.219  0.00  0.00     0.000 A 
ATOM      2  C2  BNZ d   1       3.506   1.525   0.944  0.00  0.00     0.000 A 
ATOM      3  C3  BNZ d   1       2.841   2.285   0.023  0.00  0.00     0.000 A 
ATOM      4  C4  BNZ d   1       1.676   2.872   0.365  0.00  0.00     0.000 A 
ATOM      5  C5  BNZ d   1       1.173   2.736   1.643  0.00  0.00     0.000 A 
ATOM      6  C6  BNZ d   1       1.865   2.002   2.579  0.00  0.00     0.000 A 
ENDROOT
TORSDOF 0
ENDMDL
