MODEL 1
REMARK minimizedAffinity 10.5567064
REMARK minimizedRMSD -1
REMARK  0 active torsions:
REMARK  status: ('A' for Active; 'I' for Inactive)
ROOT
ATOM      1  C1  BNZ d   1       5.990  -1.705  -4.884  0.00  0.00     0.000 A 
ATOM      2  C2  BNZ d   1       5.996  -1.133  -3.639  0.00  0.00     0.000 A 
ATOM      3  C3  BNZ d   1       5.852   0.218  -3.489  0.00  0.00     0.000 A 
ATOM      4  C4  BNZ d   1       5.744   0.999  -4.583  0.00  0.00     0.000 A 
ATOM      5  C5  BNZ d   1       5.745   0.438  -5.845  0.00  0.00     0.000 A 
ATOM      6  C6  BNZ d   1       5.851  -0.926  -5.991  0.00  0.00     0.000 A 
ENDROOT
TORSDOF 0
ENDMDL
