MODEL 1
REMARK minimizedAffinity 4.34811211
REMARK minimizedRMSD -1
REMARK  0 active torsions:
REMARK  status: ('A' for Active; 'I' for Inactive)
ROOT
ATOM      1  C1  BNZ d   1       1.793  -6.000  -0.191  0.00  0.00     0.000 A 
ATOM      2  C2  BNZ d   1       1.899  -5.923  -1.554  0.00  0.00     0.000 A 
ATOM      3  C3  BNZ d   1       3.094  -5.623  -2.147  0.00  0.00     0.000 A 
ATOM      4  C4  BNZ d   1       4.169  -5.362  -1.377  0.00  0.00     0.000 A 
ATOM      5  C5  BNZ d   1       4.076  -5.426  -0.001  0.00  0.00     0.000 A 
ATOM      6  C6  BNZ d   1       2.882  -5.766   0.592  0.00  0.00     0.000 A 
ENDROOT
TORSDOF 0
ENDMDL
