MODEL 1
REMARK minimizedAffinity -3.61452222
REMARK minimizedRMSD -1
REMARK  0 active torsions:
REMARK  status: ('A' for Active; 'I' for Inactive)
ROOT
ATOM      1  C4' PXY d   1      -1.121  -1.122  -1.146  0.00  0.00     0.077 C 
ATOM      2  C1' PXY d   1       1.729   3.104   1.581  0.00  0.00     0.077 C 
ATOM      3  C1  PXY d   1       0.976   1.992   0.877  0.00  0.00    -0.082 A 
ATOM      4  C2  PXY d   1       1.446   1.501  -0.258  0.00  0.00     0.003 A 
ATOM      5  C3  PXY d   1       0.761   0.517  -0.924  0.00  0.00     0.003 A 
ATOM      6  C4  PXY d   1      -0.389  -0.006  -0.396  0.00  0.00    -0.082 A 
ATOM      7  C5  PXY d   1      -0.869   0.483   0.768  0.00  0.00     0.003 A 
ATOM      8  C6  PXY d   1      -0.180   1.510   1.407  0.00  0.00     0.003 A 
ENDROOT
TORSDOF 0
ENDMDL
