MODEL 1
REMARK minimizedAffinity -3.57269835
REMARK minimizedRMSD -1
REMARK  0 active torsions:
REMARK  status: ('A' for Active; 'I' for Inactive)
ROOT
ATOM      1  C4' PXY d   1       1.186   3.152   1.583  0.00  0.00     0.077 C 
ATOM      2  C1' PXY d   1      -0.519  -1.921  -0.603  0.00  0.00     0.077 C 
ATOM      3  C1  PXY d   1      -0.084  -0.588  -0.025  0.00  0.00    -0.082 A 
ATOM      4  C2  PXY d   1       0.973   0.029  -0.528  0.00  0.00     0.003 A 
ATOM      5  C3  PXY d   1       1.399   1.219   0.003  0.00  0.00     0.003 A 
ATOM      6  C4  PXY d   1       0.705   1.809   1.025  0.00  0.00    -0.082 A 
ATOM      7  C5  PXY d   1      -0.381   1.191   1.536  0.00  0.00     0.003 A 
ATOM      8  C6  PXY d   1      -0.773  -0.036   1.010  0.00  0.00     0.003 A 
ENDROOT
TORSDOF 0
ENDMDL
