MODEL 1
REMARK minimizedAffinity -3.53681159
REMARK minimizedRMSD -1
REMARK  0 active torsions:
REMARK  status: ('A' for Active; 'I' for Inactive)
ROOT
ATOM      1  C4' PXY d   1      -0.651  -1.884  -0.741  0.00  0.00     0.077 C 
ATOM      2  C1' PXY d   1       1.035   3.179   1.483  0.00  0.00     0.077 C 
ATOM      3  C1  PXY d   1       0.598   1.855   0.888  0.00  0.00    -0.082 A 
ATOM      4  C2  PXY d   1      -0.411   1.194   1.433  0.00  0.00     0.003 A 
ATOM      5  C3  PXY d   1      -0.798  -0.021   0.927  0.00  0.00     0.003 A 
ATOM      6  C4  PXY d   1      -0.182  -0.539  -0.180  0.00  0.00    -0.082 A 
ATOM      7  C5  PXY d   1       0.841   0.135  -0.748  0.00  0.00     0.003 A 
ATOM      8  C6  PXY d   1       1.246   1.346  -0.195  0.00  0.00     0.003 A 
ENDROOT
TORSDOF 0
ENDMDL
