MODEL 1
REMARK minimizedAffinity -2.56342149
REMARK minimizedRMSD -1
REMARK  0 active torsions:
REMARK  status: ('A' for Active; 'I' for Inactive)
ROOT
ATOM      1  C4' PXY d   1       1.345   3.375   1.070  0.00  0.00     0.077 C 
ATOM      2  C1' PXY d   1      -0.905  -1.805  -0.159  0.00  0.00     0.077 C 
ATOM      3  C1  PXY d   1      -0.326  -0.444   0.170  0.00  0.00    -0.082 A 
ATOM      4  C2  PXY d   1       0.574   0.096  -0.635  0.00  0.00     0.003 A 
ATOM      5  C3  PXY d   1       1.132   1.313  -0.336  0.00  0.00     0.003 A 
ATOM      6  C4  PXY d   1       0.726   2.007   0.772  0.00  0.00    -0.082 A 
ATOM      7  C5  PXY d   1      -0.199   1.467   1.593  0.00  0.00     0.003 A 
ATOM      8  C6  PXY d   1      -0.723   0.213   1.293  0.00  0.00     0.003 A 
ENDROOT
TORSDOF 0
ENDMDL
