MODEL 1
REMARK minimizedAffinity -0.505777955
REMARK minimizedRMSD -1
REMARK  0 active torsions:
REMARK  status: ('A' for Active; 'I' for Inactive)
ROOT
ATOM      1  C4' PXY d   1      -1.200  -1.745  -0.004  0.00  0.00     0.077 C 
ATOM      2  C1' PXY d   1       1.318   3.265   1.400  0.00  0.00     0.077 C 
ATOM      3  C1  PXY d   1       0.662   1.953   1.019  0.00  0.00    -0.082 A 
ATOM      4  C2  PXY d   1      -0.335   1.483   1.752  0.00  0.00     0.003 A 
ATOM      5  C3  PXY d   1      -0.918   0.282   1.441  0.00  0.00     0.003 A 
ATOM      6  C4  PXY d   1      -0.514  -0.420   0.337  0.00  0.00    -0.082 A 
ATOM      7  C5  PXY d   1       0.495   0.058  -0.422  0.00  0.00     0.003 A 
ATOM      8  C6  PXY d   1       1.102   1.259  -0.065  0.00  0.00     0.003 A 
ENDROOT
TORSDOF 0
ENDMDL
