MODEL 1
REMARK minimizedAffinity -4.84661198
REMARK minimizedRMSD -1
REMARK  0 active torsions:
REMARK  status: ('A' for Active; 'I' for Inactive)
ROOT
ATOM      1  C4' PXY d   1      -1.251  -1.506  -1.140  0.00  0.00     0.077 C 
ATOM      2  C1' PXY d   1       1.708   2.760   1.402  0.00  0.00     0.077 C 
ATOM      3  C1  PXY d   1       0.943   1.637   0.730  0.00  0.00    -0.082 A 
ATOM      4  C2  PXY d   1      -0.361   1.757   0.539  0.00  0.00     0.003 A 
ATOM      5  C3  PXY d   1      -1.073   0.738  -0.038  0.00  0.00     0.003 A 
ATOM      6  C4  PXY d   1      -0.436  -0.393  -0.473  0.00  0.00    -0.082 A 
ATOM      7  C5  PXY d   1       0.895  -0.518  -0.292  0.00  0.00     0.003 A 
ATOM      8  C6  PXY d   1       1.594   0.510   0.333  0.00  0.00     0.003 A 
ENDROOT
TORSDOF 0
ENDMDL
