MODEL 1
REMARK minimizedAffinity -3.4052844
REMARK minimizedRMSD -1
REMARK  0 active torsions:
REMARK  status: ('A' for Active; 'I' for Inactive)
ROOT
ATOM      1  C4' PXY d   1      -1.751   1.198   2.565  0.00  0.00     0.077 C 
ATOM      2  C1' PXY d   1       2.682   0.734  -1.116  0.00  0.00     0.077 C 
ATOM      3  C1  PXY d   1       1.524   0.868  -0.147  0.00  0.00    -0.082 A 
ATOM      4  C2  PXY d   1       0.947  -0.220   0.337  0.00  0.00     0.003 A 
ATOM      5  C3  PXY d   1      -0.123  -0.118   1.189  0.00  0.00     0.003 A 
ATOM      6  C4  PXY d   1      -0.572   1.111   1.592  0.00  0.00    -0.082 A 
ATOM      7  C5  PXY d   1       0.018   2.226   1.111  0.00  0.00     0.003 A 
ATOM      8  C6  PXY d   1       1.075   2.100   0.215  0.00  0.00     0.003 A 
ENDROOT
TORSDOF 0
ENDMDL
