MODEL 1
REMARK minimizedAffinity -3.89742017
REMARK minimizedRMSD -1
REMARK  0 active torsions:
REMARK  status: ('A' for Active; 'I' for Inactive)
ROOT
ATOM      1  C4' PXY d   1      -1.169  -1.764  -0.929  0.00  0.00     0.077 C 
ATOM      2  C1' PXY d   1       1.184   3.005   1.337  0.00  0.00     0.077 C 
ATOM      3  C1  PXY d   1       0.568   1.748   0.754  0.00  0.00    -0.082 A 
ATOM      4  C2  PXY d   1       0.627   1.535  -0.550  0.00  0.00     0.003 A 
ATOM      5  C3  PXY d   1       0.047   0.420  -1.098  0.00  0.00     0.003 A 
ATOM      6  C4  PXY d   1      -0.553  -0.513  -0.296  0.00  0.00    -0.082 A 
ATOM      7  C5  PXY d   1      -0.608  -0.308   1.037  0.00  0.00     0.003 A 
ATOM      8  C6  PXY d   1      -0.049   0.850   1.569  0.00  0.00     0.003 A 
ENDROOT
TORSDOF 0
ENDMDL
