MODEL 1
REMARK minimizedAffinity -4.91119909
REMARK minimizedRMSD -1
REMARK  0 active torsions:
REMARK  status: ('A' for Active; 'I' for Inactive)
ROOT
ATOM      1  C4' PXY d   1       0.936   3.079   1.562  0.00  0.00     0.077 C 
ATOM      2  C1' PXY d   1      -0.997  -1.441  -1.479  0.00  0.00     0.077 C 
ATOM      3  C1  PXY d   1      -0.502  -0.254  -0.676  0.00  0.00    -0.082 A 
ATOM      4  C2  PXY d   1       0.540   0.438  -1.107  0.00  0.00     0.003 A 
ATOM      5  C3  PXY d   1       1.021   1.495  -0.377  0.00  0.00     0.003 A 
ATOM      6  C4  PXY d   1       0.396   1.879   0.779  0.00  0.00    -0.082 A 
ATOM      7  C5  PXY d   1      -0.674   1.184   1.220  0.00  0.00     0.003 A 
ATOM      8  C6  PXY d   1      -1.122   0.090   0.485  0.00  0.00     0.003 A 
ENDROOT
TORSDOF 0
ENDMDL
