MODEL 1
REMARK minimizedAffinity -0.600159049
REMARK minimizedRMSD -1
REMARK  0 active torsions:
REMARK  status: ('A' for Active; 'I' for Inactive)
ROOT
ATOM      1  C4' PXY d   1       2.343  -0.444  -0.829  0.00  0.00     0.077 C 
ATOM      2  C1' PXY d   1      -2.129   0.996   2.539  0.00  0.00     0.077 C 
ATOM      3  C1  PXY d   1      -0.962   0.607   1.653  0.00  0.00    -0.082 A 
ATOM      4  C2  PXY d   1       0.226   1.150   1.860  0.00  0.00     0.003 A 
ATOM      5  C3  PXY d   1       1.285   0.834   1.048  0.00  0.00     0.003 A 
ATOM      6  C4  PXY d   1       1.138  -0.088   0.047  0.00  0.00    -0.082 A 
ATOM      7  C5  PXY d   1      -0.069  -0.655  -0.164  0.00  0.00     0.003 A 
ATOM      8  C6  PXY d   1      -1.140  -0.289   0.645  0.00  0.00     0.003 A 
ENDROOT
TORSDOF 0
ENDMDL
