MODEL 1
REMARK minimizedAffinity -3.87383723
REMARK minimizedRMSD -1
REMARK  0 active torsions:
REMARK  status: ('A' for Active; 'I' for Inactive)
ROOT
ATOM      1  C4' PXY d   1       1.525   2.157   1.340  0.00  0.00     0.077 C 
ATOM      2  C1' PXY d   1      -1.069  -2.495  -0.907  0.00  0.00     0.077 C 
ATOM      3  C1  PXY d   1      -0.377  -1.280  -0.322  0.00  0.00    -0.082 A 
ATOM      4  C2  PXY d   1      -0.956  -0.607   0.660  0.00  0.00     0.003 A 
ATOM      5  C3  PXY d   1      -0.359   0.513   1.179  0.00  0.00     0.003 A 
ATOM      6  C4  PXY d   1       0.868   0.918   0.725  0.00  0.00    -0.082 A 
ATOM      7  C5  PXY d   1       1.470   0.231  -0.269  0.00  0.00     0.003 A 
ATOM      8  C6  PXY d   1       0.828  -0.879  -0.810  0.00  0.00     0.003 A 
ENDROOT
TORSDOF 0
ENDMDL
