MODEL 1
REMARK minimizedAffinity -2.93792486
REMARK minimizedRMSD -1
REMARK  0 active torsions:
REMARK  status: ('A' for Active; 'I' for Inactive)
ROOT
ATOM      1  C4' PXY d   1       0.759   2.018   1.982  0.00  0.00     0.077 C 
ATOM      2  C1' PXY d   1      -0.765  -1.794  -2.088  0.00  0.00     0.077 C 
ATOM      3  C1  PXY d   1      -0.353  -0.794  -1.026  0.00  0.00    -0.082 A 
ATOM      4  C2  PXY d   1      -1.024  -0.737   0.114  0.00  0.00     0.003 A 
ATOM      5  C3  PXY d   1      -0.685   0.183   1.072  0.00  0.00     0.003 A 
ATOM      6  C4  PXY d   1       0.385   1.017   0.885  0.00  0.00    -0.082 A 
ATOM      7  C5  PXY d   1       1.080   0.957  -0.271  0.00  0.00     0.003 A 
ATOM      8  C6  PXY d   1       0.695   0.044  -1.248  0.00  0.00     0.003 A 
ENDROOT
TORSDOF 0
ENDMDL
