MODEL 1
REMARK minimizedAffinity -4.11632252
REMARK minimizedRMSD -1
REMARK  0 active torsions:
REMARK  status: ('A' for Active; 'I' for Inactive)
ROOT
ATOM      1  C4' PXY d   1      -0.929  -1.724   0.412  0.00  0.00     0.077 C 
ATOM      2  C1' PXY d   1       1.363   3.559   0.902  0.00  0.00     0.077 C 
ATOM      3  C1  PXY d   1       0.762   2.173   0.786  0.00  0.00    -0.082 A 
ATOM      4  C2  PXY d   1       0.941   1.472  -0.322  0.00  0.00     0.003 A 
ATOM      5  C3  PXY d   1       0.377   0.229  -0.456  0.00  0.00     0.003 A 
ATOM      6  C4  PXY d   1      -0.333  -0.324   0.576  0.00  0.00    -0.082 A 
ATOM      7  C5  PXY d   1      -0.511   0.380   1.714  0.00  0.00     0.003 A 
ATOM      8  C6  PXY d   1       0.035   1.656   1.814  0.00  0.00     0.003 A 
ENDROOT
TORSDOF 0
ENDMDL
