MODEL 1
REMARK minimizedAffinity -3.37034345
REMARK minimizedRMSD -1
REMARK  0 active torsions:
REMARK  status: ('A' for Active; 'I' for Inactive)
ROOT
ATOM      1  C4' PXY d   1       0.368   1.681   1.718  0.00  0.00     0.077 C 
ATOM      2  C1' PXY d   1      -1.477  -2.132  -2.216  0.00  0.00     0.077 C 
ATOM      3  C1  PXY d   1      -1.005  -1.128  -1.183  0.00  0.00    -0.082 A 
ATOM      4  C2  PXY d   1       0.252  -0.714  -1.199  0.00  0.00     0.003 A 
ATOM      5  C3  PXY d   1       0.703   0.169  -0.252  0.00  0.00     0.003 A 
ATOM      6  C4  PXY d   1      -0.154   0.675   0.688  0.00  0.00    -0.082 A 
ATOM      7  C5  PXY d   1      -1.440   0.266   0.704  0.00  0.00     0.003 A 
ATOM      8  C6  PXY d   1      -1.869  -0.663  -0.240  0.00  0.00     0.003 A 
ENDROOT
TORSDOF 0
ENDMDL
