MODEL 1
REMARK minimizedAffinity -2.90001965
REMARK minimizedRMSD -1
REMARK  0 active torsions:
REMARK  status: ('A' for Active; 'I' for Inactive)
ROOT
ATOM      1  C4' PXY d   1       1.071   2.433   1.581  0.00  0.00     0.077 C 
ATOM      2  C1' PXY d   1      -1.466  -1.967  -1.180  0.00  0.00     0.077 C 
ATOM      3  C1  PXY d   1      -0.812  -0.810  -0.451  0.00  0.00    -0.082 A 
ATOM      4  C2  PXY d   1       0.288  -0.264  -0.943  0.00  0.00     0.003 A 
ATOM      5  C3  PXY d   1       0.910   0.762  -0.279  0.00  0.00     0.003 A 
ATOM      6  C4  PXY d   1       0.371   1.269   0.873  0.00  0.00    -0.082 A 
ATOM      7  C5  PXY d   1      -0.756   0.724   1.376  0.00  0.00     0.003 A 
ATOM      8  C6  PXY d   1      -1.350  -0.344   0.709  0.00  0.00     0.003 A 
ENDROOT
TORSDOF 0
ENDMDL
