MODEL 1
REMARK minimizedAffinity -4.41013384
REMARK minimizedRMSD -1
REMARK  0 active torsions:
REMARK  status: ('A' for Active; 'I' for Inactive)
ROOT
ATOM      1  C4' PXY d   1       1.067   3.183   1.552  0.00  0.00     0.077 C 
ATOM      2  C1' PXY d   1      -0.222  -1.926  -0.825  0.00  0.00     0.077 C 
ATOM      3  C1  PXY d   1       0.104  -0.585  -0.198  0.00  0.00    -0.082 A 
ATOM      4  C2  PXY d   1       1.108   0.133  -0.673  0.00  0.00     0.003 A 
ATOM      5  C3  PXY d   1       1.437   1.333  -0.097  0.00  0.00     0.003 A 
ATOM      6  C4  PXY d   1       0.696   1.828   0.943  0.00  0.00    -0.082 A 
ATOM      7  C5  PXY d   1      -0.337   1.106   1.427  0.00  0.00     0.003 A 
ATOM      8  C6  PXY d   1      -0.629  -0.129   0.854  0.00  0.00     0.003 A 
ENDROOT
TORSDOF 0
ENDMDL
