MODEL 1
REMARK minimizedAffinity -5.44975519
REMARK minimizedRMSD -1
REMARK  0 active torsions:
REMARK  status: ('A' for Active; 'I' for Inactive)
ROOT
ATOM      1  C4' PXY d   1      -1.428  -1.508  -1.007  0.00  0.00     0.077 C 
ATOM      2  C1' PXY d   1       1.569   2.819   1.381  0.00  0.00     0.077 C 
ATOM      3  C1  PXY d   1       0.778   1.682   0.766  0.00  0.00    -0.082 A 
ATOM      4  C2  PXY d   1       1.197   1.127  -0.359  0.00  0.00     0.003 A 
ATOM      5  C3  PXY d   1       0.476   0.118  -0.946  0.00  0.00     0.003 A 
ATOM      6  C4  PXY d   1      -0.656  -0.363  -0.346  0.00  0.00    -0.082 A 
ATOM      7  C5  PXY d   1      -1.085   0.190   0.808  0.00  0.00     0.003 A 
ATOM      8  C6  PXY d   1      -0.361   1.241   1.366  0.00  0.00     0.003 A 
ENDROOT
TORSDOF 0
ENDMDL
