MODEL 1
REMARK minimizedAffinity -3.41840553
REMARK minimizedRMSD -1
REMARK  0 active torsions:
REMARK  status: ('A' for Active; 'I' for Inactive)
ROOT
ATOM      1  C4' PXY d   1      -2.429  -2.487  -1.664  0.00  0.00     0.077 C 
ATOM      2  C1' PXY d   1       1.800   1.220  -0.329  0.00  0.00     0.077 C 
ATOM      3  C1  PXY d   1       0.692   0.251  -0.691  0.00  0.00    -0.082 A 
ATOM      4  C2  PXY d   1      -0.179  -0.122   0.232  0.00  0.00     0.003 A 
ATOM      5  C3  PXY d   1      -1.168  -1.022  -0.071  0.00  0.00     0.003 A 
ATOM      6  C4  PXY d   1      -1.299  -1.504  -1.345  0.00  0.00    -0.082 A 
ATOM      7  C5  PXY d   1      -0.421  -1.120  -2.296  0.00  0.00     0.003 A 
ATOM      8  C6  PXY d   1       0.600  -0.237  -1.958  0.00  0.00     0.003 A 
ENDROOT
TORSDOF 0
ENDMDL
