MODEL 1
REMARK minimizedAffinity -3.00087905
REMARK minimizedRMSD -1
REMARK  0 active torsions:
REMARK  status: ('A' for Active; 'I' for Inactive)
ROOT
ATOM      1  C4' PXY d   1      -0.552  -1.963  -0.303  0.00  0.00     0.077 C 
ATOM      2  C1' PXY d   1       1.576   3.176   1.271  0.00  0.00     0.077 C 
ATOM      3  C1  PXY d   1       1.023   1.830   0.847  0.00  0.00    -0.082 A 
ATOM      4  C2  PXY d   1      -0.008   1.312   1.495  0.00  0.00     0.003 A 
ATOM      5  C3  PXY d   1      -0.501   0.081   1.144  0.00  0.00     0.003 A 
ATOM      6  C4  PXY d   1       0.034  -0.603   0.085  0.00  0.00    -0.082 A 
ATOM      7  C5  PXY d   1       1.079  -0.077  -0.588  0.00  0.00     0.003 A 
ATOM      8  C6  PXY d   1       1.590   1.155  -0.190  0.00  0.00     0.003 A 
ENDROOT
TORSDOF 0
ENDMDL
