MODEL 1
REMARK minimizedAffinity -0.067317754
REMARK minimizedRMSD -1
REMARK  1 active torsions:
REMARK  status: ('A' for Active; 'I' for Inactive)
REMARK    1  A    between atoms: N_2  and  C1_3 
ROOT
ATOM      1  C1  UNL d   1      -2.851   5.207  -5.132  0.00  0.00     0.143 A 
ATOM      2  C2  UNL d   1      -1.568   5.187  -5.689  0.00  0.00    -0.057 A 
ATOM      3  C3  UNL d   1      -0.442   5.537  -4.934  0.00  0.00     0.033 A 
ATOM      4  C4  UNL d   1      -0.584   5.943  -3.611  0.00  0.00    -0.042 A 
ATOM      5  C5  UNL d   1      -1.852   5.994  -3.043  0.00  0.00     0.033 A 
ATOM      6  C6  UNL d   1      -2.971   5.637  -3.801  0.00  0.00    -0.057 A 
ENDROOT
BRANCH   1   7
ATOM      7  N   UNL d   1      -4.019   4.965  -5.859  0.00  0.00    -0.732 N 
ATOM      8  C   UNL d   1      -5.028   5.993  -5.996  0.00  0.00     0.284 C 
ATOM      9  H3  UNL d   1      -3.843   4.438  -6.711  0.00  0.00     0.395 HD
ENDBRANCH   1   7
TORSDOF 1
ENDMDL
