MODEL 1
REMARK minimizedAffinity 3.14742994
REMARK minimizedRMSD -1
REMARK  1 active torsions:
REMARK  status: ('A' for Active; 'I' for Inactive)
REMARK    1  A    between atoms: N_2  and  C1_3 
ROOT
ATOM      1  C1  UNL d   1      -3.092   0.409   3.709  0.00  0.00     0.143 A 
ATOM      2  C2  UNL d   1      -2.626  -0.359   2.636  0.00  0.00    -0.057 A 
ATOM      3  C3  UNL d   1      -3.505  -1.108   1.844  0.00  0.00     0.033 A 
ATOM      4  C4  UNL d   1      -4.866  -1.125   2.130  0.00  0.00    -0.042 A 
ATOM      5  C5  UNL d   1      -5.348  -0.389   3.207  0.00  0.00     0.033 A 
ATOM      6  C6  UNL d   1      -4.466   0.363   3.990  0.00  0.00    -0.057 A 
ENDROOT
BRANCH   1   7
ATOM      7  N   UNL d   1      -2.257   1.097   4.593  0.00  0.00    -0.732 N 
ATOM      8  C   UNL d   1      -2.235   0.758   6.000  0.00  0.00     0.284 C 
ATOM      9  H3  UNL d   1      -1.339   1.282   4.196  0.00  0.00     0.395 HD
ENDBRANCH   1   7
TORSDOF 1
ENDMDL
