MODEL 1
REMARK minimizedAffinity 18.2178078
REMARK minimizedRMSD -1
REMARK  1 active torsions:
REMARK  status: ('A' for Active; 'I' for Inactive)
REMARK    1  A    between atoms: N_2  and  C1_3 
ROOT
ATOM      1  C1  UNL d   1      -1.660  -4.509  -3.124  0.00  0.00     0.143 A 
ATOM      2  C2  UNL d   1      -2.706  -5.242  -3.695  0.00  0.00    -0.057 A 
ATOM      3  C3  UNL d   1      -2.516  -5.989  -4.864  0.00  0.00     0.033 A 
ATOM      4  C4  UNL d   1      -1.280  -5.992  -5.501  0.00  0.00    -0.042 A 
ATOM      5  C5  UNL d   1      -0.233  -5.250  -4.966  0.00  0.00     0.033 A 
ATOM      6  C6  UNL d   1      -0.427  -4.512  -3.795  0.00  0.00    -0.057 A 
ENDROOT
BRANCH   1   7
ATOM      7  N   UNL d   1      -1.812  -3.668  -2.019  0.00  0.00    -0.732 N 
ATOM      8  C   UNL d   1      -2.136  -2.269  -2.196  0.00  0.00     0.284 C 
ATOM      9  H3  UNL d   1      -2.312  -4.118  -1.255  0.00  0.00     0.395 HD
ENDBRANCH   1   7
TORSDOF 1
ENDMDL
