MODEL 1
REMARK minimizedAffinity 13.1885529
REMARK minimizedRMSD -1
REMARK  1 active torsions:
REMARK  status: ('A' for Active; 'I' for Inactive)
REMARK    1  A    between atoms: N_2  and  C1_3 
ROOT
ATOM      1  C1  UNL d   1      -4.990  -0.097  -0.294  0.00  0.00     0.143 A 
ATOM      2  C2  UNL d   1      -5.404  -0.064  -1.630  0.00  0.00    -0.057 A 
ATOM      3  C3  UNL d   1      -5.890   1.114  -2.210  0.00  0.00     0.033 A 
ATOM      4  C4  UNL d   1      -5.997   2.277  -1.453  0.00  0.00    -0.042 A 
ATOM      5  C5  UNL d   1      -5.615   2.260  -0.117  0.00  0.00     0.033 A 
ATOM      6  C6  UNL d   1      -5.124   1.082   0.455  0.00  0.00    -0.057 A 
ENDROOT
BRANCH   1   7
ATOM      7  N   UNL d   1      -4.590  -1.261   0.368  0.00  0.00    -0.732 N 
ATOM      8  C   UNL d   1      -3.371  -1.942  -0.010  0.00  0.00     0.284 C 
ATOM      9  H3  UNL d   1      -4.743  -1.209   1.372  0.00  0.00     0.395 HD
ENDBRANCH   1   7
TORSDOF 1
ENDMDL
