MODEL 1
REMARK minimizedAffinity 17.542387
REMARK minimizedRMSD -1
REMARK  1 active torsions:
REMARK  status: ('A' for Active; 'I' for Inactive)
REMARK    1  A    between atoms: N_2  and  C1_3 
ROOT
ATOM      1  C1  UNL d   1       2.211  -3.436   1.202  0.00  0.00     0.143 A 
ATOM      2  C2  UNL d   1       3.357  -2.808   0.703  0.00  0.00    -0.057 A 
ATOM      3  C3  UNL d   1       4.136  -3.405  -0.295  0.00  0.00     0.033 A 
ATOM      4  C4  UNL d   1       3.798  -4.659  -0.793  0.00  0.00    -0.042 A 
ATOM      5  C5  UNL d   1       2.677  -5.313  -0.294  0.00  0.00     0.033 A 
ATOM      6  C6  UNL d   1       1.900  -4.709   0.698  0.00  0.00    -0.057 A 
ENDROOT
BRANCH   1   7
ATOM      7  N   UNL d   1       1.451  -2.939   2.264  0.00  0.00    -0.732 N 
ATOM      8  C   UNL d   1       1.796  -1.682   2.891  0.00  0.00     0.284 C 
ATOM      9  H3  UNL d   1       0.453  -3.074   2.123  0.00  0.00     0.395 HD
ENDBRANCH   1   7
TORSDOF 1
ENDMDL
