MODEL 1
REMARK minimizedAffinity 12.9839792
REMARK minimizedRMSD -1
REMARK  1 active torsions:
REMARK  status: ('A' for Active; 'I' for Inactive)
REMARK    1  A    between atoms: N_2  and  C1_3 
ROOT
ATOM      1  C1  UNL d   1       2.285  -0.095   1.579  0.00  0.00     0.143 A 
ATOM      2  C2  UNL d   1       2.928  -0.896   2.528  0.00  0.00    -0.057 A 
ATOM      3  C3  UNL d   1       2.241  -1.908   3.209  0.00  0.00     0.033 A 
ATOM      4  C4  UNL d   1       0.886  -2.118   2.973  0.00  0.00    -0.042 A 
ATOM      5  C5  UNL d   1       0.221  -1.317   2.052  0.00  0.00     0.033 A 
ATOM      6  C6  UNL d   1       0.914  -0.312   1.370  0.00  0.00    -0.057 A 
ENDROOT
BRANCH   1   7
ATOM      7  N   UNL d   1       2.889   0.992   0.941  0.00  0.00    -0.732 N 
ATOM      8  C   UNL d   1       3.323   0.890  -0.436  0.00  0.00     0.284 C 
ATOM      9  H3  UNL d   1       2.441   1.876   1.171  0.00  0.00     0.395 HD
ENDBRANCH   1   7
TORSDOF 1
ENDMDL
