MODEL 1
REMARK minimizedAffinity 13.6679296
REMARK minimizedRMSD -1
REMARK  1 active torsions:
REMARK  status: ('A' for Active; 'I' for Inactive)
REMARK    1  A    between atoms: N_2  and  C1_3 
ROOT
ATOM      1  C1  UNL d   1      -0.626  -1.801   1.995  0.00  0.00     0.143 A 
ATOM      2  C2  UNL d   1      -0.775  -0.768   2.926  0.00  0.00    -0.057 A 
ATOM      3  C3  UNL d   1       0.142  -0.592   3.969  0.00  0.00     0.033 A 
ATOM      4  C4  UNL d   1       1.212  -1.468   4.117  0.00  0.00    -0.042 A 
ATOM      5  C5  UNL d   1       1.366  -2.517   3.218  0.00  0.00     0.033 A 
ATOM      6  C6  UNL d   1       0.451  -2.684   2.174  0.00  0.00    -0.057 A 
ENDROOT
BRANCH   1   7
ATOM      7  N   UNL d   1      -1.558  -2.088   0.994  0.00  0.00    -0.732 N 
ATOM      8  C   UNL d   1      -2.570  -3.102   1.198  0.00  0.00     0.284 C 
ATOM      9  H3  UNL d   1      -1.898  -1.249   0.528  0.00  0.00     0.395 HD
ENDBRANCH   1   7
TORSDOF 1
ENDMDL
