MODEL 1
REMARK minimizedAffinity 11.3963099
REMARK minimizedRMSD -1
REMARK  1 active torsions:
REMARK  status: ('A' for Active; 'I' for Inactive)
REMARK    1  A    between atoms: N_2  and  C1_3 
ROOT
ATOM      1  C1  UNL d   1      -1.601   0.416   2.867  0.00  0.00     0.143 A 
ATOM      2  C2  UNL d   1      -0.388  -0.104   2.404  0.00  0.00    -0.057 A 
ATOM      3  C3  UNL d   1      -0.353  -1.147   1.470  0.00  0.00     0.033 A 
ATOM      4  C4  UNL d   1      -1.537  -1.710   1.004  0.00  0.00    -0.042 A 
ATOM      5  C5  UNL d   1      -2.754  -1.226   1.469  0.00  0.00     0.033 A 
ATOM      6  C6  UNL d   1      -2.782  -0.180   2.397  0.00  0.00    -0.057 A 
ENDROOT
BRANCH   1   7
ATOM      7  N   UNL d   1      -1.701   1.385   3.868  0.00  0.00    -0.732 N 
ATOM      8  C   UNL d   1      -1.585   1.018   5.264  0.00  0.00     0.284 C 
ATOM      9  H3  UNL d   1      -1.220   2.247   3.624  0.00  0.00     0.395 HD
ENDBRANCH   1   7
TORSDOF 1
ENDMDL
