MODEL 1
REMARK minimizedAffinity 9.62555408
REMARK minimizedRMSD -1
REMARK  1 active torsions:
REMARK  status: ('A' for Active; 'I' for Inactive)
REMARK    1  A    between atoms: N_2  and  C1_3 
ROOT
ATOM      1  C1  UNL d   1       3.302   1.794  -1.450  0.00  0.00     0.143 A 
ATOM      2  C2  UNL d   1       2.475   1.755  -2.577  0.00  0.00    -0.057 A 
ATOM      3  C3  UNL d   1       2.798   2.465  -3.740  0.00  0.00     0.033 A 
ATOM      4  C4  UNL d   1       3.943   3.252  -3.786  0.00  0.00    -0.042 A 
ATOM      5  C5  UNL d   1       4.767   3.326  -2.669  0.00  0.00     0.033 A 
ATOM      6  C6  UNL d   1       4.443   2.610  -1.513  0.00  0.00    -0.057 A 
ENDROOT
BRANCH   1   7
ATOM      7  N   UNL d   1       2.985   1.190  -0.231  0.00  0.00    -0.732 N 
ATOM      8  C   UNL d   1       3.731   1.510   0.967  0.00  0.00     0.284 C 
ATOM      9  H3  UNL d   1       1.981   1.110  -0.086  0.00  0.00     0.395 HD
ENDBRANCH   1   7
TORSDOF 1
ENDMDL
