MODEL 1
REMARK minimizedAffinity 9.17418766
REMARK minimizedRMSD -1
REMARK  1 active torsions:
REMARK  status: ('A' for Active; 'I' for Inactive)
REMARK    1  A    between atoms: N_2  and  C1_3 
ROOT
ATOM      1  C1  UNL d   1      -1.547  -0.064   3.009  0.00  0.00     0.143 A 
ATOM      2  C2  UNL d   1      -0.445  -0.911   3.171  0.00  0.00    -0.057 A 
ATOM      3  C3  UNL d   1      -0.280  -2.050   2.374  0.00  0.00     0.033 A 
ATOM      4  C4  UNL d   1      -1.233  -2.380   1.417  0.00  0.00    -0.042 A 
ATOM      5  C5  UNL d   1      -2.349  -1.567   1.254  0.00  0.00     0.033 A 
ATOM      6  C6  UNL d   1      -2.505  -0.427   2.049  0.00  0.00    -0.057 A 
ENDROOT
BRANCH   1   7
ATOM      7  N   UNL d   1      -1.817   1.028   3.836  0.00  0.00    -0.732 N 
ATOM      8  C   UNL d   1      -1.821   0.880   5.275  0.00  0.00     0.284 C 
ATOM      9  H3  UNL d   1      -1.374   1.883   3.507  0.00  0.00     0.395 HD
ENDBRANCH   1   7
TORSDOF 1
ENDMDL
