MODEL 1
REMARK minimizedAffinity 12.8610802
REMARK minimizedRMSD -1
REMARK  1 active torsions:
REMARK  status: ('A' for Active; 'I' for Inactive)
REMARK    1  A    between atoms: N_2  and  C1_3 
ROOT
ATOM      1  C1  UNL d   1      -1.503   0.026   3.382  0.00  0.00     0.143 A 
ATOM      2  C2  UNL d   1      -0.403  -0.627   3.948  0.00  0.00    -0.057 A 
ATOM      3  C3  UNL d   1       0.321  -1.586   3.229  0.00  0.00     0.033 A 
ATOM      4  C4  UNL d   1      -0.062  -1.931   1.937  0.00  0.00    -0.042 A 
ATOM      5  C5  UNL d   1      -1.167  -1.313   1.364  0.00  0.00     0.033 A 
ATOM      6  C6  UNL d   1      -1.882  -0.352   2.084  0.00  0.00    -0.057 A 
ENDROOT
BRANCH   1   7
ATOM      7  N   UNL d   1      -2.323   0.916   4.079  0.00  0.00    -0.732 N 
ATOM      8  C   UNL d   1      -3.117   0.463   5.201  0.00  0.00     0.284 C 
ATOM      9  H3  UNL d   1      -1.881   1.821   4.222  0.00  0.00     0.395 HD
ENDBRANCH   1   7
TORSDOF 1
ENDMDL
