MODEL 1
REMARK minimizedAffinity 8.46489906
REMARK minimizedRMSD -1
REMARK  1 active torsions:
REMARK  status: ('A' for Active; 'I' for Inactive)
REMARK    1  A    between atoms: N_2  and  C1_3 
ROOT
ATOM      1  C1  UNL d   1      -2.657  -0.042   1.816  0.00  0.00     0.143 A 
ATOM      2  C2  UNL d   1      -2.961  -1.350   1.424  0.00  0.00    -0.057 A 
ATOM      3  C3  UNL d   1      -1.950  -2.279   1.151  0.00  0.00     0.033 A 
ATOM      4  C4  UNL d   1      -0.613  -1.907   1.237  0.00  0.00    -0.042 A 
ATOM      5  C5  UNL d   1      -0.287  -0.605   1.601  0.00  0.00     0.033 A 
ATOM      6  C6  UNL d   1      -1.301   0.317   1.879  0.00  0.00    -0.057 A 
ENDROOT
BRANCH   1   7
ATOM      7  N   UNL d   1      -3.616   0.956   2.005  0.00  0.00    -0.732 N 
ATOM      8  C   UNL d   1      -4.880   0.908   1.302  0.00  0.00     0.284 C 
ATOM      9  H3  UNL d   1      -3.693   1.241   2.979  0.00  0.00     0.395 HD
ENDBRANCH   1   7
TORSDOF 1
ENDMDL
