MODEL 1
REMARK minimizedAffinity 10.2938986
REMARK minimizedRMSD -1
REMARK  1 active torsions:
REMARK  status: ('A' for Active; 'I' for Inactive)
REMARK    1  A    between atoms: N_2  and  C1_3 
ROOT
ATOM      1  C1  UNL d   1       3.656   4.400  -2.896  0.00  0.00     0.143 A 
ATOM      2  C2  UNL d   1       3.108   3.249  -3.473  0.00  0.00    -0.057 A 
ATOM      3  C3  UNL d   1       1.726   3.115  -3.655  0.00  0.00     0.033 A 
ATOM      4  C4  UNL d   1       0.862   4.121  -3.234  0.00  0.00    -0.042 A 
ATOM      5  C5  UNL d   1       1.383   5.263  -2.635  0.00  0.00     0.033 A 
ATOM      6  C6  UNL d   1       2.764   5.394  -2.463  0.00  0.00    -0.057 A 
ENDROOT
BRANCH   1   7
ATOM      7  N   UNL d   1       5.012   4.550  -2.599  0.00  0.00    -0.732 N 
ATOM      8  C   UNL d   1       5.999   4.584  -3.657  0.00  0.00     0.284 C 
ATOM      9  H3  UNL d   1       5.175   5.228  -1.857  0.00  0.00     0.395 HD
ENDBRANCH   1   7
TORSDOF 1
ENDMDL
