MODEL 1
REMARK minimizedAffinity 9.25927258
REMARK minimizedRMSD -1
REMARK  1 active torsions:
REMARK  status: ('A' for Active; 'I' for Inactive)
REMARK    1  A    between atoms: N_2  and  C1_3 
ROOT
ATOM      1  C1  UNL d   1       4.060   3.929  -3.673  0.00  0.00     0.143 A 
ATOM      2  C2  UNL d   1       5.040   4.096  -4.656  0.00  0.00    -0.057 A 
ATOM      3  C3  UNL d   1       5.999   5.112  -4.561  0.00  0.00     0.033 A 
ATOM      4  C4  UNL d   1       5.976   6.000  -3.491  0.00  0.00    -0.042 A 
ATOM      5  C5  UNL d   1       4.995   5.869  -2.514  0.00  0.00     0.033 A 
ATOM      6  C6  UNL d   1       4.045   4.848  -2.611  0.00  0.00    -0.057 A 
ENDROOT
BRANCH   1   7
ATOM      7  N   UNL d   1       3.020   3.001  -3.761  0.00  0.00    -0.732 N 
ATOM      8  C   UNL d   1       2.614   2.236  -2.601  0.00  0.00     0.284 C 
ATOM      9  H3  UNL d   1       2.245   3.338  -4.328  0.00  0.00     0.395 HD
ENDBRANCH   1   7
TORSDOF 1
ENDMDL
