MODEL 1
REMARK minimizedAffinity -1.70330334
REMARK minimizedRMSD -1
REMARK  2 active torsions:
REMARK  status: ('A' for Active; 'I' for Inactive)
REMARK    1  A    between atoms: C1_2  and  C2_3 
REMARK    2  A    between atoms: C2_3  and  C3_4 
ROOT
ATOM      1  C3  UNL d   1      -0.081  -0.047  -0.210  0.00  0.00    -0.075 A 
ATOM      2  C4  UNL d   1       0.890  -1.021   0.066  0.00  0.00     0.002 A 
ATOM      3  C5  UNL d   1       1.022  -1.544   1.353  0.00  0.00     0.002 A 
ATOM      4  C6  UNL d   1       0.196  -1.094   2.380  0.00  0.00    -0.004 A 
ATOM      5  C7  UNL d   1      -0.761  -0.114   2.121  0.00  0.00     0.002 A 
ATOM      6  C8  UNL d   1      -0.899   0.407   0.833  0.00  0.00     0.002 A 
ENDROOT
BRANCH   1   7
ATOM      7  C2  UNL d   1      -0.250   0.501  -1.607  0.00  0.00     0.056 C 
BRANCH   7   8
ATOM      8  C1  UNL d   1      -1.344   1.567  -1.731  0.00  0.00     0.007 C 
ATOM      9  C   UNL d   1      -1.069   2.585  -2.829  0.00  0.00     0.009 C 
ENDBRANCH   7   8
ENDBRANCH   1   7
TORSDOF 2
ENDMDL
