MODEL 1
REMARK minimizedAffinity -3.94873524
REMARK minimizedRMSD -1
REMARK  2 active torsions:
REMARK  status: ('A' for Active; 'I' for Inactive)
REMARK    1  A    between atoms: C1_2  and  C2_3 
REMARK    2  A    between atoms: C2_3  and  C3_4 
ROOT
ATOM      1  C3  UNL d   1      -0.277   0.102  -0.520  0.00  0.00    -0.075 A 
ATOM      2  C4  UNL d   1      -0.944   0.405   0.676  0.00  0.00     0.002 A 
ATOM      3  C5  UNL d   1      -0.552  -0.190   1.876  0.00  0.00     0.002 A 
ATOM      4  C6  UNL d   1       0.501  -1.101   1.894  0.00  0.00    -0.004 A 
ATOM      5  C7  UNL d   1       1.160  -1.422   0.709  0.00  0.00     0.002 A 
ATOM      6  C8  UNL d   1       0.773  -0.825  -0.492  0.00  0.00     0.002 A 
ENDROOT
BRANCH   1   7
ATOM      7  C2  UNL d   1      -0.677   0.764  -1.817  0.00  0.00     0.056 C 
BRANCH   7   8
ATOM      8  C1  UNL d   1      -0.678   2.296  -1.760  0.00  0.00     0.007 C 
ATOM      9  C   UNL d   1       0.539   2.921  -2.429  0.00  0.00     0.009 C 
ENDBRANCH   7   8
ENDBRANCH   1   7
TORSDOF 2
ENDMDL
