MODEL 1
REMARK minimizedAffinity -6.49861002
REMARK minimizedRMSD -1
REMARK  2 active torsions:
REMARK  status: ('A' for Active; 'I' for Inactive)
REMARK    1  A    between atoms: C1_2  and  C2_3 
REMARK    2  A    between atoms: C2_3  and  C3_4 
ROOT
ATOM      1  C3  UNL d   1       0.470  -0.559   1.458  0.00  0.00    -0.075 A 
ATOM      2  C4  UNL d   1       0.652  -0.344   2.832  0.00  0.00     0.002 A 
ATOM      3  C5  UNL d   1       1.800  -0.807   3.475  0.00  0.00     0.002 A 
ATOM      4  C6  UNL d   1       2.774  -1.498   2.757  0.00  0.00    -0.004 A 
ATOM      5  C7  UNL d   1       2.596  -1.731   1.395  0.00  0.00     0.002 A 
ATOM      6  C8  UNL d   1       1.450  -1.265   0.748  0.00  0.00     0.002 A 
ENDROOT
BRANCH   1   7
ATOM      7  C2  UNL d   1      -0.757  -0.035   0.750  0.00  0.00     0.056 C 
BRANCH   7   8
ATOM      8  C1  UNL d   1      -0.806  -0.372  -0.744  0.00  0.00     0.007 C 
ATOM      9  C   UNL d   1      -0.868   0.861  -1.636  0.00  0.00     0.009 C 
ENDBRANCH   7   8
ENDBRANCH   1   7
TORSDOF 2
ENDMDL
