MODEL 1
REMARK minimizedAffinity -5.95421457
REMARK minimizedRMSD -1
REMARK  2 active torsions:
REMARK  status: ('A' for Active; 'I' for Inactive)
REMARK    1  A    between atoms: C1_2  and  C2_3 
REMARK    2  A    between atoms: C2_3  and  C3_4 
ROOT
ATOM      1  C3  UNL d   1       0.571  -0.066   1.274  0.00  0.00    -0.075 A 
ATOM      2  C4  UNL d   1       1.878  -0.316   0.831  0.00  0.00     0.002 A 
ATOM      3  C5  UNL d   1       2.708  -1.192   1.532  0.00  0.00     0.002 A 
ATOM      4  C6  UNL d   1       2.248  -1.818   2.688  0.00  0.00    -0.004 A 
ATOM      5  C7  UNL d   1       0.957  -1.563   3.146  0.00  0.00     0.002 A 
ATOM      6  C8  UNL d   1       0.123  -0.691   2.445  0.00  0.00     0.002 A 
ENDROOT
BRANCH   1   7
ATOM      7  C2  UNL d   1      -0.342   0.857   0.503  0.00  0.00     0.056 C 
BRANCH   7   8
ATOM      8  C1  UNL d   1      -0.255   0.694  -1.018  0.00  0.00     0.007 C 
ATOM      9  C   UNL d   1      -0.816   1.886  -1.782  0.00  0.00     0.009 C 
ENDBRANCH   7   8
ENDBRANCH   1   7
TORSDOF 2
ENDMDL
