MODEL 1
REMARK minimizedAffinity -5.81756353
REMARK minimizedRMSD -1
REMARK  2 active torsions:
REMARK  status: ('A' for Active; 'I' for Inactive)
REMARK    1  A    between atoms: C1_2  and  C2_3 
REMARK    2  A    between atoms: C2_3  and  C3_4 
ROOT
ATOM      1  C3  UNL d   1       0.863  -0.608   1.239  0.00  0.00    -0.075 A 
ATOM      2  C4  UNL d   1       0.784  -0.827   2.622  0.00  0.00     0.002 A 
ATOM      3  C5  UNL d   1       1.894  -1.284   3.332  0.00  0.00     0.002 A 
ATOM      4  C6  UNL d   1       3.093  -1.538   2.668  0.00  0.00    -0.004 A 
ATOM      5  C7  UNL d   1       3.178  -1.340   1.292  0.00  0.00     0.002 A 
ATOM      6  C8  UNL d   1       2.070  -0.878   0.580  0.00  0.00     0.002 A 
ENDROOT
BRANCH   1   7
ATOM      7  C2  UNL d   1      -0.326  -0.084   0.470  0.00  0.00     0.056 C 
BRANCH   7   8
ATOM      8  C1  UNL d   1      -0.145  -0.107  -1.051  0.00  0.00     0.007 C 
ATOM      9  C   UNL d   1      -0.209   1.277  -1.684  0.00  0.00     0.009 C 
ENDBRANCH   7   8
ENDBRANCH   1   7
TORSDOF 2
ENDMDL
