MODEL 1
REMARK minimizedAffinity -5.27225971
REMARK minimizedRMSD -1
REMARK  2 active torsions:
REMARK  status: ('A' for Active; 'I' for Inactive)
REMARK    1  A    between atoms: C1_2  and  C2_3 
REMARK    2  A    between atoms: C2_3  and  C3_4 
ROOT
ATOM      1  C3  UNL d   1      -0.283   0.769  -0.661  0.00  0.00    -0.075 A 
ATOM      2  C4  UNL d   1      -0.611   0.191  -1.896  0.00  0.00     0.002 A 
ATOM      3  C5  UNL d   1      -0.771   0.987  -3.030  0.00  0.00     0.002 A 
ATOM      4  C6  UNL d   1      -0.616   2.368  -2.943  0.00  0.00    -0.004 A 
ATOM      5  C7  UNL d   1      -0.307   2.955  -1.718  0.00  0.00     0.002 A 
ATOM      6  C8  UNL d   1      -0.141   2.161  -0.582  0.00  0.00     0.002 A 
ENDROOT
BRANCH   1   7
ATOM      7  C2  UNL d   1      -0.079  -0.089   0.565  0.00  0.00     0.056 C 
BRANCH   7   8
ATOM      8  C1  UNL d   1       1.392  -0.344   0.910  0.00  0.00     0.007 C 
ATOM      9  C   UNL d   1       1.576  -1.254   2.117  0.00  0.00     0.009 C 
ENDBRANCH   7   8
ENDBRANCH   1   7
TORSDOF 2
ENDMDL
