MODEL 1
REMARK minimizedAffinity 0.871174514
REMARK minimizedRMSD -1
REMARK  2 active torsions:
REMARK  status: ('A' for Active; 'I' for Inactive)
REMARK    1  A    between atoms: C1_2  and  C2_3 
REMARK    2  A    between atoms: C2_3  and  C3_4 
ROOT
ATOM      1  C3  UNL d   1      -0.189  -0.644   0.260  0.00  0.00    -0.075 A 
ATOM      2  C4  UNL d   1       0.927  -1.400   0.650  0.00  0.00     0.002 A 
ATOM      3  C5  UNL d   1       1.048  -1.858   1.962  0.00  0.00     0.002 A 
ATOM      4  C6  UNL d   1       0.064  -1.558   2.901  0.00  0.00    -0.004 A 
ATOM      5  C7  UNL d   1      -1.040  -0.794   2.529  0.00  0.00     0.002 A 
ATOM      6  C8  UNL d   1      -1.166  -0.339   1.216  0.00  0.00     0.002 A 
ENDROOT
BRANCH   1   7
ATOM      7  C2  UNL d   1      -0.341  -0.171  -1.166  0.00  0.00     0.056 C 
BRANCH   7   8
ATOM      8  C1  UNL d   1      -0.280   1.352  -1.328  0.00  0.00     0.007 C 
ATOM      9  C   UNL d   1      -1.341   1.898  -2.274  0.00  0.00     0.009 C 
ENDBRANCH   7   8
ENDBRANCH   1   7
TORSDOF 2
ENDMDL
