MODEL 1
REMARK minimizedAffinity -3.80474496
REMARK minimizedRMSD -1
REMARK  2 active torsions:
REMARK  status: ('A' for Active; 'I' for Inactive)
REMARK    1  A    between atoms: C1_2  and  C2_3 
REMARK    2  A    between atoms: C2_3  and  C3_4 
ROOT
ATOM      1  C3  UNL d   1       0.944  -1.021   1.220  0.00  0.00    -0.075 A 
ATOM      2  C4  UNL d   1       0.212  -1.366   2.365  0.00  0.00     0.002 A 
ATOM      3  C5  UNL d   1      -1.073  -0.861   2.563  0.00  0.00     0.002 A 
ATOM      4  C6  UNL d   1      -1.638   0.002   1.626  0.00  0.00    -0.004 A 
ATOM      5  C7  UNL d   1      -0.913   0.364   0.492  0.00  0.00     0.002 A 
ATOM      6  C8  UNL d   1       0.372  -0.143   0.290  0.00  0.00     0.002 A 
ENDROOT
BRANCH   1   7
ATOM      7  C2  UNL d   1       2.324  -1.587   0.985  0.00  0.00     0.056 C 
BRANCH   7   8
ATOM      8  C1  UNL d   1       2.348  -2.809   0.060  0.00  0.00     0.007 C 
ATOM      9  C   UNL d   1       2.274  -4.132   0.810  0.00  0.00     0.009 C 
ENDBRANCH   7   8
ENDBRANCH   1   7
TORSDOF 2
ENDMDL
