MODEL 1
REMARK minimizedAffinity -4.48109961
REMARK minimizedRMSD -1
REMARK  2 active torsions:
REMARK  status: ('A' for Active; 'I' for Inactive)
REMARK    1  A    between atoms: C1_2  and  C2_3 
REMARK    2  A    between atoms: C2_3  and  C3_4 
ROOT
ATOM      1  C3  UNL d   1       0.475  -0.497   0.114  0.00  0.00    -0.075 A 
ATOM      2  C4  UNL d   1       1.649  -1.200  -0.195  0.00  0.00     0.002 A 
ATOM      3  C5  UNL d   1       2.385  -1.827   0.810  0.00  0.00     0.002 A 
ATOM      4  C6  UNL d   1       1.964  -1.751   2.136  0.00  0.00    -0.004 A 
ATOM      5  C7  UNL d   1       0.808  -1.042   2.457  0.00  0.00     0.002 A 
ATOM      6  C8  UNL d   1       0.067  -0.418   1.452  0.00  0.00     0.002 A 
ENDROOT
BRANCH   1   7
ATOM      7  C2  UNL d   1      -0.342   0.159  -0.974  0.00  0.00     0.056 C 
BRANCH   7   8
ATOM      8  C1  UNL d   1      -0.093   1.664  -1.119  0.00  0.00     0.007 C 
ATOM      9  C   UNL d   1      -0.883   2.296  -2.257  0.00  0.00     0.009 C 
ENDBRANCH   7   8
ENDBRANCH   1   7
TORSDOF 2
ENDMDL
