MODEL 1
REMARK minimizedAffinity -4.48238754
REMARK minimizedRMSD -1
REMARK  0 active torsions:
REMARK  status: ('A' for Active; 'I' for Inactive)
ROOT
ATOM      1  C   UNL d   1       1.230  -0.761   2.725  0.00  0.00    -0.002 A 
ATOM      2  C1  UNL d   1       2.233  -0.070   2.059  0.00  0.00     0.010 A 
ATOM      3  C2  UNL d   1       2.015   0.434   0.775  0.00  0.00     0.041 A 
ATOM      4  C3  UNL d   1       0.761   0.231   0.167  0.00  0.00    -0.075 A 
ATOM      5  S   UNL d   1       0.267   0.758  -1.399  0.00  0.00     0.015 SA
ATOM      6  C4  UNL d   1      -1.286   0.080  -1.219  0.00  0.00     0.022 A 
ATOM      7  C5  UNL d   1      -1.441  -0.538  -0.001  0.00  0.00     0.026 A 
ATOM      8  C6  UNL d   1      -0.265  -0.461   0.818  0.00  0.00    -0.082 A 
ATOM      9  C7  UNL d   1      -0.013  -0.960   2.119  0.00  0.00     0.045 A 
ENDROOT
TORSDOF 0
ENDMDL
