MODEL 1
REMARK minimizedAffinity -1.10650444
REMARK minimizedRMSD -1
REMARK  0 active torsions:
REMARK  status: ('A' for Active; 'I' for Inactive)
ROOT
ATOM      1  C   UNL d   1       1.670  -2.882   1.935  0.00  0.00    -0.002 A 
ATOM      2  C1  UNL d   1       2.288  -2.723   0.703  0.00  0.00     0.010 A 
ATOM      3  C2  UNL d   1       1.795  -1.806  -0.227  0.00  0.00     0.041 A 
ATOM      4  C3  UNL d   1       0.659  -1.041   0.107  0.00  0.00    -0.075 A 
ATOM      5  S   UNL d   1      -0.120   0.144  -0.873  0.00  0.00     0.015 SA
ATOM      6  C4  UNL d   1      -1.292   0.468   0.321  0.00  0.00     0.022 A 
ATOM      7  C5  UNL d   1      -1.108  -0.300   1.446  0.00  0.00     0.026 A 
ATOM      8  C6  UNL d   1       0.020  -1.182   1.341  0.00  0.00    -0.082 A 
ATOM      9  C7  UNL d   1       0.544  -2.122   2.262  0.00  0.00     0.045 A 
ENDROOT
TORSDOF 0
ENDMDL
