MODEL 1
REMARK minimizedAffinity -0.904018819
REMARK minimizedRMSD -1
REMARK  0 active torsions:
REMARK  status: ('A' for Active; 'I' for Inactive)
ROOT
ATOM      1  C   UNL d   1       2.284  -3.211   1.196  0.00  0.00    -0.002 A 
ATOM      2  C1  UNL d   1       2.592  -2.669  -0.044  0.00  0.00     0.010 A 
ATOM      3  C2  UNL d   1       1.851  -1.602  -0.557  0.00  0.00     0.041 A 
ATOM      4  C3  UNL d   1       0.785  -1.084   0.205  0.00  0.00    -0.075 A 
ATOM      5  S   UNL d   1      -0.260   0.219  -0.221  0.00  0.00     0.015 SA
ATOM      6  C4  UNL d   1      -1.139   0.088   1.232  0.00  0.00     0.022 A 
ATOM      7  C5  UNL d   1      -0.661  -0.921   2.035  0.00  0.00     0.026 A 
ATOM      8  C6  UNL d   1       0.456  -1.612   1.456  0.00  0.00    -0.082 A 
ATOM      9  C7  UNL d   1       1.226  -2.694   1.949  0.00  0.00     0.045 A 
ENDROOT
TORSDOF 0
ENDMDL
