MODEL 1
REMARK minimizedAffinity -5.59373093
REMARK minimizedRMSD -1
REMARK  0 active torsions:
REMARK  status: ('A' for Active; 'I' for Inactive)
ROOT
ATOM      1  C   UNL d   1       2.215  -1.547   2.493  0.00  0.00    -0.002 A 
ATOM      2  C1  UNL d   1       2.867  -1.846   1.305  0.00  0.00     0.010 A 
ATOM      3  C2  UNL d   1       2.278  -1.542   0.076  0.00  0.00     0.041 A 
ATOM      4  C3  UNL d   1       1.012  -0.924   0.061  0.00  0.00    -0.075 A 
ATOM      5  S   UNL d   1       0.099  -0.458  -1.325  0.00  0.00     0.015 SA
ATOM      6  C4  UNL d   1      -1.177   0.150  -0.373  0.00  0.00     0.022 A 
ATOM      7  C5  UNL d   1      -0.929   0.009   0.972  0.00  0.00     0.026 A 
ATOM      8  C6  UNL d   1       0.337  -0.612   1.244  0.00  0.00    -0.082 A 
ATOM      9  C7  UNL d   1       0.960  -0.934   2.474  0.00  0.00     0.045 A 
ENDROOT
TORSDOF 0
ENDMDL
