MODEL 1
REMARK minimizedAffinity -6.04884863
REMARK minimizedRMSD -1
REMARK  0 active torsions:
REMARK  status: ('A' for Active; 'I' for Inactive)
ROOT
ATOM      1  C   UNL d   1       1.538  -1.053   2.667  0.00  0.00    -0.002 A 
ATOM      2  C1  UNL d   1       0.378  -0.292   2.716  0.00  0.00     0.010 A 
ATOM      3  C2  UNL d   1      -0.328   0.002   1.548  0.00  0.00     0.041 A 
ATOM      4  C3  UNL d   1       0.154  -0.488   0.318  0.00  0.00    -0.075 A 
ATOM      5  S   UNL d   1      -0.546  -0.255  -1.240  0.00  0.00     0.015 SA
ATOM      6  C4  UNL d   1       0.677  -1.160  -2.007  0.00  0.00     0.022 A 
ATOM      7  C5  UNL d   1       1.605  -1.636  -1.111  0.00  0.00     0.026 A 
ATOM      8  C6  UNL d   1       1.319  -1.257   0.244  0.00  0.00    -0.082 A 
ATOM      9  C7  UNL d   1       2.013  -1.537   1.445  0.00  0.00     0.045 A 
ENDROOT
TORSDOF 0
ENDMDL
