MODEL 1
REMARK minimizedAffinity -3.52402496
REMARK minimizedRMSD -1
REMARK  0 active torsions:
REMARK  status: ('A' for Active; 'I' for Inactive)
ROOT
ATOM      1  C   UNL d   1      -0.924   3.197  -3.080  0.00  0.00    -0.002 A 
ATOM      2  C1  UNL d   1      -2.145   2.555  -2.930  0.00  0.00     0.010 A 
ATOM      3  C2  UNL d   1      -2.247   1.392  -2.165  0.00  0.00     0.041 A 
ATOM      4  C3  UNL d   1      -1.090   0.880  -1.545  0.00  0.00    -0.075 A 
ATOM      5  S   UNL d   1      -0.975  -0.530  -0.560  0.00  0.00     0.015 SA
ATOM      6  C4  UNL d   1       0.698  -0.313  -0.314  0.00  0.00     0.022 A 
ATOM      7  C5  UNL d   1       1.173   0.803  -0.960  0.00  0.00     0.026 A 
ATOM      8  C6  UNL d   1       0.151   1.510  -1.680  0.00  0.00    -0.082 A 
ATOM      9  C7  UNL d   1       0.221   2.687  -2.463  0.00  0.00     0.045 A 
ENDROOT
TORSDOF 0
ENDMDL
