MODEL 1
REMARK minimizedAffinity -4.12060976
REMARK minimizedRMSD -1
REMARK  0 active torsions:
REMARK  status: ('A' for Active; 'I' for Inactive)
ROOT
ATOM      1  C   UNL d   1       2.075  -1.293   2.662  0.00  0.00    -0.002 A 
ATOM      2  C1  UNL d   1       2.928  -1.550   1.599  0.00  0.00     0.010 A 
ATOM      3  C2  UNL d   1       2.470  -1.457   0.283  0.00  0.00     0.041 A 
ATOM      4  C3  UNL d   1       1.128  -1.096   0.052  0.00  0.00    -0.075 A 
ATOM      5  S   UNL d   1       0.347  -0.920  -1.475  0.00  0.00     0.015 SA
ATOM      6  C4  UNL d   1      -1.137  -0.499  -0.751  0.00  0.00     0.022 A 
ATOM      7  C5  UNL d   1      -1.057  -0.489   0.621  0.00  0.00     0.026 A 
ATOM      8  C6  UNL d   1       0.250  -0.832   1.107  0.00  0.00    -0.082 A 
ATOM      9  C7  UNL d   1       0.744  -0.936   2.429  0.00  0.00     0.045 A 
ENDROOT
TORSDOF 0
ENDMDL
