MODEL 1
REMARK minimizedAffinity 2.21914291
REMARK minimizedRMSD -1
REMARK  0 active torsions:
REMARK  status: ('A' for Active; 'I' for Inactive)
ROOT
ATOM      1  C   UNL d   1      -0.350   3.334  -3.321  0.00  0.00    -0.002 A 
ATOM      2  C1  UNL d   1      -1.657   2.869  -3.298  0.00  0.00     0.010 A 
ATOM      3  C2  UNL d   1      -1.969   1.657  -2.678  0.00  0.00     0.041 A 
ATOM      4  C3  UNL d   1      -0.935   0.915  -2.074  0.00  0.00    -0.075 A 
ATOM      5  S   UNL d   1      -1.081  -0.596  -1.256  0.00  0.00     0.015 SA
ATOM      6  C4  UNL d   1       0.588  -0.658  -0.916  0.00  0.00     0.022 A 
ATOM      7  C5  UNL d   1       1.255   0.438  -1.408  0.00  0.00     0.026 A 
ATOM      8  C6  UNL d   1       0.389   1.363  -2.083  0.00  0.00    -0.082 A 
ATOM      9  C7  UNL d   1       0.673   2.595  -2.720  0.00  0.00     0.045 A 
ENDROOT
TORSDOF 0
ENDMDL
