MODEL 1
REMARK minimizedAffinity -1.29433382
REMARK minimizedRMSD -1
REMARK  0 active torsions:
REMARK  status: ('A' for Active; 'I' for Inactive)
ROOT
ATOM      1  C   UNL d   1       1.583  -0.299   2.526  0.00  0.00    -0.002 A 
ATOM      2  C1  UNL d   1       0.519  -0.964   3.120  0.00  0.00     0.010 A 
ATOM      3  C2  UNL d   1      -0.606  -1.314   2.372  0.00  0.00     0.041 A 
ATOM      4  C3  UNL d   1      -0.644  -0.984   1.003  0.00  0.00    -0.075 A 
ATOM      5  S   UNL d   1      -1.918  -1.314  -0.111  0.00  0.00     0.015 SA
ATOM      6  C4  UNL d   1      -1.080  -0.581  -1.401  0.00  0.00     0.022 A 
ATOM      7  C5  UNL d   1       0.143  -0.091  -1.010  0.00  0.00     0.026 A 
ATOM      8  C6  UNL d   1       0.415  -0.316   0.382  0.00  0.00    -0.082 A 
ATOM      9  C7  UNL d   1       1.541   0.027   1.168  0.00  0.00     0.045 A 
ENDROOT
TORSDOF 0
ENDMDL
