MODEL 1
REMARK minimizedAffinity -2.47194338
REMARK minimizedRMSD -1
REMARK  0 active torsions:
REMARK  status: ('A' for Active; 'I' for Inactive)
ROOT
ATOM      1  C   UNL d   1       0.456  -2.621  -2.638  0.00  0.00     0.172 C 
ATOM      2  N   UNL d   1       0.259  -2.772  -1.215  0.00  0.00    -0.070 N 
ATOM      3  C1  UNL d   1       0.426  -1.788  -0.277  0.00  0.00    -0.004 A 
ATOM      4  C2  UNL d   1       0.142  -2.330   0.958  0.00  0.00    -0.047 A 
ATOM      5  C3  UNL d   1      -0.208  -3.686   0.755  0.00  0.00    -0.047 A 
ATOM      6  C4  UNL d   1      -0.127  -3.933  -0.599  0.00  0.00    -0.004 A 
ENDROOT
TORSDOF 0
ENDMDL
