MODEL 1
REMARK minimizedAffinity -0.690075517
REMARK minimizedRMSD -1
REMARK  0 active torsions:
REMARK  status: ('A' for Active; 'I' for Inactive)
ROOT
ATOM      1  C   UNL d   1      -2.881  -3.911  -0.092  0.00  0.00     0.172 C 
ATOM      2  N   UNL d   1      -1.476  -3.664   0.132  0.00  0.00    -0.070 N 
ATOM      3  C1  UNL d   1      -0.495  -4.618   0.176  0.00  0.00    -0.004 A 
ATOM      4  C2  UNL d   1       0.704  -3.980   0.409  0.00  0.00    -0.047 A 
ATOM      5  C3  UNL d   1       0.435  -2.594   0.508  0.00  0.00    -0.047 A 
ATOM      6  C4  UNL d   1      -0.923  -2.427   0.333  0.00  0.00    -0.004 A 
ENDROOT
TORSDOF 0
ENDMDL
