MODEL 1
REMARK minimizedAffinity -0.62416333
REMARK minimizedRMSD -1
REMARK  0 active torsions:
REMARK  status: ('A' for Active; 'I' for Inactive)
ROOT
ATOM      1  C   UNL d   1       5.512  -3.993   5.261  0.00  0.00     0.172 C 
ATOM      2  N   UNL d   1       4.491  -2.999   5.031  0.00  0.00    -0.070 N 
ATOM      3  C1  UNL d   1       3.748  -2.378   5.999  0.00  0.00    -0.004 A 
ATOM      4  C2  UNL d   1       2.888  -1.501   5.374  0.00  0.00    -0.047 A 
ATOM      5  C3  UNL d   1       3.120  -1.600   3.982  0.00  0.00    -0.047 A 
ATOM      6  C4  UNL d   1       4.117  -2.535   3.797  0.00  0.00    -0.004 A 
ENDROOT
TORSDOF 0
ENDMDL
