MODEL 1
REMARK minimizedAffinity 6.24114943
REMARK minimizedRMSD -1
REMARK  0 active torsions:
REMARK  status: ('A' for Active; 'I' for Inactive)
ROOT
ATOM      1  C   UNL d   1       0.780  -1.398  -1.756  0.00  0.00     0.172 C 
ATOM      2  N   UNL d   1       0.368  -2.316  -0.720  0.00  0.00    -0.070 N 
ATOM      3  C1  UNL d   1       1.101  -3.373  -0.252  0.00  0.00    -0.004 A 
ATOM      4  C2  UNL d   1       0.362  -3.997   0.730  0.00  0.00    -0.047 A 
ATOM      5  C3  UNL d   1      -0.858  -3.291   0.855  0.00  0.00    -0.047 A 
ATOM      6  C4  UNL d   1      -0.828  -2.255  -0.054  0.00  0.00    -0.004 A 
ENDROOT
TORSDOF 0
ENDMDL
