MODEL 1
REMARK minimizedAffinity 5.79456902
REMARK minimizedRMSD -1
REMARK  0 active torsions:
REMARK  status: ('A' for Active; 'I' for Inactive)
ROOT
ATOM      1  C   UNL d   1       0.823  -1.557  -1.626  0.00  0.00     0.172 C 
ATOM      2  N   UNL d   1       0.364  -2.488  -0.622  0.00  0.00    -0.070 N 
ATOM      3  C1  UNL d   1       1.024  -3.619  -0.220  0.00  0.00    -0.004 A 
ATOM      4  C2  UNL d   1       0.260  -4.231   0.749  0.00  0.00    -0.047 A 
ATOM      5  C3  UNL d   1      -0.900  -3.442   0.936  0.00  0.00    -0.047 A 
ATOM      6  C4  UNL d   1      -0.810  -2.370   0.074  0.00  0.00    -0.004 A 
ENDROOT
TORSDOF 0
ENDMDL
