MODEL 1
REMARK minimizedAffinity 4.43524837
REMARK minimizedRMSD -1
REMARK  0 active torsions:
REMARK  status: ('A' for Active; 'I' for Inactive)
ROOT
ATOM      1  C   UNL d   1       1.151  -1.170  -2.631  0.00  0.00     0.172 C 
ATOM      2  N   UNL d   1       1.656  -0.178  -1.711  0.00  0.00    -0.070 N 
ATOM      3  C1  UNL d   1       2.762  -0.316  -0.915  0.00  0.00    -0.004 A 
ATOM      4  C2  UNL d   1       2.907   0.846  -0.188  0.00  0.00    -0.047 A 
ATOM      5  C3  UNL d   1       1.851   1.712  -0.560  0.00  0.00    -0.047 A 
ATOM      6  C4  UNL d   1       1.092   1.054  -1.504  0.00  0.00    -0.004 A 
ENDROOT
TORSDOF 0
ENDMDL
