MODEL 1
REMARK minimizedAffinity -1.76088977
REMARK minimizedRMSD -1
REMARK  0 active torsions:
REMARK  status: ('A' for Active; 'I' for Inactive)
ROOT
ATOM      1  C   UNL d   1       3.011   6.000  -2.940  0.00  0.00     0.172 C 
ATOM      2  N   UNL d   1       4.027   5.010  -3.206  0.00  0.00    -0.070 N 
ATOM      3  C1  UNL d   1       5.371   5.252  -3.303  0.00  0.00    -0.004 A 
ATOM      4  C2  UNL d   1       5.999   4.053  -3.564  0.00  0.00    -0.047 A 
ATOM      5  C3  UNL d   1       4.996   3.055  -3.626  0.00  0.00    -0.047 A 
ATOM      6  C4  UNL d   1       3.786   3.675  -3.401  0.00  0.00    -0.004 A 
ENDROOT
TORSDOF 0
ENDMDL
