MODEL 1
REMARK minimizedAffinity 4.66980076
REMARK minimizedRMSD -1
REMARK  0 active torsions:
REMARK  status: ('A' for Active; 'I' for Inactive)
ROOT
ATOM      1  C   UNL d   1       0.871  -1.810  -2.541  0.00  0.00     0.172 C 
ATOM      2  N   UNL d   1       0.556  -2.521  -1.324  0.00  0.00    -0.070 N 
ATOM      3  C1  UNL d   1       1.052  -3.746  -0.964  0.00  0.00    -0.004 A 
ATOM      4  C2  UNL d   1       0.511  -4.077   0.260  0.00  0.00    -0.047 A 
ATOM      5  C3  UNL d   1      -0.340  -3.015   0.648  0.00  0.00    -0.047 A 
ATOM      6  C4  UNL d   1      -0.294  -2.066  -0.351  0.00  0.00    -0.004 A 
ENDROOT
TORSDOF 0
ENDMDL
