MODEL 1
REMARK minimizedAffinity 2.74541616
REMARK minimizedRMSD -1
REMARK  0 active torsions:
REMARK  status: ('A' for Active; 'I' for Inactive)
ROOT
ATOM      1  C   UNL d   1      -2.556  -2.762   0.421  0.00  0.00     0.172 C 
ATOM      2  N   UNL d   1      -1.171  -3.168   0.467  0.00  0.00    -0.070 N 
ATOM      3  C1  UNL d   1      -0.450  -3.418   1.604  0.00  0.00    -0.004 A 
ATOM      4  C2  UNL d   1       0.825  -3.778   1.224  0.00  0.00    -0.047 A 
ATOM      5  C3  UNL d   1       0.872  -3.742  -0.190  0.00  0.00    -0.047 A 
ATOM      6  C4  UNL d   1      -0.377  -3.362  -0.633  0.00  0.00    -0.004 A 
ENDROOT
TORSDOF 0
ENDMDL
