MODEL 1
REMARK minimizedAffinity -0.625802696
REMARK minimizedRMSD -1
REMARK  0 active torsions:
REMARK  status: ('A' for Active; 'I' for Inactive)
ROOT
ATOM      1  C   UNL d   1      -1.074  -0.518   2.403  0.00  0.00     0.172 C 
ATOM      2  N   UNL d   1      -0.896  -1.368   1.249  0.00  0.00    -0.070 N 
ATOM      3  C1  UNL d   1      -0.688  -0.938  -0.034  0.00  0.00    -0.004 A 
ATOM      4  C2  UNL d   1      -0.567  -2.052  -0.837  0.00  0.00    -0.047 A 
ATOM      5  C3  UNL d   1      -0.710  -3.190  -0.008  0.00  0.00    -0.047 A 
ATOM      6  C4  UNL d   1      -0.912  -2.737   1.278  0.00  0.00    -0.004 A 
ENDROOT
TORSDOF 0
ENDMDL
