MODEL 1
REMARK minimizedAffinity -3.86082983
REMARK minimizedRMSD -1
REMARK  0 active torsions:
REMARK  status: ('A' for Active; 'I' for Inactive)
ROOT
ATOM      1  C   UNL d   1      -0.731  -0.411   0.531  0.00  0.00     0.172 C 
ATOM      2  N   UNL d   1      -0.093  -1.632   0.100  0.00  0.00    -0.070 N 
ATOM      3  C1  UNL d   1       1.156  -1.729  -0.451  0.00  0.00    -0.004 A 
ATOM      4  C2  UNL d   1       1.396  -3.058  -0.724  0.00  0.00    -0.047 A 
ATOM      5  C3  UNL d   1       0.250  -3.786  -0.324  0.00  0.00    -0.047 A 
ATOM      6  C4  UNL d   1      -0.656  -2.879   0.183  0.00  0.00    -0.004 A 
ENDROOT
TORSDOF 0
ENDMDL
