MODEL 1
REMARK minimizedAffinity -2.25294542
REMARK minimizedRMSD -1
REMARK  0 active torsions:
REMARK  status: ('A' for Active; 'I' for Inactive)
ROOT
ATOM      1  C   UNL d   1       5.989  -4.997   5.820  0.00  0.00     0.172 C 
ATOM      2  N   UNL d   1       5.340  -3.709   5.893  0.00  0.00    -0.070 N 
ATOM      3  C1  UNL d   1       5.975  -2.497   5.933  0.00  0.00    -0.004 A 
ATOM      4  C2  UNL d   1       5.009  -1.516   5.999  0.00  0.00    -0.047 A 
ATOM      5  C3  UNL d   1       3.750  -2.162   5.999  0.00  0.00    -0.047 A 
ATOM      6  C4  UNL d   1       3.984  -3.519   5.933  0.00  0.00    -0.004 A 
ENDROOT
TORSDOF 0
ENDMDL
