MODEL 1
REMARK minimizedAffinity 1.68936837
REMARK minimizedRMSD -1
REMARK  0 active torsions:
REMARK  status: ('A' for Active; 'I' for Inactive)
ROOT
ATOM      1  C   UNL d   1       5.944  -5.042   5.449  0.00  0.00     0.172 C 
ATOM      2  N   UNL d   1       5.351  -3.731   5.575  0.00  0.00    -0.070 N 
ATOM      3  C1  UNL d   1       5.983  -2.542   5.329  0.00  0.00    -0.004 A 
ATOM      4  C2  UNL d   1       5.080  -1.528   5.563  0.00  0.00    -0.047 A 
ATOM      5  C3  UNL d   1       3.863  -2.128   5.965  0.00  0.00    -0.047 A 
ATOM      6  C4  UNL d   1       4.059  -3.493   5.964  0.00  0.00    -0.004 A 
ENDROOT
TORSDOF 0
ENDMDL
