MODEL 1
REMARK minimizedAffinity -2.71258044
REMARK minimizedRMSD -1
REMARK  0 active torsions:
REMARK  status: ('A' for Active; 'I' for Inactive)
ROOT
ATOM      1  C   UNL d   1      -1.631   0.391   1.330  0.00  0.00     0.172 C 
ATOM      2  N   UNL d   1      -0.857  -0.646   0.689  0.00  0.00    -0.070 N 
ATOM      3  C1  UNL d   1      -1.151  -1.983   0.698  0.00  0.00    -0.004 A 
ATOM      4  C2  UNL d   1      -0.174  -2.635  -0.023  0.00  0.00    -0.047 A 
ATOM      5  C3  UNL d   1       0.740  -1.655  -0.480  0.00  0.00    -0.047 A 
ATOM      6  C4  UNL d   1       0.293  -0.433  -0.025  0.00  0.00    -0.004 A 
ENDROOT
TORSDOF 0
ENDMDL
