MODEL 1
REMARK minimizedAffinity -5.93944359
REMARK minimizedRMSD -1
REMARK  0 active torsions:
REMARK  status: ('A' for Active; 'I' for Inactive)
ROOT
ATOM      1  C4' PXY d   1       1.115  -0.380  -0.782  0.00  0.00     0.077 C 
ATOM      2  C1' PXY d   1       1.710   5.367  -0.959  0.00  0.00     0.077 C 
ATOM      3  C1  PXY d   1       1.555   3.861  -0.900  0.00  0.00    -0.082 A 
ATOM      4  C2  PXY d   1       1.831   3.132  -1.969  0.00  0.00     0.003 A 
ATOM      5  C3  PXY d   1       1.666   1.771  -1.943  0.00  0.00     0.003 A 
ATOM      6  C4  PXY d   1       1.266   1.144  -0.794  0.00  0.00    -0.082 A 
ATOM      7  C5  PXY d   1       0.992   1.879   0.305  0.00  0.00     0.003 A 
ATOM      8  C6  PXY d   1       1.127   3.263   0.245  0.00  0.00     0.003 A 
ENDROOT
TORSDOF 0
ENDMDL
