MODEL 1
REMARK minimizedAffinity -2.87087703
REMARK minimizedRMSD -1
REMARK  0 active torsions:
REMARK  status: ('A' for Active; 'I' for Inactive)
ROOT
ATOM      1  C4' PXY d   1       2.219   4.947  -1.155  0.00  0.00     0.077 C 
ATOM      2  C1' PXY d   1       0.706  -0.606  -0.608  0.00  0.00     0.077 C 
ATOM      3  C1  PXY d   1       1.108   0.848  -0.763  0.00  0.00    -0.082 A 
ATOM      4  C2  PXY d   1       1.282   1.597   0.314  0.00  0.00     0.003 A 
ATOM      5  C3  PXY d   1       1.614   2.922   0.191  0.00  0.00     0.003 A 
ATOM      6  C4  PXY d   1       1.822   3.472  -1.046  0.00  0.00    -0.082 A 
ATOM      7  C5  PXY d   1       1.657   2.711  -2.149  0.00  0.00     0.003 A 
ATOM      8  C6  PXY d   1       1.280   1.379  -2.004  0.00  0.00     0.003 A 
ENDROOT
TORSDOF 0
ENDMDL
