MODEL 1
REMARK minimizedAffinity -1.06085145
REMARK minimizedRMSD -1
REMARK  0 active torsions:
REMARK  status: ('A' for Active; 'I' for Inactive)
ROOT
ATOM      1  C4' PXY d   1       1.504   5.081  -1.074  0.00  0.00     0.077 C 
ATOM      2  C1' PXY d   1       0.891  -0.665  -1.216  0.00  0.00     0.077 C 
ATOM      3  C1  PXY d   1       1.059   0.841  -1.189  0.00  0.00    -0.082 A 
ATOM      4  C2  PXY d   1       0.907   1.496  -0.050  0.00  0.00     0.003 A 
ATOM      5  C3  PXY d   1       1.024   2.862  -0.014  0.00  0.00     0.003 A 
ATOM      6  C4  PXY d   1       1.353   3.559  -1.146  0.00  0.00    -0.082 A 
ATOM      7  C5  PXY d   1       1.520   2.897  -2.310  0.00  0.00     0.003 A 
ATOM      8  C6  PXY d   1       1.356   1.515  -2.334  0.00  0.00     0.003 A 
ENDROOT
TORSDOF 0
ENDMDL
