MODEL 1
REMARK minimizedAffinity 0.575908244
REMARK minimizedRMSD -1
REMARK  0 active torsions:
REMARK  status: ('A' for Active; 'I' for Inactive)
ROOT
ATOM      1  C4' PXY d   1       1.280  -0.156  -3.093  0.00  0.00     0.077 C 
ATOM      2  C1' PXY d   1       1.704   2.638   1.950  0.00  0.00     0.077 C 
ATOM      3  C1  PXY d   1       1.588   1.916   0.622  0.00  0.00    -0.082 A 
ATOM      4  C2  PXY d   1       1.467   0.599   0.602  0.00  0.00     0.003 A 
ATOM      5  C3  PXY d   1       1.393  -0.073  -0.591  0.00  0.00     0.003 A 
ATOM      6  C4  PXY d   1       1.390   0.615  -1.775  0.00  0.00    -0.082 A 
ATOM      7  C5  PXY d   1       1.503   1.961  -1.762  0.00  0.00     0.003 A 
ATOM      8  C6  PXY d   1       1.618   2.620  -0.542  0.00  0.00     0.003 A 
ENDROOT
TORSDOF 0
ENDMDL
