MODEL 1
REMARK minimizedAffinity -3.68636107
REMARK minimizedRMSD -1
REMARK  0 active torsions:
REMARK  status: ('A' for Active; 'I' for Inactive)
ROOT
ATOM      1  C4' PXY d   1       0.837  -0.271  -0.758  0.00  0.00     0.077 C 
ATOM      2  C1' PXY d   1       1.838   5.421  -0.627  0.00  0.00     0.077 C 
ATOM      3  C1  PXY d   1       1.580   3.927  -0.649  0.00  0.00    -0.082 A 
ATOM      4  C2  PXY d   1       1.559   3.284  -1.805  0.00  0.00     0.003 A 
ATOM      5  C3  PXY d   1       1.295   1.939  -1.846  0.00  0.00     0.003 A 
ATOM      6  C4  PXY d   1       1.103   1.235  -0.687  0.00  0.00    -0.082 A 
ATOM      7  C5  PXY d   1       1.133   1.882   0.497  0.00  0.00     0.003 A 
ATOM      8  C6  PXY d   1       1.361   3.255   0.514  0.00  0.00     0.003 A 
ENDROOT
TORSDOF 0
ENDMDL
