MODEL 1
REMARK minimizedAffinity -2.75500488
REMARK minimizedRMSD -1
REMARK  0 active torsions:
REMARK  status: ('A' for Active; 'I' for Inactive)
ROOT
ATOM      1  C4' PXY d   1       1.301   1.037  -3.727  0.00  0.00     0.077 C 
ATOM      2  C1' PXY d   1       1.081   1.153   2.048  0.00  0.00     0.077 C 
ATOM      3  C1  PXY d   1       1.139   1.136   0.533  0.00  0.00    -0.082 A 
ATOM      4  C2  PXY d   1       0.642   0.104  -0.129  0.00  0.00     0.003 A 
ATOM      5  C3  PXY d   1       0.715   0.057  -1.497  0.00  0.00     0.003 A 
ATOM      6  C4  PXY d   1       1.256   1.102  -2.198  0.00  0.00    -0.082 A 
ATOM      7  C5  PXY d   1       1.756   2.163  -1.530  0.00  0.00     0.003 A 
ATOM      8  C6  PXY d   1       1.709   2.172  -0.139  0.00  0.00     0.003 A 
ENDROOT
TORSDOF 0
ENDMDL
