MODEL 1
REMARK minimizedAffinity 8.69750309
REMARK minimizedRMSD -1
REMARK  0 active torsions:
REMARK  status: ('A' for Active; 'I' for Inactive)
ROOT
ATOM      1  C4' PXY d   1       2.660  -0.005   5.938  0.00  0.00     0.077 C 
ATOM      2  C1' PXY d   1      -2.685  -2.206   6.000  0.00  0.00     0.077 C 
ATOM      3  C1  PXY d   1      -1.288  -1.618   5.978  0.00  0.00    -0.082 A 
ATOM      4  C2  PXY d   1      -0.239  -2.424   5.987  0.00  0.00     0.003 A 
ATOM      5  C3  PXY d   1       1.032  -1.908   6.000  0.00  0.00     0.003 A 
ATOM      6  C4  PXY d   1       1.231  -0.555   5.949  0.00  0.00    -0.082 A 
ATOM      7  C5  PXY d   1       0.165   0.274   5.929  0.00  0.00     0.003 A 
ATOM      8  C6  PXY d   1      -1.116  -0.268   5.958  0.00  0.00     0.003 A 
ENDROOT
TORSDOF 0
ENDMDL
