MODEL 1
REMARK minimizedAffinity 1.05885172
REMARK minimizedRMSD -1
REMARK  0 active torsions:
REMARK  status: ('A' for Active; 'I' for Inactive)
ROOT
ATOM      1  C4' PXY d   1       2.768   0.495  -0.323  0.00  0.00     0.077 C 
ATOM      2  C1' PXY d   1      -0.494  -4.125  -1.519  0.00  0.00     0.077 C 
ATOM      3  C1  PXY d   1       0.361  -2.910  -1.218  0.00  0.00    -0.082 A 
ATOM      4  C2  PXY d   1       1.154  -2.914  -0.158  0.00  0.00     0.003 A 
ATOM      5  C3  PXY d   1       1.910  -1.812   0.147  0.00  0.00     0.003 A 
ATOM      6  C4  PXY d   1       1.894  -0.714  -0.671  0.00  0.00    -0.082 A 
ATOM      7  C5  PXY d   1       1.096  -0.706  -1.759  0.00  0.00     0.003 A 
ATOM      8  C6  PXY d   1       0.306  -1.819  -2.029  0.00  0.00     0.003 A 
ENDROOT
TORSDOF 0
ENDMDL
