MODEL 1
REMARK minimizedAffinity -5.57967234
REMARK minimizedRMSD -1
REMARK  0 active torsions:
REMARK  status: ('A' for Active; 'I' for Inactive)
ROOT
ATOM      1  C4' PXY d   1       2.140   5.444  -0.968  0.00  0.00     0.077 C 
ATOM      2  C1' PXY d   1       0.634  -0.096  -0.293  0.00  0.00     0.077 C 
ATOM      3  C1  PXY d   1       1.023   1.360  -0.459  0.00  0.00    -0.082 A 
ATOM      4  C2  PXY d   1       1.315   1.826  -1.662  0.00  0.00     0.003 A 
ATOM      5  C3  PXY d   1       1.700   3.132  -1.826  0.00  0.00     0.003 A 
ATOM      6  C4  PXY d   1       1.733   3.983  -0.754  0.00  0.00    -0.082 A 
ATOM      7  C5  PXY d   1       1.426   3.518   0.475  0.00  0.00     0.003 A 
ATOM      8  C6  PXY d   1       1.078   2.179   0.626  0.00  0.00     0.003 A 
ENDROOT
TORSDOF 0
ENDMDL
