MODEL 1
REMARK minimizedAffinity -3.36644411
REMARK minimizedRMSD -1
REMARK  0 active torsions:
REMARK  status: ('A' for Active; 'I' for Inactive)
ROOT
ATOM      1  C4' PXY d   1       1.636   5.696  -0.494  0.00  0.00     0.077 C 
ATOM      2  C1' PXY d   1       1.050  -0.016  -1.168  0.00  0.00     0.077 C 
ATOM      3  C1  PXY d   1       1.198   1.481  -0.980  0.00  0.00    -0.082 A 
ATOM      4  C2  PXY d   1       1.259   2.271  -2.039  0.00  0.00     0.003 A 
ATOM      5  C3  PXY d   1       1.426   3.624  -1.887  0.00  0.00     0.003 A 
ATOM      6  C4  PXY d   1       1.477   4.179  -0.637  0.00  0.00    -0.082 A 
ATOM      7  C5  PXY d   1       1.404   3.381   0.449  0.00  0.00     0.003 A 
ATOM      8  C6  PXY d   1       1.277   2.006   0.273  0.00  0.00     0.003 A 
ENDROOT
TORSDOF 0
ENDMDL
