MODEL 1
REMARK minimizedAffinity -4.05095625
REMARK minimizedRMSD -1
REMARK  0 active torsions:
REMARK  status: ('A' for Active; 'I' for Inactive)
ROOT
ATOM      1  C4' PXY d   1       0.742  -0.713  -0.192  0.00  0.00     0.077 C 
ATOM      2  C1' PXY d   1       1.474   4.955  -1.060  0.00  0.00     0.077 C 
ATOM      3  C1  PXY d   1       1.285   3.470  -0.820  0.00  0.00    -0.082 A 
ATOM      4  C2  PXY d   1       1.409   2.623  -1.829  0.00  0.00     0.003 A 
ATOM      5  C3  PXY d   1       1.210   1.280  -1.636  0.00  0.00     0.003 A 
ATOM      6  C4  PXY d   1       0.933   0.793  -0.386  0.00  0.00    -0.082 A 
ATOM      7  C5  PXY d   1       0.815   1.650   0.651  0.00  0.00     0.003 A 
ATOM      8  C6  PXY d   1       0.980   3.014   0.426  0.00  0.00     0.003 A 
ENDROOT
TORSDOF 0
ENDMDL
