MODEL 1
REMARK minimizedAffinity 0.51083982
REMARK minimizedRMSD -1
REMARK  0 active torsions:
REMARK  status: ('A' for Active; 'I' for Inactive)
ROOT
ATOM      1  C4' PXY d   1       1.016  -0.382  -0.328  0.00  0.00     0.077 C 
ATOM      2  C1' PXY d   1       1.787   5.285  -1.167  0.00  0.00     0.077 C 
ATOM      3  C1  PXY d   1       1.588   3.800  -0.934  0.00  0.00    -0.082 A 
ATOM      4  C2  PXY d   1       1.674   2.961  -1.954  0.00  0.00     0.003 A 
ATOM      5  C3  PXY d   1       1.465   1.619  -1.767  0.00  0.00     0.003 A 
ATOM      6  C4  PXY d   1       1.219   1.124  -0.514  0.00  0.00    -0.082 A 
ATOM      7  C5  PXY d   1       1.140   1.972   0.533  0.00  0.00     0.003 A 
ATOM      8  C6  PXY d   1       1.314   3.336   0.315  0.00  0.00     0.003 A 
ENDROOT
TORSDOF 0
ENDMDL
