MODEL 1
REMARK minimizedAffinity 6.18892288
REMARK minimizedRMSD -1
REMARK  0 active torsions:
REMARK  status: ('A' for Active; 'I' for Inactive)
ROOT
ATOM      1  C4' PXY d   1       2.030   3.230  -1.750  0.00  0.00     0.077 C 
ATOM      2  C1' PXY d   1       0.735  -1.973   0.411  0.00  0.00     0.077 C 
ATOM      3  C1  PXY d   1       1.073  -0.603  -0.144  0.00  0.00    -0.082 A 
ATOM      4  C2  PXY d   1       0.940  -0.372  -1.440  0.00  0.00     0.003 A 
ATOM      5  C3  PXY d   1       1.272   0.851  -1.963  0.00  0.00     0.003 A 
ATOM      6  C4  PXY d   1       1.692   1.865  -1.144  0.00  0.00    -0.082 A 
ATOM      7  C5  PXY d   1       1.819   1.640   0.181  0.00  0.00     0.003 A 
ATOM      8  C6  PXY d   1       1.517   0.379   0.687  0.00  0.00     0.003 A 
ENDROOT
TORSDOF 0
ENDMDL
