MODEL 1
REMARK minimizedAffinity -2.17628527
REMARK minimizedRMSD -1
REMARK  0 active torsions:
REMARK  status: ('A' for Active; 'I' for Inactive)
ROOT
ATOM      1  C4' PXY d   1       1.318  -1.108  -3.421  0.00  0.00     0.077 C 
ATOM      2  C1' PXY d   1       0.874   2.517   1.060  0.00  0.00     0.077 C 
ATOM      3  C1  PXY d   1       0.984   1.574  -0.122  0.00  0.00    -0.082 A 
ATOM      4  C2  PXY d   1       1.183   0.283   0.087  0.00  0.00     0.003 A 
ATOM      5  C3  PXY d   1       1.317  -0.578  -0.972  0.00  0.00     0.003 A 
ATOM      6  C4  PXY d   1       1.192  -0.122  -2.257  0.00  0.00    -0.082 A 
ATOM      7  C5  PXY d   1       0.977   1.193  -2.478  0.00  0.00     0.003 A 
ATOM      8  C6  PXY d   1       0.886   2.057  -1.391  0.00  0.00     0.003 A 
ENDROOT
TORSDOF 0
ENDMDL
