MODEL 1
REMARK minimizedAffinity -3.15671897
REMARK minimizedRMSD -1
REMARK  0 active torsions:
REMARK  status: ('A' for Active; 'I' for Inactive)
ROOT
ATOM      1  C4' PXY d   1       1.657   4.863  -0.879  0.00  0.00     0.077 C 
ATOM      2  C1' PXY d   1       0.898  -0.864  -0.669  0.00  0.00     0.077 C 
ATOM      3  C1  PXY d   1       1.088   0.639  -0.715  0.00  0.00    -0.082 A 
ATOM      4  C2  PXY d   1       1.618   1.199  -1.791  0.00  0.00     0.003 A 
ATOM      5  C3  PXY d   1       1.826   2.554  -1.837  0.00  0.00     0.003 A 
ATOM      6  C4  PXY d   1       1.439   3.350  -0.792  0.00  0.00    -0.082 A 
ATOM      7  C5  PXY d   1       0.888   2.787   0.305  0.00  0.00     0.003 A 
ATOM      8  C6  PXY d   1       0.723   1.406   0.348  0.00  0.00     0.003 A 
ENDROOT
TORSDOF 0
ENDMDL
