MODEL 1
REMARK minimizedAffinity -2.23158932
REMARK minimizedRMSD -1
REMARK  0 active torsions:
REMARK  status: ('A' for Active; 'I' for Inactive)
ROOT
ATOM      1  C4' PXY d   1       1.922   4.618  -1.454  0.00  0.00     0.077 C 
ATOM      2  C1' PXY d   1       0.807  -0.859   0.018  0.00  0.00     0.077 C 
ATOM      3  C1  PXY d   1       1.106   0.573  -0.378  0.00  0.00    -0.082 A 
ATOM      4  C2  PXY d   1       1.131   1.517   0.549  0.00  0.00     0.003 A 
ATOM      5  C3  PXY d   1       1.368   2.822   0.203  0.00  0.00     0.003 A 
ATOM      6  C4  PXY d   1       1.634   3.157  -1.098  0.00  0.00    -0.082 A 
ATOM      7  C5  PXY d   1       1.621   2.198  -2.048  0.00  0.00     0.003 A 
ATOM      8  C6  PXY d   1       1.337   0.885  -1.682  0.00  0.00     0.003 A 
ENDROOT
TORSDOF 0
ENDMDL
