MODEL 1
REMARK minimizedAffinity 0.468105853
REMARK minimizedRMSD -1
REMARK  0 active torsions:
REMARK  status: ('A' for Active; 'I' for Inactive)
ROOT
ATOM      1  C4' PXY d   1      -5.679  -2.632   3.167  0.00  0.00     0.077 C 
ATOM      2  C1' PXY d   1      -3.746   2.761   3.941  0.00  0.00     0.077 C 
ATOM      3  C1  PXY d   1      -4.241   1.343   3.734  0.00  0.00    -0.082 A 
ATOM      4  C2  PXY d   1      -5.531   1.123   3.533  0.00  0.00     0.003 A 
ATOM      5  C3  PXY d   1      -6.000  -0.156   3.376  0.00  0.00     0.003 A 
ATOM      6  C4  PXY d   1      -5.133  -1.216   3.371  0.00  0.00    -0.082 A 
ATOM      7  C5  PXY d   1      -3.815  -0.999   3.564  0.00  0.00     0.003 A 
ATOM      8  C6  PXY d   1      -3.364   0.303   3.763  0.00  0.00     0.003 A 
ENDROOT
TORSDOF 0
ENDMDL
