MODEL 1
REMARK minimizedAffinity -1.98195434
REMARK minimizedRMSD -1
REMARK  0 active torsions:
REMARK  status: ('A' for Active; 'I' for Inactive)
ROOT
ATOM      1  C4' PXY d   1       0.900   3.436   1.605  0.00  0.00     0.077 C 
ATOM      2  C1' PXY d   1       1.261  -1.036  -2.040  0.00  0.00     0.077 C 
ATOM      3  C1  PXY d   1       1.162   0.128  -1.075  0.00  0.00    -0.082 A 
ATOM      4  C2  PXY d   1       0.989   1.354  -1.544  0.00  0.00     0.003 A 
ATOM      5  C3  PXY d   1       0.930   2.422  -0.686  0.00  0.00     0.003 A 
ATOM      6  C4  PXY d   1       0.995   2.229   0.667  0.00  0.00    -0.082 A 
ATOM      7  C5  PXY d   1       1.161   0.980   1.154  0.00  0.00     0.003 A 
ATOM      8  C6  PXY d   1       1.260  -0.086   0.265  0.00  0.00     0.003 A 
ENDROOT
TORSDOF 0
ENDMDL
