MODEL 1
REMARK minimizedAffinity -2.4624052
REMARK minimizedRMSD -1
REMARK  0 active torsions:
REMARK  status: ('A' for Active; 'I' for Inactive)
ROOT
ATOM      1  C4' PXY d   1       1.344   4.816  -1.225  0.00  0.00     0.077 C 
ATOM      2  C1' PXY d   1       1.150  -0.956  -0.993  0.00  0.00     0.077 C 
ATOM      3  C1  PXY d   1       1.209   0.557  -1.064  0.00  0.00    -0.082 A 
ATOM      4  C2  PXY d   1       0.872   1.275  -0.004  0.00  0.00     0.003 A 
ATOM      5  C3  PXY d   1       0.890   2.645  -0.061  0.00  0.00     0.003 A 
ATOM      6  C4  PXY d   1       1.308   3.286  -1.196  0.00  0.00    -0.082 A 
ATOM      7  C5  PXY d   1       1.664   2.560  -2.277  0.00  0.00     0.003 A 
ATOM      8  C6  PXY d   1       1.599   1.171  -2.213  0.00  0.00     0.003 A 
ENDROOT
TORSDOF 0
ENDMDL
