MODEL 1
REMARK minimizedAffinity -2.36702299
REMARK minimizedRMSD -1
REMARK  0 active torsions:
REMARK  status: ('A' for Active; 'I' for Inactive)
ROOT
ATOM      1  C4' PXY d   1       1.783   5.374  -0.778  0.00  0.00     0.077 C 
ATOM      2  C1' PXY d   1       0.420  -0.192  -1.539  0.00  0.00     0.077 C 
ATOM      3  C1  PXY d   1       0.778   1.266  -1.326  0.00  0.00    -0.082 A 
ATOM      4  C2  PXY d   1       0.418   2.166  -2.227  0.00  0.00     0.003 A 
ATOM      5  C3  PXY d   1       0.762   3.483  -2.067  0.00  0.00     0.003 A 
ATOM      6  C4  PXY d   1       1.435   3.892  -0.946  0.00  0.00    -0.082 A 
ATOM      7  C5  PXY d   1       1.796   2.982  -0.018  0.00  0.00     0.003 A 
ATOM      8  C6  PXY d   1       1.474   1.643  -0.219  0.00  0.00     0.003 A 
ENDROOT
TORSDOF 0
ENDMDL
