MODEL 1
REMARK minimizedAffinity 8.26994801
REMARK minimizedRMSD -1
REMARK  0 active torsions:
REMARK  status: ('A' for Active; 'I' for Inactive)
ROOT
ATOM      1  C4' PXY d   1      -1.073  -1.186  -3.703  0.00  0.00     0.077 C 
ATOM      2  C1' PXY d   1      -1.050   2.734   0.545  0.00  0.00     0.077 C 
ATOM      3  C1  PXY d   1      -1.064   1.698  -0.562  0.00  0.00    -0.082 A 
ATOM      4  C2  PXY d   1      -0.034   1.609  -1.388  0.00  0.00     0.003 A 
ATOM      5  C3  PXY d   1      -0.045   0.700  -2.414  0.00  0.00     0.003 A 
ATOM      6  C4  PXY d   1      -1.098  -0.162  -2.565  0.00  0.00    -0.082 A 
ATOM      7  C5  PXY d   1      -2.148  -0.084  -1.720  0.00  0.00     0.003 A 
ATOM      8  C6  PXY d   1      -2.136   0.873  -0.710  0.00  0.00     0.003 A 
ENDROOT
TORSDOF 0
ENDMDL
