MODEL 1
REMARK minimizedAffinity 4.97914648
REMARK minimizedRMSD -1
REMARK  0 active torsions:
REMARK  status: ('A' for Active; 'I' for Inactive)
ROOT
ATOM      1  C4' PXY d   1      -0.042  -0.984   4.505  0.00  0.00     0.077 C 
ATOM      2  C1' PXY d   1      -0.274   2.625  -0.005  0.00  0.00     0.077 C 
ATOM      3  C1  PXY d   1      -0.208   1.669   1.170  0.00  0.00    -0.082 A 
ATOM      4  C2  PXY d   1      -1.026   1.837   2.196  0.00  0.00     0.003 A 
ATOM      5  C3  PXY d   1      -0.958   1.001   3.281  0.00  0.00     0.003 A 
ATOM      6  C4  PXY d   1      -0.080  -0.049   3.293  0.00  0.00    -0.082 A 
ATOM      7  C5  PXY d   1       0.751  -0.233   2.245  0.00  0.00     0.003 A 
ATOM      8  C6  PXY d   1       0.694   0.651   1.171  0.00  0.00     0.003 A 
ENDROOT
TORSDOF 0
ENDMDL
