MODEL 1
REMARK minimizedAffinity 9.77704716
REMARK minimizedRMSD -1
REMARK  0 active torsions:
REMARK  status: ('A' for Active; 'I' for Inactive)
ROOT
ATOM      1  C4' PXY d   1      -5.870  -5.998  -5.995  0.00  0.00     0.077 C 
ATOM      2  C1' PXY d   1      -0.799  -5.907  -3.223  0.00  0.00     0.077 C 
ATOM      3  C1  PXY d   1      -2.123  -5.926  -3.960  0.00  0.00    -0.082 A 
ATOM      4  C2  PXY d   1      -3.254  -5.890  -3.275  0.00  0.00     0.003 A 
ATOM      5  C3  PXY d   1      -4.461  -5.938  -3.925  0.00  0.00     0.003 A 
ATOM      6  C4  PXY d   1      -4.510  -5.971  -5.293  0.00  0.00    -0.082 A 
ATOM      7  C5  PXY d   1      -3.360  -5.998  -5.999  0.00  0.00     0.003 A 
ATOM      8  C6  PXY d   1      -2.146  -5.990  -5.319  0.00  0.00     0.003 A 
ENDROOT
TORSDOF 0
ENDMDL
