MODEL 1
REMARK minimizedAffinity 12.6655712
REMARK minimizedRMSD -1
REMARK  0 active torsions:
REMARK  status: ('A' for Active; 'I' for Inactive)
ROOT
ATOM      1  C4' PXY d   1      -1.819   3.624  -1.933  0.00  0.00     0.077 C 
ATOM      2  C1' PXY d   1       1.673   2.353   2.495  0.00  0.00     0.077 C 
ATOM      3  C1  PXY d   1       0.747   2.679   1.339  0.00  0.00    -0.082 A 
ATOM      4  C2  PXY d   1       1.259   3.017   0.167  0.00  0.00     0.003 A 
ATOM      5  C3  PXY d   1       0.437   3.347  -0.880  0.00  0.00     0.003 A 
ATOM      6  C4  PXY d   1      -0.923   3.277  -0.741  0.00  0.00    -0.082 A 
ATOM      7  C5  PXY d   1      -1.453   2.923   0.449  0.00  0.00     0.003 A 
ATOM      8  C6  PXY d   1      -0.602   2.632   1.511  0.00  0.00     0.003 A 
ENDROOT
TORSDOF 0
ENDMDL
