MODEL 1
REMARK minimizedAffinity 8.07739449
REMARK minimizedRMSD -1
REMARK  0 active torsions:
REMARK  status: ('A' for Active; 'I' for Inactive)
ROOT
ATOM      1  C4' PXY d   1      -1.884   3.138   1.528  0.00  0.00     0.077 C 
ATOM      2  C1' PXY d   1      -0.722   0.764  -3.613  0.00  0.00     0.077 C 
ATOM      3  C1  PXY d   1      -1.021   1.376  -2.259  0.00  0.00    -0.082 A 
ATOM      4  C2  PXY d   1      -2.010   2.247  -2.138  0.00  0.00     0.003 A 
ATOM      5  C3  PXY d   1      -2.274   2.835  -0.928  0.00  0.00     0.003 A 
ATOM      6  C4  PXY d   1      -1.552   2.487   0.183  0.00  0.00    -0.082 A 
ATOM      7  C5  PXY d   1      -0.549   1.591   0.070  0.00  0.00     0.003 A 
ATOM      8  C6  PXY d   1      -0.270   1.037  -1.176  0.00  0.00     0.003 A 
ENDROOT
TORSDOF 0
ENDMDL
