MODEL 1
REMARK minimizedAffinity 11.91675
REMARK minimizedRMSD -1
REMARK  0 active torsions:
REMARK  status: ('A' for Active; 'I' for Inactive)
ROOT
ATOM      1  C4' PXY d   1      -1.063   2.479   0.852  0.00  0.00     0.077 C 
ATOM      2  C1' PXY d   1      -1.217  -0.303  -4.213  0.00  0.00     0.077 C 
ATOM      3  C1  PXY d   1      -1.189   0.430  -2.887  0.00  0.00    -0.082 A 
ATOM      4  C2  PXY d   1      -0.028   0.783  -2.359  0.00  0.00     0.003 A 
ATOM      5  C3  PXY d   1       0.018   1.419  -1.145  0.00  0.00     0.003 A 
ATOM      6  C4  PXY d   1      -1.140   1.745  -0.490  0.00  0.00    -0.082 A 
ATOM      7  C5  PXY d   1      -2.329   1.398  -1.027  0.00  0.00     0.003 A 
ATOM      8  C6  PXY d   1      -2.351   0.716  -2.240  0.00  0.00     0.003 A 
ENDROOT
TORSDOF 0
ENDMDL
