MODEL 1
REMARK minimizedAffinity 9.08760452
REMARK minimizedRMSD -1
REMARK  0 active torsions:
REMARK  status: ('A' for Active; 'I' for Inactive)
ROOT
ATOM      1  C4' PXY d   1       0.107   2.080   0.364  0.00  0.00     0.077 C 
ATOM      2  C1' PXY d   1      -1.752  -0.130  -4.643  0.00  0.00     0.077 C 
ATOM      3  C1  PXY d   1      -1.275   0.444  -3.324  0.00  0.00    -0.082 A 
ATOM      4  C2  PXY d   1      -0.492   1.511  -3.320  0.00  0.00     0.003 A 
ATOM      5  C3  PXY d   1      -0.025   2.024  -2.138  0.00  0.00     0.003 A 
ATOM      6  C4  PXY d   1      -0.406   1.472  -0.944  0.00  0.00    -0.082 A 
ATOM      7  C5  PXY d   1      -1.214   0.390  -0.939  0.00  0.00     0.003 A 
ATOM      8  C6  PXY d   1      -1.644  -0.141  -2.152  0.00  0.00     0.003 A 
ENDROOT
TORSDOF 0
ENDMDL
