MODEL 1
REMARK minimizedAffinity 1.18710303
REMARK minimizedRMSD -1
REMARK  0 active torsions:
REMARK  status: ('A' for Active; 'I' for Inactive)
ROOT
ATOM      1  C4' PXY d   1      -0.916   2.998  -3.226  0.00  0.00     0.077 C 
ATOM      2  C1' PXY d   1      -0.094   2.314   2.455  0.00  0.00     0.077 C 
ATOM      3  C1  PXY d   1      -0.306   2.481   0.963  0.00  0.00    -0.082 A 
ATOM      4  C2  PXY d   1      -0.298   3.694   0.434  0.00  0.00     0.003 A 
ATOM      5  C3  PXY d   1      -0.519   3.865  -0.909  0.00  0.00     0.003 A 
ATOM      6  C4  PXY d   1      -0.697   2.781  -1.726  0.00  0.00    -0.082 A 
ATOM      7  C5  PXY d   1      -0.696   1.540  -1.195  0.00  0.00     0.003 A 
ATOM      8  C6  PXY d   1      -0.510   1.390   0.177  0.00  0.00     0.003 A 
ENDROOT
TORSDOF 0
ENDMDL
