MODEL 1
REMARK minimizedAffinity 9.2963438
REMARK minimizedRMSD -1
REMARK  0 active torsions:
REMARK  status: ('A' for Active; 'I' for Inactive)
ROOT
ATOM      1  C4' PXY d   1       0.776  -1.324   3.755  0.00  0.00     0.077 C 
ATOM      2  C1' PXY d   1      -0.217   3.393   0.565  0.00  0.00     0.077 C 
ATOM      3  C1  PXY d   1       0.050   2.151   1.392  0.00  0.00    -0.082 A 
ATOM      4  C2  PXY d   1      -0.739   1.864   2.415  0.00  0.00     0.003 A 
ATOM      5  C3  PXY d   1      -0.493   0.761   3.192  0.00  0.00     0.003 A 
ATOM      6  C4  PXY d   1       0.539  -0.085   2.887  0.00  0.00    -0.082 A 
ATOM      7  C5  PXY d   1       1.342   0.195   1.838  0.00  0.00     0.003 A 
ATOM      8  C6  PXY d   1       1.100   1.341   1.087  0.00  0.00     0.003 A 
ENDROOT
TORSDOF 0
ENDMDL
