MODEL 1
REMARK minimizedAffinity 1.37126923
REMARK minimizedRMSD -1
REMARK  0 active torsions:
REMARK  status: ('A' for Active; 'I' for Inactive)
ROOT
ATOM      1  C4' PXY d   1      -1.528   5.294   1.310  0.00  0.00     0.077 C 
ATOM      2  C1' PXY d   1       1.193   0.267   0.451  0.00  0.00     0.077 C 
ATOM      3  C1  PXY d   1       0.488   1.588   0.686  0.00  0.00    -0.082 A 
ATOM      4  C2  PXY d   1      -0.760   1.746   0.273  0.00  0.00     0.003 A 
ATOM      5  C3  PXY d   1      -1.402   2.945   0.449  0.00  0.00     0.003 A 
ATOM      6  C4  PXY d   1      -0.780   3.975   1.102  0.00  0.00    -0.082 A 
ATOM      7  C5  PXY d   1       0.489   3.818   1.536  0.00  0.00     0.003 A 
ATOM      8  C6  PXY d   1       1.138   2.607   1.310  0.00  0.00     0.003 A 
ENDROOT
TORSDOF 0
ENDMDL
