MODEL 1
REMARK minimizedAffinity 6.55001163
REMARK minimizedRMSD -1
REMARK  0 active torsions:
REMARK  status: ('A' for Active; 'I' for Inactive)
ROOT
ATOM      1  C4' PXY d   1       0.321  -0.832   4.537  0.00  0.00     0.077 C 
ATOM      2  C1' PXY d   1      -0.200   3.447   0.686  0.00  0.00     0.077 C 
ATOM      3  C1  PXY d   1      -0.056   2.318   1.687  0.00  0.00    -0.082 A 
ATOM      4  C2  PXY d   1      -0.953   2.180   2.651  0.00  0.00     0.003 A 
ATOM      5  C3  PXY d   1      -0.820   1.184   3.583  0.00  0.00     0.003 A 
ATOM      6  C4  PXY d   1       0.211   0.287   3.498  0.00  0.00    -0.082 A 
ATOM      7  C5  PXY d   1       1.124   0.415   2.512  0.00  0.00     0.003 A 
ATOM      8  C6  PXY d   1       0.994   1.458   1.599  0.00  0.00     0.003 A 
ENDROOT
TORSDOF 0
ENDMDL
