MODEL 1
REMARK minimizedAffinity -3.4470489
REMARK minimizedRMSD -1
REMARK  0 active torsions:
REMARK  status: ('A' for Active; 'I' for Inactive)
ROOT
ATOM      1  C   UNL d   1       1.217   3.284   0.411  0.00  0.00    -0.002 A 
ATOM      2  C1  UNL d   1       2.307   2.428   0.326  0.00  0.00     0.010 A 
ATOM      3  C2  UNL d   1       2.122   1.045   0.282  0.00  0.00     0.041 A 
ATOM      4  C3  UNL d   1       0.811   0.531   0.322  0.00  0.00    -0.075 A 
ATOM      5  S   UNL d   1       0.343  -1.128   0.279  0.00  0.00     0.015 SA
ATOM      6  C4  UNL d   1      -1.314  -0.740   0.371  0.00  0.00     0.022 A 
ATOM      7  C5  UNL d   1      -1.523   0.617   0.434  0.00  0.00     0.026 A 
ATOM      8  C6  UNL d   1      -0.302   1.372   0.406  0.00  0.00    -0.082 A 
ATOM      9  C7  UNL d   1      -0.082   2.770   0.451  0.00  0.00     0.045 A 
ENDROOT
TORSDOF 0
ENDMDL
