MODEL 1
REMARK minimizedAffinity -3.80229115
REMARK minimizedRMSD -1
REMARK  0 active torsions:
REMARK  status: ('A' for Active; 'I' for Inactive)
ROOT
ATOM      1  C   UNL d   1      -0.470   2.853   0.167  0.00  0.00    -0.002 A 
ATOM      2  C1  UNL d   1       0.885   2.734  -0.106  0.00  0.00     0.010 A 
ATOM      3  C2  UNL d   1       1.481   1.476  -0.211  0.00  0.00     0.041 A 
ATOM      4  C3  UNL d   1       0.683   0.328  -0.036  0.00  0.00    -0.075 A 
ATOM      5  S   UNL d   1       1.196  -1.317  -0.120  0.00  0.00     0.015 SA
ATOM      6  C4  UNL d   1      -0.373  -1.900   0.203  0.00  0.00     0.022 A 
ATOM      7  C5  UNL d   1      -1.277  -0.879   0.374  0.00  0.00     0.026 A 
ATOM      8  C6  UNL d   1      -0.684   0.422   0.238  0.00  0.00    -0.082 A 
ATOM      9  C7  UNL d   1      -1.258   1.712   0.339  0.00  0.00     0.045 A 
ENDROOT
TORSDOF 0
ENDMDL
