MODEL 1
REMARK minimizedAffinity -4.49647999
REMARK minimizedRMSD -1
REMARK  0 active torsions:
REMARK  status: ('A' for Active; 'I' for Inactive)
ROOT
ATOM      1  C   UNL d   1       0.105   2.602   0.011  0.00  0.00    -0.002 A 
ATOM      2  C1  UNL d   1      -1.032   2.089   0.619  0.00  0.00     0.010 A 
ATOM      3  C2  UNL d   1      -1.312   0.722   0.565  0.00  0.00     0.041 A 
ATOM      4  C3  UNL d   1      -0.419  -0.130  -0.115  0.00  0.00    -0.075 A 
ATOM      5  S   UNL d   1      -0.557  -1.837  -0.309  0.00  0.00     0.015 SA
ATOM      6  C4  UNL d   1       0.892  -1.927  -1.203  0.00  0.00     0.022 A 
ATOM      7  C5  UNL d   1       1.478  -0.694  -1.359  0.00  0.00     0.026 A 
ATOM      8  C6  UNL d   1       0.733   0.363  -0.734  0.00  0.00    -0.082 A 
ATOM      9  C7  UNL d   1       0.988   1.753  -0.663  0.00  0.00     0.045 A 
ENDROOT
TORSDOF 0
ENDMDL
