MODEL 1
REMARK minimizedAffinity -2.48557878
REMARK minimizedRMSD -1
REMARK  0 active torsions:
REMARK  status: ('A' for Active; 'I' for Inactive)
ROOT
ATOM      1  C   UNL d   1      -0.948   3.149  -0.044  0.00  0.00    -0.002 A 
ATOM      2  C1  UNL d   1       0.373   3.313  -0.435  0.00  0.00     0.010 A 
ATOM      3  C2  UNL d   1       1.245   2.223  -0.470  0.00  0.00     0.041 A 
ATOM      4  C3  UNL d   1       0.760   0.951  -0.104  0.00  0.00    -0.075 A 
ATOM      5  S   UNL d   1       1.645  -0.528  -0.072  0.00  0.00     0.015 SA
ATOM      6  C4  UNL d   1       0.289  -1.413   0.461  0.00  0.00     0.022 A 
ATOM      7  C5  UNL d   1      -0.819  -0.615   0.616  0.00  0.00     0.026 A 
ATOM      8  C6  UNL d   1      -0.566   0.761   0.292  0.00  0.00    -0.082 A 
ATOM      9  C7  UNL d   1      -1.425   1.886   0.318  0.00  0.00     0.045 A 
ENDROOT
TORSDOF 0
ENDMDL
