MODEL 1
REMARK minimizedAffinity -0.280727506
REMARK minimizedRMSD -1
REMARK  0 active torsions:
REMARK  status: ('A' for Active; 'I' for Inactive)
ROOT
ATOM      1  C   UNL d   1      -0.865   2.676   0.598  0.00  0.00    -0.002 A 
ATOM      2  C1  UNL d   1       0.395   2.880   0.053  0.00  0.00     0.010 A 
ATOM      3  C2  UNL d   1       1.175   1.797  -0.357  0.00  0.00     0.041 A 
ATOM      4  C3  UNL d   1       0.661   0.493  -0.211  0.00  0.00    -0.075 A 
ATOM      5  S   UNL d   1       1.437  -0.984  -0.645  0.00  0.00     0.015 SA
ATOM      6  C4  UNL d   1       0.114  -1.920  -0.119  0.00  0.00     0.022 A 
ATOM      7  C5  UNL d   1      -0.904  -1.141   0.379  0.00  0.00     0.026 A 
ATOM      8  C6  UNL d   1      -0.605   0.263   0.333  0.00  0.00    -0.082 A 
ATOM      9  C7  UNL d   1      -1.371   1.382   0.741  0.00  0.00     0.045 A 
ENDROOT
TORSDOF 0
ENDMDL
