MODEL 1
REMARK minimizedAffinity -4.93597507
REMARK minimizedRMSD -1
REMARK  0 active torsions:
REMARK  status: ('A' for Active; 'I' for Inactive)
ROOT
ATOM      1  C   UNL d   1      -0.881   2.915  -0.245  0.00  0.00    -0.002 A 
ATOM      2  C1  UNL d   1       0.493   2.894  -0.437  0.00  0.00     0.010 A 
ATOM      3  C2  UNL d   1       1.203   1.695  -0.351  0.00  0.00     0.041 A 
ATOM      4  C3  UNL d   1       0.502   0.506  -0.068  0.00  0.00    -0.075 A 
ATOM      5  S   UNL d   1       1.163  -1.079   0.083  0.00  0.00     0.015 SA
ATOM      6  C4  UNL d   1      -0.363  -1.765   0.406  0.00  0.00     0.022 A 
ATOM      7  C5  UNL d   1      -1.364  -0.822   0.402  0.00  0.00     0.026 A 
ATOM      8  C6  UNL d   1      -0.881   0.502   0.128  0.00  0.00    -0.082 A 
ATOM      9  C7  UNL d   1      -1.573   1.734   0.036  0.00  0.00     0.045 A 
ENDROOT
TORSDOF 0
ENDMDL
