MODEL 1
REMARK minimizedAffinity -0.64557761
REMARK minimizedRMSD -1
REMARK  0 active torsions:
REMARK  status: ('A' for Active; 'I' for Inactive)
ROOT
ATOM      1  C   UNL d   1       1.959  -0.880   0.541  0.00  0.00    -0.002 A 
ATOM      2  C1  UNL d   1       2.401   0.431   0.444  0.00  0.00     0.010 A 
ATOM      3  C2  UNL d   1       1.490   1.489   0.424  0.00  0.00     0.041 A 
ATOM      4  C3  UNL d   1       0.113   1.203   0.506  0.00  0.00    -0.075 A 
ATOM      5  S   UNL d   1      -1.186   2.337   0.501  0.00  0.00     0.015 SA
ATOM      6  C4  UNL d   1      -2.359   1.107   0.629  0.00  0.00     0.022 A 
ATOM      7  C5  UNL d   1      -1.791  -0.144   0.675  0.00  0.00     0.026 A 
ATOM      8  C6  UNL d   1      -0.357  -0.109   0.606  0.00  0.00    -0.082 A 
ATOM      9  C7  UNL d   1       0.592  -1.159   0.622  0.00  0.00     0.045 A 
ENDROOT
TORSDOF 0
ENDMDL
