MODEL 1
REMARK minimizedAffinity -2.7657392
REMARK minimizedRMSD -1
REMARK  0 active torsions:
REMARK  status: ('A' for Active; 'I' for Inactive)
ROOT
ATOM      1  C   UNL d   1      -0.001   2.974   0.151  0.00  0.00    -0.002 A 
ATOM      2  C1  UNL d   1       1.301   2.708  -0.246  0.00  0.00     0.010 A 
ATOM      3  C2  UNL d   1       1.737   1.393  -0.421  0.00  0.00     0.041 A 
ATOM      4  C3  UNL d   1       0.832   0.339  -0.188  0.00  0.00    -0.075 A 
ATOM      5  S   UNL d   1       1.142  -1.350  -0.339  0.00  0.00     0.015 SA
ATOM      6  C4  UNL d   1      -0.447  -1.759   0.120  0.00  0.00     0.022 A 
ATOM      7  C5  UNL d   1      -1.210  -0.647   0.386  0.00  0.00     0.026 A 
ATOM      8  C6  UNL d   1      -0.485   0.581   0.212  0.00  0.00    -0.082 A 
ATOM      9  C7  UNL d   1      -0.896   1.925   0.381  0.00  0.00     0.045 A 
ENDROOT
TORSDOF 0
ENDMDL
