MODEL 1
REMARK minimizedAffinity -2.13435078
REMARK minimizedRMSD -1
REMARK  0 active torsions:
REMARK  status: ('A' for Active; 'I' for Inactive)
ROOT
ATOM      1  C   UNL d   1       0.084   3.148  -0.019  0.00  0.00    -0.002 A 
ATOM      2  C1  UNL d   1      -1.164   2.554  -0.137  0.00  0.00     0.010 A 
ATOM      3  C2  UNL d   1      -1.292   1.163  -0.121  0.00  0.00     0.041 A 
ATOM      4  C3  UNL d   1      -0.134   0.373   0.019  0.00  0.00    -0.075 A 
ATOM      5  S   UNL d   1      -0.050  -1.348   0.066  0.00  0.00     0.015 SA
ATOM      6  C4  UNL d   1       1.645  -1.334   0.246  0.00  0.00     0.022 A 
ATOM      7  C5  UNL d   1       2.151  -0.056   0.271  0.00  0.00     0.026 A 
ATOM      8  C6  UNL d   1       1.133   0.949   0.141  0.00  0.00    -0.082 A 
ATOM      9  C7  UNL d   1       1.231   2.362   0.120  0.00  0.00     0.045 A 
ENDROOT
TORSDOF 0
ENDMDL
