MODEL 1
REMARK minimizedAffinity -0.0973233059
REMARK minimizedRMSD -1
REMARK  0 active torsions:
REMARK  status: ('A' for Active; 'I' for Inactive)
ROOT
ATOM      1  C   UNL d   1      -0.025  -0.773  -0.937  0.00  0.00    -0.002 A 
ATOM      2  C1  UNL d   1      -0.688  -0.899   0.275  0.00  0.00     0.010 A 
ATOM      3  C2  UNL d   1      -0.846   0.205   1.117  0.00  0.00     0.041 A 
ATOM      4  C3  UNL d   1      -0.322   1.449   0.714  0.00  0.00    -0.075 A 
ATOM      5  S   UNL d   1      -0.397   2.938   1.580  0.00  0.00     0.015 SA
ATOM      6  C4  UNL d   1       0.449   3.776   0.361  0.00  0.00     0.022 A 
ATOM      7  C5  UNL d   1       0.788   2.955  -0.689  0.00  0.00     0.026 A 
ATOM      8  C6  UNL d   1       0.348   1.601  -0.503  0.00  0.00    -0.082 A 
ATOM      9  C7  UNL d   1       0.493   0.463  -1.333  0.00  0.00     0.045 A 
ENDROOT
TORSDOF 0
ENDMDL
