MODEL 1
REMARK minimizedAffinity 20.2907639
REMARK minimizedRMSD -1
REMARK  0 active torsions:
REMARK  status: ('A' for Active; 'I' for Inactive)
ROOT
ATOM      1  C   UNL d   1       3.866  -2.538  -2.227  0.00  0.00    -0.002 A 
ATOM      2  C1  UNL d   1       3.925  -3.250  -1.038  0.00  0.00     0.010 A 
ATOM      3  C2  UNL d   1       2.982  -4.241  -0.755  0.00  0.00     0.041 A 
ATOM      4  C3  UNL d   1       1.970  -4.506  -1.698  0.00  0.00    -0.075 A 
ATOM      5  S   UNL d   1       0.708  -5.674  -1.568  0.00  0.00     0.015 SA
ATOM      6  C4  UNL d   1       0.062  -5.255  -3.088  0.00  0.00     0.022 A 
ATOM      7  C5  UNL d   1       0.778  -4.251  -3.694  0.00  0.00     0.026 A 
ATOM      8  C6  UNL d   1       1.890  -3.803  -2.903  0.00  0.00    -0.082 A 
ATOM      9  C7  UNL d   1       2.860  -2.804  -3.160  0.00  0.00     0.045 A 
ENDROOT
TORSDOF 0
ENDMDL
