MODEL 1
REMARK minimizedAffinity 5.39055252
REMARK minimizedRMSD -1
REMARK  1 active torsions:
REMARK  status: ('A' for Active; 'I' for Inactive)
REMARK    1  A    between atoms: C1_2  and  C2_3 
ROOT
ATOM      1  C2  UNL d   1      -5.633   5.167   2.162  0.00  0.00    -0.081 A 
ATOM      2  C3  UNL d   1      -5.705   5.979   3.300  0.00  0.00     0.006 A 
ATOM      3  C4  UNL d   1      -5.308   5.489   4.546  0.00  0.00     0.002 A 
ATOM      4  C5  UNL d   1      -4.823   4.183   4.673  0.00  0.00    -0.080 A 
ATOM      5  C6  UNL d   1      -4.364   3.655   6.000  0.00  0.00     0.076 C 
ATOM      6  C7  UNL d   1      -4.767   3.366   3.539  0.00  0.00     0.002 A 
ATOM      7  C8  UNL d   1      -5.165   3.855   2.293  0.00  0.00     0.006 A 
ENDROOT
BRANCH   1   8
ATOM      8  C1  UNL d   1      -6.000   5.714   0.806  0.00  0.00     0.054 C 
ATOM      9  C   UNL d   1      -5.126   5.116  -0.287  0.00  0.00     0.018 C 
ENDBRANCH   1   8
TORSDOF 1
ENDMDL
