MODEL 1
REMARK minimizedAffinity 19.7355175
REMARK minimizedRMSD -1
REMARK  1 active torsions:
REMARK  status: ('A' for Active; 'I' for Inactive)
REMARK    1  A    between atoms: C1_2  and  C2_3 
ROOT
ATOM      1  C2  UNL d   1      -4.329   2.141   3.479  0.00  0.00    -0.081 A 
ATOM      2  C3  UNL d   1      -5.177   2.864   2.630  0.00  0.00     0.006 A 
ATOM      3  C4  UNL d   1      -5.712   4.088   3.038  0.00  0.00     0.002 A 
ATOM      4  C5  UNL d   1      -5.402   4.614   4.297  0.00  0.00    -0.080 A 
ATOM      5  C6  UNL d   1      -5.945   5.941   4.736  0.00  0.00     0.076 C 
ATOM      6  C7  UNL d   1      -4.569   3.884   5.152  0.00  0.00     0.002 A 
ATOM      7  C8  UNL d   1      -4.034   2.659   4.744  0.00  0.00     0.006 A 
ENDROOT
BRANCH   1   8
ATOM      8  C1  UNL d   1      -3.699   0.852   3.016  0.00  0.00     0.054 C 
ATOM      9  C   UNL d   1      -4.515  -0.353   3.462  0.00  0.00     0.018 C 
ENDBRANCH   1   8
TORSDOF 1
ENDMDL
