MODEL 1
REMARK minimizedAffinity 4.97041607
REMARK minimizedRMSD -1
REMARK  1 active torsions:
REMARK  status: ('A' for Active; 'I' for Inactive)
REMARK    1  A    between atoms: C1_2  and  C2_3 
ROOT
ATOM      1  C2  UNL d   1       4.149   5.303   1.958  0.00  0.00    -0.081 A 
ATOM      2  C3  UNL d   1       4.100   3.968   1.536  0.00  0.00     0.006 A 
ATOM      3  C4  UNL d   1       2.873   3.347   1.295  0.00  0.00     0.002 A 
ATOM      4  C5  UNL d   1       1.675   4.050   1.463  0.00  0.00    -0.080 A 
ATOM      5  C6  UNL d   1       0.352   3.404   1.177  0.00  0.00     0.076 C 
ATOM      6  C7  UNL d   1       1.724   5.378   1.901  0.00  0.00     0.002 A 
ATOM      7  C8  UNL d   1       2.950   6.000   2.143  0.00  0.00     0.006 A 
ENDROOT
BRANCH   1   8
ATOM      8  C1  UNL d   1       5.473   5.995   2.157  0.00  0.00     0.054 C 
ATOM      9  C   UNL d   1       5.997   5.791   3.571  0.00  0.00     0.018 C 
ENDBRANCH   1   8
TORSDOF 1
ENDMDL
