MODEL 1
REMARK minimizedAffinity 7.96343088
REMARK minimizedRMSD -1
REMARK  1 active torsions:
REMARK  status: ('A' for Active; 'I' for Inactive)
REMARK    1  A    between atoms: C1_2  and  C2_3 
ROOT
ATOM      1  C2  UNL d   1       2.633   5.062  -4.914  0.00  0.00    -0.081 A 
ATOM      2  C3  UNL d   1       1.871   4.075  -4.277  0.00  0.00     0.006 A 
ATOM      3  C4  UNL d   1       2.448   3.247  -3.312  0.00  0.00     0.002 A 
ATOM      4  C5  UNL d   1       3.794   3.397  -2.962  0.00  0.00    -0.080 A 
ATOM      5  C6  UNL d   1       4.419   2.534  -1.905  0.00  0.00     0.076 C 
ATOM      6  C7  UNL d   1       4.561   4.371  -3.610  0.00  0.00     0.002 A 
ATOM      7  C8  UNL d   1       3.984   5.199  -4.575  0.00  0.00     0.006 A 
ENDROOT
BRANCH   1   8
ATOM      8  C1  UNL d   1       1.997   6.000  -5.908  0.00  0.00     0.054 C 
ATOM      9  C   UNL d   1       0.495   5.773  -6.000  0.00  0.00     0.018 C 
ENDBRANCH   1   8
TORSDOF 1
ENDMDL
