MODEL 1
REMARK minimizedAffinity 0.399882764
REMARK minimizedRMSD -1
REMARK  1 active torsions:
REMARK  status: ('A' for Active; 'I' for Inactive)
REMARK    1  A    between atoms: C1_2  and  C2_3 
ROOT
ATOM      1  C2  UNL d   1       4.554   3.961  -4.365  0.00  0.00    -0.081 A 
ATOM      2  C3  UNL d   1       4.654   5.296  -4.775  0.00  0.00     0.006 A 
ATOM      3  C4  UNL d   1       3.548   5.955  -5.316  0.00  0.00     0.002 A 
ATOM      4  C5  UNL d   1       2.322   5.294  -5.449  0.00  0.00    -0.080 A 
ATOM      5  C6  UNL d   1       1.119   6.000  -6.000  0.00  0.00     0.076 C 
ATOM      6  C7  UNL d   1       2.227   3.955  -5.055  0.00  0.00     0.002 A 
ATOM      7  C8  UNL d   1       3.333   3.295  -4.515  0.00  0.00     0.006 A 
ENDROOT
BRANCH   1   8
ATOM      8  C1  UNL d   1       5.727   3.267  -3.722  0.00  0.00     0.054 C 
ATOM      9  C   UNL d   1       5.394   2.811  -2.308  0.00  0.00     0.018 C 
ENDBRANCH   1   8
TORSDOF 1
ENDMDL
