MODEL 1
REMARK minimizedAffinity 8.66719055
REMARK minimizedRMSD -1
REMARK  1 active torsions:
REMARK  status: ('A' for Active; 'I' for Inactive)
REMARK    1  A    between atoms: C1_2  and  C2_3 
ROOT
ATOM      1  C2  UNL d   1       1.474   0.909   2.571  0.00  0.00    -0.081 A 
ATOM      2  C3  UNL d   1       1.268   1.284   1.237  0.00  0.00     0.006 A 
ATOM      3  C4  UNL d   1       2.185   0.919   0.249  0.00  0.00     0.002 A 
ATOM      4  C5  UNL d   1       3.318   0.166   0.575  0.00  0.00    -0.080 A 
ATOM      5  C6  UNL d   1       4.295  -0.258  -0.481  0.00  0.00     0.076 C 
ATOM      6  C7  UNL d   1       3.534  -0.193   1.910  0.00  0.00     0.002 A 
ATOM      7  C8  UNL d   1       2.617   0.173   2.899  0.00  0.00     0.006 A 
ENDROOT
BRANCH   1   8
ATOM      8  C1  UNL d   1       0.454   1.247   3.628  0.00  0.00     0.054 C 
ATOM      9  C   UNL d   1       0.659   0.407   4.881  0.00  0.00     0.018 C 
ENDBRANCH   1   8
TORSDOF 1
ENDMDL
