MODEL 1
REMARK minimizedAffinity 10.8148327
REMARK minimizedRMSD -1
REMARK  1 active torsions:
REMARK  status: ('A' for Active; 'I' for Inactive)
REMARK    1  A    between atoms: C1_2  and  C2_3 
ROOT
ATOM      1  C2  UNL d   1       3.572   1.329  -0.722  0.00  0.00    -0.081 A 
ATOM      2  C3  UNL d   1       3.740   0.130  -0.019  0.00  0.00     0.006 A 
ATOM      3  C4  UNL d   1       3.028  -0.106   1.159  0.00  0.00     0.002 A 
ATOM      4  C5  UNL d   1       2.131   0.848   1.650  0.00  0.00    -0.080 A 
ATOM      5  C6  UNL d   1       1.338   0.595   2.897  0.00  0.00     0.076 C 
ATOM      6  C7  UNL d   1       1.976   2.054   0.957  0.00  0.00     0.002 A 
ATOM      7  C8  UNL d   1       2.688   2.291  -0.221  0.00  0.00     0.006 A 
ENDROOT
BRANCH   1   8
ATOM      8  C1  UNL d   1       4.290   1.560  -2.027  0.00  0.00     0.054 C 
ATOM      9  C   UNL d   1       5.730   1.994  -1.797  0.00  0.00     0.018 C 
ENDBRANCH   1   8
TORSDOF 1
ENDMDL
