MODEL 1
REMARK minimizedAffinity 12.0052147
REMARK minimizedRMSD -1
REMARK  1 active torsions:
REMARK  status: ('A' for Active; 'I' for Inactive)
REMARK    1  A    between atoms: C1_2  and  C2_3 
ROOT
ATOM      1  C2  UNL d   1      -3.930  -5.146  -1.761  0.00  0.00    -0.081 A 
ATOM      2  C3  UNL d   1      -2.933  -5.715  -2.562  0.00  0.00     0.006 A 
ATOM      3  C4  UNL d   1      -2.153  -4.913  -3.399  0.00  0.00     0.002 A 
ATOM      4  C5  UNL d   1      -2.352  -3.529  -3.442  0.00  0.00    -0.080 A 
ATOM      5  C6  UNL d   1      -1.501  -2.653  -4.313  0.00  0.00     0.076 C 
ATOM      6  C7  UNL d   1      -3.360  -2.963  -2.655  0.00  0.00     0.002 A 
ATOM      7  C8  UNL d   1      -4.140  -3.764  -1.819  0.00  0.00     0.006 A 
ENDROOT
BRANCH   1   8
ATOM      8  C1  UNL d   1      -4.729  -6.000  -0.810  0.00  0.00     0.054 C 
ATOM      9  C   UNL d   1      -4.115  -6.000   0.583  0.00  0.00     0.018 C 
ENDBRANCH   1   8
TORSDOF 1
ENDMDL
