MODEL 1
REMARK minimizedAffinity 3.78591156
REMARK minimizedRMSD -1
REMARK  1 active torsions:
REMARK  status: ('A' for Active; 'I' for Inactive)
REMARK    1  A    between atoms: C1_2  and  C2_3 
ROOT
ATOM      1  C2  UNL d   1      -2.645  -2.905  -2.910  0.00  0.00    -0.081 A 
ATOM      2  C3  UNL d   1      -1.484  -3.652  -3.143  0.00  0.00     0.006 A 
ATOM      3  C4  UNL d   1      -0.374  -3.516  -2.305  0.00  0.00     0.002 A 
ATOM      4  C5  UNL d   1      -0.410  -2.638  -1.217  0.00  0.00    -0.080 A 
ATOM      5  C6  UNL d   1       0.763  -2.504  -0.292  0.00  0.00     0.076 C 
ATOM      6  C7  UNL d   1      -1.564  -1.879  -0.994  0.00  0.00     0.002 A 
ATOM      7  C8  UNL d   1      -2.673  -2.014  -1.832  0.00  0.00     0.006 A 
ENDROOT
BRANCH   1   8
ATOM      8  C1  UNL d   1      -3.866  -3.097  -3.773  0.00  0.00     0.054 C 
ATOM      9  C   UNL d   1      -5.108  -3.340  -2.928  0.00  0.00     0.018 C 
ENDBRANCH   1   8
TORSDOF 1
ENDMDL
