MODEL 1
REMARK minimizedAffinity 12.0358839
REMARK minimizedRMSD -1
REMARK  1 active torsions:
REMARK  status: ('A' for Active; 'I' for Inactive)
REMARK    1  A    between atoms: C1_2  and  C2_3 
ROOT
ATOM      1  C2  UNL d   1      -2.819  -3.304  -3.197  0.00  0.00    -0.081 A 
ATOM      2  C3  UNL d   1      -1.876  -2.346  -2.805  0.00  0.00     0.006 A 
ATOM      3  C4  UNL d   1      -0.908  -1.894  -3.705  0.00  0.00     0.002 A 
ATOM      4  C5  UNL d   1      -0.872  -2.386  -5.014  0.00  0.00    -0.080 A 
ATOM      5  C6  UNL d   1       0.142  -1.887  -6.000  0.00  0.00     0.076 C 
ATOM      6  C7  UNL d   1      -1.804  -3.355  -5.401  0.00  0.00     0.002 A 
ATOM      7  C8  UNL d   1      -2.771  -3.808  -4.501  0.00  0.00     0.006 A 
ENDROOT
BRANCH   1   8
ATOM      8  C1  UNL d   1      -3.904  -3.745  -2.248  0.00  0.00     0.054 C 
ATOM      9  C   UNL d   1      -5.181  -4.102  -2.995  0.00  0.00     0.018 C 
ENDBRANCH   1   8
TORSDOF 1
ENDMDL
