MODEL 1
REMARK minimizedAffinity 2.07456946
REMARK minimizedRMSD -1
REMARK  0 active torsions:
REMARK  status: ('A' for Active; 'I' for Inactive)
ROOT
ATOM      1  C1  BNZ d   1       5.990   4.095  -5.945  0.00  0.00     0.000 A 
ATOM      2  C2  BNZ d   1       4.882   3.291  -5.955  0.00  0.00     0.000 A 
ATOM      3  C3  BNZ d   1       3.626   3.829  -5.993  0.00  0.00     0.000 A 
ATOM      4  C4  BNZ d   1       3.479   5.170  -5.981  0.00  0.00     0.000 A 
ATOM      5  C5  BNZ d   1       4.586   5.995  -5.962  0.00  0.00     0.000 A 
ATOM      6  C6  BNZ d   1       5.849   5.449  -5.963  0.00  0.00     0.000 A 
ENDROOT
TORSDOF 0
ENDMDL
