MODEL 1
REMARK minimizedAffinity -2.98657084
REMARK minimizedRMSD -1
REMARK  0 active torsions:
REMARK  status: ('A' for Active; 'I' for Inactive)
ROOT
ATOM      1  C1  BNZ d   1       0.468   2.236   1.164  0.00  0.00     0.000 A 
ATOM      2  C2  BNZ d   1       0.930   3.213   0.323  0.00  0.00     0.000 A 
ATOM      3  C3  BNZ d   1       1.016   2.995  -1.023  0.00  0.00     0.000 A 
ATOM      4  C4  BNZ d   1       0.677   1.788  -1.522  0.00  0.00     0.000 A 
ATOM      5  C5  BNZ d   1       0.218   0.790  -0.686  0.00  0.00     0.000 A 
ATOM      6  C6  BNZ d   1       0.097   1.026   0.664  0.00  0.00     0.000 A 
ENDROOT
TORSDOF 0
ENDMDL
