MODEL 1
REMARK minimizedAffinity -2.505162
REMARK minimizedRMSD -1
REMARK  0 active torsions:
REMARK  status: ('A' for Active; 'I' for Inactive)
ROOT
ATOM      1  C1  BNZ d   1      -0.574   2.926  -5.999  0.00  0.00     0.000 A 
ATOM      2  C2  BNZ d   1       0.423   3.865  -5.987  0.00  0.00     0.000 A 
ATOM      3  C3  BNZ d   1       0.127   5.199  -5.953  0.00  0.00     0.000 A 
ATOM      4  C4  BNZ d   1      -1.163   5.593  -5.973  0.00  0.00     0.000 A 
ATOM      5  C5  BNZ d   1      -2.179   4.658  -5.994  0.00  0.00     0.000 A 
ATOM      6  C6  BNZ d   1      -1.878   3.315  -5.989  0.00  0.00     0.000 A 
ENDROOT
TORSDOF 0
ENDMDL
