MODEL 1
REMARK minimizedAffinity -2.19570112
REMARK minimizedRMSD -1
REMARK  0 active torsions:
REMARK  status: ('A' for Active; 'I' for Inactive)
ROOT
ATOM      1  C1  BNZ d   1      -0.317   3.392  -5.975  0.00  0.00     0.000 A 
ATOM      2  C2  BNZ d   1      -1.491   2.687  -5.969  0.00  0.00     0.000 A 
ATOM      3  C3  BNZ d   1      -2.695   3.332  -5.999  0.00  0.00     0.000 A 
ATOM      4  C4  BNZ d   1      -2.726   4.681  -5.995  0.00  0.00     0.000 A 
ATOM      5  C5  BNZ d   1      -1.551   5.406  -5.991  0.00  0.00     0.000 A 
ATOM      6  C6  BNZ d   1      -0.340   4.753  -6.000  0.00  0.00     0.000 A 
ENDROOT
TORSDOF 0
ENDMDL
