MODEL 1
REMARK minimizedAffinity -2.61027956
REMARK minimizedRMSD -1
REMARK  0 active torsions:
REMARK  status: ('A' for Active; 'I' for Inactive)
ROOT
ATOM      1  C1  BNZ d   1       2.852   4.418  -6.000  0.00  0.00     0.000 A 
ATOM      2  C2  BNZ d   1       3.293   5.715  -6.000  0.00  0.00     0.000 A 
ATOM      3  C3  BNZ d   1       4.630   6.000  -6.000  0.00  0.00     0.000 A 
ATOM      4  C4  BNZ d   1       5.523   4.990  -5.960  0.00  0.00     0.000 A 
ATOM      5  C5  BNZ d   1       5.095   3.678  -5.951  0.00  0.00     0.000 A 
ATOM      6  C6  BNZ d   1       3.749   3.394  -5.990  0.00  0.00     0.000 A 
ENDROOT
TORSDOF 0
ENDMDL
