MODEL 1
REMARK minimizedAffinity 1.1508615
REMARK minimizedRMSD -1
REMARK  0 active torsions:
REMARK  status: ('A' for Active; 'I' for Inactive)
ROOT
ATOM      1  C1  BNZ d   1       0.849   5.239  -6.000  0.00  0.00     0.000 A 
ATOM      2  C2  BNZ d   1      -0.469   5.609  -6.000  0.00  0.00     0.000 A 
ATOM      3  C3  BNZ d   1      -1.461   4.668  -5.975  0.00  0.00     0.000 A 
ATOM      4  C4  BNZ d   1      -1.133   3.360  -5.990  0.00  0.00     0.000 A 
ATOM      5  C5  BNZ d   1       0.191   2.970  -6.000  0.00  0.00     0.000 A 
ATOM      6  C6  BNZ d   1       1.187   3.920  -5.985  0.00  0.00     0.000 A 
ENDROOT
TORSDOF 0
ENDMDL
