MODEL 1
REMARK minimizedAffinity -1.47303677
REMARK minimizedRMSD -1
REMARK  0 active torsions:
REMARK  status: ('A' for Active; 'I' for Inactive)
ROOT
ATOM      1  C1  BNZ d   1      -0.012   2.974  -5.977  0.00  0.00     0.000 A 
ATOM      2  C2  BNZ d   1       0.378   4.287  -5.999  0.00  0.00     0.000 A 
ATOM      3  C3  BNZ d   1      -0.547   5.293  -5.990  0.00  0.00     0.000 A 
ATOM      4  C4  BNZ d   1      -1.860   4.985  -6.000  0.00  0.00     0.000 A 
ATOM      5  C5  BNZ d   1      -2.270   3.667  -5.988  0.00  0.00     0.000 A 
ATOM      6  C6  BNZ d   1      -1.335   2.657  -5.957  0.00  0.00     0.000 A 
ENDROOT
TORSDOF 0
ENDMDL
