MODEL 1
REMARK minimizedAffinity -1.87693715
REMARK minimizedRMSD -1
REMARK  0 active torsions:
REMARK  status: ('A' for Active; 'I' for Inactive)
ROOT
ATOM      1  C1  BNZ d   1      -2.987   3.043  -5.973  0.00  0.00     0.000 A 
ATOM      2  C2  BNZ d   1      -2.885   4.408  -5.968  0.00  0.00     0.000 A 
ATOM      3  C3  BNZ d   1      -1.663   5.019  -5.998  0.00  0.00     0.000 A 
ATOM      4  C4  BNZ d   1      -0.544   4.265  -5.993  0.00  0.00     0.000 A 
ATOM      5  C5  BNZ d   1      -0.630   2.887  -5.988  0.00  0.00     0.000 A 
ATOM      6  C6  BNZ d   1      -1.863   2.276  -5.998  0.00  0.00     0.000 A 
ENDROOT
TORSDOF 0
ENDMDL
