MODEL 1
REMARK minimizedAffinity 3.57587981
REMARK minimizedRMSD -1
REMARK  0 active torsions:
REMARK  status: ('A' for Active; 'I' for Inactive)
ROOT
ATOM      1  C1  BNZ d   1       2.283  -0.162  -4.150  0.00  0.00     0.000 A 
ATOM      2  C2  BNZ d   1       2.459   1.195  -4.211  0.00  0.00     0.000 A 
ATOM      3  C3  BNZ d   1       2.407   1.960  -3.079  0.00  0.00     0.000 A 
ATOM      4  C4  BNZ d   1       2.138   1.373  -1.895  0.00  0.00     0.000 A 
ATOM      5  C5  BNZ d   1       1.948   0.008  -1.818  0.00  0.00     0.000 A 
ATOM      6  C6  BNZ d   1       2.041  -0.764  -2.954  0.00  0.00     0.000 A 
ENDROOT
TORSDOF 0
ENDMDL
