MODEL 1
REMARK minimizedAffinity -2.28401399
REMARK minimizedRMSD -1
REMARK  0 active torsions:
REMARK  status: ('A' for Active; 'I' for Inactive)
ROOT
ATOM      1  C1  BNZ d   1      -0.865   3.272  -5.999  0.00  0.00     0.000 A 
ATOM      2  C2  BNZ d   1      -2.144   3.762  -5.999  0.00  0.00     0.000 A 
ATOM      3  C3  BNZ d   1      -2.377   5.109  -5.998  0.00  0.00     0.000 A 
ATOM      4  C4  BNZ d   1      -1.334   5.963  -5.957  0.00  0.00     0.000 A 
ATOM      5  C5  BNZ d   1      -0.039   5.484  -5.948  0.00  0.00     0.000 A 
ATOM      6  C6  BNZ d   1       0.193   4.128  -5.988  0.00  0.00     0.000 A 
ENDROOT
TORSDOF 0
ENDMDL
