MODEL 1
REMARK minimizedAffinity 2.95013618
REMARK minimizedRMSD -1
REMARK  0 active torsions:
REMARK  status: ('A' for Active; 'I' for Inactive)
ROOT
ATOM      1  C1  BNZ d   1      -0.085   1.670   0.531  0.00  0.00     0.000 A 
ATOM      2  C2  BNZ d   1      -1.209   1.651   1.312  0.00  0.00     0.000 A 
ATOM      3  C3  BNZ d   1      -1.193   2.172   2.575  0.00  0.00     0.000 A 
ATOM      4  C4  BNZ d   1      -0.043   2.674   3.070  0.00  0.00     0.000 A 
ATOM      5  C5  BNZ d   1       1.101   2.692   2.299  0.00  0.00     0.000 A 
ATOM      6  C6  BNZ d   1       1.071   2.202   1.013  0.00  0.00     0.000 A 
ENDROOT
TORSDOF 0
ENDMDL
