MODEL 1
REMARK minimizedAffinity -1.79398894
REMARK minimizedRMSD -1
REMARK  0 active torsions:
REMARK  status: ('A' for Active; 'I' for Inactive)
ROOT
ATOM      1  C   UNL d   1       0.762  -0.827  -0.709  0.00  0.00     0.172 C 
ATOM      2  N   UNL d   1      -0.080   0.048   0.073  0.00  0.00    -0.070 N 
ATOM      3  C1  UNL d   1      -0.380  -0.109   1.400  0.00  0.00    -0.004 A 
ATOM      4  C2  UNL d   1      -1.208   0.929   1.770  0.00  0.00    -0.047 A 
ATOM      5  C3  UNL d   1      -1.413   1.736   0.627  0.00  0.00    -0.047 A 
ATOM      6  C4  UNL d   1      -0.704   1.168  -0.410  0.00  0.00    -0.004 A 
ENDROOT
TORSDOF 0
ENDMDL
