MODEL 1
REMARK minimizedAffinity -3.00015116
REMARK minimizedRMSD -1
REMARK  0 active torsions:
REMARK  status: ('A' for Active; 'I' for Inactive)
ROOT
ATOM      1  C   UNL d   1       0.344  -0.111  -0.705  0.00  0.00     0.172 C 
ATOM      2  N   UNL d   1      -0.603   0.629   0.096  0.00  0.00    -0.070 N 
ATOM      3  C1  UNL d   1      -1.647   1.372  -0.385  0.00  0.00    -0.004 A 
ATOM      4  C2  UNL d   1      -2.310   1.917   0.694  0.00  0.00    -0.047 A 
ATOM      5  C3  UNL d   1      -1.640   1.487   1.864  0.00  0.00    -0.047 A 
ATOM      6  C4  UNL d   1      -0.587   0.691   1.465  0.00  0.00    -0.004 A 
ENDROOT
TORSDOF 0
ENDMDL
