MODEL 1
REMARK minimizedAffinity -2.60719395
REMARK minimizedRMSD -1
REMARK  0 active torsions:
REMARK  status: ('A' for Active; 'I' for Inactive)
ROOT
ATOM      1  C   UNL d   1      -2.264   1.669   0.926  0.00  0.00     0.172 C 
ATOM      2  N   UNL d   1      -1.110   1.100   0.271  0.00  0.00    -0.070 N 
ATOM      3  C1  UNL d   1      -0.557   1.545  -0.901  0.00  0.00    -0.004 A 
ATOM      4  C2  UNL d   1       0.524   0.740  -1.189  0.00  0.00    -0.047 A 
ATOM      5  C3  UNL d   1       0.624  -0.222  -0.156  0.00  0.00    -0.047 A 
ATOM      6  C4  UNL d   1      -0.400   0.024   0.734  0.00  0.00    -0.004 A 
ENDROOT
TORSDOF 0
ENDMDL
