MODEL 1
REMARK minimizedAffinity -2.9986496
REMARK minimizedRMSD -1
REMARK  0 active torsions:
REMARK  status: ('A' for Active; 'I' for Inactive)
ROOT
ATOM      1  C   UNL d   1      -1.528   1.938  -0.603  0.00  0.00     0.172 C 
ATOM      2  N   UNL d   1      -0.661   0.917  -0.062  0.00  0.00    -0.070 N 
ATOM      3  C1  UNL d   1       0.149   0.089  -0.791  0.00  0.00    -0.004 A 
ATOM      4  C2  UNL d   1       0.812  -0.737   0.091  0.00  0.00    -0.047 A 
ATOM      5  C3  UNL d   1       0.383  -0.394   1.396  0.00  0.00    -0.047 A 
ATOM      6  C4  UNL d   1      -0.529   0.633   1.272  0.00  0.00    -0.004 A 
ENDROOT
TORSDOF 0
ENDMDL
