MODEL 1
REMARK minimizedAffinity -3.36464047
REMARK minimizedRMSD -1
REMARK  0 active torsions:
REMARK  status: ('A' for Active; 'I' for Inactive)
ROOT
ATOM      1  C   UNL d   1      -1.778   2.681   0.737  0.00  0.00     0.172 C 
ATOM      2  N   UNL d   1      -0.791   1.752   0.236  0.00  0.00    -0.070 N 
ATOM      3  C1  UNL d   1      -0.675   0.438   0.600  0.00  0.00    -0.004 A 
ATOM      4  C2  UNL d   1       0.383  -0.102  -0.099  0.00  0.00    -0.047 A 
ATOM      5  C3  UNL d   1       0.922   0.924  -0.911  0.00  0.00    -0.047 A 
ATOM      6  C4  UNL d   1       0.176   2.062  -0.684  0.00  0.00    -0.004 A 
ENDROOT
TORSDOF 0
ENDMDL
