MODEL 1
REMARK minimizedAffinity -3.41913366
REMARK minimizedRMSD -1
REMARK  0 active torsions:
REMARK  status: ('A' for Active; 'I' for Inactive)
ROOT
ATOM      1  C   UNL d   1       1.232  -1.088  -0.124  0.00  0.00     0.172 C 
ATOM      2  N   UNL d   1       0.339   0.046  -0.166  0.00  0.00    -0.070 N 
ATOM      3  C1  UNL d   1      -0.685   0.289   0.711  0.00  0.00    -0.004 A 
ATOM      4  C2  UNL d   1      -1.295   1.465   0.332  0.00  0.00    -0.047 A 
ATOM      5  C3  UNL d   1      -0.615   1.946  -0.812  0.00  0.00    -0.047 A 
ATOM      6  C4  UNL d   1       0.392   1.048  -1.099  0.00  0.00    -0.004 A 
ENDROOT
TORSDOF 0
ENDMDL
