MODEL 1
REMARK minimizedAffinity -3.13990378
REMARK minimizedRMSD -1
REMARK  0 active torsions:
REMARK  status: ('A' for Active; 'I' for Inactive)
ROOT
ATOM      1  C   UNL d   1       0.030  -0.758  -0.063  0.00  0.00     0.172 C 
ATOM      2  N   UNL d   1      -0.545   0.407   0.568  0.00  0.00    -0.070 N 
ATOM      3  C1  UNL d   1      -1.352   1.329  -0.042  0.00  0.00    -0.004 A 
ATOM      4  C2  UNL d   1      -1.689   2.281   0.895  0.00  0.00    -0.047 A 
ATOM      5  C3  UNL d   1      -1.063   1.919   2.111  0.00  0.00    -0.047 A 
ATOM      6  C4  UNL d   1      -0.361   0.755   1.881  0.00  0.00    -0.004 A 
ENDROOT
TORSDOF 0
ENDMDL
