MODEL 1
REMARK minimizedAffinity 1.60582924
REMARK minimizedRMSD -1
REMARK  0 active torsions:
REMARK  status: ('A' for Active; 'I' for Inactive)
ROOT
ATOM      1  C   UNL d   1       1.065  -0.010   0.227  0.00  0.00     0.172 C 
ATOM      2  N   UNL d   1       0.054   0.822  -0.383  0.00  0.00    -0.070 N 
ATOM      3  C1  UNL d   1      -1.117   0.378  -0.937  0.00  0.00    -0.004 A 
ATOM      4  C2  UNL d   1      -1.804   1.476  -1.408  0.00  0.00    -0.047 A 
ATOM      5  C3  UNL d   1      -1.018   2.619  -1.128  0.00  0.00    -0.047 A 
ATOM      6  C4  UNL d   1       0.127   2.185  -0.493  0.00  0.00    -0.004 A 
ENDROOT
TORSDOF 0
ENDMDL
