MODEL 1
REMARK minimizedAffinity -3.33546185
REMARK minimizedRMSD -1
REMARK  0 active torsions:
REMARK  status: ('A' for Active; 'I' for Inactive)
ROOT
ATOM      1  C   UNL d   1       0.423  -0.767  -0.262  0.00  0.00     0.172 C 
ATOM      2  N   UNL d   1      -0.442   0.109   0.493  0.00  0.00    -0.070 N 
ATOM      3  C1  UNL d   1      -0.943   1.306   0.056  0.00  0.00    -0.004 A 
ATOM      4  C2  UNL d   1      -1.720   1.832   1.066  0.00  0.00    -0.047 A 
ATOM      5  C3  UNL d   1      -1.683   0.920   2.147  0.00  0.00    -0.047 A 
ATOM      6  C4  UNL d   1      -0.885  -0.138   1.766  0.00  0.00    -0.004 A 
ENDROOT
TORSDOF 0
ENDMDL
