MODEL 1
REMARK minimizedAffinity -3.66049767
REMARK minimizedRMSD -1
REMARK  0 active torsions:
REMARK  status: ('A' for Active; 'I' for Inactive)
ROOT
ATOM      1  C   UNL d   1       0.915  -0.456  -0.568  0.00  0.00     0.172 C 
ATOM      2  N   UNL d   1       0.005   0.236   0.314  0.00  0.00    -0.070 N 
ATOM      3  C1  UNL d   1      -0.726   1.349  -0.006  0.00  0.00    -0.004 A 
ATOM      4  C2  UNL d   1      -1.467   1.700   1.101  0.00  0.00    -0.047 A 
ATOM      5  C3  UNL d   1      -1.172   0.766   2.123  0.00  0.00    -0.047 A 
ATOM      6  C4  UNL d   1      -0.258  -0.129   1.608  0.00  0.00    -0.004 A 
ENDROOT
TORSDOF 0
ENDMDL
