MODEL 1
REMARK minimizedAffinity -2.64328885
REMARK minimizedRMSD -1
REMARK  0 active torsions:
REMARK  status: ('A' for Active; 'I' for Inactive)
ROOT
ATOM      1  C   UNL d   1      -1.707   2.040   1.378  0.00  0.00     0.172 C 
ATOM      2  N   UNL d   1      -0.933   0.952   0.827  0.00  0.00    -0.070 N 
ATOM      3  C1  UNL d   1      -0.558  -0.181   1.497  0.00  0.00    -0.004 A 
ATOM      4  C2  UNL d   1       0.165  -0.967   0.626  0.00  0.00    -0.047 A 
ATOM      5  C3  UNL d   1       0.228  -0.282  -0.610  0.00  0.00    -0.047 A 
ATOM      6  C4  UNL d   1      -0.459   0.903  -0.458  0.00  0.00    -0.004 A 
ENDROOT
TORSDOF 0
ENDMDL
