MODEL 1
REMARK minimizedAffinity -2.76539373
REMARK minimizedRMSD -1
REMARK  0 active torsions:
REMARK  status: ('A' for Active; 'I' for Inactive)
ROOT
ATOM      1  C   UNL d   1      -1.415   1.439   1.330  0.00  0.00     0.172 C 
ATOM      2  N   UNL d   1      -0.479   0.695   0.521  0.00  0.00    -0.070 N 
ATOM      3  C1  UNL d   1       0.080   1.124  -0.653  0.00  0.00    -0.004 A 
ATOM      4  C2  UNL d   1       0.915   0.129  -1.113  0.00  0.00    -0.047 A 
ATOM      5  C3  UNL d   1       0.856  -0.936  -0.183  0.00  0.00    -0.047 A 
ATOM      6  C4  UNL d   1      -0.014  -0.559   0.818  0.00  0.00    -0.004 A 
ENDROOT
TORSDOF 0
ENDMDL
