MODEL 1
REMARK minimizedAffinity -3.81003928
REMARK minimizedRMSD -1
REMARK  0 active torsions:
REMARK  status: ('A' for Active; 'I' for Inactive)
ROOT
ATOM      1  C   UNL d   1      -0.104  -0.676   1.438  0.00  0.00     0.172 C 
ATOM      2  N   UNL d   1      -0.711   0.554   0.985  0.00  0.00    -0.070 N 
ATOM      3  C1  UNL d   1      -0.507   1.143  -0.235  0.00  0.00    -0.004 A 
ATOM      4  C2  UNL d   1      -1.263   2.294  -0.279  0.00  0.00    -0.047 A 
ATOM      5  C3  UNL d   1      -1.944   2.402   0.957  0.00  0.00    -0.047 A 
ATOM      6  C4  UNL d   1      -1.584   1.311   1.720  0.00  0.00    -0.004 A 
ENDROOT
TORSDOF 0
ENDMDL
