MODEL 1
REMARK minimizedAffinity -4.04043674
REMARK minimizedRMSD -1
REMARK  0 active torsions:
REMARK  status: ('A' for Active; 'I' for Inactive)
ROOT
ATOM      1  C   UNL d   1       0.499  -0.097  -0.030  0.00  0.00     0.172 C 
ATOM      2  N   UNL d   1      -0.393   0.967   0.365  0.00  0.00    -0.070 N 
ATOM      3  C1  UNL d   1      -0.648   2.104  -0.355  0.00  0.00    -0.004 A 
ATOM      4  C2  UNL d   1      -1.550   2.863   0.359  0.00  0.00    -0.047 A 
ATOM      5  C3  UNL d   1      -1.847   2.158   1.550  0.00  0.00    -0.047 A 
ATOM      6  C4  UNL d   1      -1.118   0.988   1.528  0.00  0.00    -0.004 A 
ENDROOT
TORSDOF 0
ENDMDL
