MODEL 1
REMARK minimizedAffinity -3.91141009
REMARK minimizedRMSD -1
REMARK  0 active torsions:
REMARK  status: ('A' for Active; 'I' for Inactive)
ROOT
ATOM      1  C   UNL d   1       0.751  -0.894   1.673  0.00  0.00     0.172 C 
ATOM      2  N   UNL d   1      -0.301  -0.075   1.117  0.00  0.00    -0.070 N 
ATOM      3  C1  UNL d   1      -0.937   0.953   1.760  0.00  0.00    -0.004 A 
ATOM      4  C2  UNL d   1      -1.872   1.479   0.895  0.00  0.00    -0.047 A 
ATOM      5  C3  UNL d   1      -1.797   0.739  -0.309  0.00  0.00    -0.047 A 
ATOM      6  C4  UNL d   1      -0.817  -0.216  -0.144  0.00  0.00    -0.004 A 
ENDROOT
TORSDOF 0
ENDMDL
