MODEL 1
REMARK minimizedAffinity 7.58437538
REMARK minimizedRMSD -1
REMARK  2 active torsions:
REMARK  status: ('A' for Active; 'I' for Inactive)
REMARK    1  A    between atoms: C2'_3  and  C1'_4 
REMARK    2  A    between atoms: C1'_4  and  C1_5 
ROOT
ATOM      1  C1  I4B d   1      -3.059  -2.435  -2.470  0.00  0.00    -0.075 A 
ATOM      2  C2  I4B d   1      -3.652  -2.748  -1.272  0.00  0.00     0.003 A 
ATOM      3  C3  I4B d   1      -3.405  -4.002  -0.661  0.00  0.00     0.002 A 
ATOM      4  C4  I4B d   1      -2.605  -4.925  -1.302  0.00  0.00    -0.004 A 
ATOM      5  C5  I4B d   1      -1.986  -4.597  -2.505  0.00  0.00     0.002 A 
ATOM      6  C6  I4B d   1      -2.204  -3.340  -3.087  0.00  0.00     0.003 A 
ENDROOT
BRANCH   1   7
ATOM      7  C1' I4B d   1      -3.367  -1.116  -3.104  0.00  0.00     0.060 C 
BRANCH   7   8
ATOM      8  C2' I4B d   1      -2.061  -0.369  -3.285  0.00  0.00    -0.013 C 
ATOM      9  C4' I4B d   1      -2.108   0.525  -4.496  0.00  0.00     0.013 C 
ATOM     10  C3' I4B d   1      -1.804   0.423  -2.038  0.00  0.00     0.013 C 
ENDBRANCH   7   8
ENDBRANCH   1   7
TORSDOF 2
ENDMDL
