MODEL 1
REMARK minimizedAffinity 0.872461915
REMARK minimizedRMSD -1
REMARK  2 active torsions:
REMARK  status: ('A' for Active; 'I' for Inactive)
REMARK    1  A    between atoms: C2'_3  and  C1'_4 
REMARK    2  A    between atoms: C1'_4  and  C1_5 
ROOT
ATOM      1  C1  I4B d   1      -2.805   1.062   0.370  0.00  0.00    -0.075 A 
ATOM      2  C2  I4B d   1      -3.012   2.396   0.119  0.00  0.00     0.003 A 
ATOM      3  C3  I4B d   1      -4.243   3.004   0.465  0.00  0.00     0.002 A 
ATOM      4  C4  I4B d   1      -5.251   2.236   1.011  0.00  0.00    -0.004 A 
ATOM      5  C5  I4B d   1      -5.031   0.889   1.287  0.00  0.00     0.002 A 
ATOM      6  C6  I4B d   1      -3.797   0.301   0.975  0.00  0.00     0.003 A 
ENDROOT
BRANCH   1   7
ATOM      7  C1' I4B d   1      -1.506   0.445  -0.039  0.00  0.00     0.060 C 
BRANCH   7   8
ATOM      8  C2' I4B d   1      -0.407   1.074   0.793  0.00  0.00    -0.013 C 
ATOM      9  C4' I4B d   1      -0.100   0.241   2.009  0.00  0.00     0.013 C 
ATOM     10  C3' I4B d   1       0.803   1.228  -0.078  0.00  0.00     0.013 C 
ENDBRANCH   7   8
ENDBRANCH   1   7
TORSDOF 2
ENDMDL
