MODEL 1
REMARK minimizedAffinity -2.4943862
REMARK minimizedRMSD -1
REMARK  2 active torsions:
REMARK  status: ('A' for Active; 'I' for Inactive)
REMARK    1  A    between atoms: C2'_3  and  C1'_4 
REMARK    2  A    between atoms: C1'_4  and  C1_5 
ROOT
ATOM      1  C1  I4B d   1       1.115   1.507   0.074  0.00  0.00    -0.075 A 
ATOM      2  C2  I4B d   1       1.316   1.179   1.392  0.00  0.00     0.003 A 
ATOM      3  C3  I4B d   1       2.615   0.860   1.856  0.00  0.00     0.002 A 
ATOM      4  C4  I4B d   1       3.668   0.833   0.965  0.00  0.00    -0.004 A 
ATOM      5  C5  I4B d   1       3.466   1.188  -0.366  0.00  0.00     0.002 A 
ATOM      6  C6  I4B d   1       2.184   1.540  -0.812  0.00  0.00     0.003 A 
ENDROOT
BRANCH   1   7
ATOM      7  C1' I4B d   1      -0.276   1.807  -0.389  0.00  0.00     0.060 C 
BRANCH   7   8
ATOM      8  C2' I4B d   1      -1.201   1.688   0.804  0.00  0.00    -0.013 C 
ATOM      9  C4' I4B d   1      -2.454   2.500   0.606  0.00  0.00     0.013 C 
ATOM     10  C3' I4B d   1      -1.522   0.236   0.998  0.00  0.00     0.013 C 
ENDBRANCH   7   8
ENDBRANCH   1   7
TORSDOF 2
ENDMDL
