MODEL 1
REMARK minimizedAffinity 1.61462724
REMARK minimizedRMSD -1
REMARK  2 active torsions:
REMARK  status: ('A' for Active; 'I' for Inactive)
REMARK    1  A    between atoms: C2'_3  and  C1'_4 
REMARK    2  A    between atoms: C1'_4  and  C1_5 
ROOT
ATOM      1  C1  I4B d   1      -2.024   2.192   0.316  0.00  0.00    -0.075 A 
ATOM      2  C2  I4B d   1      -1.815   1.756   1.601  0.00  0.00     0.003 A 
ATOM      3  C3  I4B d   1      -0.497   1.584   2.089  0.00  0.00     0.002 A 
ATOM      4  C4  I4B d   1       0.574   1.809   1.249  0.00  0.00    -0.004 A 
ATOM      5  C5  I4B d   1       0.361   2.272  -0.046  0.00  0.00     0.002 A 
ATOM      6  C6  I4B d   1      -0.946   2.477  -0.512  0.00  0.00     0.003 A 
ENDROOT
BRANCH   1   7
ATOM      7  C1' I4B d   1      -3.429   2.331  -0.178  0.00  0.00     0.060 C 
BRANCH   7   8
ATOM      8  C2' I4B d   1      -4.359   1.854   0.919  0.00  0.00    -0.013 C 
ATOM      9  C4' I4B d   1      -5.792   2.196   0.606  0.00  0.00     0.013 C 
ATOM     10  C3' I4B d   1      -4.176   0.373   1.069  0.00  0.00     0.013 C 
ENDBRANCH   7   8
ENDBRANCH   1   7
TORSDOF 2
ENDMDL
