MODEL 1
REMARK minimizedAffinity -3.27106762
REMARK minimizedRMSD -1
REMARK  2 active torsions:
REMARK  status: ('A' for Active; 'I' for Inactive)
REMARK    1  A    between atoms: C2'_3  and  C1'_4 
REMARK    2  A    between atoms: C1'_4  and  C1_5 
ROOT
ATOM      1  C1  I4B d   1       0.282   1.564   0.958  0.00  0.00    -0.075 A 
ATOM      2  C2  I4B d   1      -0.534   0.859   1.807  0.00  0.00     0.003 A 
ATOM      3  C3  I4B d   1      -1.887   0.621   1.462  0.00  0.00     0.002 A 
ATOM      4  C4  I4B d   1      -2.391   1.146   0.290  0.00  0.00    -0.004 A 
ATOM      5  C5  I4B d   1      -1.556   1.841  -0.581  0.00  0.00     0.002 A 
ATOM      6  C6  I4B d   1      -0.208   2.041  -0.251  0.00  0.00     0.003 A 
ENDROOT
BRANCH   1   7
ATOM      7  C1' I4B d   1       1.696   1.825   1.369  0.00  0.00     0.060 C 
BRANCH   7   8
ATOM      8  C2' I4B d   1       2.509   0.584   1.060  0.00  0.00    -0.013 C 
ATOM      9  C4' I4B d   1       2.945   0.564  -0.382  0.00  0.00     0.013 C 
ATOM     10  C3' I4B d   1       3.690   0.562   1.983  0.00  0.00     0.013 C 
ENDBRANCH   7   8
ENDBRANCH   1   7
TORSDOF 2
ENDMDL
