MODEL 1
REMARK minimizedAffinity 2.16849136
REMARK minimizedRMSD -1
REMARK  2 active torsions:
REMARK  status: ('A' for Active; 'I' for Inactive)
REMARK    1  A    between atoms: C2'_3  and  C1'_4 
REMARK    2  A    between atoms: C1'_4  and  C1_5 
ROOT
ATOM      1  C1  I4B d   1      -2.424   0.946   0.669  0.00  0.00    -0.075 A 
ATOM      2  C2  I4B d   1      -2.214   2.294   0.826  0.00  0.00     0.003 A 
ATOM      3  C3  I4B d   1      -0.913   2.787   1.090  0.00  0.00     0.002 A 
ATOM      4  C4  I4B d   1       0.133   1.900   1.239  0.00  0.00    -0.004 A 
ATOM      5  C5  I4B d   1      -0.077   0.536   1.058  0.00  0.00     0.002 A 
ATOM      6  C6  I4B d   1      -1.361   0.057   0.759  0.00  0.00     0.003 A 
ENDROOT
BRANCH   1   7
ATOM      7  C1' I4B d   1      -3.816   0.457   0.423  0.00  0.00     0.060 C 
BRANCH   7   8
ATOM      8  C2' I4B d   1      -4.758   1.285   1.273  0.00  0.00    -0.013 C 
ATOM      9  C4' I4B d   1      -5.999   1.657   0.505  0.00  0.00     0.013 C 
ATOM     10  C3' I4B d   1      -5.097   0.490   2.498  0.00  0.00     0.013 C 
ENDBRANCH   7   8
ENDBRANCH   1   7
TORSDOF 2
ENDMDL
