MODEL 1
REMARK minimizedAffinity -0.853762925
REMARK minimizedRMSD -1
REMARK  2 active torsions:
REMARK  status: ('A' for Active; 'I' for Inactive)
REMARK    1  A    between atoms: C2'_3  and  C1'_4 
REMARK    2  A    between atoms: C1'_4  and  C1_5 
ROOT
ATOM      1  C1  I4B d   1      -2.805   2.296   0.279  0.00  0.00    -0.075 A 
ATOM      2  C2  I4B d   1      -1.655   2.847  -0.229  0.00  0.00     0.003 A 
ATOM      3  C3  I4B d   1      -0.403   2.229   0.010  0.00  0.00     0.002 A 
ATOM      4  C4  I4B d   1      -0.342   1.099   0.799  0.00  0.00    -0.004 A 
ATOM      5  C5  I4B d   1      -1.512   0.529   1.294  0.00  0.00     0.002 A 
ATOM      6  C6  I4B d   1      -2.753   1.124   1.022  0.00  0.00     0.003 A 
ENDROOT
BRANCH   1   7
ATOM      7  C1' I4B d   1      -4.106   2.992   0.035  0.00  0.00     0.060 C 
BRANCH   7   8
ATOM      8  C2' I4B d   1      -5.060   2.603   1.146  0.00  0.00    -0.013 C 
ATOM      9  C4' I4B d   1      -6.000   3.732   1.479  0.00  0.00     0.013 C 
ATOM     10  C3' I4B d   1      -5.812   1.383   0.704  0.00  0.00     0.013 C 
ENDBRANCH   7   8
ENDBRANCH   1   7
TORSDOF 2
ENDMDL
