MODEL 1
REMARK minimizedAffinity 8.5781908
REMARK minimizedRMSD -1
REMARK  2 active torsions:
REMARK  status: ('A' for Active; 'I' for Inactive)
REMARK    1  A    between atoms: C2'_3  and  C1'_4 
REMARK    2  A    between atoms: C1'_4  and  C1_5 
ROOT
ATOM      1  C1  I4B d   1       1.031  -4.001   1.135  0.00  0.00    -0.075 A 
ATOM      2  C2  I4B d   1       1.399  -4.957   0.222  0.00  0.00     0.003 A 
ATOM      3  C3  I4B d   1       2.644  -4.861  -0.446  0.00  0.00     0.002 A 
ATOM      4  C4  I4B d   1       3.461  -3.775  -0.210  0.00  0.00    -0.004 A 
ATOM      5  C5  I4B d   1       3.096  -2.819   0.734  0.00  0.00     0.002 A 
ATOM      6  C6  I4B d   1       1.879  -2.938   1.420  0.00  0.00     0.003 A 
ENDROOT
BRANCH   1   7
ATOM      7  C1' I4B d   1      -0.306  -4.115   1.798  0.00  0.00     0.060 C 
BRANCH   7   8
ATOM      8  C2' I4B d   1      -1.145  -5.086   0.992  0.00  0.00    -0.013 C 
ATOM      9  C4' I4B d   1      -1.935  -6.000   1.891  0.00  0.00     0.013 C 
ATOM     10  C3' I4B d   1      -2.050  -4.287   0.102  0.00  0.00     0.013 C 
ENDBRANCH   7   8
ENDBRANCH   1   7
TORSDOF 2
ENDMDL
