MODEL 1
REMARK minimizedAffinity 0.764343977
REMARK minimizedRMSD -1
REMARK  2 active torsions:
REMARK  status: ('A' for Active; 'I' for Inactive)
REMARK    1  A    between atoms: C2'_3  and  C1'_4 
REMARK    2  A    between atoms: C1'_4  and  C1_5 
ROOT
ATOM      1  C1  I4B d   1      -2.595   2.211   0.190  0.00  0.00    -0.075 A 
ATOM      2  C2  I4B d   1      -1.538   3.070   0.021  0.00  0.00     0.003 A 
ATOM      3  C3  I4B d   1      -0.234   2.683   0.415  0.00  0.00     0.002 A 
ATOM      4  C4  I4B d   1      -0.043   1.456   1.017  0.00  0.00    -0.004 A 
ATOM      5  C5  I4B d   1      -1.112   0.577   1.167  0.00  0.00     0.002 A 
ATOM      6  C6  I4B d   1      -2.394   0.952   0.739  0.00  0.00     0.003 A 
ENDROOT
BRANCH   1   7
ATOM      7  C1' I4B d   1      -3.964   2.665  -0.208  0.00  0.00     0.060 C 
BRANCH   7   8
ATOM      8  C2' I4B d   1      -4.887   2.457   0.976  0.00  0.00    -0.013 C 
ATOM      9  C4' I4B d   1      -5.998   3.474   0.986  0.00  0.00     0.013 C 
ATOM     10  C3' I4B d   1      -5.430   1.062   0.899  0.00  0.00     0.013 C 
ENDBRANCH   7   8
ENDBRANCH   1   7
TORSDOF 2
ENDMDL
