MODEL 1
REMARK minimizedAffinity -2.3695755
REMARK minimizedRMSD -1
REMARK  2 active torsions:
REMARK  status: ('A' for Active; 'I' for Inactive)
REMARK    1  A    between atoms: C2'_3  and  C1'_4 
REMARK    2  A    between atoms: C1'_4  and  C1_5 
ROOT
ATOM      1  C1  I4B d   1      -2.660   0.968   0.766  0.00  0.00    -0.075 A 
ATOM      2  C2  I4B d   1      -1.951   1.912   0.065  0.00  0.00     0.003 A 
ATOM      3  C3  I4B d   1      -0.535   1.906   0.093  0.00  0.00     0.002 A 
ATOM      4  C4  I4B d   1       0.126   0.977   0.870  0.00  0.00    -0.004 A 
ATOM      5  C5  I4B d   1      -0.594   0.007   1.561  0.00  0.00     0.002 A 
ATOM      6  C6  I4B d   1      -1.995  -0.006   1.499  0.00  0.00     0.003 A 
ENDROOT
BRANCH   1   7
ATOM      7  C1' I4B d   1      -4.154   1.023   0.740  0.00  0.00     0.060 C 
BRANCH   7   8
ATOM      8  C2' I4B d   1      -4.563   2.437   0.379  0.00  0.00    -0.013 C 
ATOM      9  C4' I4B d   1      -4.363   2.704  -1.089  0.00  0.00     0.013 C 
ATOM     10  C3' I4B d   1      -5.999   2.618   0.772  0.00  0.00     0.013 C 
ENDBRANCH   7   8
ENDBRANCH   1   7
TORSDOF 2
ENDMDL
