MODEL 1
REMARK minimizedAffinity -2.54646492
REMARK minimizedRMSD -1
REMARK  2 active torsions:
REMARK  status: ('A' for Active; 'I' for Inactive)
REMARK    1  A    between atoms: C2'_3  and  C1'_4 
REMARK    2  A    between atoms: C1'_4  and  C1_5 
ROOT
ATOM      1  C1  I4B d   1      -2.821   1.197   0.384  0.00  0.00    -0.075 A 
ATOM      2  C2  I4B d   1      -1.846   2.124   0.113  0.00  0.00     0.003 A 
ATOM      3  C3  I4B d   1      -0.495   1.856   0.443  0.00  0.00     0.002 A 
ATOM      4  C4  I4B d   1      -0.174   0.678   1.086  0.00  0.00    -0.004 A 
ATOM      5  C5  I4B d   1      -1.160  -0.271   1.340  0.00  0.00     0.002 A 
ATOM      6  C6  I4B d   1      -2.490  -0.016   0.976  0.00  0.00     0.003 A 
ENDROOT
BRANCH   1   7
ATOM      7  C1' I4B d   1      -4.241   1.526   0.052  0.00  0.00     0.060 C 
BRANCH   7   8
ATOM      8  C2' I4B d   1      -5.044   1.482   1.336  0.00  0.00    -0.013 C 
ATOM      9  C4' I4B d   1      -5.998   2.643   1.423  0.00  0.00     0.013 C 
ATOM     10  C3' I4B d   1      -5.777   0.174   1.379  0.00  0.00     0.013 C 
ENDBRANCH   7   8
ENDBRANCH   1   7
TORSDOF 2
ENDMDL
