MODEL 1
REMARK minimizedAffinity 5.59304142
REMARK minimizedRMSD -1
REMARK  2 active torsions:
REMARK  status: ('A' for Active; 'I' for Inactive)
REMARK    1  A    between atoms: C2'_3  and  C1'_4 
REMARK    2  A    between atoms: C1'_4  and  C1_5 
ROOT
ATOM      1  C1  I4B d   1      -0.621   1.141   1.146  0.00  0.00    -0.075 A 
ATOM      2  C2  I4B d   1       0.228   1.748   2.038  0.00  0.00     0.003 A 
ATOM      3  C3  I4B d   1       0.344   1.254   3.360  0.00  0.00     0.002 A 
ATOM      4  C4  I4B d   1      -0.439   0.189   3.759  0.00  0.00    -0.004 A 
ATOM      5  C5  I4B d   1      -1.282  -0.439   2.846  0.00  0.00     0.002 A 
ATOM      6  C6  I4B d   1      -1.364   0.032   1.528  0.00  0.00     0.003 A 
ENDROOT
BRANCH   1   7
ATOM      7  C1' I4B d   1      -0.744   1.710  -0.232  0.00  0.00     0.060 C 
BRANCH   7   8
ATOM      8  C2' I4B d   1      -1.593   2.962  -0.147  0.00  0.00    -0.013 C 
ATOM      9  C4' I4B d   1      -2.178   3.316  -1.489  0.00  0.00     0.013 C 
ATOM     10  C3' I4B d   1      -2.671   2.721   0.867  0.00  0.00     0.013 C 
ENDBRANCH   7   8
ENDBRANCH   1   7
TORSDOF 2
ENDMDL
