MODEL 1
REMARK minimizedAffinity -0.244430616
REMARK minimizedRMSD -1
REMARK  2 active torsions:
REMARK  status: ('A' for Active; 'I' for Inactive)
REMARK    1  A    between atoms: C2'_3  and  C1'_4 
REMARK    2  A    between atoms: C1'_4  and  C1_5 
ROOT
ATOM      1  C1  I4B d   1      -2.352   2.138   1.025  0.00  0.00    -0.075 A 
ATOM      2  C2  I4B d   1      -2.399   0.855   1.511  0.00  0.00     0.003 A 
ATOM      3  C3  I4B d   1      -1.276   0.002   1.381  0.00  0.00     0.002 A 
ATOM      4  C4  I4B d   1      -0.153   0.453   0.717  0.00  0.00    -0.004 A 
ATOM      5  C5  I4B d   1      -0.099   1.762   0.245  0.00  0.00     0.002 A 
ATOM      6  C6  I4B d   1      -1.201   2.613   0.411  0.00  0.00     0.003 A 
ENDROOT
BRANCH   1   7
ATOM      7  C1' I4B d   1      -3.568   3.000   1.150  0.00  0.00     0.060 C 
BRANCH   7   8
ATOM      8  C2' I4B d   1      -4.772   2.172   0.750  0.00  0.00    -0.013 C 
ATOM      9  C4' I4B d   1      -4.838   0.890   1.539  0.00  0.00     0.013 C 
ATOM     10  C3' I4B d   1      -6.000   3.005   0.967  0.00  0.00     0.013 C 
ENDBRANCH   7   8
ENDBRANCH   1   7
TORSDOF 2
ENDMDL
