MODEL 1
REMARK minimizedAffinity -1.0052948
REMARK minimizedRMSD -1
REMARK  2 active torsions:
REMARK  status: ('A' for Active; 'I' for Inactive)
REMARK    1  A    between atoms: C2'_3  and  C1'_4 
REMARK    2  A    between atoms: C1'_4  and  C1_5 
ROOT
ATOM      1  C1  I4B d   1       1.009   1.494   0.804  0.00  0.00    -0.075 A 
ATOM      2  C2  I4B d   1       1.726   2.063   1.827  0.00  0.00     0.003 A 
ATOM      3  C3  I4B d   1       2.852   1.396   2.366  0.00  0.00     0.002 A 
ATOM      4  C4  I4B d   1       3.194   0.147   1.890  0.00  0.00    -0.004 A 
ATOM      5  C5  I4B d   1       2.480  -0.419   0.838  0.00  0.00     0.002 A 
ATOM      6  C6  I4B d   1       1.388   0.264   0.283  0.00  0.00     0.003 A 
ENDROOT
BRANCH   1   7
ATOM      7  C1' I4B d   1      -0.195   2.211   0.281  0.00  0.00     0.060 C 
BRANCH   7   8
ATOM      8  C2' I4B d   1      -1.226   2.263   1.390  0.00  0.00    -0.013 C 
ATOM      9  C4' I4B d   1      -2.497   2.922   0.922  0.00  0.00     0.013 C 
ATOM     10  C3' I4B d   1      -1.482   0.859   1.850  0.00  0.00     0.013 C 
ENDBRANCH   7   8
ENDBRANCH   1   7
TORSDOF 2
ENDMDL
