MODEL 1
REMARK minimizedAffinity -2.68999648
REMARK minimizedRMSD -1
REMARK  2 active torsions:
REMARK  status: ('A' for Active; 'I' for Inactive)
REMARK    1  A    between atoms: C2'_3  and  C1'_4 
REMARK    2  A    between atoms: C1'_4  and  C1_5 
ROOT
ATOM      1  C1  I4B d   1      -1.686   1.385   0.198  0.00  0.00    -0.075 A 
ATOM      2  C2  I4B d   1      -2.047   0.087   0.462  0.00  0.00     0.003 A 
ATOM      3  C3  I4B d   1      -3.414  -0.260   0.594  0.00  0.00     0.002 A 
ATOM      4  C4  I4B d   1      -4.376   0.725   0.505  0.00  0.00    -0.004 A 
ATOM      5  C5  I4B d   1      -4.009   2.036   0.215  0.00  0.00     0.002 A 
ATOM      6  C6  I4B d   1      -2.656   2.366   0.048  0.00  0.00     0.003 A 
ENDROOT
BRANCH   1   7
ATOM      7  C1' I4B d   1      -0.232   1.722   0.098  0.00  0.00     0.060 C 
BRANCH   7   8
ATOM      8  C2' I4B d   1       0.495   0.985   1.205  0.00  0.00    -0.013 C 
ATOM      9  C4' I4B d   1       1.909   0.657   0.804  0.00  0.00     0.013 C 
ATOM     10  C3' I4B d   1       0.467   1.848   2.431  0.00  0.00     0.013 C 
ENDBRANCH   7   8
ENDBRANCH   1   7
TORSDOF 2
ENDMDL
