MODEL 1
REMARK minimizedAffinity -3.91514897
REMARK minimizedRMSD -1
REMARK  0 active torsions:
REMARK  status: ('A' for Active; 'I' for Inactive)
ROOT
ATOM      1  C   UNL d   1       1.542  -1.319  -0.587  0.00  0.00     0.077 C 
ATOM      2  C1  UNL d   1       0.071  -1.144  -0.348  0.00  0.00    -0.074 A 
ATOM      3  C2  UNL d   1      -0.867  -1.890  -1.068  0.00  0.00    -0.005 A 
ATOM      4  C3  UNL d   1      -2.231  -1.724  -0.828  0.00  0.00     0.006 A 
ATOM      5  C4  UNL d   1      -2.669  -0.812   0.133  0.00  0.00    -0.005 A 
ATOM      6  C5  UNL d   1      -1.745  -0.058   0.864  0.00  0.00    -0.074 A 
ATOM      7  C6  UNL d   1      -2.199   0.919   1.908  0.00  0.00     0.077 C 
ATOM      8  C7  UNL d   1      -0.376  -0.236   0.622  0.00  0.00    -0.001 A 
ENDROOT
TORSDOF 0
ENDMDL
