MODEL 1
REMARK minimizedAffinity -1.09481049
REMARK minimizedRMSD -1
REMARK  0 active torsions:
REMARK  status: ('A' for Active; 'I' for Inactive)
ROOT
ATOM      1  C   UNL d   1       1.262  -0.976   5.731  0.00  0.00     0.077 C 
ATOM      2  C1  UNL d   1       0.941  -0.944   4.266  0.00  0.00    -0.074 A 
ATOM      3  C2  UNL d   1       1.946  -1.110   3.307  0.00  0.00    -0.005 A 
ATOM      4  C3  UNL d   1       1.631  -1.087   1.948  0.00  0.00     0.006 A 
ATOM      5  C4  UNL d   1       0.312  -0.899   1.535  0.00  0.00    -0.005 A 
ATOM      6  C5  UNL d   1      -0.706  -0.732   2.480  0.00  0.00    -0.074 A 
ATOM      7  C6  UNL d   1      -2.131  -0.538   2.054  0.00  0.00     0.077 C 
ATOM      8  C7  UNL d   1      -0.383  -0.763   3.843  0.00  0.00    -0.001 A 
ENDROOT
TORSDOF 0
ENDMDL
