MODEL 1
REMARK minimizedAffinity 4.30834436
REMARK minimizedRMSD -1
REMARK  0 active torsions:
REMARK  status: ('A' for Active; 'I' for Inactive)
ROOT
ATOM      1  C   UNL d   1      -1.381  -3.454  -5.885  0.00  0.00     0.077 C 
ATOM      2  C1  UNL d   1      -1.006  -2.035  -5.577  0.00  0.00    -0.074 A 
ATOM      3  C2  UNL d   1      -1.941  -1.147  -5.035  0.00  0.00    -0.005 A 
ATOM      4  C3  UNL d   1      -1.575   0.168  -4.745  0.00  0.00     0.006 A 
ATOM      5  C4  UNL d   1      -0.274   0.607  -4.994  0.00  0.00    -0.005 A 
ATOM      6  C5  UNL d   1       0.674  -0.268  -5.535  0.00  0.00    -0.074 A 
ATOM      7  C6  UNL d   1       2.079   0.185  -5.799  0.00  0.00     0.077 C 
ATOM      8  C7  UNL d   1       0.301  -1.589  -5.817  0.00  0.00    -0.001 A 
ENDROOT
TORSDOF 0
ENDMDL
