MODEL 1
REMARK minimizedAffinity 8.47725487
REMARK minimizedRMSD -1
REMARK  0 active torsions:
REMARK  status: ('A' for Active; 'I' for Inactive)
ROOT
ATOM      1  C   UNL d   1      -1.124  -0.983  -3.552  0.00  0.00     0.077 C 
ATOM      2  C1  UNL d   1       0.321  -1.260  -3.262  0.00  0.00    -0.074 A 
ATOM      3  C2  UNL d   1       0.706  -1.925  -2.093  0.00  0.00    -0.005 A 
ATOM      4  C3  UNL d   1       2.053  -2.184  -1.842  0.00  0.00     0.006 A 
ATOM      5  C4  UNL d   1       3.028  -1.782  -2.756  0.00  0.00    -0.005 A 
ATOM      6  C5  UNL d   1       2.663  -1.116  -3.930  0.00  0.00    -0.074 A 
ATOM      7  C6  UNL d   1       3.697  -0.686  -4.927  0.00  0.00     0.077 C 
ATOM      8  C7  UNL d   1       1.306  -0.866  -4.179  0.00  0.00    -0.001 A 
ENDROOT
TORSDOF 0
ENDMDL
