MODEL 1
REMARK minimizedAffinity -5.11390448
REMARK minimizedRMSD -1
REMARK  0 active torsions:
REMARK  status: ('A' for Active; 'I' for Inactive)
ROOT
ATOM      1  C   UNL d   1      -5.052  -0.048   0.363  0.00  0.00     0.077 C 
ATOM      2  C1  UNL d   1      -3.619  -0.302   0.727  0.00  0.00    -0.074 A 
ATOM      3  C2  UNL d   1      -3.215  -0.349   2.065  0.00  0.00    -0.005 A 
ATOM      4  C3  UNL d   1      -1.881  -0.595   2.389  0.00  0.00     0.006 A 
ATOM      5  C4  UNL d   1      -0.939  -0.796   1.379  0.00  0.00    -0.005 A 
ATOM      6  C5  UNL d   1      -1.324  -0.754   0.035  0.00  0.00    -0.074 A 
ATOM      7  C6  UNL d   1      -0.327  -0.978  -1.062  0.00  0.00     0.077 C 
ATOM      8  C7  UNL d   1      -2.668  -0.513  -0.281  0.00  0.00    -0.001 A 
ENDROOT
TORSDOF 0
ENDMDL
