MODEL 1
REMARK minimizedAffinity -6.18218708
REMARK minimizedRMSD -1
REMARK  1 active torsions:
REMARK  status: ('A' for Active; 'I' for Inactive)
REMARK    1  A    between atoms: C1_2  and  C2_3 
ROOT
ATOM      1  C2  UNL d   1      -1.059   0.181   1.846  0.00  0.00    -0.077 A 
ATOM      2  C3  UNL d   1       0.001   0.069   2.756  0.00  0.00     0.002 A 
ATOM      3  C4  UNL d   1       1.323   0.060   2.305  0.00  0.00     0.002 A 
ATOM      4  C5  UNL d   1       1.596   0.169   0.943  0.00  0.00    -0.004 A 
ATOM      5  C6  UNL d   1       0.548   0.280   0.029  0.00  0.00     0.002 A 
ATOM      6  C7  UNL d   1      -0.773   0.287   0.479  0.00  0.00     0.002 A 
ENDROOT
BRANCH   1   7
ATOM      7  C1  UNL d   1      -2.482   0.240   2.335  0.00  0.00     0.055 C 
ATOM      8  C   UNL d   1      -3.443   0.575   1.203  0.00  0.00     0.019 C 
ENDBRANCH   1   7
TORSDOF 1
ENDMDL
