MODEL 1
REMARK minimizedAffinity -3.80713868
REMARK minimizedRMSD -1
REMARK  1 active torsions:
REMARK  status: ('A' for Active; 'I' for Inactive)
REMARK    1  A    between atoms: C1_2  and  C2_3 
ROOT
ATOM      1  C2  UNL d   1      -1.630   0.215   1.828  0.00  0.00    -0.077 A 
ATOM      2  C3  UNL d   1      -0.918   0.182   0.621  0.00  0.00     0.002 A 
ATOM      3  C4  UNL d   1       0.477   0.127   0.624  0.00  0.00     0.002 A 
ATOM      4  C5  UNL d   1       1.172   0.101   1.831  0.00  0.00    -0.004 A 
ATOM      5  C6  UNL d   1       0.474   0.135   3.038  0.00  0.00     0.002 A 
ATOM      6  C7  UNL d   1      -0.921   0.191   3.036  0.00  0.00     0.002 A 
ENDROOT
BRANCH   1   7
ATOM      7  C1  UNL d   1      -3.136   0.224   1.827  0.00  0.00     0.055 C 
ATOM      8  C   UNL d   1      -3.685   0.794   0.527  0.00  0.00     0.019 C 
ENDBRANCH   1   7
TORSDOF 1
ENDMDL
