MODEL 1
REMARK minimizedAffinity -5.12247801
REMARK minimizedRMSD -1
REMARK  1 active torsions:
REMARK  status: ('A' for Active; 'I' for Inactive)
REMARK    1  A    between atoms: C1_2  and  C2_3 
ROOT
ATOM      1  C2  UNL d   1      -0.394   0.480   0.406  0.00  0.00    -0.077 A 
ATOM      2  C3  UNL d   1      -0.950  -0.627   1.063  0.00  0.00     0.002 A 
ATOM      3  C4  UNL d   1      -0.284  -1.216   2.140  0.00  0.00     0.002 A 
ATOM      4  C5  UNL d   1       0.937  -0.704   2.571  0.00  0.00    -0.004 A 
ATOM      5  C6  UNL d   1       1.499   0.396   1.923  0.00  0.00     0.002 A 
ATOM      6  C7  UNL d   1       0.836   0.985   0.846  0.00  0.00     0.002 A 
ENDROOT
BRANCH   1   7
ATOM      7  C1  UNL d   1      -1.134   1.148  -0.724  0.00  0.00     0.055 C 
ATOM      8  C   UNL d   1      -2.638   1.117  -0.495  0.00  0.00     0.019 C 
ENDBRANCH   1   7
TORSDOF 1
ENDMDL
