MODEL 1
REMARK minimizedAffinity -5.70063543
REMARK minimizedRMSD -1
REMARK  1 active torsions:
REMARK  status: ('A' for Active; 'I' for Inactive)
REMARK    1  A    between atoms: C1_2  and  C2_3 
ROOT
ATOM      1  C2  UNL d   1      -1.065  -0.161   2.105  0.00  0.00    -0.077 A 
ATOM      2  C3  UNL d   1      -0.285   0.416   3.118  0.00  0.00     0.002 A 
ATOM      3  C4  UNL d   1       1.015   0.849   2.848  0.00  0.00     0.002 A 
ATOM      4  C5  UNL d   1       1.544   0.714   1.566  0.00  0.00    -0.004 A 
ATOM      5  C6  UNL d   1       0.777   0.140   0.553  0.00  0.00     0.002 A 
ATOM      6  C7  UNL d   1      -0.522  -0.295   0.821  0.00  0.00     0.002 A 
ENDROOT
BRANCH   1   7
ATOM      7  C1  UNL d   1      -2.484  -0.584   2.382  0.00  0.00     0.055 C 
ATOM      8  C   UNL d   1      -3.412  -0.188   1.243  0.00  0.00     0.019 C 
ENDBRANCH   1   7
TORSDOF 1
ENDMDL
