MODEL 1
REMARK minimizedAffinity -5.12635422
REMARK minimizedRMSD -1
REMARK  1 active torsions:
REMARK  status: ('A' for Active; 'I' for Inactive)
REMARK    1  A    between atoms: C1_2  and  C2_3 
ROOT
ATOM      1  C2  UNL d   1      -0.564  -0.187   0.953  0.00  0.00    -0.077 A 
ATOM      2  C3  UNL d   1      -1.778   0.244   1.506  0.00  0.00     0.002 A 
ATOM      3  C4  UNL d   1      -2.069  -0.000   2.850  0.00  0.00     0.002 A 
ATOM      4  C5  UNL d   1      -1.148  -0.670   3.653  0.00  0.00    -0.004 A 
ATOM      5  C6  UNL d   1       0.061  -1.104   3.112  0.00  0.00     0.002 A 
ATOM      6  C7  UNL d   1       0.353  -0.863   1.769  0.00  0.00     0.002 A 
ENDROOT
BRANCH   1   7
ATOM      7  C1  UNL d   1      -0.228   0.118  -0.483  0.00  0.00     0.055 C 
ATOM      8  C   UNL d   1       0.504  -1.043  -1.139  0.00  0.00     0.019 C 
ENDBRANCH   1   7
TORSDOF 1
ENDMDL
