MODEL 1
REMARK minimizedAffinity -5.99103975
REMARK minimizedRMSD -1
REMARK  1 active torsions:
REMARK  status: ('A' for Active; 'I' for Inactive)
REMARK    1  A    between atoms: C1_2  and  C2_3 
ROOT
ATOM      1  C2  UNL d   1      -0.764  -0.239   1.833  0.00  0.00    -0.077 A 
ATOM      2  C3  UNL d   1      -1.987   0.143   2.403  0.00  0.00     0.002 A 
ATOM      3  C4  UNL d   1      -3.059   0.516   1.590  0.00  0.00     0.002 A 
ATOM      4  C5  UNL d   1      -2.921   0.508   0.203  0.00  0.00    -0.004 A 
ATOM      5  C6  UNL d   1      -1.708   0.131  -0.373  0.00  0.00     0.002 A 
ATOM      6  C7  UNL d   1      -0.635  -0.241   0.438  0.00  0.00     0.002 A 
ENDROOT
BRANCH   1   7
ATOM      7  C1  UNL d   1       0.377  -0.690   2.706  0.00  0.00     0.055 C 
ATOM      8  C   UNL d   1       1.656   0.070   2.381  0.00  0.00     0.019 C 
ENDBRANCH   1   7
TORSDOF 1
ENDMDL
