MODEL 1
REMARK minimizedAffinity -2.2072885
REMARK minimizedRMSD -1
REMARK  1 active torsions:
REMARK  status: ('A' for Active; 'I' for Inactive)
REMARK    1  A    between atoms: C1_2  and  C2_3 
ROOT
ATOM      1  C2  UNL d   1      -0.719   0.242   1.920  0.00  0.00    -0.077 A 
ATOM      2  C3  UNL d   1       0.400   0.628   2.673  0.00  0.00     0.002 A 
ATOM      3  C4  UNL d   1       1.665   0.674   2.084  0.00  0.00     0.002 A 
ATOM      4  C5  UNL d   1       1.823   0.340   0.741  0.00  0.00    -0.004 A 
ATOM      5  C6  UNL d   1       0.718  -0.047  -0.015  0.00  0.00     0.002 A 
ATOM      6  C7  UNL d   1      -0.548  -0.095   0.571  0.00  0.00     0.002 A 
ENDROOT
BRANCH   1   7
ATOM      7  C1  UNL d   1      -2.092   0.239   2.540  0.00  0.00     0.055 C 
ATOM      8  C   UNL d   1      -3.167   0.536   1.504  0.00  0.00     0.019 C 
ENDBRANCH   1   7
TORSDOF 1
ENDMDL
