MODEL 1
REMARK minimizedAffinity -5.41715479
REMARK minimizedRMSD -1
REMARK  1 active torsions:
REMARK  status: ('A' for Active; 'I' for Inactive)
REMARK    1  A    between atoms: C1_2  and  C2_3 
ROOT
ATOM      1  C2  UNL d   1      -0.014  -0.335   0.649  0.00  0.00    -0.077 A 
ATOM      2  C3  UNL d   1       0.811   0.282   1.600  0.00  0.00     0.002 A 
ATOM      3  C4  UNL d   1       0.423   0.341   2.940  0.00  0.00     0.002 A 
ATOM      4  C5  UNL d   1      -0.788  -0.219   3.341  0.00  0.00    -0.004 A 
ATOM      5  C6  UNL d   1      -1.616  -0.833   2.403  0.00  0.00     0.002 A 
ATOM      6  C7  UNL d   1      -1.231  -0.892   1.063  0.00  0.00     0.002 A 
ENDROOT
BRANCH   1   7
ATOM      7  C1  UNL d   1       0.425  -0.443  -0.788  0.00  0.00     0.055 C 
ATOM      8  C   UNL d   1       0.213   0.868  -1.531  0.00  0.00     0.019 C 
ENDBRANCH   1   7
TORSDOF 1
ENDMDL
