MODEL 1
REMARK minimizedAffinity -5.07714272
REMARK minimizedRMSD -1
REMARK  1 active torsions:
REMARK  status: ('A' for Active; 'I' for Inactive)
REMARK    1  A    between atoms: C1_2  and  C2_3 
ROOT
ATOM      1  C2  UNL d   1      -1.505  -0.121   1.774  0.00  0.00    -0.077 A 
ATOM      2  C3  UNL d   1      -0.650   0.294   2.805  0.00  0.00     0.002 A 
ATOM      3  C4  UNL d   1       0.697   0.553   2.544  0.00  0.00     0.002 A 
ATOM      4  C5  UNL d   1       1.199   0.403   1.253  0.00  0.00    -0.004 A 
ATOM      5  C6  UNL d   1       0.357  -0.011   0.221  0.00  0.00     0.002 A 
ATOM      6  C7  UNL d   1      -0.989  -0.271   0.481  0.00  0.00     0.002 A 
ENDROOT
BRANCH   1   7
ATOM      7  C1  UNL d   1      -2.969  -0.353   2.044  0.00  0.00     0.055 C 
ATOM      8  C   UNL d   1      -3.821   0.777   1.484  0.00  0.00     0.019 C 
ENDBRANCH   1   7
TORSDOF 1
ENDMDL
