MODEL 1
REMARK minimizedAffinity 1.34360361
REMARK minimizedRMSD -1
REMARK  1 active torsions:
REMARK  status: ('A' for Active; 'I' for Inactive)
REMARK    1  A    between atoms: C1_2  and  C2_3 
ROOT
ATOM      1  C2  UNL d   1       2.786   1.150   1.604  0.00  0.00    -0.077 A 
ATOM      2  C3  UNL d   1       2.174   0.920   0.364  0.00  0.00     0.002 A 
ATOM      3  C4  UNL d   1       0.792   0.744   0.280  0.00  0.00     0.002 A 
ATOM      4  C5  UNL d   1       0.009   0.800   1.431  0.00  0.00    -0.004 A 
ATOM      5  C6  UNL d   1       0.609   1.026   2.670  0.00  0.00     0.002 A 
ATOM      6  C7  UNL d   1       1.990   1.201   2.756  0.00  0.00     0.002 A 
ENDROOT
BRANCH   1   7
ATOM      7  C1  UNL d   1       4.271   1.388   1.691  0.00  0.00     0.055 C 
ATOM      8  C   UNL d   1       4.671   2.657   0.952  0.00  0.00     0.019 C 
ENDBRANCH   1   7
TORSDOF 1
ENDMDL
