MODEL 1
REMARK minimizedAffinity 1.68516684
REMARK minimizedRMSD -1
REMARK  1 active torsions:
REMARK  status: ('A' for Active; 'I' for Inactive)
REMARK    1  A    between atoms: C1_2  and  C2_3 
ROOT
ATOM      1  C2  UNL d   1       2.837   1.900   1.580  0.00  0.00    -0.077 A 
ATOM      2  C3  UNL d   1       2.136   1.946   2.793  0.00  0.00     0.002 A 
ATOM      3  C4  UNL d   1       0.898   1.313   2.918  0.00  0.00     0.002 A 
ATOM      4  C5  UNL d   1       0.353   0.625   1.835  0.00  0.00    -0.004 A 
ATOM      5  C6  UNL d   1       1.042   0.575   0.624  0.00  0.00     0.002 A 
ATOM      6  C7  UNL d   1       2.279   1.209   0.497  0.00  0.00     0.002 A 
ENDROOT
BRANCH   1   7
ATOM      7  C1  UNL d   1       4.195   2.540   1.458  0.00  0.00     0.055 C 
ATOM      8  C   UNL d   1       5.246   1.763   2.238  0.00  0.00     0.019 C 
ENDBRANCH   1   7
TORSDOF 1
ENDMDL
