MODEL 1
REMARK minimizedAffinity -5.59330177
REMARK minimizedRMSD -1
REMARK  2 active torsions:
REMARK  status: ('A' for Active; 'I' for Inactive)
REMARK    1  A    between atoms: C1_2  and  C2_3 
REMARK    2  A    between atoms: C2_3  and  C3_4 
ROOT
ATOM      1  C3  UNL d   1      -3.174   1.991   3.404  0.00  0.00    -0.075 A 
ATOM      2  C4  UNL d   1      -1.908   1.575   2.966  0.00  0.00     0.002 A 
ATOM      3  C5  UNL d   1      -1.787   0.607   1.969  0.00  0.00     0.002 A 
ATOM      4  C6  UNL d   1      -2.927   0.037   1.405  0.00  0.00    -0.004 A 
ATOM      5  C7  UNL d   1      -4.189   0.431   1.844  0.00  0.00     0.002 A 
ATOM      6  C8  UNL d   1      -4.313   1.403   2.839  0.00  0.00     0.002 A 
ENDROOT
BRANCH   1   7
ATOM      7  C2  UNL d   1      -3.312   3.060   4.462  0.00  0.00     0.056 C 
BRANCH   7   8
ATOM      8  C1  UNL d   1      -2.320   2.921   5.622  0.00  0.00     0.007 C 
ATOM      9  C   UNL d   1      -1.651   4.236   6.000  0.00  0.00     0.009 C 
ENDBRANCH   7   8
ENDBRANCH   1   7
TORSDOF 2
ENDMDL
