MODEL 1
REMARK minimizedAffinity -4.72893906
REMARK minimizedRMSD -1
REMARK  2 active torsions:
REMARK  status: ('A' for Active; 'I' for Inactive)
REMARK    1  A    between atoms: C1_2  and  C2_3 
REMARK    2  A    between atoms: C2_3  and  C3_4 
ROOT
ATOM      1  C3  UNL d   1      -0.367  -0.309   0.616  0.00  0.00    -0.075 A 
ATOM      2  C4  UNL d   1       0.212   0.952   0.412  0.00  0.00     0.002 A 
ATOM      3  C5  UNL d   1       0.918   1.227  -0.759  0.00  0.00     0.002 A 
ATOM      4  C6  UNL d   1       1.063   0.243  -1.735  0.00  0.00    -0.004 A 
ATOM      5  C7  UNL d   1       0.506  -1.018  -1.537  0.00  0.00     0.002 A 
ATOM      6  C8  UNL d   1      -0.205  -1.294  -0.367  0.00  0.00     0.002 A 
ENDROOT
BRANCH   1   7
ATOM      7  C2  UNL d   1      -1.158  -0.602   1.868  0.00  0.00     0.056 C 
BRANCH   7   8
ATOM      8  C1  UNL d   1      -2.222   0.450   2.196  0.00  0.00     0.007 C 
ATOM      9  C   UNL d   1      -3.645  -0.048   1.982  0.00  0.00     0.009 C 
ENDBRANCH   7   8
ENDBRANCH   1   7
TORSDOF 2
ENDMDL
