MODEL 1
REMARK minimizedAffinity -4.26313257
REMARK minimizedRMSD -1
REMARK  2 active torsions:
REMARK  status: ('A' for Active; 'I' for Inactive)
REMARK    1  A    between atoms: C1_2  and  C2_3 
REMARK    2  A    between atoms: C2_3  and  C3_4 
ROOT
ATOM      1  C3  UNL d   1      -1.146   0.135   1.536  0.00  0.00    -0.075 A 
ATOM      2  C4  UNL d   1      -2.093  -0.820   1.140  0.00  0.00     0.002 A 
ATOM      3  C5  UNL d   1      -3.399  -0.766   1.627  0.00  0.00     0.002 A 
ATOM      4  C6  UNL d   1      -3.772   0.234   2.522  0.00  0.00    -0.004 A 
ATOM      5  C7  UNL d   1      -2.834   1.178   2.935  0.00  0.00     0.002 A 
ATOM      6  C8  UNL d   1      -1.528   1.130   2.446  0.00  0.00     0.002 A 
ENDROOT
BRANCH   1   7
ATOM      7  C2  UNL d   1       0.262   0.099   0.990  0.00  0.00     0.056 C 
BRANCH   7   8
ATOM      8  C1  UNL d   1       0.692   1.393   0.289  0.00  0.00     0.007 C 
ATOM      9  C   UNL d   1       1.343   1.153  -1.066  0.00  0.00     0.009 C 
ENDBRANCH   7   8
ENDBRANCH   1   7
TORSDOF 2
ENDMDL
