MODEL 1
REMARK minimizedAffinity -1.12506628
REMARK minimizedRMSD -1
REMARK  2 active torsions:
REMARK  status: ('A' for Active; 'I' for Inactive)
REMARK    1  A    between atoms: C1_2  and  C2_3 
REMARK    2  A    between atoms: C2_3  and  C3_4 
ROOT
ATOM      1  C3  UNL d   1       1.981  -0.391  -1.477  0.00  0.00    -0.075 A 
ATOM      2  C4  UNL d   1       0.894  -0.788  -0.684  0.00  0.00     0.002 A 
ATOM      3  C5  UNL d   1       0.079   0.164  -0.071  0.00  0.00     0.002 A 
ATOM      4  C6  UNL d   1       0.345   1.522  -0.233  0.00  0.00    -0.004 A 
ATOM      5  C7  UNL d   1       1.432   1.927  -1.005  0.00  0.00     0.002 A 
ATOM      6  C8  UNL d   1       2.246   0.977  -1.623  0.00  0.00     0.002 A 
ENDROOT
BRANCH   1   7
ATOM      7  C2  UNL d   1       2.849  -1.415  -2.167  0.00  0.00     0.056 C 
BRANCH   7   8
ATOM      8  C1  UNL d   1       2.652  -2.846  -1.655  0.00  0.00     0.007 C 
ATOM      9  C   UNL d   1       3.963  -3.565  -1.365  0.00  0.00     0.009 C 
ENDBRANCH   7   8
ENDBRANCH   1   7
TORSDOF 2
ENDMDL
