MODEL 1
REMARK minimizedAffinity 3.32501173
REMARK minimizedRMSD -1
REMARK  2 active torsions:
REMARK  status: ('A' for Active; 'I' for Inactive)
REMARK    1  A    between atoms: C1_2  and  C2_3 
REMARK    2  A    between atoms: C2_3  and  C3_4 
ROOT
ATOM      1  C3  UNL d   1      -1.409   0.845   0.935  0.00  0.00    -0.075 A 
ATOM      2  C4  UNL d   1      -0.439   1.785   0.557  0.00  0.00     0.002 A 
ATOM      3  C5  UNL d   1       0.787   1.368   0.039  0.00  0.00     0.002 A 
ATOM      4  C6  UNL d   1       1.064   0.010  -0.097  0.00  0.00    -0.004 A 
ATOM      5  C7  UNL d   1       0.115  -0.933   0.291  0.00  0.00     0.002 A 
ATOM      6  C8  UNL d   1      -1.115  -0.519   0.805  0.00  0.00     0.002 A 
ENDROOT
BRANCH   1   7
ATOM      7  C2  UNL d   1      -2.750   1.289   1.469  0.00  0.00     0.056 C 
BRANCH   7   8
ATOM      8  C1  UNL d   1      -2.771   1.526   2.982  0.00  0.00     0.007 C 
ATOM      9  C   UNL d   1      -3.279   2.910   3.366  0.00  0.00     0.009 C 
ENDBRANCH   7   8
ENDBRANCH   1   7
TORSDOF 2
ENDMDL
