MODEL 1
REMARK minimizedAffinity 2.26844239
REMARK minimizedRMSD -1
REMARK  2 active torsions:
REMARK  status: ('A' for Active; 'I' for Inactive)
REMARK    1  A    between atoms: C1_2  and  C2_3 
REMARK    2  A    between atoms: C2_3  and  C3_4 
ROOT
ATOM      1  C3  UNL d   1       0.236   0.278   0.395  0.00  0.00    -0.075 A 
ATOM      2  C4  UNL d   1       0.773   0.682   1.626  0.00  0.00     0.002 A 
ATOM      3  C5  UNL d   1       0.003   1.416   2.528  0.00  0.00     0.002 A 
ATOM      4  C6  UNL d   1      -1.307   1.765   2.208  0.00  0.00    -0.004 A 
ATOM      5  C7  UNL d   1      -1.846   1.384   0.981  0.00  0.00     0.002 A 
ATOM      6  C8  UNL d   1      -1.079   0.645   0.078  0.00  0.00     0.002 A 
ENDROOT
BRANCH   1   7
ATOM      7  C2  UNL d   1       1.054  -0.542  -0.573  0.00  0.00     0.056 C 
BRANCH   7   8
ATOM      8  C1  UNL d   1       2.381   0.110  -0.977  0.00  0.00     0.007 C 
ATOM      9  C   UNL d   1       2.396   0.598  -2.419  0.00  0.00     0.009 C 
ENDBRANCH   7   8
ENDBRANCH   1   7
TORSDOF 2
ENDMDL
