MODEL 1
REMARK minimizedAffinity -4.52892351
REMARK minimizedRMSD -1
REMARK  2 active torsions:
REMARK  status: ('A' for Active; 'I' for Inactive)
REMARK    1  A    between atoms: C1_2  and  C2_3 
REMARK    2  A    between atoms: C2_3  and  C3_4 
ROOT
ATOM      1  C3  UNL d   1       0.349   0.100  -1.090  0.00  0.00    -0.075 A 
ATOM      2  C4  UNL d   1      -0.094  -1.112  -0.540  0.00  0.00     0.002 A 
ATOM      3  C5  UNL d   1      -0.456  -1.189   0.805  0.00  0.00     0.002 A 
ATOM      4  C6  UNL d   1      -0.370  -0.061   1.618  0.00  0.00    -0.004 A 
ATOM      5  C7  UNL d   1       0.084   1.144   1.086  0.00  0.00     0.002 A 
ATOM      6  C8  UNL d   1       0.443   1.225  -0.260  0.00  0.00     0.002 A 
ENDROOT
BRANCH   1   7
ATOM      7  C2  UNL d   1       0.714   0.197  -2.552  0.00  0.00     0.056 C 
BRANCH   7   8
ATOM      8  C1  UNL d   1       2.162  -0.198  -2.861  0.00  0.00     0.007 C 
ATOM      9  C   UNL d   1       3.164   0.365  -1.862  0.00  0.00     0.009 C 
ENDBRANCH   7   8
ENDBRANCH   1   7
TORSDOF 2
ENDMDL
