MODEL 1
REMARK minimizedAffinity -4.80782604
REMARK minimizedRMSD -1
REMARK  2 active torsions:
REMARK  status: ('A' for Active; 'I' for Inactive)
REMARK    1  A    between atoms: C1_2  and  C2_3 
REMARK    2  A    between atoms: C2_3  and  C3_4 
ROOT
ATOM      1  C3  UNL d   1      -0.628   0.381   1.179  0.00  0.00    -0.075 A 
ATOM      2  C4  UNL d   1       0.081   1.486   0.684  0.00  0.00     0.002 A 
ATOM      3  C5  UNL d   1       0.989   1.333  -0.364  0.00  0.00     0.002 A 
ATOM      4  C6  UNL d   1       1.207   0.076  -0.923  0.00  0.00    -0.004 A 
ATOM      5  C7  UNL d   1       0.521  -1.031  -0.428  0.00  0.00     0.002 A 
ATOM      6  C8  UNL d   1      -0.392  -0.881   0.618  0.00  0.00     0.002 A 
ENDROOT
BRANCH   1   7
ATOM      7  C2  UNL d   1      -1.634   0.545   2.293  0.00  0.00     0.056 C 
BRANCH   7   8
ATOM      8  C1  UNL d   1      -3.065   0.158   1.904  0.00  0.00     0.007 C 
ATOM      9  C   UNL d   1      -3.974   1.360   1.685  0.00  0.00     0.009 C 
ENDBRANCH   7   8
ENDBRANCH   1   7
TORSDOF 2
ENDMDL
