MODEL 1
REMARK minimizedAffinity -2.40328932
REMARK minimizedRMSD -1
REMARK  2 active torsions:
REMARK  status: ('A' for Active; 'I' for Inactive)
REMARK    1  A    between atoms: C1_2  and  C2_3 
REMARK    2  A    between atoms: C2_3  and  C3_4 
ROOT
ATOM      1  C3  UNL d   1      -0.738   0.376   1.184  0.00  0.00    -0.075 A 
ATOM      2  C4  UNL d   1       0.209   1.376   0.917  0.00  0.00     0.002 A 
ATOM      3  C5  UNL d   1       1.073   1.260  -0.172  0.00  0.00     0.002 A 
ATOM      4  C6  UNL d   1       1.010   0.141  -1.000  0.00  0.00    -0.004 A 
ATOM      5  C7  UNL d   1       0.084  -0.866  -0.734  0.00  0.00     0.002 A 
ATOM      6  C8  UNL d   1      -0.785  -0.751   0.352  0.00  0.00     0.002 A 
ENDROOT
BRANCH   1   7
ATOM      7  C2  UNL d   1      -1.696   0.510   2.343  0.00  0.00     0.056 C 
BRANCH   7   8
ATOM      8  C1  UNL d   1      -3.166   0.301   1.965  0.00  0.00     0.007 C 
ATOM      9  C   UNL d   1      -3.965   1.597   1.924  0.00  0.00     0.009 C 
ENDBRANCH   7   8
ENDBRANCH   1   7
TORSDOF 2
ENDMDL
