MODEL 1
REMARK minimizedAffinity -4.62909842
REMARK minimizedRMSD -1
REMARK  2 active torsions:
REMARK  status: ('A' for Active; 'I' for Inactive)
REMARK    1  A    between atoms: C1_2  and  C2_3 
REMARK    2  A    between atoms: C2_3  and  C3_4 
ROOT
ATOM      1  C3  UNL d   1       0.042   0.539  -1.316  0.00  0.00    -0.075 A 
ATOM      2  C4  UNL d   1       0.396   1.495  -0.352  0.00  0.00     0.002 A 
ATOM      3  C5  UNL d   1      -0.018   1.351   0.973  0.00  0.00     0.002 A 
ATOM      4  C6  UNL d   1      -0.797   0.259   1.348  0.00  0.00    -0.004 A 
ATOM      5  C7  UNL d   1      -1.168  -0.687   0.396  0.00  0.00     0.002 A 
ATOM      6  C8  UNL d   1      -0.752  -0.549  -0.930  0.00  0.00     0.002 A 
ENDROOT
BRANCH   1   7
ATOM      7  C2  UNL d   1       0.511   0.673  -2.745  0.00  0.00     0.056 C 
BRANCH   7   8
ATOM      8  C1  UNL d   1       1.910   0.102  -2.998  0.00  0.00     0.007 C 
ATOM      9  C   UNL d   1       2.849   0.264  -1.810  0.00  0.00     0.009 C 
ENDBRANCH   7   8
ENDBRANCH   1   7
TORSDOF 2
ENDMDL
