MODEL 1
REMARK minimizedAffinity -5.36926651
REMARK minimizedRMSD -1
REMARK  2 active torsions:
REMARK  status: ('A' for Active; 'I' for Inactive)
REMARK    1  A    between atoms: C1_2  and  C2_3 
REMARK    2  A    between atoms: C2_3  and  C3_4 
ROOT
ATOM      1  C3  UNL d   1       0.113   0.109   0.117  0.00  0.00    -0.075 A 
ATOM      2  C4  UNL d   1       0.136  -1.029  -0.702  0.00  0.00     0.002 A 
ATOM      3  C5  UNL d   1       0.878  -1.036  -1.884  0.00  0.00     0.002 A 
ATOM      4  C6  UNL d   1       1.597   0.095  -2.265  0.00  0.00    -0.004 A 
ATOM      5  C7  UNL d   1       1.568   1.236  -1.467  0.00  0.00     0.002 A 
ATOM      6  C8  UNL d   1       0.830   1.245  -0.282  0.00  0.00     0.002 A 
ENDROOT
BRANCH   1   7
ATOM      7  C2  UNL d   1      -0.664   0.113   1.412  0.00  0.00     0.056 C 
BRANCH   7   8
ATOM      8  C1  UNL d   1      -2.143  -0.254   1.252  0.00  0.00     0.007 C 
ATOM      9  C   UNL d   1      -3.083   0.724   1.945  0.00  0.00     0.009 C 
ENDBRANCH   7   8
ENDBRANCH   1   7
TORSDOF 2
ENDMDL
