MODEL 1
REMARK minimizedAffinity -6.30759668
REMARK minimizedRMSD -1
REMARK  2 active torsions:
REMARK  status: ('A' for Active; 'I' for Inactive)
REMARK    1  A    between atoms: C1_2  and  C2_3 
REMARK    2  A    between atoms: C2_3  and  C3_4 
ROOT
ATOM      1  C3  UNL d   1       0.655  -0.069  -0.534  0.00  0.00    -0.075 A 
ATOM      2  C4  UNL d   1       0.472  -1.444  -0.737  0.00  0.00     0.002 A 
ATOM      3  C5  UNL d   1       1.181  -2.113  -1.735  0.00  0.00     0.002 A 
ATOM      4  C6  UNL d   1       2.072  -1.415  -2.548  0.00  0.00    -0.004 A 
ATOM      5  C7  UNL d   1       2.249  -0.045  -2.365  0.00  0.00     0.002 A 
ATOM      6  C8  UNL d   1       1.544   0.625  -1.364  0.00  0.00     0.002 A 
ENDROOT
BRANCH   1   7
ATOM      7  C2  UNL d   1      -0.087   0.655   0.564  0.00  0.00     0.056 C 
BRANCH   7   8
ATOM      8  C1  UNL d   1      -1.019  -0.244   1.385  0.00  0.00     0.007 C 
ATOM      9  C   UNL d   1      -2.196   0.508   1.992  0.00  0.00     0.009 C 
ENDBRANCH   7   8
ENDBRANCH   1   7
TORSDOF 2
ENDMDL
