MODEL 1
REMARK minimizedAffinity -0.190555826
REMARK minimizedRMSD -1
REMARK  0 active torsions:
REMARK  status: ('A' for Active; 'I' for Inactive)
ROOT
ATOM      1  C4' PXY d   1       5.988   5.963   4.566  0.00  0.00     0.077 C 
ATOM      2  C1' PXY d   1       3.743   3.962  -0.371  0.00  0.00     0.077 C 
ATOM      3  C1  PXY d   1       4.337   4.475   0.926  0.00  0.00    -0.082 A 
ATOM      4  C2  PXY d   1       3.766   5.493   1.550  0.00  0.00     0.003 A 
ATOM      5  C3  PXY d   1       4.309   5.990   2.706  0.00  0.00     0.003 A 
ATOM      6  C4  PXY d   1       5.417   5.405   3.259  0.00  0.00    -0.082 A 
ATOM      7  C5  PXY d   1       5.999   4.360   2.634  0.00  0.00     0.003 A 
ATOM      8  C6  PXY d   1       5.457   3.897   1.439  0.00  0.00     0.003 A 
ENDROOT
TORSDOF 0
ENDMDL
