MODEL 1
REMARK minimizedAffinity 3.85113621
REMARK minimizedRMSD -1
REMARK  0 active torsions:
REMARK  status: ('A' for Active; 'I' for Inactive)
ROOT
ATOM      1  C4' PXY d   1       0.213   5.455  -4.429  0.00  0.00     0.077 C 
ATOM      2  C1' PXY d   1       3.792   0.944  -3.922  0.00  0.00     0.077 C 
ATOM      3  C1  PXY d   1       2.863   2.134  -4.059  0.00  0.00    -0.082 A 
ATOM      4  C2  PXY d   1       1.743   2.174  -3.356  0.00  0.00     0.003 A 
ATOM      5  C3  PXY d   1       0.876   3.228  -3.492  0.00  0.00     0.003 A 
ATOM      6  C4  PXY d   1       1.185   4.277  -4.316  0.00  0.00    -0.082 A 
ATOM      7  C5  PXY d   1       2.331   4.249  -5.028  0.00  0.00     0.003 A 
ATOM      8  C6  PXY d   1       3.178   3.151  -4.907  0.00  0.00     0.003 A 
ENDROOT
TORSDOF 0
ENDMDL
