MODEL 1
REMARK minimizedAffinity 0.822551847
REMARK minimizedRMSD -1
REMARK  0 active torsions:
REMARK  status: ('A' for Active; 'I' for Inactive)
ROOT
ATOM      1  C4' PXY d   1      -4.908  -6.000   0.256  0.00  0.00     0.077 C 
ATOM      2  C1' PXY d   1      -3.307  -1.524  -3.033  0.00  0.00     0.077 C 
ATOM      3  C1  PXY d   1      -3.714  -2.700  -2.167  0.00  0.00    -0.082 A 
ATOM      4  C2  PXY d   1      -4.823  -3.365  -2.447  0.00  0.00     0.003 A 
ATOM      5  C3  PXY d   1      -5.223  -4.411  -1.655  0.00  0.00     0.003 A 
ATOM      6  C4  PXY d   1      -4.453  -4.813  -0.597  0.00  0.00    -0.082 A 
ATOM      7  C5  PXY d   1      -3.315  -4.146  -0.311  0.00  0.00     0.003 A 
ATOM      8  C6  PXY d   1      -2.947  -3.061  -1.103  0.00  0.00     0.003 A 
ENDROOT
TORSDOF 0
ENDMDL
