MODEL 1
REMARK minimizedAffinity -1.53924227
REMARK minimizedRMSD -1
REMARK  0 active torsions:
REMARK  status: ('A' for Active; 'I' for Inactive)
ROOT
ATOM      1  C4' PXY d   1      -1.379   2.041   1.913  0.00  0.00     0.077 C 
ATOM      2  C1' PXY d   1       3.254  -0.563  -0.360  0.00  0.00     0.077 C 
ATOM      3  C1  PXY d   1       2.034   0.108   0.240  0.00  0.00    -0.082 A 
ATOM      4  C2  PXY d   1       1.652   1.293  -0.210  0.00  0.00     0.003 A 
ATOM      5  C3  PXY d   1       0.570   1.928   0.343  0.00  0.00     0.003 A 
ATOM      6  C4  PXY d   1      -0.159   1.322   1.330  0.00  0.00    -0.082 A 
ATOM      7  C5  PXY d   1       0.218   0.109   1.787  0.00  0.00     0.003 A 
ATOM      8  C6  PXY d   1       1.343  -0.501   1.241  0.00  0.00     0.003 A 
ENDROOT
TORSDOF 0
ENDMDL
