MODEL 1
REMARK minimizedAffinity -2.01241088
REMARK minimizedRMSD -1
REMARK  0 active torsions:
REMARK  status: ('A' for Active; 'I' for Inactive)
ROOT
ATOM      1  C4' PXY d   1      -3.093  -0.749   2.741  0.00  0.00     0.077 C 
ATOM      2  C1' PXY d   1       1.213   2.112   0.154  0.00  0.00     0.077 C 
ATOM      3  C1  PXY d   1       0.087   1.351   0.827  0.00  0.00    -0.082 A 
ATOM      4  C2  PXY d   1      -0.989   2.002   1.237  0.00  0.00     0.003 A 
ATOM      5  C3  PXY d   1      -2.002   1.334   1.875  0.00  0.00     0.003 A 
ATOM      6  C4  PXY d   1      -1.936  -0.023   2.049  0.00  0.00    -0.082 A 
ATOM      7  C5  PXY d   1      -0.846  -0.695   1.624  0.00  0.00     0.003 A 
ATOM      8  C6  PXY d   1       0.190   0.007   1.015  0.00  0.00     0.003 A 
ENDROOT
TORSDOF 0
ENDMDL
