MODEL 1
REMARK minimizedAffinity 2.75548339
REMARK minimizedRMSD -1
REMARK  0 active torsions:
REMARK  status: ('A' for Active; 'I' for Inactive)
ROOT
ATOM      1  C4' PXY d   1      -0.310  -1.138   2.873  0.00  0.00     0.077 C 
ATOM      2  C1' PXY d   1       2.721   1.780  -1.091  0.00  0.00     0.077 C 
ATOM      3  C1  PXY d   1       1.919   1.026  -0.049  0.00  0.00    -0.082 A 
ATOM      4  C2  PXY d   1       2.428  -0.063   0.506  0.00  0.00     0.003 A 
ATOM      5  C3  PXY d   1       1.703  -0.775   1.427  0.00  0.00     0.003 A 
ATOM      6  C4  PXY d   1       0.467  -0.339   1.823  0.00  0.00    -0.082 A 
ATOM      7  C5  PXY d   1      -0.054   0.776   1.270  0.00  0.00     0.003 A 
ATOM      8  C6  PXY d   1       0.680   1.462   0.306  0.00  0.00     0.003 A 
ENDROOT
TORSDOF 0
ENDMDL
