MODEL 1
REMARK minimizedAffinity 10.4470043
REMARK minimizedRMSD -1
REMARK  0 active torsions:
REMARK  status: ('A' for Active; 'I' for Inactive)
ROOT
ATOM      1  C4' PXY d   1       5.010   4.359  -3.224  0.00  0.00     0.077 C 
ATOM      2  C1' PXY d   1       2.793  -0.943  -2.595  0.00  0.00     0.077 C 
ATOM      3  C1  PXY d   1       3.364   0.451  -2.767  0.00  0.00    -0.082 A 
ATOM      4  C2  PXY d   1       4.669   0.642  -2.659  0.00  0.00     0.003 A 
ATOM      5  C3  PXY d   1       5.199   1.900  -2.780  0.00  0.00     0.003 A 
ATOM      6  C4  PXY d   1       4.390   2.968  -3.067  0.00  0.00    -0.082 A 
ATOM      7  C5  PXY d   1       3.059   2.780  -3.189  0.00  0.00     0.003 A 
ATOM      8  C6  PXY d   1       2.537   1.501  -3.022  0.00  0.00     0.003 A 
ENDROOT
TORSDOF 0
ENDMDL
