MODEL 1
REMARK minimizedAffinity -2.95835638
REMARK minimizedRMSD -1
REMARK  0 active torsions:
REMARK  status: ('A' for Active; 'I' for Inactive)
ROOT
ATOM      1  C4' PXY d   1       3.355  -0.608   0.177  0.00  0.00     0.077 C 
ATOM      2  C1' PXY d   1      -1.209   2.484   1.917  0.00  0.00     0.077 C 
ATOM      3  C1  PXY d   1      -0.011   1.680   1.449  0.00  0.00    -0.082 A 
ATOM      4  C2  PXY d   1       0.176   0.456   1.914  0.00  0.00     0.003 A 
ATOM      5  C3  PXY d   1       1.271  -0.273   1.527  0.00  0.00     0.003 A 
ATOM      6  C4  PXY d   1       2.155   0.236   0.614  0.00  0.00    -0.082 A 
ATOM      7  C5  PXY d   1       1.965   1.481   0.127  0.00  0.00     0.003 A 
ATOM      8  C6  PXY d   1       0.869   2.220   0.564  0.00  0.00     0.003 A 
ENDROOT
TORSDOF 0
ENDMDL
