MODEL 1
REMARK minimizedAffinity 2.22453308
REMARK minimizedRMSD -1
REMARK  0 active torsions:
REMARK  status: ('A' for Active; 'I' for Inactive)
ROOT
ATOM      1  C4' PXY d   1       0.533   0.451   0.640  0.00  0.00     0.077 C 
ATOM      2  C1' PXY d   1      -3.956   2.376   3.732  0.00  0.00     0.077 C 
ATOM      3  C1  PXY d   1      -2.780   1.859   2.926  0.00  0.00    -0.082 A 
ATOM      4  C2  PXY d   1      -1.833   2.698   2.539  0.00  0.00     0.003 A 
ATOM      5  C3  PXY d   1      -0.780   2.253   1.782  0.00  0.00     0.003 A 
ATOM      6  C4  PXY d   1      -0.667   0.927   1.463  0.00  0.00    -0.082 A 
ATOM      7  C5  PXY d   1      -1.624   0.063   1.863  0.00  0.00     0.003 A 
ATOM      8  C6  PXY d   1      -2.707   0.541   2.596  0.00  0.00     0.003 A 
ENDROOT
TORSDOF 0
ENDMDL
