MODEL 1
REMARK minimizedAffinity -0.08817669
REMARK minimizedRMSD -1
REMARK  0 active torsions:
REMARK  status: ('A' for Active; 'I' for Inactive)
ROOT
ATOM      1  C4' PXY d   1      -2.291  -1.500   2.439  0.00  0.00     0.077 C 
ATOM      2  C1' PXY d   1       1.649   1.839  -0.159  0.00  0.00     0.077 C 
ATOM      3  C1  PXY d   1       0.621   0.953   0.516  0.00  0.00    -0.082 A 
ATOM      4  C2  PXY d   1      -0.499   1.485   0.978  0.00  0.00     0.003 A 
ATOM      5  C3  PXY d   1      -1.426   0.704   1.619  0.00  0.00     0.003 A 
ATOM      6  C4  PXY d   1      -1.228  -0.645   1.742  0.00  0.00    -0.082 A 
ATOM      7  C5  PXY d   1      -0.093  -1.198   1.264  0.00  0.00     0.003 A 
ATOM      8  C6  PXY d   1       0.854  -0.381   0.653  0.00  0.00     0.003 A 
ENDROOT
TORSDOF 0
ENDMDL
