MODEL 1
REMARK minimizedAffinity 1.54213607
REMARK minimizedRMSD -1
REMARK  0 active torsions:
REMARK  status: ('A' for Active; 'I' for Inactive)
ROOT
ATOM      1  C4' PXY d   1      -1.348   2.784   1.716  0.00  0.00     0.077 C 
ATOM      2  C1' PXY d   1       3.027  -0.636   0.111  0.00  0.00     0.077 C 
ATOM      3  C1  PXY d   1       1.871   0.252   0.528  0.00  0.00    -0.082 A 
ATOM      4  C2  PXY d   1       2.057   1.557   0.643  0.00  0.00     0.003 A 
ATOM      5  C3  PXY d   1       1.031   2.371   1.050  0.00  0.00     0.003 A 
ATOM      6  C4  PXY d   1      -0.212   1.850   1.290  0.00  0.00    -0.082 A 
ATOM      7  C5  PXY d   1      -0.413   0.521   1.164  0.00  0.00     0.003 A 
ATOM      8  C6  PXY d   1       0.652  -0.293   0.790  0.00  0.00     0.003 A 
ENDROOT
TORSDOF 0
ENDMDL
