MODEL 1
REMARK minimizedAffinity 0.173256397
REMARK minimizedRMSD -1
REMARK  0 active torsions:
REMARK  status: ('A' for Active; 'I' for Inactive)
ROOT
ATOM      1  C4' PXY d   1      -2.805   3.236   0.813  0.00  0.00     0.077 C 
ATOM      2  C1' PXY d   1       0.386  -1.465   1.881  0.00  0.00     0.077 C 
ATOM      3  C1  PXY d   1      -0.440  -0.225   1.601  0.00  0.00    -0.082 A 
ATOM      4  C2  PXY d   1      -1.714  -0.193   1.958  0.00  0.00     0.003 A 
ATOM      5  C3  PXY d   1      -2.484   0.908   1.683  0.00  0.00     0.003 A 
ATOM      6  C4  PXY d   1      -1.931   2.008   1.085  0.00  0.00    -0.082 A 
ATOM      7  C5  PXY d   1      -0.629   1.988   0.727  0.00  0.00     0.003 A 
ATOM      8  C6  PXY d   1       0.125   0.845   0.978  0.00  0.00     0.003 A 
ENDROOT
TORSDOF 0
ENDMDL
