MODEL 1
REMARK minimizedAffinity -1.43690634
REMARK minimizedRMSD -1
REMARK  0 active torsions:
REMARK  status: ('A' for Active; 'I' for Inactive)
ROOT
ATOM      1  C4' PXY d   1      -4.111   1.841   3.409  0.00  0.00     0.077 C 
ATOM      2  C1' PXY d   1       0.700   0.645   0.437  0.00  0.00     0.077 C 
ATOM      3  C1  PXY d   1      -0.556   0.969   1.221  0.00  0.00    -0.082 A 
ATOM      4  C2  PXY d   1      -1.378  -0.006   1.573  0.00  0.00     0.003 A 
ATOM      5  C3  PXY d   1      -2.534   0.273   2.255  0.00  0.00     0.003 A 
ATOM      6  C4  PXY d   1      -2.827   1.558   2.625  0.00  0.00    -0.082 A 
ATOM      7  C5  PXY d   1      -1.988   2.558   2.279  0.00  0.00     0.003 A 
ATOM      8  C6  PXY d   1      -0.840   2.258   1.551  0.00  0.00     0.003 A 
ENDROOT
TORSDOF 0
ENDMDL
