MODEL 1
REMARK minimizedAffinity 5.86366701
REMARK minimizedRMSD -1
REMARK  0 active torsions:
REMARK  status: ('A' for Active; 'I' for Inactive)
ROOT
ATOM      1  C4' PXY d   1      -3.062  -2.447   4.184  0.00  0.00     0.077 C 
ATOM      2  C1' PXY d   1       1.058   0.239   1.146  0.00  0.00     0.077 C 
ATOM      3  C1  PXY d   1      -0.014  -0.475   1.945  0.00  0.00    -0.082 A 
ATOM      4  C2  PXY d   1      -1.290  -0.243   1.683  0.00  0.00     0.003 A 
ATOM      5  C3  PXY d   1      -2.272  -0.856   2.417  0.00  0.00     0.003 A 
ATOM      6  C4  PXY d   1      -1.945  -1.756   3.396  0.00  0.00    -0.082 A 
ATOM      7  C5  PXY d   1      -0.646  -2.007   3.662  0.00  0.00     0.003 A 
ATOM      8  C6  PXY d   1       0.336  -1.343   2.933  0.00  0.00     0.003 A 
ENDROOT
TORSDOF 0
ENDMDL
