MODEL 1
REMARK minimizedAffinity 0.714001417
REMARK minimizedRMSD -1
REMARK  0 active torsions:
REMARK  status: ('A' for Active; 'I' for Inactive)
ROOT
ATOM      1  C4' PXY d   1       1.523  -1.306   0.744  0.00  0.00     0.077 C 
ATOM      2  C1' PXY d   1      -1.999   3.196   1.608  0.00  0.00     0.077 C 
ATOM      3  C1  PXY d   1      -1.082   2.008   1.389  0.00  0.00    -0.082 A 
ATOM      4  C2  PXY d   1       0.165   2.208   0.996  0.00  0.00     0.003 A 
ATOM      5  C3  PXY d   1       0.998   1.143   0.763  0.00  0.00     0.003 A 
ATOM      6  C4  PXY d   1       0.565  -0.136   0.986  0.00  0.00    -0.082 A 
ATOM      7  C5  PXY d   1      -0.703  -0.348   1.397  0.00  0.00     0.003 A 
ATOM      8  C6  PXY d   1      -1.545   0.744   1.588  0.00  0.00     0.003 A 
ENDROOT
TORSDOF 0
ENDMDL
