MODEL 1
REMARK minimizedAffinity 4.9339633
REMARK minimizedRMSD -1
REMARK  0 active torsions:
REMARK  status: ('A' for Active; 'I' for Inactive)
ROOT
ATOM      1  C4' PXY d   1      -6.000   5.999   5.653  0.00  0.00     0.077 C 
ATOM      2  C1' PXY d   1      -4.737   0.639   3.895  0.00  0.00     0.077 C 
ATOM      3  C1  PXY d   1      -5.077   2.039   4.364  0.00  0.00    -0.082 A 
ATOM      4  C2  PXY d   1      -4.781   3.076   3.597  0.00  0.00     0.003 A 
ATOM      5  C3  PXY d   1      -5.053   4.352   4.020  0.00  0.00     0.003 A 
ATOM      6  C4  PXY d   1      -5.683   4.566   5.216  0.00  0.00    -0.082 A 
ATOM      7  C5  PXY d   1      -5.999   3.513   6.000  0.00  0.00     0.003 A 
ATOM      8  C6  PXY d   1      -5.677   2.228   5.571  0.00  0.00     0.003 A 
ENDROOT
TORSDOF 0
ENDMDL
