MODEL 1
REMARK minimizedAffinity -0.788704872
REMARK minimizedRMSD -1
REMARK  0 active torsions:
REMARK  status: ('A' for Active; 'I' for Inactive)
ROOT
ATOM      1  C4' PXY d   1      -3.264   1.251   2.590  0.00  0.00     0.077 C 
ATOM      2  C1' PXY d   1       1.872  -0.077   0.293  0.00  0.00     0.077 C 
ATOM      3  C1  PXY d   1       0.521   0.259   0.893  0.00  0.00    -0.082 A 
ATOM      4  C2  PXY d   1       0.120   1.519   0.936  0.00  0.00     0.003 A 
ATOM      5  C3  PXY d   1      -1.085   1.844   1.504  0.00  0.00     0.003 A 
ATOM      6  C4  PXY d   1      -1.911   0.864   1.985  0.00  0.00    -0.082 A 
ATOM      7  C5  PXY d   1      -1.514  -0.425   1.935  0.00  0.00     0.003 A 
ATOM      8  C6  PXY d   1      -0.269  -0.730   1.391  0.00  0.00     0.003 A 
ENDROOT
TORSDOF 0
ENDMDL
