MODEL 1
REMARK minimizedAffinity 9.39983082
REMARK minimizedRMSD -1
REMARK  0 active torsions:
REMARK  status: ('A' for Active; 'I' for Inactive)
ROOT
ATOM      1  C4' PXY d   1       1.647   0.024   4.020  0.00  0.00     0.077 C 
ATOM      2  C1' PXY d   1      -0.581   2.026  -0.923  0.00  0.00     0.077 C 
ATOM      3  C1  PXY d   1       0.010   1.492   0.366  0.00  0.00    -0.082 A 
ATOM      4  C2  PXY d   1      -0.631   1.684   1.508  0.00  0.00     0.003 A 
ATOM      5  C3  PXY d   1      -0.095   1.235   2.688  0.00  0.00     0.003 A 
ATOM      6  C4  PXY d   1       1.083   0.537   2.693  0.00  0.00    -0.082 A 
ATOM      7  C5  PXY d   1       1.737   0.329   1.531  0.00  0.00     0.003 A 
ATOM      8  C6  PXY d   1       1.197   0.828   0.349  0.00  0.00     0.003 A 
ENDROOT
TORSDOF 0
ENDMDL
