MODEL 1
REMARK minimizedAffinity 0.459212899
REMARK minimizedRMSD -1
REMARK  0 active torsions:
REMARK  status: ('A' for Active; 'I' for Inactive)
ROOT
ATOM      1  C4' PXY d   1      -4.046   1.490   3.794  0.00  0.00     0.077 C 
ATOM      2  C1' PXY d   1       1.106   0.700   1.295  0.00  0.00     0.077 C 
ATOM      3  C1  PXY d   1      -0.249   0.896   1.945  0.00  0.00    -0.082 A 
ATOM      4  C2  PXY d   1      -0.647   2.114   2.274  0.00  0.00     0.003 A 
ATOM      5  C3  PXY d   1      -1.856   2.306   2.892  0.00  0.00     0.003 A 
ATOM      6  C4  PXY d   1      -2.690   1.246   3.127  0.00  0.00    -0.082 A 
ATOM      7  C5  PXY d   1      -2.296   0.001   2.784  0.00  0.00     0.003 A 
ATOM      8  C6  PXY d   1      -1.048  -0.177   2.195  0.00  0.00     0.003 A 
ENDROOT
TORSDOF 0
ENDMDL
