MODEL 1
REMARK minimizedAffinity 0.336329758
REMARK minimizedRMSD -1
REMARK  0 active torsions:
REMARK  status: ('A' for Active; 'I' for Inactive)
ROOT
ATOM      1  C   UNL d   1      -3.112   2.316   3.734  0.00  0.00     0.172 C 
ATOM      2  N   UNL d   1      -4.186   2.601   4.656  0.00  0.00    -0.070 N 
ATOM      3  C1  UNL d   1      -4.499   3.834   5.161  0.00  0.00    -0.004 A 
ATOM      4  C2  UNL d   1      -5.583   3.685   6.000  0.00  0.00    -0.047 A 
ATOM      5  C3  UNL d   1      -5.932   2.313   6.000  0.00  0.00    -0.047 A 
ATOM      6  C4  UNL d   1      -5.051   1.665   5.159  0.00  0.00    -0.004 A 
ENDROOT
TORSDOF 0
ENDMDL
