MODEL 1
REMARK minimizedAffinity 0.766502559
REMARK minimizedRMSD -1
REMARK  0 active torsions:
REMARK  status: ('A' for Active; 'I' for Inactive)
ROOT
ATOM      1  C   UNL d   1      -2.661   1.928   3.384  0.00  0.00     0.172 C 
ATOM      2  N   UNL d   1      -1.492   1.560   2.620  0.00  0.00    -0.070 N 
ATOM      3  C1  UNL d   1      -0.914   0.319   2.593  0.00  0.00    -0.004 A 
ATOM      4  C2  UNL d   1       0.173   0.378   1.749  0.00  0.00    -0.047 A 
ATOM      5  C3  UNL d   1       0.252   1.701   1.252  0.00  0.00    -0.047 A 
ATOM      6  C4  UNL d   1      -0.791   2.411   1.807  0.00  0.00    -0.004 A 
ENDROOT
TORSDOF 0
ENDMDL
