MODEL 1
REMARK minimizedAffinity 2.61077452
REMARK minimizedRMSD -1
REMARK  0 active torsions:
REMARK  status: ('A' for Active; 'I' for Inactive)
ROOT
ATOM      1  C   UNL d   1      -0.336  -1.299   2.489  0.00  0.00     0.172 C 
ATOM      2  N   UNL d   1      -0.022  -0.036   1.862  0.00  0.00    -0.070 N 
ATOM      3  C1  UNL d   1       0.305   0.142   0.545  0.00  0.00    -0.004 A 
ATOM      4  C2  UNL d   1       0.531   1.487   0.344  0.00  0.00    -0.047 A 
ATOM      5  C3  UNL d   1       0.334   2.139   1.584  0.00  0.00    -0.047 A 
ATOM      6  C4  UNL d   1      -0.008   1.173   2.507  0.00  0.00    -0.004 A 
ENDROOT
TORSDOF 0
ENDMDL
