MODEL 1
REMARK minimizedAffinity 1.60845459
REMARK minimizedRMSD -1
REMARK  0 active torsions:
REMARK  status: ('A' for Active; 'I' for Inactive)
ROOT
ATOM      1  C   UNL d   1      -6.000   4.953   5.874  0.00  0.00     0.172 C 
ATOM      2  N   UNL d   1      -5.374   3.707   5.498  0.00  0.00    -0.070 N 
ATOM      3  C1  UNL d   1      -5.689   2.473   6.000  0.00  0.00    -0.004 A 
ATOM      4  C2  UNL d   1      -4.870   1.547   5.389  0.00  0.00    -0.047 A 
ATOM      5  C3  UNL d   1      -4.034   2.250   4.490  0.00  0.00    -0.047 A 
ATOM      6  C4  UNL d   1      -4.367   3.586   4.578  0.00  0.00    -0.004 A 
ENDROOT
TORSDOF 0
ENDMDL
