MODEL 1
REMARK minimizedAffinity -0.736968398
REMARK minimizedRMSD -1
REMARK  0 active torsions:
REMARK  status: ('A' for Active; 'I' for Inactive)
ROOT
ATOM      1  C   UNL d   1       0.729   0.735   1.124  0.00  0.00     0.172 C 
ATOM      2  N   UNL d   1      -0.509   1.153   1.740  0.00  0.00    -0.070 N 
ATOM      3  C1  UNL d   1      -1.599   0.355   1.961  0.00  0.00    -0.004 A 
ATOM      4  C2  UNL d   1      -2.569   1.124   2.566  0.00  0.00    -0.047 A 
ATOM      5  C3  UNL d   1      -2.045   2.430   2.711  0.00  0.00    -0.047 A 
ATOM      6  C4  UNL d   1      -0.767   2.420   2.192  0.00  0.00    -0.004 A 
ENDROOT
TORSDOF 0
ENDMDL
