MODEL 1
REMARK minimizedAffinity -0.158618003
REMARK minimizedRMSD -1
REMARK  0 active torsions:
REMARK  status: ('A' for Active; 'I' for Inactive)
ROOT
ATOM      1  C   UNL d   1      -4.213   2.288   4.656  0.00  0.00     0.172 C 
ATOM      2  N   UNL d   1      -3.246   1.837   3.682  0.00  0.00    -0.070 N 
ATOM      3  C1  UNL d   1      -3.232   0.607   3.082  0.00  0.00    -0.004 A 
ATOM      4  C2  UNL d   1      -2.156   0.570   2.221  0.00  0.00    -0.047 A 
ATOM      5  C3  UNL d   1      -1.501   1.821   2.308  0.00  0.00    -0.047 A 
ATOM      6  C4  UNL d   1      -2.197   2.586   3.220  0.00  0.00    -0.004 A 
ENDROOT
TORSDOF 0
ENDMDL
