MODEL 1
REMARK minimizedAffinity -3.16965389
REMARK minimizedRMSD -1
REMARK  0 active torsions:
REMARK  status: ('A' for Active; 'I' for Inactive)
ROOT
ATOM      1  C   UNL d   1      -1.970   1.813   2.937  0.00  0.00     0.172 C 
ATOM      2  N   UNL d   1      -0.777   1.435   2.216  0.00  0.00    -0.070 N 
ATOM      3  C1  UNL d   1      -0.258   0.170   2.138  0.00  0.00    -0.004 A 
ATOM      4  C2  UNL d   1       0.879   0.228   1.361  0.00  0.00    -0.047 A 
ATOM      5  C3  UNL d   1       1.050   1.574   0.960  0.00  0.00    -0.047 A 
ATOM      6  C4  UNL d   1       0.012   2.300   1.504  0.00  0.00    -0.004 A 
ENDROOT
TORSDOF 0
ENDMDL
