MODEL 1
REMARK minimizedAffinity -0.505438507
REMARK minimizedRMSD -1
REMARK  0 active torsions:
REMARK  status: ('A' for Active; 'I' for Inactive)
ROOT
ATOM      1  C   UNL d   1      -1.669  -6.000   0.247  0.00  0.00     0.172 C 
ATOM      2  N   UNL d   1      -2.855  -5.347  -0.256  0.00  0.00    -0.070 N 
ATOM      3  C1  UNL d   1      -3.044  -3.994  -0.347  0.00  0.00    -0.004 A 
ATOM      4  C2  UNL d   1      -4.298  -3.778  -0.876  0.00  0.00    -0.047 A 
ATOM      5  C3  UNL d   1      -4.884  -5.045  -1.109  0.00  0.00    -0.047 A 
ATOM      6  C4  UNL d   1      -3.969  -5.999  -0.716  0.00  0.00    -0.004 A 
ENDROOT
TORSDOF 0
ENDMDL
