MODEL 1
REMARK minimizedAffinity 1.00380325
REMARK minimizedRMSD -1
REMARK  0 active torsions:
REMARK  status: ('A' for Active; 'I' for Inactive)
ROOT
ATOM      1  C   UNL d   1      -3.351   2.240   3.374  0.00  0.00     0.172 C 
ATOM      2  N   UNL d   1      -4.326   2.249   4.439  0.00  0.00    -0.070 N 
ATOM      3  C1  UNL d   1      -4.847   3.366   5.035  0.00  0.00    -0.004 A 
ATOM      4  C2  UNL d   1      -5.741   2.953   5.999  0.00  0.00    -0.047 A 
ATOM      5  C3  UNL d   1      -5.756   1.538   5.983  0.00  0.00    -0.047 A 
ATOM      6  C4  UNL d   1      -4.871   1.128   5.008  0.00  0.00    -0.004 A 
ENDROOT
TORSDOF 0
ENDMDL
