MODEL 1
REMARK minimizedAffinity -2.37290668
REMARK minimizedRMSD -1
REMARK  0 active torsions:
REMARK  status: ('A' for Active; 'I' for Inactive)
ROOT
ATOM      1  C   UNL d   1      -3.667  -3.491  -0.744  0.00  0.00     0.172 C 
ATOM      2  N   UNL d   1      -2.650  -4.100   0.081  0.00  0.00    -0.070 N 
ATOM      3  C1  UNL d   1      -2.119  -3.560   1.222  0.00  0.00    -0.004 A 
ATOM      4  C2  UNL d   1      -1.184  -4.446   1.713  0.00  0.00    -0.047 A 
ATOM      5  C3  UNL d   1      -1.152  -5.556   0.836  0.00  0.00    -0.047 A 
ATOM      6  C4  UNL d   1      -2.069  -5.315  -0.165  0.00  0.00    -0.004 A 
ENDROOT
TORSDOF 0
ENDMDL
