MODEL 1
REMARK minimizedAffinity -2.69623494
REMARK minimizedRMSD -1
REMARK  0 active torsions:
REMARK  status: ('A' for Active; 'I' for Inactive)
ROOT
ATOM      1  C   UNL d   1      -2.200   2.508   2.633  0.00  0.00     0.172 C 
ATOM      2  N   UNL d   1      -1.445   1.484   1.950  0.00  0.00    -0.070 N 
ATOM      3  C1  UNL d   1      -1.727   0.144   1.960  0.00  0.00    -0.004 A 
ATOM      4  C2  UNL d   1      -0.776  -0.493   1.191  0.00  0.00    -0.047 A 
ATOM      5  C3  UNL d   1       0.108   0.499   0.704  0.00  0.00    -0.047 A 
ATOM      6  C4  UNL d   1      -0.330   1.713   1.188  0.00  0.00    -0.004 A 
ENDROOT
TORSDOF 0
ENDMDL
