MODEL 1
REMARK minimizedAffinity -0.862933636
REMARK minimizedRMSD -1
REMARK  0 active torsions:
REMARK  status: ('A' for Active; 'I' for Inactive)
ROOT
ATOM      1  C   UNL d   1      -2.398   2.339   3.020  0.00  0.00     0.172 C 
ATOM      2  N   UNL d   1      -1.537   1.428   2.303  0.00  0.00    -0.070 N 
ATOM      3  C1  UNL d   1      -0.412   1.776   1.604  0.00  0.00    -0.004 A 
ATOM      4  C2  UNL d   1       0.125   0.626   1.068  0.00  0.00    -0.047 A 
ATOM      5  C3  UNL d   1      -0.707  -0.451   1.457  0.00  0.00    -0.047 A 
ATOM      6  C4  UNL d   1      -1.728   0.074   2.221  0.00  0.00    -0.004 A 
ENDROOT
TORSDOF 0
ENDMDL
