MODEL 1
REMARK minimizedAffinity 4.52488041
REMARK minimizedRMSD -1
REMARK  0 active torsions:
REMARK  status: ('A' for Active; 'I' for Inactive)
ROOT
ATOM      1  C   UNL d   1      -0.650  -1.407   2.557  0.00  0.00     0.172 C 
ATOM      2  N   UNL d   1      -0.095  -0.298   1.816  0.00  0.00    -0.070 N 
ATOM      3  C1  UNL d   1      -0.660   0.943   1.694  0.00  0.00    -0.004 A 
ATOM      4  C2  UNL d   1       0.176   1.712   0.913  0.00  0.00    -0.047 A 
ATOM      5  C3  UNL d   1       1.280   0.904   0.552  0.00  0.00    -0.047 A 
ATOM      6  C4  UNL d   1       1.087  -0.335   1.124  0.00  0.00    -0.004 A 
ENDROOT
TORSDOF 0
ENDMDL
