MODEL 1
REMARK minimizedAffinity -1.34048736
REMARK minimizedRMSD -1
REMARK  0 active torsions:
REMARK  status: ('A' for Active; 'I' for Inactive)
ROOT
ATOM      1  C   UNL d   1      -2.773   2.066   3.023  0.00  0.00     0.172 C 
ATOM      2  N   UNL d   1      -1.662   1.500   2.296  0.00  0.00    -0.070 N 
ATOM      3  C1  UNL d   1      -1.472   0.168   2.037  0.00  0.00    -0.004 A 
ATOM      4  C2  UNL d   1      -0.302   0.040   1.321  0.00  0.00    -0.047 A 
ATOM      5  C3  UNL d   1       0.231   1.339   1.144  0.00  0.00    -0.047 A 
ATOM      6  C4  UNL d   1      -0.630   2.223   1.758  0.00  0.00    -0.004 A 
ENDROOT
TORSDOF 0
ENDMDL
