MODEL 1
REMARK minimizedAffinity -1.14917445
REMARK minimizedRMSD -1
REMARK  0 active torsions:
REMARK  status: ('A' for Active; 'I' for Inactive)
ROOT
ATOM      1  C   UNL d   1       1.742   0.417   0.326  0.00  0.00     0.172 C 
ATOM      2  N   UNL d   1       0.430   0.762   0.823  0.00  0.00    -0.070 N 
ATOM      3  C1  UNL d   1       0.049   1.995   1.282  0.00  0.00    -0.004 A 
ATOM      4  C2  UNL d   1      -1.273   1.913   1.663  0.00  0.00    -0.047 A 
ATOM      5  C3  UNL d   1      -1.701   0.585   1.425  0.00  0.00    -0.047 A 
ATOM      6  C4  UNL d   1      -0.627  -0.106   0.905  0.00  0.00    -0.004 A 
ENDROOT
TORSDOF 0
ENDMDL
