MODEL 1
REMARK minimizedAffinity -1.33217347
REMARK minimizedRMSD -1
REMARK  0 active torsions:
REMARK  status: ('A' for Active; 'I' for Inactive)
ROOT
ATOM      1  C   UNL d   1      -2.621   2.311   3.138  0.00  0.00     0.172 C 
ATOM      2  N   UNL d   1      -1.648   1.600   2.343  0.00  0.00    -0.070 N 
ATOM      3  C1  UNL d   1      -0.687   2.175   1.555  0.00  0.00    -0.004 A 
ATOM      4  C2  UNL d   1       0.037   1.162   0.965  0.00  0.00    -0.047 A 
ATOM      5  C3  UNL d   1      -0.508  -0.065   1.413  0.00  0.00    -0.047 A 
ATOM      6  C4  UNL d   1      -1.550   0.236   2.265  0.00  0.00    -0.004 A 
ENDROOT
TORSDOF 0
ENDMDL
