MODEL 1
REMARK minimizedAffinity -3.35382962
REMARK minimizedRMSD -1
REMARK  0 active torsions:
REMARK  status: ('A' for Active; 'I' for Inactive)
ROOT
ATOM      1  C   UNL d   1      -2.790   2.266   3.153  0.00  0.00     0.172 C 
ATOM      2  N   UNL d   1      -1.915   1.379   2.423  0.00  0.00    -0.070 N 
ATOM      3  C1  UNL d   1      -2.023   0.014   2.373  0.00  0.00    -0.004 A 
ATOM      4  C2  UNL d   1      -1.005  -0.460   1.575  0.00  0.00    -0.047 A 
ATOM      5  C3  UNL d   1      -0.259   0.657   1.130  0.00  0.00    -0.047 A 
ATOM      6  C4  UNL d   1      -0.845   1.783   1.670  0.00  0.00    -0.004 A 
ENDROOT
TORSDOF 0
ENDMDL
