MODEL 1
REMARK minimizedAffinity 0.295942366
REMARK minimizedRMSD -1
REMARK  0 active torsions:
REMARK  status: ('A' for Active; 'I' for Inactive)
ROOT
ATOM      1  C1  DEN d   1      -0.750  -1.046  -0.000  0.00  0.00     0.130 A 
ATOM      2  C2  DEN d   1      -1.814  -0.151  -0.446  0.00  0.00    -0.031 A 
ATOM      3  C3  DEN d   1      -1.304   1.234  -0.375  0.00  0.00     0.027 A 
ATOM      4  C4  DEN d   1       1.017   2.072   0.374  0.00  0.00     0.027 A 
ATOM      5  C5  DEN d   1       2.250   1.685   0.852  0.00  0.00    -0.003 A 
ATOM      6  C6  DEN d   1       2.555   0.375   1.109  0.00  0.00     0.001 A 
ATOM      7  C7  DEN d   1       1.631  -0.601   0.847  0.00  0.00     0.017 A 
ATOM      8  C8  DEN d   1       0.383  -0.219   0.372  0.00  0.00    -0.094 A 
ATOM      9  C9  DEN d   1       0.098   1.110   0.107  0.00  0.00    -0.072 A 
ENDROOT
TORSDOF 0
ENDMDL
