MODEL 1
REMARK minimizedAffinity -4.45037985
REMARK minimizedRMSD -1
REMARK  0 active torsions:
REMARK  status: ('A' for Active; 'I' for Inactive)
ROOT
ATOM      1  C1  DEN d   1       2.564  -1.184   0.428  0.00  0.00     0.130 A 
ATOM      2  C2  DEN d   1       3.473  -0.144   0.904  0.00  0.00    -0.031 A 
ATOM      3  C3  DEN d   1       2.712   1.118   0.999  0.00  0.00     0.027 A 
ATOM      4  C4  DEN d   1       0.227   1.559   0.464  0.00  0.00     0.027 A 
ATOM      5  C5  DEN d   1      -0.943   0.987   0.017  0.00  0.00    -0.003 A 
ATOM      6  C6  DEN d   1      -1.018  -0.329  -0.353  0.00  0.00     0.001 A 
ATOM      7  C7  DEN d   1       0.088  -1.130  -0.240  0.00  0.00     0.017 A 
ATOM      8  C8  DEN d   1       1.274  -0.559   0.202  0.00  0.00    -0.094 A 
ATOM      9  C9  DEN d   1       1.326   0.771   0.583  0.00  0.00    -0.072 A 
ENDROOT
TORSDOF 0
ENDMDL
