MODEL 1
REMARK minimizedAffinity -6.97195196
REMARK minimizedRMSD -1
REMARK  0 active torsions:
REMARK  status: ('A' for Active; 'I' for Inactive)
ROOT
ATOM      1  C1  DEN d   1       1.776   0.702  -0.238  0.00  0.00     0.130 A 
ATOM      2  C2  DEN d   1       2.818  -0.151   0.328  0.00  0.00    -0.031 A 
ATOM      3  C3  DEN d   1       2.160  -1.279   1.018  0.00  0.00     0.027 A 
ATOM      4  C4  DEN d   1      -0.357  -1.788   1.259  0.00  0.00     0.027 A 
ATOM      5  C5  DEN d   1      -1.626  -1.344   0.956  0.00  0.00    -0.003 A 
ATOM      6  C6  DEN d   1      -1.849  -0.180   0.270  0.00  0.00     0.001 A 
ATOM      7  C7  DEN d   1      -0.785   0.558  -0.176  0.00  0.00     0.017 A 
ATOM      8  C8  DEN d   1       0.497   0.122   0.131  0.00  0.00    -0.094 A 
ATOM      9  C9  DEN d   1       0.702  -1.064   0.815  0.00  0.00    -0.072 A 
ENDROOT
TORSDOF 0
ENDMDL
