MODEL 1
REMARK minimizedAffinity 3.13046694
REMARK minimizedRMSD -1
REMARK  0 active torsions:
REMARK  status: ('A' for Active; 'I' for Inactive)
ROOT
ATOM      1  C1  DEN d   1       0.920  -0.807   1.745  0.00  0.00     0.130 A 
ATOM      2  C2  DEN d   1       1.366  -2.197   1.687  0.00  0.00    -0.031 A 
ATOM      3  C3  DEN d   1       2.617  -2.243   0.903  0.00  0.00     0.027 A 
ATOM      4  C4  DEN d   1       3.903  -0.308  -0.216  0.00  0.00     0.027 A 
ATOM      5  C5  DEN d   1       3.907   1.050  -0.450  0.00  0.00    -0.003 A 
ATOM      6  C6  DEN d   1       2.907   1.871  -0.002  0.00  0.00     0.001 A 
ATOM      7  C7  DEN d   1       1.883   1.350   0.743  0.00  0.00     0.017 A 
ATOM      8  C8  DEN d   1       1.867  -0.019   0.977  0.00  0.00    -0.094 A 
ATOM      9  C9  DEN d   1       2.894  -0.831   0.526  0.00  0.00    -0.072 A 
ENDROOT
TORSDOF 0
ENDMDL
