MODEL 1
REMARK minimizedAffinity -3.06132007
REMARK minimizedRMSD -1
REMARK  0 active torsions:
REMARK  status: ('A' for Active; 'I' for Inactive)
ROOT
ATOM      1  C1  DEN d   1       0.043  -1.287   0.761  0.00  0.00     0.130 A 
ATOM      2  C2  DEN d   1      -1.169  -0.742   0.157  0.00  0.00    -0.031 A 
ATOM      3  C3  DEN d   1      -0.906   0.664  -0.207  0.00  0.00     0.027 A 
ATOM      4  C4  DEN d   1       1.253   2.043   0.100  0.00  0.00     0.027 A 
ATOM      5  C5  DEN d   1       2.545   2.014   0.576  0.00  0.00    -0.003 A 
ATOM      6  C6  DEN d   1       3.078   0.903   1.174  0.00  0.00     0.001 A 
ATOM      7  C7  DEN d   1       2.330  -0.241   1.270  0.00  0.00     0.017 A 
ATOM      8  C8  DEN d   1       1.024  -0.217   0.798  0.00  0.00    -0.094 A 
ATOM      9  C9  DEN d   1       0.508   0.912   0.186  0.00  0.00    -0.072 A 
ENDROOT
TORSDOF 0
ENDMDL
