MODEL 1
REMARK minimizedAffinity -3.5601294
REMARK minimizedRMSD -1
REMARK  0 active torsions:
REMARK  status: ('A' for Active; 'I' for Inactive)
ROOT
ATOM      1  C1  DEN d   1      -1.324   1.006  -0.298  0.00  0.00     0.130 A 
ATOM      2  C2  DEN d   1      -1.754  -0.385  -0.181  0.00  0.00    -0.031 A 
ATOM      3  C3  DEN d   1      -0.629  -1.165   0.373  0.00  0.00     0.027 A 
ATOM      4  C4  DEN d   1       1.722  -0.357   1.061  0.00  0.00     0.027 A 
ATOM      5  C5  DEN d   1       2.556   0.737   1.135  0.00  0.00    -0.003 A 
ATOM      6  C6  DEN d   1       2.170   1.979   0.708  0.00  0.00     0.001 A 
ATOM      7  C7  DEN d   1       0.901   2.169   0.229  0.00  0.00     0.017 A 
ATOM      8  C8  DEN d   1       0.057   1.070   0.145  0.00  0.00    -0.094 A 
ATOM      9  C9  DEN d   1       0.461  -0.176   0.593  0.00  0.00    -0.072 A 
ENDROOT
TORSDOF 0
ENDMDL
