MODEL 1
REMARK minimizedAffinity -5.37286854
REMARK minimizedRMSD -1
REMARK  0 active torsions:
REMARK  status: ('A' for Active; 'I' for Inactive)
ROOT
ATOM      1  C1  DEN d   1      -0.431  -1.081   0.147  0.00  0.00     0.130 A 
ATOM      2  C2  DEN d   1      -0.694   0.100  -0.671  0.00  0.00    -0.031 A 
ATOM      3  C3  DEN d   1       0.498   0.971  -0.613  0.00  0.00     0.027 A 
ATOM      4  C4  DEN d   1       2.714   0.605   0.654  0.00  0.00     0.027 A 
ATOM      5  C5  DEN d   1       3.400  -0.245   1.494  0.00  0.00    -0.003 A 
ATOM      6  C6  DEN d   1       2.849  -1.406   1.967  0.00  0.00     0.001 A 
ATOM      7  C7  DEN d   1       1.591  -1.773   1.567  0.00  0.00     0.017 A 
ATOM      8  C8  DEN d   1       0.891  -0.918   0.726  0.00  0.00    -0.094 A 
ATOM      9  C9  DEN d   1       1.470   0.246   0.249  0.00  0.00    -0.072 A 
ENDROOT
TORSDOF 0
ENDMDL
