MODEL 1
REMARK minimizedAffinity 4.9481883
REMARK minimizedRMSD -1
REMARK  0 active torsions:
REMARK  status: ('A' for Active; 'I' for Inactive)
ROOT
ATOM      1  C1  DEN d   1      -0.843   1.296  -0.061  0.00  0.00     0.130 A 
ATOM      2  C2  DEN d   1      -0.690  -0.090   0.375  0.00  0.00    -0.031 A 
ATOM      3  C3  DEN d   1       0.651  -0.235   0.975  0.00  0.00     0.027 A 
ATOM      4  C4  DEN d   1       2.496   1.543   1.273  0.00  0.00     0.027 A 
ATOM      5  C5  DEN d   1       2.833   2.860   1.049  0.00  0.00    -0.003 A 
ATOM      6  C6  DEN d   1       1.989   3.731   0.413  0.00  0.00     0.001 A 
ATOM      7  C7  DEN d   1       0.747   3.308   0.020  0.00  0.00     0.017 A 
ATOM      8  C8  DEN d   1       0.402   1.981   0.237  0.00  0.00    -0.094 A 
ATOM      9  C9  DEN d   1       1.265   1.118   0.892  0.00  0.00    -0.072 A 
ENDROOT
TORSDOF 0
ENDMDL
