MODEL 1
REMARK minimizedAffinity 8.16614532
REMARK minimizedRMSD -1
REMARK  0 active torsions:
REMARK  status: ('A' for Active; 'I' for Inactive)
ROOT
ATOM      1  C   UNL d   1       3.772   2.062  -0.003  0.00  0.00    -0.002 A 
ATOM      2  C1  UNL d   1       3.106   2.164   1.210  0.00  0.00     0.010 A 
ATOM      3  C2  UNL d   1       3.392   3.207   2.092  0.00  0.00     0.041 A 
ATOM      4  C3  UNL d   1       4.368   4.157   1.731  0.00  0.00    -0.075 A 
ATOM      5  S   UNL d   1       4.883   5.520   2.653  0.00  0.00     0.015 SA
ATOM      6  C4  UNL d   1       6.000   6.000   1.458  0.00  0.00     0.022 A 
ATOM      7  C5  UNL d   1       5.993   5.152   0.375  0.00  0.00     0.026 A 
ATOM      8  C6  UNL d   1       5.052   4.076   0.515  0.00  0.00    -0.082 A 
ATOM      9  C7  UNL d   1       4.740   3.006  -0.358  0.00  0.00     0.045 A 
ENDROOT
TORSDOF 0
ENDMDL
