MODEL 1
REMARK minimizedAffinity -1.83686936
REMARK minimizedRMSD -1
REMARK  0 active torsions:
REMARK  status: ('A' for Active; 'I' for Inactive)
ROOT
ATOM      1  C   UNL d   1       2.908  -1.004  -1.568  0.00  0.00    -0.002 A 
ATOM      2  C1  UNL d   1       1.875  -1.930  -1.530  0.00  0.00     0.010 A 
ATOM      3  C2  UNL d   1       0.620  -1.573  -1.033  0.00  0.00     0.041 A 
ATOM      4  C3  UNL d   1       0.418  -0.257  -0.573  0.00  0.00    -0.075 A 
ATOM      5  S   UNL d   1      -1.035   0.405   0.076  0.00  0.00     0.015 SA
ATOM      6  C4  UNL d   1      -0.319   1.933   0.317  0.00  0.00     0.022 A 
ATOM      7  C5  UNL d   1       0.996   1.955  -0.082  0.00  0.00     0.026 A 
ATOM      8  C6  UNL d   1       1.442   0.693  -0.603  0.00  0.00    -0.082 A 
ATOM      9  C7  UNL d   1       2.704   0.301  -1.111  0.00  0.00     0.045 A 
ENDROOT
TORSDOF 0
ENDMDL
