MODEL 1
REMARK minimizedAffinity 4.18167877
REMARK minimizedRMSD -1
REMARK  0 active torsions:
REMARK  status: ('A' for Active; 'I' for Inactive)
ROOT
ATOM      1  C   UNL d   1       2.715  -0.666  -1.864  0.00  0.00    -0.002 A 
ATOM      2  C1  UNL d   1       2.932   0.397  -0.998  0.00  0.00     0.010 A 
ATOM      3  C2  UNL d   1       1.977   0.736  -0.038  0.00  0.00     0.041 A 
ATOM      4  C3  UNL d   1       0.790  -0.019   0.040  0.00  0.00    -0.075 A 
ATOM      5  S   UNL d   1      -0.520   0.213   1.137  0.00  0.00     0.015 SA
ATOM      6  C4  UNL d   1      -1.397  -1.094   0.483  0.00  0.00     0.022 A 
ATOM      7  C5  UNL d   1      -0.722  -1.703  -0.548  0.00  0.00     0.026 A 
ATOM      8  C6  UNL d   1       0.550  -1.094  -0.820  0.00  0.00    -0.082 A 
ATOM      9  C7  UNL d   1       1.537  -1.413  -1.784  0.00  0.00     0.045 A 
ENDROOT
TORSDOF 0
ENDMDL
