MODEL 1
REMARK minimizedAffinity -3.57917547
REMARK minimizedRMSD -1
REMARK  0 active torsions:
REMARK  status: ('A' for Active; 'I' for Inactive)
ROOT
ATOM      1  C   UNL d   1       3.392  -0.753  -2.117  0.00  0.00    -0.002 A 
ATOM      2  C1  UNL d   1       3.233   0.618  -1.973  0.00  0.00     0.010 A 
ATOM      3  C2  UNL d   1       2.105   1.140  -1.337  0.00  0.00     0.041 A 
ATOM      4  C3  UNL d   1       1.130   0.252  -0.842  0.00  0.00    -0.075 A 
ATOM      5  S   UNL d   1      -0.333   0.662  -0.027  0.00  0.00     0.015 SA
ATOM      6  C4  UNL d   1      -0.781  -0.972   0.150  0.00  0.00     0.022 A 
ATOM      7  C5  UNL d   1       0.151  -1.824  -0.394  0.00  0.00     0.026 A 
ATOM      8  C6  UNL d   1       1.268  -1.133  -0.974  0.00  0.00    -0.082 A 
ATOM      9  C7  UNL d   1       2.423  -1.631  -1.624  0.00  0.00     0.045 A 
ENDROOT
TORSDOF 0
ENDMDL
