MODEL 1
REMARK minimizedAffinity 0.914508283
REMARK minimizedRMSD -1
REMARK  0 active torsions:
REMARK  status: ('A' for Active; 'I' for Inactive)
ROOT
ATOM      1  C   UNL d   1       2.892  -0.895  -0.843  0.00  0.00    -0.002 A 
ATOM      2  C1  UNL d   1       2.334   0.367  -0.689  0.00  0.00     0.010 A 
ATOM      3  C2  UNL d   1       0.988   0.511  -0.348  0.00  0.00     0.041 A 
ATOM      4  C3  UNL d   1       0.204  -0.644  -0.161  0.00  0.00    -0.075 A 
ATOM      5  S   UNL d   1      -1.466  -0.710   0.261  0.00  0.00     0.015 SA
ATOM      6  C4  UNL d   1      -1.479  -2.414   0.247  0.00  0.00     0.022 A 
ATOM      7  C5  UNL d   1      -0.248  -2.937  -0.070  0.00  0.00     0.026 A 
ATOM      8  C6  UNL d   1       0.743  -1.925  -0.310  0.00  0.00    -0.082 A 
ATOM      9  C7  UNL d   1       2.111  -2.039  -0.657  0.00  0.00     0.045 A 
ENDROOT
TORSDOF 0
ENDMDL
