MODEL 1
REMARK minimizedAffinity -4.91037607
REMARK minimizedRMSD -1
REMARK  0 active torsions:
REMARK  status: ('A' for Active; 'I' for Inactive)
ROOT
ATOM      1  C   UNL d   1       2.862   1.463  -2.643  0.00  0.00    -0.002 A 
ATOM      2  C1  UNL d   1       1.717   2.178  -2.321  0.00  0.00     0.010 A 
ATOM      3  C2  UNL d   1       0.731   1.613  -1.510  0.00  0.00     0.041 A 
ATOM      4  C3  UNL d   1       0.918   0.304  -1.022  0.00  0.00    -0.075 A 
ATOM      5  S   UNL d   1      -0.155  -0.591  -0.012  0.00  0.00     0.015 SA
ATOM      6  C4  UNL d   1       0.881  -1.944   0.016  0.00  0.00     0.022 A 
ATOM      7  C5  UNL d   1       2.022  -1.735  -0.722  0.00  0.00     0.026 A 
ATOM      8  C6  UNL d   1       2.062  -0.436  -1.332  0.00  0.00    -0.082 A 
ATOM      9  C7  UNL d   1       3.043   0.165  -2.157  0.00  0.00     0.045 A 
ENDROOT
TORSDOF 0
ENDMDL
