MODEL 1
REMARK minimizedAffinity -5.43185568
REMARK minimizedRMSD -1
REMARK  0 active torsions:
REMARK  status: ('A' for Active; 'I' for Inactive)
ROOT
ATOM      1  C   UNL d   1       2.993   0.045  -1.843  0.00  0.00    -0.002 A 
ATOM      2  C1  UNL d   1       2.341   1.032  -2.569  0.00  0.00     0.010 A 
ATOM      3  C2  UNL d   1       1.046   1.427  -2.227  0.00  0.00     0.041 A 
ATOM      4  C3  UNL d   1       0.411   0.808  -1.133  0.00  0.00    -0.075 A 
ATOM      5  S   UNL d   1      -1.172   1.130  -0.531  0.00  0.00     0.015 SA
ATOM      6  C4  UNL d   1      -1.021  -0.034   0.704  0.00  0.00     0.022 A 
ATOM      7  C5  UNL d   1       0.201  -0.663   0.673  0.00  0.00     0.026 A 
ATOM      8  C6  UNL d   1       1.047  -0.188  -0.386  0.00  0.00    -0.082 A 
ATOM      9  C7  UNL d   1       2.360  -0.567  -0.758  0.00  0.00     0.045 A 
ENDROOT
TORSDOF 0
ENDMDL
