MODEL 1
REMARK minimizedAffinity -2.44956446
REMARK minimizedRMSD -1
REMARK  0 active torsions:
REMARK  status: ('A' for Active; 'I' for Inactive)
ROOT
ATOM      1  C   UNL d   1       3.553  -0.563  -1.889  0.00  0.00    -0.002 A 
ATOM      2  C1  UNL d   1       3.106   0.712  -2.204  0.00  0.00     0.010 A 
ATOM      3  C2  UNL d   1       1.865   1.162  -1.750  0.00  0.00     0.041 A 
ATOM      4  C3  UNL d   1       1.073   0.301  -0.966  0.00  0.00    -0.075 A 
ATOM      5  S   UNL d   1      -0.481   0.637  -0.299  0.00  0.00     0.015 SA
ATOM      6  C4  UNL d   1      -0.588  -0.904   0.421  0.00  0.00     0.022 A 
ATOM      7  C5  UNL d   1       0.526  -1.670   0.168  0.00  0.00     0.026 A 
ATOM      8  C6  UNL d   1       1.502  -0.988  -0.635  0.00  0.00    -0.082 A 
ATOM      9  C7  UNL d   1       2.765  -1.415  -1.111  0.00  0.00     0.045 A 
ENDROOT
TORSDOF 0
ENDMDL
