MODEL 1
REMARK minimizedAffinity -2.96011305
REMARK minimizedRMSD -1
REMARK  0 active torsions:
REMARK  status: ('A' for Active; 'I' for Inactive)
ROOT
ATOM      1  C   UNL d   1       3.086  -0.341  -1.730  0.00  0.00    -0.002 A 
ATOM      2  C1  UNL d   1       2.701   0.937  -2.112  0.00  0.00     0.010 A 
ATOM      3  C2  UNL d   1       1.477   1.465  -1.696  0.00  0.00     0.041 A 
ATOM      4  C3  UNL d   1       0.639   0.680  -0.880  0.00  0.00    -0.075 A 
ATOM      5  S   UNL d   1      -0.904   1.118  -0.249  0.00  0.00     0.015 SA
ATOM      6  C4  UNL d   1      -1.089  -0.379   0.544  0.00  0.00     0.022 A 
ATOM      7  C5  UNL d   1      -0.009  -1.206   0.342  0.00  0.00     0.026 A 
ATOM      8  C6  UNL d   1       1.005  -0.609  -0.481  0.00  0.00    -0.082 A 
ATOM      9  C7  UNL d   1       2.252  -1.116  -0.921  0.00  0.00     0.045 A 
ENDROOT
TORSDOF 0
ENDMDL
