MODEL 1
REMARK minimizedAffinity -3.1289742
REMARK minimizedRMSD -1
REMARK  0 active torsions:
REMARK  status: ('A' for Active; 'I' for Inactive)
ROOT
ATOM      1  C   UNL d   1       3.597  -0.022  -0.552  0.00  0.00    -0.002 A 
ATOM      2  C1  UNL d   1       2.931   1.021   0.075  0.00  0.00     0.010 A 
ATOM      3  C2  UNL d   1       1.547   0.976   0.253  0.00  0.00     0.041 A 
ATOM      4  C3  UNL d   1       0.837  -0.149  -0.213  0.00  0.00    -0.075 A 
ATOM      5  S   UNL d   1      -0.862  -0.423  -0.104  0.00  0.00     0.015 SA
ATOM      6  C4  UNL d   1      -0.743  -1.933  -0.886  0.00  0.00     0.022 A 
ATOM      7  C5  UNL d   1       0.553  -2.235  -1.229  0.00  0.00     0.026 A 
ATOM      8  C6  UNL d   1       1.485  -1.212  -0.846  0.00  0.00    -0.082 A 
ATOM      9  C7  UNL d   1       2.889  -1.136  -1.012  0.00  0.00     0.045 A 
ENDROOT
TORSDOF 0
ENDMDL
