MODEL 1
REMARK minimizedAffinity -3.60004282
REMARK minimizedRMSD -1
REMARK  0 active torsions:
REMARK  status: ('A' for Active; 'I' for Inactive)
ROOT
ATOM      1  C   UNL d   1      -1.252  -1.343   0.640  0.00  0.00    -0.002 A 
ATOM      2  C1  UNL d   1      -1.212   0.013   0.934  0.00  0.00     0.010 A 
ATOM      3  C2  UNL d   1      -0.254   0.840   0.344  0.00  0.00     0.041 A 
ATOM      4  C3  UNL d   1       0.670   0.276  -0.558  0.00  0.00    -0.075 A 
ATOM      5  S   UNL d   1       1.931   1.095  -1.402  0.00  0.00     0.015 SA
ATOM      6  C4  UNL d   1       2.444  -0.335  -2.174  0.00  0.00     0.022 A 
ATOM      7  C5  UNL d   1       1.684  -1.420  -1.808  0.00  0.00     0.026 A 
ATOM      8  C6  UNL d   1       0.648  -1.086  -0.871  0.00  0.00    -0.082 A 
ATOM      9  C7  UNL d   1      -0.334  -1.898  -0.255  0.00  0.00     0.045 A 
ENDROOT
TORSDOF 0
ENDMDL
