MODEL 1
REMARK minimizedAffinity -5.45692587
REMARK minimizedRMSD -1
REMARK  0 active torsions:
REMARK  status: ('A' for Active; 'I' for Inactive)
ROOT
ATOM      1  C   UNL d   1      -0.442  -1.695  -0.323  0.00  0.00     0.077 C 
ATOM      2  C1  UNL d   1      -0.206  -0.232  -0.095  0.00  0.00    -0.074 A 
ATOM      3  C2  UNL d   1      -1.266   0.681  -0.126  0.00  0.00    -0.005 A 
ATOM      4  C3  UNL d   1      -1.032   2.038   0.097  0.00  0.00     0.006 A 
ATOM      5  C4  UNL d   1       0.261   2.495   0.352  0.00  0.00    -0.005 A 
ATOM      6  C5  UNL d   1       1.333   1.598   0.387  0.00  0.00    -0.074 A 
ATOM      7  C6  UNL d   1       2.728   2.072   0.670  0.00  0.00     0.077 C 
ATOM      8  C7  UNL d   1       1.089   0.235   0.169  0.00  0.00    -0.001 A 
ENDROOT
TORSDOF 0
ENDMDL
