MODEL 1
REMARK minimizedAffinity -2.75725675
REMARK minimizedRMSD -1
REMARK  0 active torsions:
REMARK  status: ('A' for Active; 'I' for Inactive)
ROOT
ATOM      1  C   UNL d   1      -1.728   0.398   0.671  0.00  0.00     0.077 C 
ATOM      2  C1  UNL d   1      -0.257   0.676   0.594  0.00  0.00    -0.074 A 
ATOM      3  C2  UNL d   1       0.665  -0.365   0.445  0.00  0.00    -0.005 A 
ATOM      4  C3  UNL d   1       2.030  -0.090   0.366  0.00  0.00     0.006 A 
ATOM      5  C4  UNL d   1       2.487   1.227   0.434  0.00  0.00    -0.005 A 
ATOM      6  C5  UNL d   1       1.580   2.281   0.582  0.00  0.00    -0.074 A 
ATOM      7  C6  UNL d   1       2.053   3.703   0.648  0.00  0.00     0.077 C 
ATOM      8  C7  UNL d   1       0.209   1.997   0.654  0.00  0.00    -0.001 A 
ENDROOT
TORSDOF 0
ENDMDL
