MODEL 1
REMARK minimizedAffinity 4.76465559
REMARK minimizedRMSD -1
REMARK  0 active torsions:
REMARK  status: ('A' for Active; 'I' for Inactive)
ROOT
ATOM      1  C   UNL d   1      -1.800   2.947  -3.155  0.00  0.00     0.077 C 
ATOM      2  C1  UNL d   1      -1.762   2.267  -1.819  0.00  0.00    -0.074 A 
ATOM      3  C2  UNL d   1      -2.368   1.021  -1.628  0.00  0.00    -0.005 A 
ATOM      4  C3  UNL d   1      -2.316   0.396  -0.382  0.00  0.00     0.006 A 
ATOM      5  C4  UNL d   1      -1.658   1.010   0.684  0.00  0.00    -0.005 A 
ATOM      6  C5  UNL d   1      -1.045   2.255   0.513  0.00  0.00    -0.074 A 
ATOM      7  C6  UNL d   1      -0.325   2.924   1.646  0.00  0.00     0.077 C 
ATOM      8  C7  UNL d   1      -1.096   2.873  -0.744  0.00  0.00    -0.001 A 
ENDROOT
TORSDOF 0
ENDMDL
