MODEL 1
REMARK minimizedAffinity -0.742839634
REMARK minimizedRMSD -1
REMARK  0 active torsions:
REMARK  status: ('A' for Active; 'I' for Inactive)
ROOT
ATOM      1  C   UNL d   1      -0.522  -2.351  -0.156  0.00  0.00     0.077 C 
ATOM      2  C1  UNL d   1      -0.263  -0.903   0.135  0.00  0.00    -0.074 A 
ATOM      3  C2  UNL d   1      -1.320  -0.009   0.334  0.00  0.00    -0.005 A 
ATOM      4  C3  UNL d   1      -1.063   1.333   0.612  0.00  0.00     0.006 A 
ATOM      5  C4  UNL d   1       0.251   1.795   0.695  0.00  0.00    -0.005 A 
ATOM      6  C5  UNL d   1       1.321   0.916   0.499  0.00  0.00    -0.074 A 
ATOM      7  C6  UNL d   1       2.739   1.394   0.594  0.00  0.00     0.077 C 
ATOM      8  C7  UNL d   1       1.055  -0.433   0.227  0.00  0.00    -0.001 A 
ENDROOT
TORSDOF 0
ENDMDL
