MODEL 1
REMARK minimizedAffinity -5.13408756
REMARK minimizedRMSD -1
REMARK  0 active torsions:
REMARK  status: ('A' for Active; 'I' for Inactive)
ROOT
ATOM      1  C   UNL d   1       2.466   2.342   1.343  0.00  0.00     0.077 C 
ATOM      2  C1  UNL d   1       1.210   1.713   0.818  0.00  0.00    -0.074 A 
ATOM      3  C2  UNL d   1       0.010   2.431   0.773  0.00  0.00    -0.005 A 
ATOM      4  C3  UNL d   1      -1.148   1.835   0.273  0.00  0.00     0.006 A 
ATOM      5  C4  UNL d   1      -1.119   0.517  -0.184  0.00  0.00    -0.005 A 
ATOM      6  C5  UNL d   1       0.071  -0.216  -0.147  0.00  0.00    -0.074 A 
ATOM      7  C6  UNL d   1       0.122  -1.631  -0.644  0.00  0.00     0.077 C 
ATOM      8  C7  UNL d   1       1.233   0.392   0.349  0.00  0.00    -0.001 A 
ENDROOT
TORSDOF 0
ENDMDL
