MODEL 1
REMARK minimizedAffinity -5.11797857
REMARK minimizedRMSD -1
REMARK  0 active torsions:
REMARK  status: ('A' for Active; 'I' for Inactive)
ROOT
ATOM      1  C   UNL d   1       1.886  -0.718   0.624  0.00  0.00     0.077 C 
ATOM      2  C1  UNL d   1       1.246   0.618   0.389  0.00  0.00    -0.074 A 
ATOM      3  C2  UNL d   1       2.024   1.765   0.204  0.00  0.00    -0.005 A 
ATOM      4  C3  UNL d   1       1.415   2.999  -0.024  0.00  0.00     0.006 A 
ATOM      5  C4  UNL d   1       0.024   3.098  -0.069  0.00  0.00    -0.005 A 
ATOM      6  C5  UNL d   1      -0.771   1.962   0.113  0.00  0.00    -0.074 A 
ATOM      7  C6  UNL d   1      -2.267   2.049   0.058  0.00  0.00     0.077 C 
ATOM      8  C7  UNL d   1      -0.151   0.724   0.334  0.00  0.00    -0.001 A 
ENDROOT
TORSDOF 0
ENDMDL
