MODEL 1
REMARK minimizedAffinity -0.843489528
REMARK minimizedRMSD -1
REMARK  0 active torsions:
REMARK  status: ('A' for Active; 'I' for Inactive)
ROOT
ATOM      1  C   UNL d   1      -2.544   1.191  -0.245  0.00  0.00     0.077 C 
ATOM      2  C1  UNL d   1      -1.131   0.687  -0.275  0.00  0.00    -0.074 A 
ATOM      3  C2  UNL d   1      -0.795  -0.467  -0.989  0.00  0.00    -0.005 A 
ATOM      4  C3  UNL d   1       0.524  -0.919  -1.015  0.00  0.00     0.006 A 
ATOM      5  C4  UNL d   1       1.519  -0.222  -0.328  0.00  0.00    -0.005 A 
ATOM      6  C5  UNL d   1       1.202   0.934   0.391  0.00  0.00    -0.074 A 
ATOM      7  C6  UNL d   1       2.261   1.700   1.128  0.00  0.00     0.077 C 
ATOM      8  C7  UNL d   1      -0.125   1.386   0.407  0.00  0.00    -0.001 A 
ENDROOT
TORSDOF 0
ENDMDL
