MODEL 1
REMARK minimizedAffinity -5.61851931
REMARK minimizedRMSD -1
REMARK  0 active torsions:
REMARK  status: ('A' for Active; 'I' for Inactive)
ROOT
ATOM      1  C   UNL d   1      -0.389  -1.194   0.379  0.00  0.00     0.077 C 
ATOM      2  C1  UNL d   1       0.038   0.241   0.471  0.00  0.00    -0.074 A 
ATOM      3  C2  UNL d   1      -0.839   1.222   0.946  0.00  0.00    -0.005 A 
ATOM      4  C3  UNL d   1      -0.424   2.551   1.036  0.00  0.00     0.006 A 
ATOM      5  C4  UNL d   1       0.868   2.912   0.652  0.00  0.00    -0.005 A 
ATOM      6  C5  UNL d   1       1.758   1.944   0.175  0.00  0.00    -0.074 A 
ATOM      7  C6  UNL d   1       3.154   2.313  -0.232  0.00  0.00     0.077 C 
ATOM      8  C7  UNL d   1       1.337   0.610   0.095  0.00  0.00    -0.001 A 
ENDROOT
TORSDOF 0
ENDMDL
