MODEL 1
REMARK minimizedAffinity -5.45641088
REMARK minimizedRMSD -1
REMARK  0 active torsions:
REMARK  status: ('A' for Active; 'I' for Inactive)
ROOT
ATOM      1  C   UNL d   1      -0.444  -1.808   0.283  0.00  0.00     0.077 C 
ATOM      2  C1  UNL d   1      -0.596  -0.316   0.319  0.00  0.00    -0.074 A 
ATOM      3  C2  UNL d   1      -1.862   0.278   0.330  0.00  0.00    -0.005 A 
ATOM      4  C3  UNL d   1      -1.988   1.666   0.374  0.00  0.00     0.006 A 
ATOM      5  C4  UNL d   1      -0.850   2.474   0.407  0.00  0.00    -0.005 A 
ATOM      6  C5  UNL d   1       0.424   1.898   0.398  0.00  0.00    -0.074 A 
ATOM      7  C6  UNL d   1       1.657   2.751   0.443  0.00  0.00     0.077 C 
ATOM      8  C7  UNL d   1       0.542   0.502   0.361  0.00  0.00    -0.001 A 
ENDROOT
TORSDOF 0
ENDMDL
