MODEL 1
REMARK minimizedAffinity -6.27386427
REMARK minimizedRMSD -1
REMARK  0 active torsions:
REMARK  status: ('A' for Active; 'I' for Inactive)
ROOT
ATOM      1  C   UNL d   1       2.676   1.991   0.447  0.00  0.00     0.077 C 
ATOM      2  C1  UNL d   1       1.245   1.584   0.262  0.00  0.00    -0.074 A 
ATOM      3  C2  UNL d   1       0.229   2.543   0.184  0.00  0.00    -0.005 A 
ATOM      4  C3  UNL d   1      -1.096   2.150   0.002  0.00  0.00     0.006 A 
ATOM      5  C4  UNL d   1      -1.420   0.797  -0.104  0.00  0.00    -0.005 A 
ATOM      6  C5  UNL d   1      -0.418  -0.176  -0.029  0.00  0.00    -0.074 A 
ATOM      7  C6  UNL d   1      -0.748  -1.635  -0.150  0.00  0.00     0.077 C 
ATOM      8  C7  UNL d   1       0.913   0.227   0.147  0.00  0.00    -0.001 A 
ENDROOT
TORSDOF 0
ENDMDL
