MODEL 1
REMARK minimizedAffinity -5.03201008
REMARK minimizedRMSD -1
REMARK  0 active torsions:
REMARK  status: ('A' for Active; 'I' for Inactive)
ROOT
ATOM      1  C   UNL d   1      -0.017  -1.183   0.166  0.00  0.00     0.077 C 
ATOM      2  C1  UNL d   1       0.195   0.286   0.388  0.00  0.00    -0.074 A 
ATOM      3  C2  UNL d   1      -0.827   1.206   0.134  0.00  0.00    -0.005 A 
ATOM      4  C3  UNL d   1      -0.617   2.567   0.353  0.00  0.00     0.006 A 
ATOM      5  C4  UNL d   1       0.614   3.022   0.828  0.00  0.00    -0.005 A 
ATOM      6  C5  UNL d   1       1.647   2.116   1.088  0.00  0.00    -0.074 A 
ATOM      7  C6  UNL d   1       2.973   2.587   1.608  0.00  0.00     0.077 C 
ATOM      8  C7  UNL d   1       1.427   0.749   0.872  0.00  0.00    -0.001 A 
ENDROOT
TORSDOF 0
ENDMDL
