MODEL 1
REMARK minimizedAffinity -3.8614769
REMARK minimizedRMSD -1
REMARK  0 active torsions:
REMARK  status: ('A' for Active; 'I' for Inactive)
ROOT
ATOM      1  C   UNL d   1      -1.270  -0.604   0.672  0.00  0.00     0.077 C 
ATOM      2  C1  UNL d   1      -0.393   0.610   0.749  0.00  0.00    -0.074 A 
ATOM      3  C2  UNL d   1      -0.942   1.884   0.919  0.00  0.00    -0.005 A 
ATOM      4  C3  UNL d   1      -0.113   3.003   0.999  0.00  0.00     0.006 A 
ATOM      5  C4  UNL d   1       1.272   2.858   0.910  0.00  0.00    -0.005 A 
ATOM      6  C5  UNL d   1       1.840   1.592   0.740  0.00  0.00    -0.074 A 
ATOM      7  C6  UNL d   1       3.327   1.417   0.652  0.00  0.00     0.077 C 
ATOM      8  C7  UNL d   1       1.000   0.472   0.668  0.00  0.00    -0.001 A 
ENDROOT
TORSDOF 0
ENDMDL
