MODEL 1
REMARK minimizedAffinity -4.38231564
REMARK minimizedRMSD -1
REMARK  0 active torsions:
REMARK  status: ('A' for Active; 'I' for Inactive)
ROOT
ATOM      1  C   UNL d   1       1.903  -1.037   0.343  0.00  0.00     0.077 C 
ATOM      2  C1  UNL d   1       0.518  -0.484   0.501  0.00  0.00    -0.074 A 
ATOM      3  C2  UNL d   1      -0.566  -1.325   0.773  0.00  0.00    -0.005 A 
ATOM      4  C3  UNL d   1      -1.846  -0.795   0.926  0.00  0.00     0.006 A 
ATOM      5  C4  UNL d   1      -2.056   0.580   0.810  0.00  0.00    -0.005 A 
ATOM      6  C5  UNL d   1      -0.985   1.437   0.539  0.00  0.00    -0.074 A 
ATOM      7  C6  UNL d   1      -1.191   2.918   0.421  0.00  0.00     0.077 C 
ATOM      8  C7  UNL d   1       0.300   0.897   0.393  0.00  0.00    -0.001 A 
ENDROOT
TORSDOF 0
ENDMDL
