MODEL 1
REMARK minimizedAffinity -2.69923878
REMARK minimizedRMSD -1
REMARK  0 active torsions:
REMARK  status: ('A' for Active; 'I' for Inactive)
ROOT
ATOM      1  C   UNL d   1      -1.117  -3.504  -2.395  0.00  0.00     0.077 C 
ATOM      2  C1  UNL d   1      -0.503  -2.405  -1.581  0.00  0.00    -0.074 A 
ATOM      3  C2  UNL d   1       0.763  -1.899  -1.896  0.00  0.00    -0.005 A 
ATOM      4  C3  UNL d   1       1.318  -0.870  -1.136  0.00  0.00     0.006 A 
ATOM      5  C4  UNL d   1       0.614  -0.337  -0.055  0.00  0.00    -0.005 A 
ATOM      6  C5  UNL d   1      -0.652  -0.829   0.275  0.00  0.00    -0.074 A 
ATOM      7  C6  UNL d   1      -1.426  -0.261   1.427  0.00  0.00     0.077 C 
ATOM      8  C7  UNL d   1      -1.206  -1.859  -0.498  0.00  0.00    -0.001 A 
ENDROOT
TORSDOF 0
ENDMDL
