MODEL 1
REMARK minimizedAffinity -4.5615139
REMARK minimizedRMSD -1
REMARK  0 active torsions:
REMARK  status: ('A' for Active; 'I' for Inactive)
ROOT
ATOM      1  C   UNL d   1      -0.385  -0.384   0.010  0.00  0.00     0.077 C 
ATOM      2  C1  UNL d   1      -0.660  -1.700  -0.655  0.00  0.00    -0.074 A 
ATOM      3  C2  UNL d   1       0.266  -2.267  -1.537  0.00  0.00    -0.005 A 
ATOM      4  C3  UNL d   1       0.001  -3.496  -2.140  0.00  0.00     0.006 A 
ATOM      5  C4  UNL d   1      -1.191  -4.170  -1.869  0.00  0.00    -0.005 A 
ATOM      6  C5  UNL d   1      -2.128  -3.619  -0.990  0.00  0.00    -0.074 A 
ATOM      7  C6  UNL d   1      -3.410  -4.334  -0.679  0.00  0.00     0.077 C 
ATOM      8  C7  UNL d   1      -1.851  -2.387  -0.381  0.00  0.00    -0.001 A 
ENDROOT
TORSDOF 0
ENDMDL
