MODEL 1
REMARK minimizedAffinity -4.33329868
REMARK minimizedRMSD -1
REMARK  0 active torsions:
REMARK  status: ('A' for Active; 'I' for Inactive)
ROOT
ATOM      1  C   UNL d   1       1.222   3.028   0.074  0.00  0.00     0.077 C 
ATOM      2  C1  UNL d   1       0.597   1.666   0.145  0.00  0.00    -0.074 A 
ATOM      3  C2  UNL d   1       1.354   0.515  -0.090  0.00  0.00    -0.005 A 
ATOM      4  C3  UNL d   1       0.761  -0.746  -0.011  0.00  0.00     0.006 A 
ATOM      5  C4  UNL d   1      -0.593  -0.866   0.304  0.00  0.00    -0.005 A 
ATOM      6  C5  UNL d   1      -1.366   0.274   0.543  0.00  0.00    -0.074 A 
ATOM      7  C6  UNL d   1      -2.820   0.162   0.892  0.00  0.00     0.077 C 
ATOM      8  C7  UNL d   1      -0.761   1.536   0.469  0.00  0.00    -0.001 A 
ENDROOT
TORSDOF 0
ENDMDL
