MODEL 1
REMARK minimizedAffinity -4.18950987
REMARK minimizedRMSD -1
REMARK  0 active torsions:
REMARK  status: ('A' for Active; 'I' for Inactive)
ROOT
ATOM      1  C   UNL d   1       1.416   4.056   0.839  0.00  0.00     0.077 C 
ATOM      2  C1  UNL d   1       1.077   2.597   0.756  0.00  0.00    -0.074 A 
ATOM      3  C2  UNL d   1      -0.252   2.172   0.673  0.00  0.00    -0.005 A 
ATOM      4  C3  UNL d   1      -0.551   0.812   0.587  0.00  0.00     0.006 A 
ATOM      5  C4  UNL d   1       0.474  -0.134   0.584  0.00  0.00    -0.005 A 
ATOM      6  C5  UNL d   1       1.810   0.273   0.666  0.00  0.00    -0.074 A 
ATOM      7  C6  UNL d   1       2.924  -0.731   0.654  0.00  0.00     0.077 C 
ATOM      8  C7  UNL d   1       2.103   1.641   0.745  0.00  0.00    -0.001 A 
ENDROOT
TORSDOF 0
ENDMDL
