MODEL 1
REMARK minimizedAffinity -6.49693823
REMARK minimizedRMSD -1
REMARK  0 active torsions:
REMARK  status: ('A' for Active; 'I' for Inactive)
ROOT
ATOM      1  C   UNL d   1       1.936   4.247   0.274  0.00  0.00     0.077 C 
ATOM      2  C1  UNL d   1       1.645   2.779   0.190  0.00  0.00    -0.074 A 
ATOM      3  C2  UNL d   1       2.673   1.851  -0.005  0.00  0.00    -0.005 A 
ATOM      4  C3  UNL d   1       2.387   0.488  -0.071  0.00  0.00     0.006 A 
ATOM      5  C4  UNL d   1       1.073   0.038   0.056  0.00  0.00    -0.005 A 
ATOM      6  C5  UNL d   1       0.031   0.951   0.253  0.00  0.00    -0.074 A 
ATOM      7  C6  UNL d   1      -1.386   0.484   0.402  0.00  0.00     0.077 C 
ATOM      8  C7  UNL d   1       0.327   2.319   0.326  0.00  0.00    -0.001 A 
ENDROOT
TORSDOF 0
ENDMDL
