MODEL 1
REMARK minimizedAffinity -3.78630686
REMARK minimizedRMSD -1
REMARK  3 active torsions:
REMARK  status: ('A' for Active; 'I' for Inactive)
REMARK    1  A    between atoms: C3'_2  and  C2'_3 
REMARK    2  A    between atoms: C2'_3  and  C1'_4 
REMARK    3  A    between atoms: C1'_4  and  C1_5 
ROOT
ATOM      1  C1  N4B d   1       0.894  -0.006   0.038  0.00  0.00    -0.075 A 
ATOM      2  C2  N4B d   1       1.791  -1.097   0.057  0.00  0.00     0.002 A 
ATOM      3  C3  N4B d   1       3.126  -0.883   0.303  0.00  0.00     0.002 A 
ATOM      4  C4  N4B d   1       3.587   0.408   0.513  0.00  0.00    -0.004 A 
ATOM      5  C5  N4B d   1       2.709   1.452   0.519  0.00  0.00     0.002 A 
ATOM      6  C6  N4B d   1       1.365   1.252   0.277  0.00  0.00     0.002 A 
ENDROOT
BRANCH   1   7
ATOM      7  C1' N4B d   1      -0.559  -0.180  -0.311  0.00  0.00     0.057 C 
BRANCH   7   8
ATOM      8  C2' N4B d   1      -1.222   1.192  -0.390  0.00  0.00     0.009 C 
BRANCH   8   9
ATOM      9  C3' N4B d   1      -2.730   1.105  -0.230  0.00  0.00     0.004 C 
ATOM     10  C4' N4B d   1      -3.247   1.967   0.882  0.00  0.00     0.003 C 
ENDBRANCH   8   9
ENDBRANCH   7   8
ENDBRANCH   1   7
TORSDOF 3
ENDMDL
