MODEL 1
REMARK minimizedAffinity -4.45802641
REMARK minimizedRMSD -1
REMARK  3 active torsions:
REMARK  status: ('A' for Active; 'I' for Inactive)
REMARK    1  A    between atoms: C3'_2  and  C2'_3 
REMARK    2  A    between atoms: C2'_3  and  C1'_4 
REMARK    3  A    between atoms: C1'_4  and  C1_5 
ROOT
ATOM      1  C1  N4B d   1       0.175  -0.131  -0.042  0.00  0.00    -0.075 A 
ATOM      2  C2  N4B d   1       1.076   0.581   0.780  0.00  0.00     0.002 A 
ATOM      3  C3  N4B d   1       2.274   0.013   1.139  0.00  0.00     0.002 A 
ATOM      4  C4  N4B d   1       2.582  -1.268   0.705  0.00  0.00    -0.004 A 
ATOM      5  C5  N4B d   1       1.718  -1.939  -0.109  0.00  0.00     0.002 A 
ATOM      6  C6  N4B d   1       0.512  -1.378  -0.481  0.00  0.00     0.002 A 
ENDROOT
BRANCH   1   7
ATOM      7  C1' N4B d   1      -1.183   0.415  -0.390  0.00  0.00     0.057 C 
BRANCH   7   8
ATOM      8  C2' N4B d   1      -1.970   0.655   0.894  0.00  0.00     0.009 C 
BRANCH   8   9
ATOM      9  C3' N4B d   1      -3.454   0.390   0.709  0.00  0.00     0.004 C 
ATOM     10  C4' N4B d   1      -4.275   0.838   1.881  0.00  0.00     0.003 C 
ENDBRANCH   8   9
ENDBRANCH   7   8
ENDBRANCH   1   7
TORSDOF 3
ENDMDL
