MODEL 1
REMARK minimizedAffinity 12.7745142
REMARK minimizedRMSD -1
REMARK  0 active torsions:
REMARK  status: ('A' for Active; 'I' for Inactive)
ROOT
ATOM      1  C   UNL d   1       0.516   3.318  -0.949  0.00  0.00     0.023 A 
ATOM      2  C1  UNL d   1       0.264   3.427  -2.316  0.00  0.00     0.003 A 
ATOM      3  C2  UNL d   1      -0.885   2.853  -2.864  0.00  0.00     0.048 A 
ATOM      4  C3  UNL d   1      -1.779   2.172  -2.037  0.00  0.00     0.023 A 
ATOM      5  C4  UNL d   1      -1.532   2.062  -0.668  0.00  0.00     0.048 A 
ATOM      6  C5  UNL d   1      -0.381   2.637  -0.126  0.00  0.00     0.003 A 
ATOM      7  I   UNL d   1      -3.491   1.318  -2.849  0.00  0.00    -0.146 I 
ENDROOT
TORSDOF 0
ENDMDL
