MODEL 1
REMARK minimizedAffinity 13.0194254
REMARK minimizedRMSD -1
REMARK  0 active torsions:
REMARK  status: ('A' for Active; 'I' for Inactive)
ROOT
ATOM      1  C   UNL d   1      -4.353   5.657  -0.831  0.00  0.00     0.023 A 
ATOM      2  C1  UNL d   1      -5.668   5.842  -0.403  0.00  0.00     0.003 A 
ATOM      3  C2  UNL d   1      -5.952   5.937   0.961  0.00  0.00     0.048 A 
ATOM      4  C3  UNL d   1      -4.917   5.847   1.891  0.00  0.00     0.023 A 
ATOM      5  C4  UNL d   1      -3.600   5.662   1.467  0.00  0.00     0.048 A 
ATOM      6  C5  UNL d   1      -3.321   5.567   0.102  0.00  0.00     0.003 A 
ATOM      7  I   UNL d   1      -5.338   5.988   3.921  0.00  0.00    -0.146 I 
ENDROOT
TORSDOF 0
ENDMDL
