MODEL 1
REMARK minimizedAffinity 18.3141193
REMARK minimizedRMSD -1
REMARK  0 active torsions:
REMARK  status: ('A' for Active; 'I' for Inactive)
ROOT
ATOM      1  C   UNL d   1       1.004  -2.155  -5.998  0.00  0.00     0.023 A 
ATOM      2  C1  UNL d   1       2.062  -1.246  -5.999  0.00  0.00     0.003 A 
ATOM      3  C2  UNL d   1       3.380  -1.707  -5.999  0.00  0.00     0.048 A 
ATOM      4  C3  UNL d   1       3.633  -3.079  -5.999  0.00  0.00     0.023 A 
ATOM      5  C4  UNL d   1       2.577  -3.992  -5.999  0.00  0.00     0.048 A 
ATOM      6  C5  UNL d   1       1.261  -3.526  -5.999  0.00  0.00     0.003 A 
ATOM      7  I   UNL d   1       5.594  -3.767  -5.999  0.00  0.00    -0.146 I 
ENDROOT
TORSDOF 0
ENDMDL
