MODEL 1
REMARK minimizedAffinity 7.31668806
REMARK minimizedRMSD -1
REMARK  0 active torsions:
REMARK  status: ('A' for Active; 'I' for Inactive)
ROOT
ATOM      1  C   UNL d   1      -5.998  -4.173   4.386  0.00  0.00     0.023 A 
ATOM      2  C1  UNL d   1      -4.812  -4.415   3.692  0.00  0.00     0.003 A 
ATOM      3  C2  UNL d   1      -3.611  -3.871   4.150  0.00  0.00     0.048 A 
ATOM      4  C3  UNL d   1      -3.602  -3.086   5.302  0.00  0.00     0.023 A 
ATOM      5  C4  UNL d   1      -4.786  -2.841   5.999  0.00  0.00     0.048 A 
ATOM      6  C5  UNL d   1      -5.985  -3.386   5.538  0.00  0.00     0.003 A 
ATOM      7  I   UNL d   1      -1.814  -2.274   5.985  0.00  0.00    -0.146 I 
ENDROOT
TORSDOF 0
ENDMDL
