MODEL 1
REMARK minimizedAffinity 21.7579308
REMARK minimizedRMSD -1
REMARK  0 active torsions:
REMARK  status: ('A' for Active; 'I' for Inactive)
ROOT
ATOM      1  C   UNL d   1      -4.229   5.398  -0.819  0.00  0.00     0.023 A 
ATOM      2  C1  UNL d   1      -5.542   5.689  -0.451  0.00  0.00     0.003 A 
ATOM      3  C2  UNL d   1      -5.871   5.851   0.896  0.00  0.00     0.048 A 
ATOM      4  C3  UNL d   1      -4.882   5.722   1.870  0.00  0.00     0.023 A 
ATOM      5  C4  UNL d   1      -3.566   5.431   1.506  0.00  0.00     0.048 A 
ATOM      6  C5  UNL d   1      -3.242   5.269   0.158  0.00  0.00     0.003 A 
ATOM      7  I   UNL d   1      -5.369   5.963   3.876  0.00  0.00    -0.146 I 
ENDROOT
TORSDOF 0
ENDMDL
