MODEL 1
REMARK minimizedAffinity 14.5478973
REMARK minimizedRMSD -1
REMARK  0 active torsions:
REMARK  status: ('A' for Active; 'I' for Inactive)
ROOT
ATOM      1  C   UNL d   1      -1.208   2.410  -1.134  0.00  0.00     0.023 A 
ATOM      2  C1  UNL d   1       0.004   2.830  -0.586  0.00  0.00     0.003 A 
ATOM      3  C2  UNL d   1       0.803   3.745  -1.275  0.00  0.00     0.048 A 
ATOM      4  C3  UNL d   1       0.383   4.237  -2.510  0.00  0.00     0.023 A 
ATOM      5  C4  UNL d   1      -0.830   3.820  -3.062  0.00  0.00     0.048 A 
ATOM      6  C5  UNL d   1      -1.625   2.904  -2.370  0.00  0.00     0.003 A 
ATOM      7  I   UNL d   1       1.570   5.600  -3.537  0.00  0.00    -0.146 I 
ENDROOT
TORSDOF 0
ENDMDL
