MODEL 1
REMARK minimizedAffinity 16.8011684
REMARK minimizedRMSD -1
REMARK  0 active torsions:
REMARK  status: ('A' for Active; 'I' for Inactive)
ROOT
ATOM      1  C   UNL d   1      -5.405   6.000   0.633  0.00  0.00     0.023 A 
ATOM      2  C1  UNL d   1      -5.871   5.815  -0.669  0.00  0.00     0.003 A 
ATOM      3  C2  UNL d   1      -5.036   5.254  -1.637  0.00  0.00     0.048 A 
ATOM      4  C3  UNL d   1      -3.736   4.881  -1.297  0.00  0.00     0.023 A 
ATOM      5  C4  UNL d   1      -3.266   5.063   0.005  0.00  0.00     0.048 A 
ATOM      6  C5  UNL d   1      -4.105   5.625   0.969  0.00  0.00     0.003 A 
ATOM      7  I   UNL d   1      -2.491   4.046  -2.737  0.00  0.00    -0.146 I 
ENDROOT
TORSDOF 0
ENDMDL
