MODEL 1
REMARK minimizedAffinity 16.0737648
REMARK minimizedRMSD -1
REMARK  0 active torsions:
REMARK  status: ('A' for Active; 'I' for Inactive)
ROOT
ATOM      1  C   UNL d   1       0.373   2.158   0.943  0.00  0.00     0.023 A 
ATOM      2  C1  UNL d   1      -0.870   1.620   0.608  0.00  0.00     0.003 A 
ATOM      3  C2  UNL d   1      -1.455   1.924  -0.623  0.00  0.00     0.048 A 
ATOM      4  C3  UNL d   1      -0.791   2.764  -1.515  0.00  0.00     0.023 A 
ATOM      5  C4  UNL d   1       0.454   3.304  -1.185  0.00  0.00     0.048 A 
ATOM      6  C5  UNL d   1       1.034   2.999   0.047  0.00  0.00     0.003 A 
ATOM      7  I   UNL d   1      -1.659   3.217  -3.349  0.00  0.00    -0.146 I 
ENDROOT
TORSDOF 0
ENDMDL
