MODEL 1
REMARK minimizedAffinity 15.5479927
REMARK minimizedRMSD -1
REMARK  0 active torsions:
REMARK  status: ('A' for Active; 'I' for Inactive)
ROOT
ATOM      1  C   UNL d   1      -0.480   3.119  -1.516  0.00  0.00     0.023 A 
ATOM      2  C1  UNL d   1      -1.153   3.378  -2.710  0.00  0.00     0.003 A 
ATOM      3  C2  UNL d   1      -0.573   4.204  -3.675  0.00  0.00     0.048 A 
ATOM      4  C3  UNL d   1       0.680   4.768  -3.440  0.00  0.00     0.023 A 
ATOM      5  C4  UNL d   1       1.358   4.511  -2.247  0.00  0.00     0.048 A 
ATOM      6  C5  UNL d   1       0.774   3.685  -1.285  0.00  0.00     0.003 A 
ATOM      7  I   UNL d   1       1.545   5.998  -4.875  0.00  0.00    -0.146 I 
ENDROOT
TORSDOF 0
ENDMDL
