MODEL 1
REMARK minimizedAffinity 11.967514
REMARK minimizedRMSD -1
REMARK  0 active torsions:
REMARK  status: ('A' for Active; 'I' for Inactive)
ROOT
ATOM      1  C   UNL d   1      -4.737   5.677  -1.910  0.00  0.00     0.023 A 
ATOM      2  C1  UNL d   1      -3.556   5.591  -1.172  0.00  0.00     0.003 A 
ATOM      3  C2  UNL d   1      -3.593   5.684   0.221  0.00  0.00     0.048 A 
ATOM      4  C3  UNL d   1      -4.815   5.861   0.870  0.00  0.00     0.023 A 
ATOM      5  C4  UNL d   1      -5.999   5.946   0.136  0.00  0.00     0.048 A 
ATOM      6  C5  UNL d   1      -5.957   5.854  -1.257  0.00  0.00     0.003 A 
ATOM      7  I   UNL d   1      -4.873   5.998   2.943  0.00  0.00    -0.146 I 
ENDROOT
TORSDOF 0
ENDMDL
