MODEL 1
REMARK minimizedAffinity 10.819603
REMARK minimizedRMSD -1
REMARK  0 active torsions:
REMARK  status: ('A' for Active; 'I' for Inactive)
ROOT
ATOM      1  C   UNL d   1       1.645  -1.596  -6.000  0.00  0.00     0.023 A 
ATOM      2  C1  UNL d   1       0.723  -2.643  -6.000  0.00  0.00     0.003 A 
ATOM      3  C2  UNL d   1       0.767  -3.614  -4.998  0.00  0.00     0.048 A 
ATOM      4  C3  UNL d   1       1.736  -3.532  -3.998  0.00  0.00     0.023 A 
ATOM      5  C4  UNL d   1       2.660  -2.486  -3.994  0.00  0.00     0.048 A 
ATOM      6  C5  UNL d   1       2.612  -1.518  -4.998  0.00  0.00     0.003 A 
ATOM      7  I   UNL d   1       1.804  -4.977  -2.505  0.00  0.00    -0.146 I 
ENDROOT
TORSDOF 0
ENDMDL
