MODEL 1
REMARK minimizedAffinity 15.9790697
REMARK minimizedRMSD -1
REMARK  0 active torsions:
REMARK  status: ('A' for Active; 'I' for Inactive)
ROOT
ATOM      1  C   UNL d   1      -4.796   5.999   2.506  0.00  0.00     0.023 A 
ATOM      2  C1  UNL d   1      -3.585   6.000   1.815  0.00  0.00     0.003 A 
ATOM      3  C2  UNL d   1      -3.574   5.918   0.421  0.00  0.00     0.048 A 
ATOM      4  C3  UNL d   1      -4.779   5.837  -0.275  0.00  0.00     0.023 A 
ATOM      5  C4  UNL d   1      -5.994   5.837   0.412  0.00  0.00     0.048 A 
ATOM      6  C5  UNL d   1      -6.000   5.918   1.805  0.00  0.00     0.003 A 
ATOM      7  I   UNL d   1      -4.766   5.716  -2.350  0.00  0.00    -0.146 I 
ENDROOT
TORSDOF 0
ENDMDL
