MODEL 1
REMARK minimizedAffinity 16.9808941
REMARK minimizedRMSD -1
REMARK  0 active torsions:
REMARK  status: ('A' for Active; 'I' for Inactive)
ROOT
ATOM      1  C   UNL d   1       2.617  -1.833  -6.000  0.00  0.00     0.023 A 
ATOM      2  C1  UNL d   1       3.735  -2.194  -5.247  0.00  0.00     0.003 A 
ATOM      3  C2  UNL d   1       3.598  -3.068  -4.167  0.00  0.00     0.048 A 
ATOM      4  C3  UNL d   1       2.341  -3.579  -3.846  0.00  0.00     0.023 A 
ATOM      5  C4  UNL d   1       1.220  -3.222  -4.597  0.00  0.00     0.048 A 
ATOM      6  C5  UNL d   1       1.361  -2.346  -5.675  0.00  0.00     0.003 A 
ATOM      7  I   UNL d   1       2.135  -4.881  -2.239  0.00  0.00    -0.146 I 
ENDROOT
TORSDOF 0
ENDMDL
