MODEL 1
REMARK minimizedAffinity 15.4959726
REMARK minimizedRMSD -1
REMARK  0 active torsions:
REMARK  status: ('A' for Active; 'I' for Inactive)
ROOT
ATOM      1  C   UNL d   1      -0.679   3.373  -2.504  0.00  0.00     0.023 A 
ATOM      2  C1  UNL d   1      -1.673   2.796  -1.713  0.00  0.00     0.003 A 
ATOM      3  C2  UNL d   1      -1.357   2.296  -0.448  0.00  0.00     0.048 A 
ATOM      4  C3  UNL d   1      -0.046   2.376   0.020  0.00  0.00     0.023 A 
ATOM      5  C4  UNL d   1       0.951   2.953  -0.768  0.00  0.00     0.048 A 
ATOM      6  C5  UNL d   1       0.631   3.451  -2.032  0.00  0.00     0.003 A 
ATOM      7  I   UNL d   1       0.426   1.632   1.902  0.00  0.00    -0.146 I 
ENDROOT
TORSDOF 0
ENDMDL
