MODEL 1
REMARK minimizedAffinity 6.43365145
REMARK minimizedRMSD -1
REMARK  0 active torsions:
REMARK  status: ('A' for Active; 'I' for Inactive)
ROOT
ATOM      1  C   UNL d   1       3.577  -2.394  -6.000  0.00  0.00     0.023 A 
ATOM      2  C1  UNL d   1       4.349  -2.992  -5.003  0.00  0.00     0.003 A 
ATOM      3  C2  UNL d   1       3.742  -3.458  -3.835  0.00  0.00     0.048 A 
ATOM      4  C3  UNL d   1       2.364  -3.326  -3.671  0.00  0.00     0.023 A 
ATOM      5  C4  UNL d   1       1.588  -2.729  -4.666  0.00  0.00     0.048 A 
ATOM      6  C5  UNL d   1       2.199  -2.263  -5.832  0.00  0.00     0.003 A 
ATOM      7  I   UNL d   1       1.459  -4.020  -1.933  0.00  0.00    -0.146 I 
ENDROOT
TORSDOF 0
ENDMDL
