MODEL 1
REMARK minimizedAffinity -4.02631998
REMARK minimizedRMSD -1
REMARK  0 active torsions:
REMARK  status: ('A' for Active; 'I' for Inactive)
ROOT
ATOM      1  C   UNL d   1      -0.752   0.745   1.559  0.00  0.00     0.078 C 
ATOM      2  C1  UNL d   1      -0.464  -0.408   2.473  0.00  0.00    -0.077 A 
ATOM      3  C2  UNL d   1       0.853  -0.780   2.772  0.00  0.00    -0.001 A 
ATOM      4  C3  UNL d   1       1.106  -1.862   3.617  0.00  0.00     0.003 A 
ATOM      5  C4  UNL d   1       0.049  -2.581   4.169  0.00  0.00    -0.005 A 
ATOM      6  C5  UNL d   1      -1.265  -2.220   3.875  0.00  0.00     0.003 A 
ATOM      7  C6  UNL d   1      -1.520  -1.139   3.031  0.00  0.00    -0.001 A 
ENDROOT
TORSDOF 0
ENDMDL
