MODEL 1
REMARK minimizedAffinity -1.6667254
REMARK minimizedRMSD -1
REMARK  0 active torsions:
REMARK  status: ('A' for Active; 'I' for Inactive)
ROOT
ATOM      1  C   UNL d   1      -1.391   0.306   1.811  0.00  0.00     0.078 C 
ATOM      2  C1  UNL d   1      -0.238  -0.399   2.461  0.00  0.00    -0.077 A 
ATOM      3  C2  UNL d   1      -0.401  -1.080   3.674  0.00  0.00    -0.001 A 
ATOM      4  C3  UNL d   1       0.684  -1.723   4.273  0.00  0.00     0.003 A 
ATOM      5  C4  UNL d   1       1.938  -1.690   3.668  0.00  0.00    -0.005 A 
ATOM      6  C5  UNL d   1       2.110  -1.013   2.462  0.00  0.00     0.003 A 
ATOM      7  C6  UNL d   1       1.027  -0.369   1.862  0.00  0.00    -0.001 A 
ENDROOT
TORSDOF 0
ENDMDL
