MODEL 1
REMARK minimizedAffinity 1.15441608
REMARK minimizedRMSD -1
REMARK  0 active torsions:
REMARK  status: ('A' for Active; 'I' for Inactive)
ROOT
ATOM      1  C   UNL d   1      -1.574  -0.053   2.120  0.00  0.00     0.078 C 
ATOM      2  C1  UNL d   1      -0.472  -0.896   2.689  0.00  0.00    -0.077 A 
ATOM      3  C2  UNL d   1      -0.753  -1.965   3.549  0.00  0.00    -0.001 A 
ATOM      4  C3  UNL d   1       0.284  -2.735   4.079  0.00  0.00     0.003 A 
ATOM      5  C4  UNL d   1       1.608  -2.444   3.756  0.00  0.00    -0.005 A 
ATOM      6  C5  UNL d   1       1.897  -1.380   2.903  0.00  0.00     0.003 A 
ATOM      7  C6  UNL d   1       0.862  -0.609   2.372  0.00  0.00    -0.001 A 
ENDROOT
TORSDOF 0
ENDMDL
