MODEL 1
REMARK minimizedAffinity 2.59487963
REMARK minimizedRMSD -1
REMARK  0 active torsions:
REMARK  status: ('A' for Active; 'I' for Inactive)
ROOT
ATOM      1  C   UNL d   1      -4.091  -6.000  -1.976  0.00  0.00     0.078 C 
ATOM      2  C1  UNL d   1      -4.120  -4.501  -1.922  0.00  0.00    -0.077 A 
ATOM      3  C2  UNL d   1      -3.143  -3.786  -1.219  0.00  0.00    -0.001 A 
ATOM      4  C3  UNL d   1      -3.188  -2.392  -1.169  0.00  0.00     0.003 A 
ATOM      5  C4  UNL d   1      -4.209  -1.701  -1.819  0.00  0.00    -0.005 A 
ATOM      6  C5  UNL d   1      -5.187  -2.404  -2.519  0.00  0.00     0.003 A 
ATOM      7  C6  UNL d   1      -5.144  -3.798  -2.570  0.00  0.00    -0.001 A 
ENDROOT
TORSDOF 0
ENDMDL
