MODEL 1
REMARK minimizedAffinity -2.6968317
REMARK minimizedRMSD -1
REMARK  0 active torsions:
REMARK  status: ('A' for Active; 'I' for Inactive)
ROOT
ATOM      1  C   UNL d   1       2.186  -2.854   4.985  0.00  0.00     0.078 C 
ATOM      2  C1  UNL d   1       1.459  -1.874   4.113  0.00  0.00    -0.077 A 
ATOM      3  C2  UNL d   1       0.730  -2.304   2.998  0.00  0.00    -0.001 A 
ATOM      4  C3  UNL d   1       0.066  -1.380   2.189  0.00  0.00     0.003 A 
ATOM      5  C4  UNL d   1       0.127  -0.020   2.486  0.00  0.00    -0.005 A 
ATOM      6  C5  UNL d   1       0.853   0.418   3.592  0.00  0.00     0.003 A 
ATOM      7  C6  UNL d   1       1.517  -0.505   4.402  0.00  0.00    -0.001 A 
ENDROOT
TORSDOF 0
ENDMDL
