MODEL 1
REMARK minimizedAffinity 14.3832998
REMARK minimizedRMSD -1
REMARK  0 active torsions:
REMARK  status: ('A' for Active; 'I' for Inactive)
ROOT
ATOM      1  C   UNL d   1       2.263  -2.666  -2.299  0.00  0.00     0.124 A 
ATOM      2  C1  UNL d   1       2.771  -2.482  -1.020  0.00  0.00     0.062 A 
ATOM      3  C2  UNL d   1       3.620  -3.432  -0.461  0.00  0.00     0.162 A 
ATOM      4  C3  UNL d   1       3.968  -4.576  -1.180  0.00  0.00    -0.034 A 
ATOM      5  C4  UNL d   1       3.452  -4.755  -2.465  0.00  0.00     0.162 A 
ATOM      6  C5  UNL d   1       2.604  -3.802  -3.020  0.00  0.00     0.062 A 
ATOM      7  F   UNL d   1       2.114  -3.982  -4.255  0.00  0.00    -0.097 F 
ATOM      8  F1  UNL d   1       3.766  -5.842  -3.184  0.00  0.00    -0.096 F 
ATOM      9  I   UNL d   1       5.237  -5.999  -0.347  0.00  0.00    -0.060 I 
ATOM     10  F2  UNL d   1       4.096  -3.228   0.777  0.00  0.00    -0.096 F 
ATOM     11  F3  UNL d   1       2.442  -1.386  -0.321  0.00  0.00    -0.097 F 
ATOM     12  F4  UNL d   1       1.445  -1.751  -2.834  0.00  0.00    -0.092 F 
ENDROOT
TORSDOF 0
ENDMDL
