MODEL 1
REMARK minimizedAffinity 8.0441103
REMARK minimizedRMSD -1
REMARK  0 active torsions:
REMARK  status: ('A' for Active; 'I' for Inactive)
ROOT
ATOM      1  C   UNL d   1       3.111  -1.360  -1.654  0.00  0.00     0.124 A 
ATOM      2  C1  UNL d   1       2.578  -0.170  -2.131  0.00  0.00     0.062 A 
ATOM      3  C2  UNL d   1       2.438   0.924  -1.282  0.00  0.00     0.162 A 
ATOM      4  C3  UNL d   1       2.833   0.834   0.052  0.00  0.00    -0.034 A 
ATOM      5  C4  UNL d   1       3.368  -0.366   0.525  0.00  0.00     0.162 A 
ATOM      6  C5  UNL d   1       3.506  -1.456  -0.327  0.00  0.00     0.062 A 
ATOM      7  F   UNL d   1       4.022  -2.605   0.135  0.00  0.00    -0.097 F 
ATOM      8  F1  UNL d   1       3.759  -0.486   1.802  0.00  0.00    -0.096 F 
ATOM      9  I   UNL d   1       2.626   2.468   1.325  0.00  0.00    -0.060 I 
ATOM     10  F2  UNL d   1       1.919   2.061  -1.770  0.00  0.00    -0.096 F 
ATOM     11  F3  UNL d   1       2.195  -0.075  -3.412  0.00  0.00    -0.097 F 
ATOM     12  F4  UNL d   1       3.244  -2.411  -2.473  0.00  0.00    -0.092 F 
ENDROOT
TORSDOF 0
ENDMDL
