MODEL 1
REMARK minimizedAffinity 18.5412598
REMARK minimizedRMSD -1
REMARK  0 active torsions:
REMARK  status: ('A' for Active; 'I' for Inactive)
ROOT
ATOM      1  C   UNL d   1       0.241   2.840   1.715  0.00  0.00     0.124 A 
ATOM      2  C1  UNL d   1       1.379   2.449   2.408  0.00  0.00     0.062 A 
ATOM      3  C2  UNL d   1       1.379   1.267   3.144  0.00  0.00     0.162 A 
ATOM      4  C3  UNL d   1       0.238   0.467   3.191  0.00  0.00    -0.034 A 
ATOM      5  C4  UNL d   1      -0.903   0.868   2.493  0.00  0.00     0.162 A 
ATOM      6  C5  UNL d   1      -0.898   2.049   1.758  0.00  0.00     0.062 A 
ATOM      7  F   UNL d   1      -1.999   2.425   1.090  0.00  0.00    -0.097 F 
ATOM      8  F1  UNL d   1      -2.018   0.122   2.516  0.00  0.00    -0.096 F 
ATOM      9  I   UNL d   1       0.234  -1.300   4.290  0.00  0.00    -0.060 I 
ATOM     10  F2  UNL d   1       2.493   0.914   3.803  0.00  0.00    -0.096 F 
ATOM     11  F3  UNL d   1       2.481   3.211   2.368  0.00  0.00    -0.097 F 
ATOM     12  F4  UNL d   1       0.244   3.977   1.009  0.00  0.00    -0.092 F 
ENDROOT
TORSDOF 0
ENDMDL
