MODEL 1
REMARK minimizedAffinity 28.1480713
REMARK minimizedRMSD -1
REMARK  0 active torsions:
REMARK  status: ('A' for Active; 'I' for Inactive)
ROOT
ATOM      1  C   UNL d   1      -5.951  -1.639   2.291  0.00  0.00     0.124 A 
ATOM      2  C1  UNL d   1      -5.946  -2.801   1.532  0.00  0.00     0.062 A 
ATOM      3  C2  UNL d   1      -5.958  -4.045   2.156  0.00  0.00     0.162 A 
ATOM      4  C3  UNL d   1      -5.976  -4.134   3.548  0.00  0.00    -0.034 A 
ATOM      5  C4  UNL d   1      -5.981  -2.961   4.305  0.00  0.00     0.162 A 
ATOM      6  C5  UNL d   1      -5.968  -1.720   3.677  0.00  0.00     0.062 A 
ATOM      7  F   UNL d   1      -5.973  -0.598   4.412  0.00  0.00    -0.097 F 
ATOM      8  F1  UNL d   1      -5.998  -3.010   5.645  0.00  0.00    -0.096 F 
ATOM      9  I   UNL d   1      -5.995  -5.992   4.485  0.00  0.00    -0.060 I 
ATOM     10  F2  UNL d   1      -5.953  -5.151   1.398  0.00  0.00    -0.096 F 
ATOM     11  F3  UNL d   1      -5.928  -2.725   0.194  0.00  0.00    -0.097 F 
ATOM     12  F4  UNL d   1      -5.938  -0.443   1.688  0.00  0.00    -0.092 F 
ENDROOT
TORSDOF 0
ENDMDL
