MODEL 1
REMARK minimizedAffinity 20.4285088
REMARK minimizedRMSD -1
REMARK  0 active torsions:
REMARK  status: ('A' for Active; 'I' for Inactive)
ROOT
ATOM      1  C   UNL d   1       2.775   0.853   1.105  0.00  0.00     0.124 A 
ATOM      2  C1  UNL d   1       3.907   1.387   0.504  0.00  0.00     0.062 A 
ATOM      3  C2  UNL d   1       4.367   2.647   0.874  0.00  0.00     0.162 A 
ATOM      4  C3  UNL d   1       3.696   3.383   1.851  0.00  0.00    -0.034 A 
ATOM      5  C4  UNL d   1       2.558   2.840   2.450  0.00  0.00     0.162 A 
ATOM      6  C5  UNL d   1       2.102   1.579   2.077  0.00  0.00     0.062 A 
ATOM      7  F   UNL d   1       1.008   1.065   2.658  0.00  0.00    -0.097 F 
ATOM      8  F1  UNL d   1       1.888   3.520   3.392  0.00  0.00    -0.096 F 
ATOM      9  I   UNL d   1       4.380   5.268   2.407  0.00  0.00    -0.060 I 
ATOM     10  F2  UNL d   1       5.463   3.138   0.277  0.00  0.00    -0.096 F 
ATOM     11  F3  UNL d   1       4.559   0.687  -0.436  0.00  0.00    -0.097 F 
ATOM     12  F4  UNL d   1       2.334  -0.360   0.746  0.00  0.00    -0.092 F 
ENDROOT
TORSDOF 0
ENDMDL
