MODEL 1
REMARK minimizedAffinity 21.8577995
REMARK minimizedRMSD -1
REMARK  0 active torsions:
REMARK  status: ('A' for Active; 'I' for Inactive)
ROOT
ATOM      1  C   UNL d   1       1.304   1.604  -2.774  0.00  0.00     0.124 A 
ATOM      2  C1  UNL d   1       1.668   0.410  -2.167  0.00  0.00     0.062 A 
ATOM      3  C2  UNL d   1       2.005   0.385  -0.817  0.00  0.00     0.162 A 
ATOM      4  C3  UNL d   1       1.978   1.558  -0.063  0.00  0.00    -0.034 A 
ATOM      5  C4  UNL d   1       1.612   2.755  -0.680  0.00  0.00     0.162 A 
ATOM      6  C5  UNL d   1       1.276   2.775  -2.030  0.00  0.00     0.062 A 
ATOM      7  F   UNL d   1       0.925   3.930  -2.615  0.00  0.00    -0.097 F 
ATOM      8  F1  UNL d   1       1.575   3.902   0.015  0.00  0.00    -0.096 F 
ATOM      9  I   UNL d   1       2.480   1.524   1.956  0.00  0.00    -0.060 I 
ATOM     10  F2  UNL d   1       2.352  -0.784  -0.257  0.00  0.00    -0.096 F 
ATOM     11  F3  UNL d   1       1.697  -0.723  -2.884  0.00  0.00    -0.097 F 
ATOM     12  F4  UNL d   1       0.982   1.626  -4.074  0.00  0.00    -0.092 F 
ENDROOT
TORSDOF 0
ENDMDL
