MODEL 1
REMARK minimizedAffinity 24.75387
REMARK minimizedRMSD -1
REMARK  0 active torsions:
REMARK  status: ('A' for Active; 'I' for Inactive)
ROOT
ATOM      1  C   UNL d   1       1.277   0.074   2.393  0.00  0.00     0.124 A 
ATOM      2  C1  UNL d   1       1.932   1.233   2.002  0.00  0.00     0.062 A 
ATOM      3  C2  UNL d   1       2.421   2.118   2.959  0.00  0.00     0.162 A 
ATOM      4  C3  UNL d   1       2.258   1.846   4.317  0.00  0.00    -0.034 A 
ATOM      5  C4  UNL d   1       1.597   0.678   4.703  0.00  0.00     0.162 A 
ATOM      6  C5  UNL d   1       1.110  -0.203   3.742  0.00  0.00     0.062 A 
ATOM      7  F   UNL d   1       0.478  -1.323   4.122  0.00  0.00    -0.097 F 
ATOM      8  F1  UNL d   1       1.423   0.386   6.000  0.00  0.00    -0.096 F 
ATOM      9  I   UNL d   1       2.987   3.166   5.751  0.00  0.00    -0.060 I 
ATOM     10  F2  UNL d   1       3.050   3.231   2.552  0.00  0.00    -0.096 F 
ATOM     11  F3  UNL d   1       2.093   1.503   0.698  0.00  0.00    -0.097 F 
ATOM     12  F4  UNL d   1       0.807  -0.775   1.470  0.00  0.00    -0.092 F 
ENDROOT
TORSDOF 0
ENDMDL
