MODEL 1
REMARK minimizedAffinity 20.2351036
REMARK minimizedRMSD -1
REMARK  0 active torsions:
REMARK  status: ('A' for Active; 'I' for Inactive)
ROOT
ATOM      1  C   UNL d   1      -0.861  -3.940  -2.235  0.00  0.00     0.124 A 
ATOM      2  C1  UNL d   1      -0.858  -4.978  -3.156  0.00  0.00     0.062 A 
ATOM      3  C2  UNL d   1      -1.741  -4.961  -4.232  0.00  0.00     0.162 A 
ATOM      4  C3  UNL d   1      -2.635  -3.902  -4.392  0.00  0.00    -0.034 A 
ATOM      5  C4  UNL d   1      -2.632  -2.862  -3.461  0.00  0.00     0.162 A 
ATOM      6  C5  UNL d   1      -1.747  -2.883  -2.388  0.00  0.00     0.062 A 
ATOM      7  F   UNL d   1      -1.751  -1.879  -1.498  0.00  0.00    -0.097 F 
ATOM      8  F1  UNL d   1      -3.477  -1.828  -3.585  0.00  0.00    -0.096 F 
ATOM      9  I   UNL d   1      -3.957  -3.873  -5.999  0.00  0.00    -0.060 I 
ATOM     10  F2  UNL d   1      -1.717  -5.977  -5.107  0.00  0.00    -0.096 F 
ATOM     11  F3  UNL d   1      -0.003  -6.000  -3.010  0.00  0.00    -0.097 F 
ATOM     12  F4  UNL d   1      -0.010  -3.959  -1.200  0.00  0.00    -0.092 F 
ENDROOT
TORSDOF 0
ENDMDL
