MODEL 1
REMARK minimizedAffinity 17.8943958
REMARK minimizedRMSD -1
REMARK  0 active torsions:
REMARK  status: ('A' for Active; 'I' for Inactive)
ROOT
ATOM      1  C   UNL d   1       0.377  -4.450  -1.565  0.00  0.00     0.124 A 
ATOM      2  C1  UNL d   1      -0.338  -3.307  -1.893  0.00  0.00     0.062 A 
ATOM      3  C2  UNL d   1       0.121  -2.055  -1.493  0.00  0.00     0.162 A 
ATOM      4  C3  UNL d   1       1.302  -1.940  -0.760  0.00  0.00    -0.034 A 
ATOM      5  C4  UNL d   1       2.016  -3.095  -0.433  0.00  0.00     0.162 A 
ATOM      6  C5  UNL d   1       1.553  -4.343  -0.836  0.00  0.00     0.062 A 
ATOM      7  F   UNL d   1       2.245  -5.447  -0.518  0.00  0.00    -0.097 F 
ATOM      8  F1  UNL d   1       3.155  -3.021   0.270  0.00  0.00    -0.096 F 
ATOM      9  I   UNL d   1       1.992  -0.071  -0.159  0.00  0.00    -0.060 I 
ATOM     10  F2  UNL d   1      -0.590  -0.967  -1.824  0.00  0.00    -0.096 F 
ATOM     11  F3  UNL d   1      -1.475  -3.407  -2.597  0.00  0.00    -0.097 F 
ATOM     12  F4  UNL d   1      -0.067  -5.653  -1.951  0.00  0.00    -0.092 F 
ENDROOT
TORSDOF 0
ENDMDL
