MODEL 1
REMARK minimizedAffinity 33.4424019
REMARK minimizedRMSD -1
REMARK  0 active torsions:
REMARK  status: ('A' for Active; 'I' for Inactive)
ROOT
ATOM      1  C   UNL d   1       1.339  -1.048  -1.395  0.00  0.00     0.124 A 
ATOM      2  C1  UNL d   1       1.620  -2.154  -0.605  0.00  0.00     0.062 A 
ATOM      3  C2  UNL d   1       0.808  -3.283  -0.668  0.00  0.00     0.162 A 
ATOM      4  C3  UNL d   1      -0.292  -3.313  -1.525  0.00  0.00    -0.034 A 
ATOM      5  C4  UNL d   1      -0.568  -2.196  -2.316  0.00  0.00     0.162 A 
ATOM      6  C5  UNL d   1       0.246  -1.070  -2.249  0.00  0.00     0.062 A 
ATOM      7  F   UNL d   1      -0.026  -0.002  -3.013  0.00  0.00    -0.097 F 
ATOM      8  F1  UNL d   1      -1.617  -2.190  -3.151  0.00  0.00    -0.096 F 
ATOM      9  I   UNL d   1      -1.508  -4.999  -1.622  0.00  0.00    -0.060 I 
ATOM     10  F2  UNL d   1       1.103  -4.338   0.107  0.00  0.00    -0.096 F 
ATOM     11  F3  UNL d   1       2.675  -2.136   0.222  0.00  0.00    -0.097 F 
ATOM     12  F4  UNL d   1       2.121   0.037  -1.332  0.00  0.00    -0.092 F 
ENDROOT
TORSDOF 0
ENDMDL
