MODEL 1
REMARK minimizedAffinity 21.7911205
REMARK minimizedRMSD -1
REMARK  0 active torsions:
REMARK  status: ('A' for Active; 'I' for Inactive)
ROOT
ATOM      1  C   UNL d   1      -2.453  -2.232  -2.993  0.00  0.00     0.124 A 
ATOM      2  C1  UNL d   1      -1.549  -1.186  -3.117  0.00  0.00     0.062 A 
ATOM      3  C2  UNL d   1      -0.281  -1.285  -2.553  0.00  0.00     0.162 A 
ATOM      4  C3  UNL d   1       0.092  -2.437  -1.860  0.00  0.00    -0.034 A 
ATOM      5  C4  UNL d   1      -0.822  -3.485  -1.738  0.00  0.00     0.162 A 
ATOM      6  C5  UNL d   1      -2.089  -3.380  -2.304  0.00  0.00     0.062 A 
ATOM      7  F   UNL d   1      -2.961  -4.392  -2.183  0.00  0.00    -0.097 F 
ATOM      8  F1  UNL d   1      -0.496  -4.606  -1.078  0.00  0.00    -0.096 F 
ATOM      9  I   UNL d   1       1.988  -2.590  -1.015  0.00  0.00    -0.060 I 
ATOM     10  F2  UNL d   1       0.572  -0.259  -2.689  0.00  0.00    -0.096 F 
ATOM     11  F3  UNL d   1      -1.899  -0.075  -3.782  0.00  0.00    -0.097 F 
ATOM     12  F4  UNL d   1      -3.673  -2.132  -3.536  0.00  0.00    -0.092 F 
ENDROOT
TORSDOF 0
ENDMDL
