MODEL 1
REMARK minimizedAffinity 19.0953426
REMARK minimizedRMSD -1
REMARK  0 active torsions:
REMARK  status: ('A' for Active; 'I' for Inactive)
ROOT
ATOM      1  C   UNL d   1      -2.580  -3.454  -4.951  0.00  0.00     0.124 A 
ATOM      2  C1  UNL d   1      -2.655  -2.329  -4.142  0.00  0.00     0.062 A 
ATOM      3  C2  UNL d   1      -1.796  -2.189  -3.056  0.00  0.00     0.162 A 
ATOM      4  C3  UNL d   1      -0.853  -3.177  -2.772  0.00  0.00    -0.034 A 
ATOM      5  C4  UNL d   1      -0.784  -4.307  -3.590  0.00  0.00     0.162 A 
ATOM      6  C5  UNL d   1      -1.645  -4.442  -4.674  0.00  0.00     0.062 A 
ATOM      7  F   UNL d   1      -1.571  -5.530  -5.454  0.00  0.00    -0.097 F 
ATOM      8  F1  UNL d   1       0.110  -5.276  -3.346  0.00  0.00    -0.096 F 
ATOM      9  I   UNL d   1       0.433  -2.971  -1.149  0.00  0.00    -0.060 I 
ATOM     10  F2  UNL d   1      -1.891  -1.090  -2.292  0.00  0.00    -0.096 F 
ATOM     11  F3  UNL d   1      -3.558  -1.374  -4.407  0.00  0.00    -0.097 F 
ATOM     12  F4  UNL d   1      -3.408  -3.587  -5.995  0.00  0.00    -0.092 F 
ENDROOT
TORSDOF 0
ENDMDL
