MODEL 1
REMARK minimizedAffinity 27.3854084
REMARK minimizedRMSD -1
REMARK  0 active torsions:
REMARK  status: ('A' for Active; 'I' for Inactive)
ROOT
ATOM      1  C   UNL d   1      -5.992  -1.064   1.659  0.00  0.00     0.124 A 
ATOM      2  C1  UNL d   1      -5.992  -0.943   3.042  0.00  0.00     0.062 A 
ATOM      3  C2  UNL d   1      -5.994  -2.081   3.844  0.00  0.00     0.162 A 
ATOM      4  C3  UNL d   1      -5.994  -3.350   3.265  0.00  0.00    -0.034 A 
ATOM      5  C4  UNL d   1      -5.995  -3.464   1.874  0.00  0.00     0.162 A 
ATOM      6  C5  UNL d   1      -5.993  -2.324   1.077  0.00  0.00     0.062 A 
ATOM      7  F   UNL d   1      -5.993  -2.442  -0.259  0.00  0.00    -0.097 F 
ATOM      8  F1  UNL d   1      -5.995  -4.668   1.284  0.00  0.00    -0.096 F 
ATOM      9  I   UNL d   1      -5.996  -5.054   4.461  0.00  0.00    -0.060 I 
ATOM     10  F2  UNL d   1      -5.994  -1.934   5.177  0.00  0.00    -0.096 F 
ATOM     11  F3  UNL d   1      -5.992   0.272   3.608  0.00  0.00    -0.097 F 
ATOM     12  F4  UNL d   1      -5.991   0.032   0.890  0.00  0.00    -0.092 F 
ENDROOT
TORSDOF 0
ENDMDL
