MODEL 1
REMARK minimizedAffinity 18.1829853
REMARK minimizedRMSD -1
REMARK  0 active torsions:
REMARK  status: ('A' for Active; 'I' for Inactive)
ROOT
ATOM      1  C   UNL d   1       1.658   1.907  -2.776  0.00  0.00     0.124 A 
ATOM      2  C1  UNL d   1       1.498   3.076  -2.045  0.00  0.00     0.062 A 
ATOM      3  C2  UNL d   1       1.646   3.063  -0.662  0.00  0.00     0.162 A 
ATOM      4  C3  UNL d   1       1.957   1.875   0.001  0.00  0.00    -0.034 A 
ATOM      5  C4  UNL d   1       2.116   0.703  -0.740  0.00  0.00     0.162 A 
ATOM      6  C5  UNL d   1       1.967   0.722  -2.123  0.00  0.00     0.062 A 
ATOM      7  F   UNL d   1       2.122  -0.408  -2.828  0.00  0.00    -0.097 F 
ATOM      8  F1  UNL d   1       2.415  -0.456  -0.135  0.00  0.00    -0.096 F 
ATOM      9  I   UNL d   1       2.179   1.851   2.070  0.00  0.00    -0.060 I 
ATOM     10  F2  UNL d   1       1.486   4.207   0.019  0.00  0.00    -0.096 F 
ATOM     11  F3  UNL d   1       1.199   4.222  -2.674  0.00  0.00    -0.097 F 
ATOM     12  F4  UNL d   1       1.514   1.923  -4.108  0.00  0.00    -0.092 F 
ENDROOT
TORSDOF 0
ENDMDL
