MODEL 1
REMARK minimizedAffinity 25.5072708
REMARK minimizedRMSD -1
REMARK  0 active torsions:
REMARK  status: ('A' for Active; 'I' for Inactive)
ROOT
ATOM      1  C   UNL d   1       1.302   2.053  -2.993  0.00  0.00     0.124 A 
ATOM      2  C1  UNL d   1       1.175   3.185  -2.200  0.00  0.00     0.062 A 
ATOM      3  C2  UNL d   1       1.530   3.141  -0.855  0.00  0.00     0.162 A 
ATOM      4  C3  UNL d   1       2.015   1.959  -0.294  0.00  0.00    -0.034 A 
ATOM      5  C4  UNL d   1       2.138   0.825  -1.097  0.00  0.00     0.162 A 
ATOM      6  C5  UNL d   1       1.783   0.874  -2.441  0.00  0.00     0.062 A 
ATOM      7  F   UNL d   1       1.906  -0.221  -3.206  0.00  0.00    -0.097 F 
ATOM      8  F1  UNL d   1       2.601  -0.327  -0.590  0.00  0.00    -0.096 F 
ATOM      9  I   UNL d   1       2.546   1.889   1.718  0.00  0.00    -0.060 I 
ATOM     10  F2  UNL d   1       1.397   4.250  -0.112  0.00  0.00    -0.096 F 
ATOM     11  F3  UNL d   1       0.710   4.325  -2.731  0.00  0.00    -0.097 F 
ATOM     12  F4  UNL d   1       0.959   2.098  -4.287  0.00  0.00    -0.092 F 
ENDROOT
TORSDOF 0
ENDMDL
