MODEL 1
REMARK minimizedAffinity 8.74096966
REMARK minimizedRMSD -1
REMARK  0 active torsions:
REMARK  status: ('A' for Active; 'I' for Inactive)
ROOT
ATOM      1  C   UNL d   1       3.299  -0.344  -0.968  0.00  0.00     0.124 A 
ATOM      2  C1  UNL d   1       2.266   0.089  -1.788  0.00  0.00     0.062 A 
ATOM      3  C2  UNL d   1       1.231  -0.778  -2.126  0.00  0.00     0.162 A 
ATOM      4  C3  UNL d   1       1.223  -2.087  -1.643  0.00  0.00    -0.034 A 
ATOM      5  C4  UNL d   1       2.266  -2.515  -0.820  0.00  0.00     0.162 A 
ATOM      6  C5  UNL d   1       3.298  -1.645  -0.485  0.00  0.00     0.062 A 
ATOM      7  F   UNL d   1       4.295  -2.064   0.308  0.00  0.00    -0.097 F 
ATOM      8  F1  UNL d   1       2.290  -3.767  -0.338  0.00  0.00    -0.096 F 
ATOM      9  I   UNL d   1      -0.322  -3.387  -2.147  0.00  0.00    -0.060 I 
ATOM     10  F2  UNL d   1       0.246  -0.334  -2.920  0.00  0.00    -0.096 F 
ATOM     11  F3  UNL d   1       2.265   1.345  -2.256  0.00  0.00    -0.097 F 
ATOM     12  F4  UNL d   1       4.294   0.492  -0.645  0.00  0.00    -0.092 F 
ENDROOT
TORSDOF 0
ENDMDL
