MODEL 1
REMARK minimizedAffinity -2.78938627
REMARK minimizedRMSD -1
REMARK  0 active torsions:
REMARK  status: ('A' for Active; 'I' for Inactive)
ROOT
ATOM      1  C   UNL d   1       1.378  -2.066  -1.267  0.00  0.00     0.124 A 
ATOM      2  C1  UNL d   1       2.013  -0.998  -1.885  0.00  0.00     0.062 A 
ATOM      3  C2  UNL d   1       1.900   0.285  -1.356  0.00  0.00     0.162 A 
ATOM      4  C3  UNL d   1       1.149   0.506  -0.201  0.00  0.00    -0.034 A 
ATOM      5  C4  UNL d   1       0.512  -0.573   0.413  0.00  0.00     0.162 A 
ATOM      6  C5  UNL d   1       0.628  -1.853  -0.119  0.00  0.00     0.062 A 
ATOM      7  F   UNL d   1       0.014  -2.884   0.479  0.00  0.00    -0.097 F 
ATOM      8  F1  UNL d   1      -0.218  -0.396   1.525  0.00  0.00    -0.096 F 
ATOM      9  I   UNL d   1       0.978   2.422   0.593  0.00  0.00    -0.060 I 
ATOM     10  F2  UNL d   1       2.525   1.298  -1.973  0.00  0.00    -0.096 F 
ATOM     11  F3  UNL d   1       2.738  -1.201  -2.995  0.00  0.00    -0.097 F 
ATOM     12  F4  UNL d   1       1.488  -3.299  -1.779  0.00  0.00    -0.092 F 
ENDROOT
TORSDOF 0
ENDMDL
