MODEL 1
REMARK minimizedAffinity 8.18443775
REMARK minimizedRMSD -1
REMARK  2 active torsions:
REMARK  status: ('A' for Active; 'I' for Inactive)
REMARK    1  A    between atoms: C1_2  and  C2_3 
REMARK    2  A    between atoms: C2_3  and  C3_4 
ROOT
ATOM      1  C3  UNL d   1      -0.183   3.932  -3.086  0.00  0.00    -0.075 A 
ATOM      2  C4  UNL d   1       0.907   3.722  -2.228  0.00  0.00     0.002 A 
ATOM      3  C5  UNL d   1       0.707   3.237  -0.935  0.00  0.00     0.002 A 
ATOM      4  C6  UNL d   1      -0.581   2.965  -0.481  0.00  0.00    -0.004 A 
ATOM      5  C7  UNL d   1      -1.672   3.186  -1.319  0.00  0.00     0.002 A 
ATOM      6  C8  UNL d   1      -1.475   3.667  -2.614  0.00  0.00     0.002 A 
ENDROOT
BRANCH   1   7
ATOM      7  C2  UNL d   1       0.029   4.429  -4.496  0.00  0.00     0.056 C 
BRANCH   7   8
ATOM      8  C1  UNL d   1       0.528   5.876  -4.579  0.00  0.00     0.007 C 
ATOM      9  C   UNL d   1       1.925   5.996  -5.174  0.00  0.00     0.009 C 
ENDBRANCH   7   8
ENDBRANCH   1   7
TORSDOF 2
ENDMDL
