MODEL 1
REMARK minimizedAffinity 11.9252605
REMARK minimizedRMSD -1
REMARK  2 active torsions:
REMARK  status: ('A' for Active; 'I' for Inactive)
REMARK    1  A    between atoms: C1_2  and  C2_3 
REMARK    2  A    between atoms: C2_3  and  C3_4 
ROOT
ATOM      1  C3  UNL d   1       0.774   4.057  -3.218  0.00  0.00    -0.075 A 
ATOM      2  C4  UNL d   1      -0.495   4.049  -3.815  0.00  0.00     0.002 A 
ATOM      3  C5  UNL d   1      -0.829   4.999  -4.781  0.00  0.00     0.002 A 
ATOM      4  C6  UNL d   1       0.096   5.973  -5.153  0.00  0.00    -0.004 A 
ATOM      5  C7  UNL d   1       1.353   6.000  -4.554  0.00  0.00     0.002 A 
ATOM      6  C8  UNL d   1       1.691   5.048  -3.591  0.00  0.00     0.002 A 
ENDROOT
BRANCH   1   7
ATOM      7  C2  UNL d   1       1.151   3.013  -2.193  0.00  0.00     0.056 C 
BRANCH   7   8
ATOM      8  C1  UNL d   1       0.856   3.424  -0.747  0.00  0.00     0.007 C 
ATOM      9  C   UNL d   1       0.182   2.325   0.064  0.00  0.00     0.009 C 
ENDBRANCH   7   8
ENDBRANCH   1   7
TORSDOF 2
ENDMDL
