MODEL 1
REMARK minimizedAffinity 14.2208786
REMARK minimizedRMSD -1
REMARK  2 active torsions:
REMARK  status: ('A' for Active; 'I' for Inactive)
REMARK    1  A    between atoms: C1_2  and  C2_3 
REMARK    2  A    between atoms: C2_3  and  C3_4 
ROOT
ATOM      1  C3  UNL d   1       0.685   3.582   1.072  0.00  0.00    -0.075 A 
ATOM      2  C4  UNL d   1       0.902   3.317   2.432  0.00  0.00     0.002 A 
ATOM      3  C5  UNL d   1       0.205   2.292   3.073  0.00  0.00     0.002 A 
ATOM      4  C6  UNL d   1      -0.722   1.528   2.368  0.00  0.00    -0.004 A 
ATOM      5  C7  UNL d   1      -0.957   1.794   1.021  0.00  0.00     0.002 A 
ATOM      6  C8  UNL d   1      -0.258   2.815   0.375  0.00  0.00     0.002 A 
ENDROOT
BRANCH   1   7
ATOM      7  C2  UNL d   1       1.457   4.670   0.364  0.00  0.00     0.056 C 
BRANCH   7   8
ATOM      8  C1  UNL d   1       1.511   5.996   1.131  0.00  0.00     0.007 C 
ATOM      9  C   UNL d   1       2.541   6.000   2.253  0.00  0.00     0.009 C 
ENDBRANCH   7   8
ENDBRANCH   1   7
TORSDOF 2
ENDMDL
