MODEL 1
REMARK minimizedAffinity 10.2352743
REMARK minimizedRMSD -1
REMARK  2 active torsions:
REMARK  status: ('A' for Active; 'I' for Inactive)
REMARK    1  A    between atoms: C1_2  and  C2_3 
REMARK    2  A    between atoms: C2_3  and  C3_4 
ROOT
ATOM      1  C3  UNL d   1       1.242  -3.201  -2.908  0.00  0.00    -0.075 A 
ATOM      2  C4  UNL d   1       1.132  -2.258  -1.876  0.00  0.00     0.002 A 
ATOM      3  C5  UNL d   1       1.317  -2.639  -0.546  0.00  0.00     0.002 A 
ATOM      4  C6  UNL d   1       1.603  -3.966  -0.232  0.00  0.00    -0.004 A 
ATOM      5  C7  UNL d   1       1.698  -4.914  -1.248  0.00  0.00     0.002 A 
ATOM      6  C8  UNL d   1       1.518  -4.535  -2.580  0.00  0.00     0.002 A 
ENDROOT
BRANCH   1   7
ATOM      7  C2  UNL d   1       1.073  -2.790  -4.351  0.00  0.00     0.056 C 
BRANCH   7   8
ATOM      8  C1  UNL d   1       2.199  -1.896  -4.882  0.00  0.00     0.007 C 
ATOM      9  C   UNL d   1       1.750  -0.965  -5.999  0.00  0.00     0.009 C 
ENDBRANCH   7   8
ENDBRANCH   1   7
TORSDOF 2
ENDMDL
