MODEL 1
REMARK minimizedAffinity 14.8611279
REMARK minimizedRMSD -1
REMARK  2 active torsions:
REMARK  status: ('A' for Active; 'I' for Inactive)
REMARK    1  A    between atoms: C1_2  and  C2_3 
REMARK    2  A    between atoms: C2_3  and  C3_4 
ROOT
ATOM      1  C3  UNL d   1       0.002   5.723  -4.071  0.00  0.00    -0.075 A 
ATOM      2  C4  UNL d   1       1.054   5.757  -3.144  0.00  0.00     0.002 A 
ATOM      3  C5  UNL d   1       2.373   5.900  -3.573  0.00  0.00     0.002 A 
ATOM      4  C6  UNL d   1       2.659   5.999  -4.933  0.00  0.00    -0.004 A 
ATOM      5  C7  UNL d   1       1.625   5.949  -5.864  0.00  0.00     0.002 A 
ATOM      6  C8  UNL d   1       0.303   5.811  -5.437  0.00  0.00     0.002 A 
ENDROOT
BRANCH   1   7
ATOM      7  C2  UNL d   1      -1.430   5.598  -3.611  0.00  0.00     0.056 C 
BRANCH   7   8
ATOM      8  C1  UNL d   1      -1.810   4.196  -3.125  0.00  0.00     0.007 C 
ATOM      9  C   UNL d   1      -1.499   3.104  -4.141  0.00  0.00     0.009 C 
ENDBRANCH   7   8
ENDBRANCH   1   7
TORSDOF 2
ENDMDL
