MODEL 1
REMARK minimizedAffinity 14.233366
REMARK minimizedRMSD -1
REMARK  2 active torsions:
REMARK  status: ('A' for Active; 'I' for Inactive)
REMARK    1  A    between atoms: C1_2  and  C2_3 
REMARK    2  A    between atoms: C2_3  and  C3_4 
ROOT
ATOM      1  C3  UNL d   1      -1.259   2.812  -2.570  0.00  0.00    -0.075 A 
ATOM      2  C4  UNL d   1      -1.592   2.222  -1.342  0.00  0.00     0.002 A 
ATOM      3  C5  UNL d   1      -0.718   2.302  -0.258  0.00  0.00     0.002 A 
ATOM      4  C6  UNL d   1       0.502   2.962  -0.390  0.00  0.00    -0.004 A 
ATOM      5  C7  UNL d   1       0.850   3.538  -1.610  0.00  0.00     0.002 A 
ATOM      6  C8  UNL d   1      -0.024   3.463  -2.695  0.00  0.00     0.002 A 
ENDROOT
BRANCH   1   7
ATOM      7  C2  UNL d   1      -2.213   2.755  -3.739  0.00  0.00     0.056 C 
BRANCH   7   8
ATOM      8  C1  UNL d   1      -3.471   1.919  -3.477  0.00  0.00     0.007 C 
ATOM      9  C   UNL d   1      -4.763   2.689  -3.713  0.00  0.00     0.009 C 
ENDBRANCH   7   8
ENDBRANCH   1   7
TORSDOF 2
ENDMDL
