MODEL 1
REMARK minimizedAffinity 21.8039303
REMARK minimizedRMSD -1
REMARK  2 active torsions:
REMARK  status: ('A' for Active; 'I' for Inactive)
REMARK    1  A    between atoms: C1_2  and  C2_3 
REMARK    2  A    between atoms: C2_3  and  C3_4 
ROOT
ATOM      1  C3  UNL d   1      -4.438   5.730  -1.270  0.00  0.00    -0.075 A 
ATOM      2  C4  UNL d   1      -5.725   5.860  -0.730  0.00  0.00     0.002 A 
ATOM      3  C5  UNL d   1      -5.906   5.999   0.646  0.00  0.00     0.002 A 
ATOM      4  C6  UNL d   1      -4.804   6.000   1.499  0.00  0.00    -0.004 A 
ATOM      5  C7  UNL d   1      -3.522   5.854   0.975  0.00  0.00     0.002 A 
ATOM      6  C8  UNL d   1      -3.338   5.719  -0.402  0.00  0.00     0.002 A 
ENDROOT
BRANCH   1   7
ATOM      7  C2  UNL d   1      -4.234   5.609  -2.762  0.00  0.00     0.056 C 
BRANCH   7   8
ATOM      8  C1  UNL d   1      -2.803   5.905  -3.222  0.00  0.00     0.007 C 
ATOM      9  C   UNL d   1      -2.079   4.678  -3.761  0.00  0.00     0.009 C 
ENDBRANCH   7   8
ENDBRANCH   1   7
TORSDOF 2
ENDMDL
