MODEL 1
REMARK minimizedAffinity 8.45241547
REMARK minimizedRMSD -1
REMARK  2 active torsions:
REMARK  status: ('A' for Active; 'I' for Inactive)
REMARK    1  A    between atoms: C1_2  and  C2_3 
REMARK    2  A    between atoms: C2_3  and  C3_4 
ROOT
ATOM      1  C3  UNL d   1       1.471  -2.630  -3.417  0.00  0.00    -0.075 A 
ATOM      2  C4  UNL d   1       0.988  -3.347  -4.521  0.00  0.00     0.002 A 
ATOM      3  C5  UNL d   1       1.047  -2.799  -5.803  0.00  0.00     0.002 A 
ATOM      4  C6  UNL d   1       1.580  -1.527  -5.996  0.00  0.00    -0.004 A 
ATOM      5  C7  UNL d   1       2.048  -0.798  -4.905  0.00  0.00     0.002 A 
ATOM      6  C8  UNL d   1       1.994  -1.345  -3.622  0.00  0.00     0.002 A 
ENDROOT
BRANCH   1   7
ATOM      7  C2  UNL d   1       1.437  -3.228  -2.032  0.00  0.00     0.056 C 
BRANCH   7   8
ATOM      8  C1  UNL d   1       1.184  -2.208  -0.917  0.00  0.00     0.007 C 
ATOM      9  C   UNL d   1       2.207  -2.282   0.209  0.00  0.00     0.009 C 
ENDBRANCH   7   8
ENDBRANCH   1   7
TORSDOF 2
ENDMDL
