MODEL 1
REMARK minimizedAffinity 8.58260441
REMARK minimizedRMSD -1
REMARK  2 active torsions:
REMARK  status: ('A' for Active; 'I' for Inactive)
REMARK    1  A    between atoms: C1_2  and  C2_3 
REMARK    2  A    between atoms: C2_3  and  C3_4 
ROOT
ATOM      1  C3  UNL d   1      -4.415   5.940   1.606  0.00  0.00    -0.075 A 
ATOM      2  C4  UNL d   1      -3.267   5.833   0.808  0.00  0.00     0.002 A 
ATOM      3  C5  UNL d   1      -3.371   5.810  -0.583  0.00  0.00     0.002 A 
ATOM      4  C6  UNL d   1      -4.622   5.882  -1.192  0.00  0.00    -0.004 A 
ATOM      5  C7  UNL d   1      -5.770   5.971  -0.409  0.00  0.00     0.002 A 
ATOM      6  C8  UNL d   1      -5.669   5.999   0.983  0.00  0.00     0.002 A 
ENDROOT
BRANCH   1   7
ATOM      7  C2  UNL d   1      -4.307   5.996   3.112  0.00  0.00     0.056 C 
BRANCH   7   8
ATOM      8  C1  UNL d   1      -5.652   5.883   3.838  0.00  0.00     0.007 C 
ATOM      9  C   UNL d   1      -5.528   6.000   5.351  0.00  0.00     0.009 C 
ENDBRANCH   7   8
ENDBRANCH   1   7
TORSDOF 2
ENDMDL
