MODEL 1
REMARK minimizedAffinity 18.9236069
REMARK minimizedRMSD -1
REMARK  2 active torsions:
REMARK  status: ('A' for Active; 'I' for Inactive)
REMARK    1  A    between atoms: C1_2  and  C2_3 
REMARK    2  A    between atoms: C2_3  and  C3_4 
ROOT
ATOM      1  C3  UNL d   1       0.757   3.688  -2.015  0.00  0.00    -0.075 A 
ATOM      2  C4  UNL d   1      -0.447   3.540  -2.719  0.00  0.00     0.002 A 
ATOM      3  C5  UNL d   1      -1.573   3.003  -2.092  0.00  0.00     0.002 A 
ATOM      4  C6  UNL d   1      -1.506   2.600  -0.761  0.00  0.00    -0.004 A 
ATOM      5  C7  UNL d   1      -0.311   2.726  -0.057  0.00  0.00     0.002 A 
ATOM      6  C8  UNL d   1       0.815   3.267  -0.679  0.00  0.00     0.002 A 
ENDROOT
BRANCH   1   7
ATOM      7  C2  UNL d   1       1.970   4.295  -2.678  0.00  0.00     0.056 C 
BRANCH   7   8
ATOM      8  C1  UNL d   1       1.810   5.776  -3.035  0.00  0.00     0.007 C 
ATOM      9  C   UNL d   1       1.253   5.999  -4.435  0.00  0.00     0.009 C 
ENDBRANCH   7   8
ENDBRANCH   1   7
TORSDOF 2
ENDMDL
