MODEL 1
REMARK minimizedAffinity 9.25291538
REMARK minimizedRMSD -1
REMARK  2 active torsions:
REMARK  status: ('A' for Active; 'I' for Inactive)
REMARK    1  A    between atoms: C1_2  and  C2_3 
REMARK    2  A    between atoms: C2_3  and  C3_4 
ROOT
ATOM      1  C3  UNL d   1       1.639  -2.695  -1.902  0.00  0.00    -0.075 A 
ATOM      2  C4  UNL d   1       1.645  -1.428  -1.301  0.00  0.00     0.002 A 
ATOM      3  C5  UNL d   1       1.829  -1.297   0.075  0.00  0.00     0.002 A 
ATOM      4  C6  UNL d   1       2.000  -2.429   0.869  0.00  0.00    -0.004 A 
ATOM      5  C7  UNL d   1       1.980  -3.694   0.285  0.00  0.00     0.002 A 
ATOM      6  C8  UNL d   1       1.800  -3.827  -1.093  0.00  0.00     0.002 A 
ENDROOT
BRANCH   1   7
ATOM      7  C2  UNL d   1       1.470  -2.841  -3.395  0.00  0.00     0.056 C 
BRANCH   7   8
ATOM      8  C1  UNL d   1       2.295  -1.845  -4.217  0.00  0.00     0.007 C 
ATOM      9  C   UNL d   1       1.934  -1.844  -5.697  0.00  0.00     0.009 C 
ENDBRANCH   7   8
ENDBRANCH   1   7
TORSDOF 2
ENDMDL
