MODEL 1
REMARK minimizedAffinity 8.32113934
REMARK minimizedRMSD -1
REMARK  2 active torsions:
REMARK  status: ('A' for Active; 'I' for Inactive)
REMARK    1  A    between atoms: C1_2  and  C2_3 
REMARK    2  A    between atoms: C2_3  and  C3_4 
ROOT
ATOM      1  C3  UNL d   1      -1.172   2.238  -0.337  0.00  0.00    -0.075 A 
ATOM      2  C4  UNL d   1      -1.575   3.174  -1.301  0.00  0.00     0.002 A 
ATOM      3  C5  UNL d   1      -0.670   4.110  -1.801  0.00  0.00     0.002 A 
ATOM      4  C6  UNL d   1       0.643   4.131  -1.338  0.00  0.00    -0.004 A 
ATOM      5  C7  UNL d   1       1.050   3.217  -0.368  0.00  0.00     0.002 A 
ATOM      6  C8  UNL d   1       0.148   2.276   0.131  0.00  0.00     0.002 A 
ENDROOT
BRANCH   1   7
ATOM      7  C2  UNL d   1      -2.139   1.203   0.187  0.00  0.00     0.056 C 
BRANCH   7   8
ATOM      8  C1  UNL d   1      -2.697   0.269  -0.892  0.00  0.00     0.007 C 
ATOM      9  C   UNL d   1      -3.777  -0.670  -0.372  0.00  0.00     0.009 C 
ENDBRANCH   7   8
ENDBRANCH   1   7
TORSDOF 2
ENDMDL
