MODEL 1
REMARK minimizedAffinity 14.9544754
REMARK minimizedRMSD -1
REMARK  2 active torsions:
REMARK  status: ('A' for Active; 'I' for Inactive)
REMARK    1  A    between atoms: C1_2  and  C2_3 
REMARK    2  A    between atoms: C2_3  and  C3_4 
ROOT
ATOM      1  C3  UNL d   1      -0.342   4.181  -1.963  0.00  0.00    -0.075 A 
ATOM      2  C4  UNL d   1      -0.097   3.137  -1.060  0.00  0.00     0.002 A 
ATOM      3  C5  UNL d   1       0.364   3.408   0.229  0.00  0.00     0.002 A 
ATOM      4  C6  UNL d   1       0.595   4.723   0.627  0.00  0.00    -0.004 A 
ATOM      5  C7  UNL d   1       0.371   5.768  -0.268  0.00  0.00     0.002 A 
ATOM      6  C8  UNL d   1      -0.094   5.499  -1.556  0.00  0.00     0.002 A 
ENDROOT
BRANCH   1   7
ATOM      7  C2  UNL d   1      -0.869   3.896  -3.349  0.00  0.00     0.056 C 
BRANCH   7   8
ATOM      8  C1  UNL d   1      -2.377   3.625  -3.399  0.00  0.00     0.007 C 
ATOM      9  C   UNL d   1      -3.219   4.869  -3.147  0.00  0.00     0.009 C 
ENDBRANCH   7   8
ENDBRANCH   1   7
TORSDOF 2
ENDMDL
