MODEL 1
REMARK minimizedAffinity 7.68118191
REMARK minimizedRMSD -1
REMARK  0 active torsions:
REMARK  status: ('A' for Active; 'I' for Inactive)
ROOT
ATOM      1  C   UNL d   1       1.906   1.952  -0.212  0.00  0.00     0.077 C 
ATOM      2  C1  UNL d   1       2.475   0.582   0.009  0.00  0.00    -0.074 A 
ATOM      3  C2  UNL d   1       1.808  -0.354   0.806  0.00  0.00    -0.005 A 
ATOM      4  C3  UNL d   1       2.345  -1.627   0.994  0.00  0.00     0.006 A 
ATOM      5  C4  UNL d   1       3.552  -1.978   0.389  0.00  0.00    -0.005 A 
ATOM      6  C5  UNL d   1       4.233  -1.056  -0.413  0.00  0.00    -0.074 A 
ATOM      7  C6  UNL d   1       5.527  -1.419  -1.079  0.00  0.00     0.077 C 
ATOM      8  C7  UNL d   1       3.684   0.220  -0.603  0.00  0.00    -0.001 A 
ENDROOT
TORSDOF 0
ENDMDL
