MODEL 1
REMARK minimizedAffinity 8.5976181
REMARK minimizedRMSD -1
REMARK  0 active torsions:
REMARK  status: ('A' for Active; 'I' for Inactive)
ROOT
ATOM      1  C   UNL d   1       0.091  -3.003   2.560  0.00  0.00     0.077 C 
ATOM      2  C1  UNL d   1      -0.412  -2.263   3.763  0.00  0.00    -0.074 A 
ATOM      3  C2  UNL d   1       0.342  -1.237   4.343  0.00  0.00    -0.005 A 
ATOM      4  C3  UNL d   1      -0.144  -0.550   5.456  0.00  0.00     0.006 A 
ATOM      5  C4  UNL d   1      -1.385  -0.882   6.000  0.00  0.00    -0.005 A 
ATOM      6  C5  UNL d   1      -2.153  -1.904   5.433  0.00  0.00    -0.074 A 
ATOM      7  C6  UNL d   1      -3.494  -2.267   6.000  0.00  0.00     0.077 C 
ATOM      8  C7  UNL d   1      -1.662  -2.585   4.311  0.00  0.00    -0.001 A 
ENDROOT
TORSDOF 0
ENDMDL
