MODEL 1
REMARK minimizedAffinity 9.6234951
REMARK minimizedRMSD -1
REMARK  0 active torsions:
REMARK  status: ('A' for Active; 'I' for Inactive)
ROOT
ATOM      1  C   UNL d   1       4.696  -1.663  -4.871  0.00  0.00     0.077 C 
ATOM      2  C1  UNL d   1       4.748  -3.108  -5.271  0.00  0.00    -0.074 A 
ATOM      3  C2  UNL d   1       5.965  -3.725  -5.577  0.00  0.00    -0.005 A 
ATOM      4  C3  UNL d   1       6.000  -5.071  -5.939  0.00  0.00     0.006 A 
ATOM      5  C4  UNL d   1       4.820  -5.814  -5.997  0.00  0.00    -0.005 A 
ATOM      6  C5  UNL d   1       3.593  -5.214  -5.693  0.00  0.00    -0.074 A 
ATOM      7  C6  UNL d   1       2.317  -6.000  -5.742  0.00  0.00     0.077 C 
ATOM      8  C7  UNL d   1       3.568  -3.862  -5.324  0.00  0.00    -0.001 A 
ENDROOT
TORSDOF 0
ENDMDL
