MODEL 1
REMARK minimizedAffinity 5.16219425
REMARK minimizedRMSD -1
REMARK  0 active torsions:
REMARK  status: ('A' for Active; 'I' for Inactive)
ROOT
ATOM      1  C   UNL d   1       0.021  -3.005   1.751  0.00  0.00     0.077 C 
ATOM      2  C1  UNL d   1      -0.199  -2.056   2.891  0.00  0.00    -0.074 A 
ATOM      3  C2  UNL d   1       0.516  -0.857   2.976  0.00  0.00    -0.005 A 
ATOM      4  C3  UNL d   1       0.293   0.021   4.037  0.00  0.00     0.006 A 
ATOM      5  C4  UNL d   1      -0.645  -0.291   5.022  0.00  0.00    -0.005 A 
ATOM      6  C5  UNL d   1      -1.370  -1.485   4.953  0.00  0.00    -0.074 A 
ATOM      7  C6  UNL d   1      -2.388  -1.830   5.998  0.00  0.00     0.077 C 
ATOM      8  C7  UNL d   1      -1.146  -2.358   3.880  0.00  0.00    -0.001 A 
ENDROOT
TORSDOF 0
ENDMDL
