MODEL 1
REMARK minimizedAffinity 1.56419504
REMARK minimizedRMSD -1
REMARK  0 active torsions:
REMARK  status: ('A' for Active; 'I' for Inactive)
ROOT
ATOM      1  C   UNL d   1      -1.195  -0.444   6.000  0.00  0.00     0.077 C 
ATOM      2  C1  UNL d   1      -0.737  -0.998   4.683  0.00  0.00    -0.074 A 
ATOM      3  C2  UNL d   1       0.241  -0.342   3.928  0.00  0.00    -0.005 A 
ATOM      4  C3  UNL d   1       0.664  -0.874   2.711  0.00  0.00     0.006 A 
ATOM      5  C4  UNL d   1       0.115  -2.066   2.236  0.00  0.00    -0.005 A 
ATOM      6  C5  UNL d   1      -0.863  -2.737   2.978  0.00  0.00    -0.074 A 
ATOM      7  C6  UNL d   1      -1.457  -4.024   2.487  0.00  0.00     0.077 C 
ATOM      8  C7  UNL d   1      -1.278  -2.199   4.204  0.00  0.00    -0.001 A 
ENDROOT
TORSDOF 0
ENDMDL
