MODEL 1
REMARK minimizedAffinity 11.8983927
REMARK minimizedRMSD -1
REMARK  0 active torsions:
REMARK  status: ('A' for Active; 'I' for Inactive)
ROOT
ATOM      1  C   UNL d   1       3.398   0.385   2.336  0.00  0.00     0.077 C 
ATOM      2  C1  UNL d   1       2.278  -0.544   2.699  0.00  0.00    -0.074 A 
ATOM      3  C2  UNL d   1       2.098  -1.754   2.020  0.00  0.00    -0.005 A 
ATOM      4  C3  UNL d   1       1.058  -2.612   2.376  0.00  0.00     0.006 A 
ATOM      5  C4  UNL d   1       0.188  -2.270   3.412  0.00  0.00    -0.005 A 
ATOM      6  C5  UNL d   1       0.352  -1.066   4.103  0.00  0.00    -0.074 A 
ATOM      7  C6  UNL d   1      -0.568  -0.688   5.225  0.00  0.00     0.077 C 
ATOM      8  C7  UNL d   1       1.405  -0.212   3.745  0.00  0.00    -0.001 A 
ENDROOT
TORSDOF 0
ENDMDL
