MODEL 1
REMARK minimizedAffinity 8.82915878
REMARK minimizedRMSD -1
REMARK  0 active torsions:
REMARK  status: ('A' for Active; 'I' for Inactive)
ROOT
ATOM      1  C   UNL d   1      -2.356  -3.347   2.292  0.00  0.00     0.077 C 
ATOM      2  C1  UNL d   1      -1.207  -2.435   2.602  0.00  0.00    -0.074 A 
ATOM      3  C2  UNL d   1      -0.289  -2.072   1.611  0.00  0.00    -0.005 A 
ATOM      4  C3  UNL d   1       0.770  -1.216   1.913  0.00  0.00     0.006 A 
ATOM      5  C4  UNL d   1       0.921  -0.714   3.206  0.00  0.00    -0.005 A 
ATOM      6  C5  UNL d   1       0.013  -1.065   4.210  0.00  0.00    -0.074 A 
ATOM      7  C6  UNL d   1       0.156  -0.528   5.603  0.00  0.00     0.077 C 
ATOM      8  C7  UNL d   1      -1.052  -1.921   3.897  0.00  0.00    -0.001 A 
ENDROOT
TORSDOF 0
ENDMDL
