MODEL 1
REMARK minimizedAffinity 7.30975246
REMARK minimizedRMSD -1
REMARK  0 active torsions:
REMARK  status: ('A' for Active; 'I' for Inactive)
ROOT
ATOM      1  C   UNL d   1       3.818  -0.758   0.271  0.00  0.00     0.077 C 
ATOM      2  C1  UNL d   1       2.736  -1.538   0.957  0.00  0.00    -0.074 A 
ATOM      3  C2  UNL d   1       2.579  -2.908   0.724  0.00  0.00    -0.005 A 
ATOM      4  C3  UNL d   1       1.574  -3.623   1.376  0.00  0.00     0.006 A 
ATOM      5  C4  UNL d   1       0.717  -2.975   2.267  0.00  0.00    -0.005 A 
ATOM      6  C5  UNL d   1       0.859  -1.606   2.514  0.00  0.00    -0.074 A 
ATOM      7  C6  UNL d   1      -0.047  -0.897   3.476  0.00  0.00     0.077 C 
ATOM      8  C7  UNL d   1       1.876  -0.897   1.860  0.00  0.00    -0.001 A 
ENDROOT
TORSDOF 0
ENDMDL
