MODEL 1
REMARK minimizedAffinity 11.1921158
REMARK minimizedRMSD -1
REMARK  0 active torsions:
REMARK  status: ('A' for Active; 'I' for Inactive)
ROOT
ATOM      1  C   UNL d   1       1.998  -1.421   1.450  0.00  0.00     0.077 C 
ATOM      2  C1  UNL d   1       0.659  -1.458   2.124  0.00  0.00    -0.074 A 
ATOM      3  C2  UNL d   1       0.359  -0.585   3.175  0.00  0.00    -0.005 A 
ATOM      4  C3  UNL d   1      -0.894  -0.625   3.786  0.00  0.00     0.006 A 
ATOM      5  C4  UNL d   1      -1.859  -1.535   3.353  0.00  0.00    -0.005 A 
ATOM      6  C5  UNL d   1      -1.578  -2.414   2.302  0.00  0.00    -0.074 A 
ATOM      7  C6  UNL d   1      -2.607  -3.392   1.818  0.00  0.00     0.077 C 
ATOM      8  C7  UNL d   1      -0.318  -2.364   1.689  0.00  0.00    -0.001 A 
ENDROOT
TORSDOF 0
ENDMDL
