MODEL 1
REMARK minimizedAffinity 8.82296181
REMARK minimizedRMSD -1
REMARK  0 active torsions:
REMARK  status: ('A' for Active; 'I' for Inactive)
ROOT
ATOM      1  C   UNL d   1      -1.276   2.805  -2.982  0.00  0.00     0.077 C 
ATOM      2  C1  UNL d   1      -2.622   3.004  -2.352  0.00  0.00    -0.074 A 
ATOM      3  C2  UNL d   1      -2.878   4.111  -1.536  0.00  0.00    -0.005 A 
ATOM      4  C3  UNL d   1      -4.138   4.287  -0.964  0.00  0.00     0.006 A 
ATOM      5  C4  UNL d   1      -5.153   3.360  -1.202  0.00  0.00    -0.005 A 
ATOM      6  C5  UNL d   1      -4.917   2.248  -2.015  0.00  0.00    -0.074 A 
ATOM      7  C6  UNL d   1      -6.000   1.247  -2.289  0.00  0.00     0.077 C 
ATOM      8  C7  UNL d   1      -3.650   2.081  -2.592  0.00  0.00    -0.001 A 
ENDROOT
TORSDOF 0
ENDMDL
