MODEL 1
REMARK minimizedAffinity 4.87174273
REMARK minimizedRMSD -1
REMARK  0 active torsions:
REMARK  status: ('A' for Active; 'I' for Inactive)
ROOT
ATOM      1  C   UNL d   1       1.055   5.887  -0.122  0.00  0.00     0.077 C 
ATOM      2  C1  UNL d   1       0.671   4.587  -0.764  0.00  0.00    -0.074 A 
ATOM      3  C2  UNL d   1       0.967   3.366  -0.149  0.00  0.00    -0.005 A 
ATOM      4  C3  UNL d   1       0.595   2.166  -0.753  0.00  0.00     0.006 A 
ATOM      5  C4  UNL d   1      -0.077   2.173  -1.976  0.00  0.00    -0.005 A 
ATOM      6  C5  UNL d   1      -0.383   3.384  -2.605  0.00  0.00    -0.074 A 
ATOM      7  C6  UNL d   1      -1.113   3.410  -3.915  0.00  0.00     0.077 C 
ATOM      8  C7  UNL d   1      -0.012   4.587  -1.988  0.00  0.00    -0.001 A 
ENDROOT
TORSDOF 0
ENDMDL
