MODEL 1
REMARK minimizedAffinity 8.54187775
REMARK minimizedRMSD -1
REMARK  0 active torsions:
REMARK  status: ('A' for Active; 'I' for Inactive)
ROOT
ATOM      1  C   UNL d   1      -1.841   4.490  -3.491  0.00  0.00     0.077 C 
ATOM      2  C1  UNL d   1      -0.861   3.974  -2.480  0.00  0.00    -0.074 A 
ATOM      3  C2  UNL d   1       0.278   4.712  -2.140  0.00  0.00    -0.005 A 
ATOM      4  C3  UNL d   1       1.175   4.223  -1.191  0.00  0.00     0.006 A 
ATOM      5  C4  UNL d   1       0.944   2.993  -0.573  0.00  0.00    -0.005 A 
ATOM      6  C5  UNL d   1      -0.189   2.241  -0.900  0.00  0.00    -0.074 A 
ATOM      7  C6  UNL d   1      -0.457   0.922  -0.239  0.00  0.00     0.077 C 
ATOM      8  C7  UNL d   1      -1.090   2.743  -1.850  0.00  0.00    -0.001 A 
ENDROOT
TORSDOF 0
ENDMDL
