MODEL 1
REMARK minimizedAffinity 13.050643
REMARK minimizedRMSD -1
REMARK  0 active torsions:
REMARK  status: ('A' for Active; 'I' for Inactive)
ROOT
ATOM      1  C   UNL d   1       0.463   2.884  -1.162  0.00  0.00     0.077 C 
ATOM      2  C1  UNL d   1      -0.804   2.842  -1.962  0.00  0.00    -0.074 A 
ATOM      3  C2  UNL d   1      -1.929   2.156  -1.492  0.00  0.00    -0.005 A 
ATOM      4  C3  UNL d   1      -3.104   2.133  -2.243  0.00  0.00     0.006 A 
ATOM      5  C4  UNL d   1      -3.166   2.794  -3.470  0.00  0.00    -0.005 A 
ATOM      6  C5  UNL d   1      -2.052   3.486  -3.956  0.00  0.00    -0.074 A 
ATOM      7  C6  UNL d   1      -2.106   4.210  -5.269  0.00  0.00     0.077 C 
ATOM      8  C7  UNL d   1      -0.877   3.510  -3.192  0.00  0.00    -0.001 A 
ENDROOT
TORSDOF 0
ENDMDL
