MODEL 1
REMARK minimizedAffinity 3.54037142
REMARK minimizedRMSD -1
REMARK  0 active torsions:
REMARK  status: ('A' for Active; 'I' for Inactive)
ROOT
ATOM      1  C   UNL d   1       0.903   5.869  -0.124  0.00  0.00     0.077 C 
ATOM      2  C1  UNL d   1       0.449   4.635  -0.845  0.00  0.00    -0.074 A 
ATOM      3  C2  UNL d   1       0.793   3.362  -0.379  0.00  0.00    -0.005 A 
ATOM      4  C3  UNL d   1       0.355   2.223  -1.055  0.00  0.00     0.006 A 
ATOM      5  C4  UNL d   1      -0.430   2.345  -2.202  0.00  0.00    -0.005 A 
ATOM      6  C5  UNL d   1      -0.785   3.610  -2.682  0.00  0.00    -0.074 A 
ATOM      7  C6  UNL d   1      -1.637   3.758  -3.908  0.00  0.00     0.077 C 
ATOM      8  C7  UNL d   1      -0.347   4.749  -1.994  0.00  0.00    -0.001 A 
ENDROOT
TORSDOF 0
ENDMDL
