MODEL 1
REMARK minimizedAffinity 10.9135704
REMARK minimizedRMSD -1
REMARK  0 active torsions:
REMARK  status: ('A' for Active; 'I' for Inactive)
ROOT
ATOM      1  C   UNL d   1      -4.446  -5.485  -0.576  0.00  0.00     0.077 C 
ATOM      2  C1  UNL d   1      -4.353  -4.543   0.588  0.00  0.00    -0.074 A 
ATOM      3  C2  UNL d   1      -5.479  -3.853   1.046  0.00  0.00    -0.005 A 
ATOM      4  C3  UNL d   1      -5.379  -2.988   2.136  0.00  0.00     0.006 A 
ATOM      5  C4  UNL d   1      -4.154  -2.804   2.777  0.00  0.00    -0.005 A 
ATOM      6  C5  UNL d   1      -3.016  -3.486   2.333  0.00  0.00    -0.074 A 
ATOM      7  C6  UNL d   1      -1.693  -3.308   3.017  0.00  0.00     0.077 C 
ATOM      8  C7  UNL d   1      -3.126  -4.359   1.242  0.00  0.00    -0.001 A 
ENDROOT
TORSDOF 0
ENDMDL
