MODEL 1
REMARK minimizedAffinity 12.4238892
REMARK minimizedRMSD -1
REMARK  0 active torsions:
REMARK  status: ('A' for Active; 'I' for Inactive)
ROOT
ATOM      1  C   UNL d   1      -2.547  -3.267   1.981  0.00  0.00     0.077 C 
ATOM      2  C1  UNL d   1      -1.560  -2.338   2.623  0.00  0.00    -0.074 A 
ATOM      3  C2  UNL d   1      -0.363  -2.004   1.980  0.00  0.00    -0.005 A 
ATOM      4  C3  UNL d   1       0.541  -1.131   2.585  0.00  0.00     0.006 A 
ATOM      5  C4  UNL d   1       0.258  -0.584   3.837  0.00  0.00    -0.005 A 
ATOM      6  C5  UNL d   1      -0.933  -0.905   4.495  0.00  0.00    -0.074 A 
ATOM      7  C6  UNL d   1      -1.257  -0.317   5.836  0.00  0.00     0.077 C 
ATOM      8  C7  UNL d   1      -1.840  -1.777   3.877  0.00  0.00    -0.001 A 
ENDROOT
TORSDOF 0
ENDMDL
