MODEL 1
REMARK minimizedAffinity 3.36402822
REMARK minimizedRMSD -1
REMARK  0 active torsions:
REMARK  status: ('A' for Active; 'I' for Inactive)
ROOT
ATOM      1  C   UNL d   1      -1.965  -3.861   3.139  0.00  0.00     0.077 C 
ATOM      2  C1  UNL d   1      -1.112  -2.648   3.363  0.00  0.00    -0.074 A 
ATOM      3  C2  UNL d   1      -1.351  -1.791   4.442  0.00  0.00    -0.005 A 
ATOM      4  C3  UNL d   1      -0.544  -0.671   4.643  0.00  0.00     0.006 A 
ATOM      5  C4  UNL d   1       0.509  -0.398   3.769  0.00  0.00    -0.005 A 
ATOM      6  C5  UNL d   1       0.763  -1.244   2.685  0.00  0.00    -0.074 A 
ATOM      7  C6  UNL d   1       1.897  -0.971   1.741  0.00  0.00     0.077 C 
ATOM      8  C7  UNL d   1      -0.048  -2.371   2.494  0.00  0.00    -0.001 A 
ENDROOT
TORSDOF 0
ENDMDL
