MODEL 1
REMARK minimizedAffinity 16.6101723
REMARK minimizedRMSD -1
REMARK  0 active torsions:
REMARK  status: ('A' for Active; 'I' for Inactive)
ROOT
ATOM      1  C   UNL d   1      -0.200  -4.140  -2.913  0.00  0.00     0.077 C 
ATOM      2  C1  UNL d   1       0.791  -4.481  -3.986  0.00  0.00    -0.074 A 
ATOM      3  C2  UNL d   1       0.701  -5.686  -4.690  0.00  0.00    -0.005 A 
ATOM      4  C3  UNL d   1       1.625  -5.985  -5.692  0.00  0.00     0.006 A 
ATOM      5  C4  UNL d   1       2.645  -5.085  -5.999  0.00  0.00    -0.005 A 
ATOM      6  C5  UNL d   1       2.750  -3.874  -5.306  0.00  0.00    -0.074 A 
ATOM      7  C6  UNL d   1       3.835  -2.891  -5.630  0.00  0.00     0.077 C 
ATOM      8  C7  UNL d   1       1.815  -3.578  -4.306  0.00  0.00    -0.001 A 
ENDROOT
TORSDOF 0
ENDMDL
