MODEL 1
REMARK minimizedAffinity 20.5721207
REMARK minimizedRMSD -1
REMARK  0 active torsions:
REMARK  status: ('A' for Active; 'I' for Inactive)
ROOT
ATOM      1  C   UNL d   1      -0.016  -2.017   1.280  0.00  0.00     0.077 C 
ATOM      2  C1  UNL d   1       0.871  -0.823   1.088  0.00  0.00    -0.074 A 
ATOM      3  C2  UNL d   1       2.229  -0.876   1.421  0.00  0.00    -0.005 A 
ATOM      4  C3  UNL d   1       3.044   0.239   1.229  0.00  0.00     0.006 A 
ATOM      5  C4  UNL d   1       2.511   1.416   0.702  0.00  0.00    -0.005 A 
ATOM      6  C5  UNL d   1       1.156   1.488   0.363  0.00  0.00    -0.074 A 
ATOM      7  C6  UNL d   1       0.570   2.742  -0.213  0.00  0.00     0.077 C 
ATOM      8  C7  UNL d   1       0.345   0.360   0.553  0.00  0.00    -0.001 A 
ENDROOT
TORSDOF 0
ENDMDL
