MODEL 1
REMARK minimizedAffinity 9.76702309
REMARK minimizedRMSD -1
REMARK  0 active torsions:
REMARK  status: ('A' for Active; 'I' for Inactive)
ROOT
ATOM      1  C   UNL d   1      -2.509  -1.070   0.392  0.00  0.00     0.172 C 
ATOM      2  N   UNL d   1      -1.459  -0.443   1.159  0.00  0.00    -0.070 N 
ATOM      3  C1  UNL d   1      -0.325  -1.062   1.615  0.00  0.00    -0.004 A 
ATOM      4  C2  UNL d   1       0.420  -0.126   2.300  0.00  0.00    -0.047 A 
ATOM      5  C3  UNL d   1      -0.291   1.097   2.254  0.00  0.00    -0.047 A 
ATOM      6  C4  UNL d   1      -1.450   0.872   1.542  0.00  0.00    -0.004 A 
ENDROOT
TORSDOF 0
ENDMDL
