MODEL 1
REMARK minimizedAffinity 7.00814915
REMARK minimizedRMSD -1
REMARK  0 active torsions:
REMARK  status: ('A' for Active; 'I' for Inactive)
ROOT
ATOM      1  C   UNL d   1      -5.963   5.055  -1.877  0.00  0.00     0.172 C 
ATOM      2  N   UNL d   1      -5.962   3.675  -1.454  0.00  0.00    -0.070 N 
ATOM      3  C1  UNL d   1      -5.933   2.585  -2.282  0.00  0.00    -0.004 A 
ATOM      4  C2  UNL d   1      -5.941   1.455  -1.494  0.00  0.00    -0.047 A 
ATOM      5  C3  UNL d   1      -5.978   1.880  -0.145  0.00  0.00    -0.047 A 
ATOM      6  C4  UNL d   1      -5.990   3.259  -0.149  0.00  0.00    -0.004 A 
ENDROOT
TORSDOF 0
ENDMDL
