MODEL 1
REMARK minimizedAffinity 10.145277
REMARK minimizedRMSD -1
REMARK  0 active torsions:
REMARK  status: ('A' for Active; 'I' for Inactive)
ROOT
ATOM      1  C   UNL d   1       5.696   3.333  -5.977  0.00  0.00     0.172 C 
ATOM      2  N   UNL d   1       5.245   1.982  -5.740  0.00  0.00    -0.070 N 
ATOM      3  C1  UNL d   1       4.009   1.623  -5.270  0.00  0.00    -0.004 A 
ATOM      4  C2  UNL d   1       3.973   0.248  -5.184  0.00  0.00    -0.047 A 
ATOM      5  C3  UNL d   1       5.231  -0.236  -5.615  0.00  0.00    -0.047 A 
ATOM      6  C4  UNL d   1       5.999   0.858  -5.953  0.00  0.00    -0.004 A 
ENDROOT
TORSDOF 0
ENDMDL
