MODEL 1
REMARK minimizedAffinity 2.22846341
REMARK minimizedRMSD -1
REMARK  0 active torsions:
REMARK  status: ('A' for Active; 'I' for Inactive)
ROOT
ATOM      1  C   UNL d   1       5.756   2.729   3.676  0.00  0.00     0.172 C 
ATOM      2  N   UNL d   1       5.095   3.701   2.838  0.00  0.00    -0.070 N 
ATOM      3  C1  UNL d   1       5.263   5.058   2.904  0.00  0.00    -0.004 A 
ATOM      4  C2  UNL d   1       4.460   5.630   1.941  0.00  0.00    -0.047 A 
ATOM      5  C3  UNL d   1       3.785   4.580   1.274  0.00  0.00    -0.047 A 
ATOM      6  C4  UNL d   1       4.196   3.397   1.850  0.00  0.00    -0.004 A 
ENDROOT
TORSDOF 0
ENDMDL
