MODEL 1
REMARK minimizedAffinity 3.89489937
REMARK minimizedRMSD -1
REMARK  0 active torsions:
REMARK  status: ('A' for Active; 'I' for Inactive)
ROOT
ATOM      1  C   UNL d   1      -1.528   1.707   2.114  0.00  0.00     0.172 C 
ATOM      2  N   UNL d   1      -0.548   0.737   2.541  0.00  0.00    -0.070 N 
ATOM      3  C1  UNL d   1      -0.500  -0.575   2.150  0.00  0.00    -0.004 A 
ATOM      4  C2  UNL d   1       0.578  -1.163   2.776  0.00  0.00    -0.047 A 
ATOM      5  C3  UNL d   1       1.199  -0.170   3.572  0.00  0.00    -0.047 A 
ATOM      6  C4  UNL d   1       0.481   0.996   3.408  0.00  0.00    -0.004 A 
ENDROOT
TORSDOF 0
ENDMDL
