MODEL 1
REMARK minimizedAffinity 1.50624502
REMARK minimizedRMSD -1
REMARK  0 active torsions:
REMARK  status: ('A' for Active; 'I' for Inactive)
ROOT
ATOM      1  C   UNL d   1       4.254   5.782   3.096  0.00  0.00     0.172 C 
ATOM      2  N   UNL d   1       4.278   4.350   3.283  0.00  0.00    -0.070 N 
ATOM      3  C1  UNL d   1       4.035   3.414   2.313  0.00  0.00    -0.004 A 
ATOM      4  C2  UNL d   1       4.155   2.168   2.890  0.00  0.00    -0.047 A 
ATOM      5  C3  UNL d   1       4.480   2.362   4.254  0.00  0.00    -0.047 A 
ATOM      6  C4  UNL d   1       4.550   3.722   4.470  0.00  0.00    -0.004 A 
ENDROOT
TORSDOF 0
ENDMDL
