MODEL 1
REMARK minimizedAffinity 8.78678799
REMARK minimizedRMSD -1
REMARK  0 active torsions:
REMARK  status: ('A' for Active; 'I' for Inactive)
ROOT
ATOM      1  C   UNL d   1       5.916   4.232  -5.925  0.00  0.00     0.172 C 
ATOM      2  N   UNL d   1       5.931   2.920  -5.322  0.00  0.00    -0.070 N 
ATOM      3  C1  UNL d   1       5.890   1.730  -5.998  0.00  0.00    -0.004 A 
ATOM      4  C2  UNL d   1       5.923   0.714  -5.068  0.00  0.00    -0.047 A 
ATOM      5  C3  UNL d   1       5.984   1.314  -3.788  0.00  0.00    -0.047 A 
ATOM      6  C4  UNL d   1       5.988   2.680  -3.974  0.00  0.00    -0.004 A 
ENDROOT
TORSDOF 0
ENDMDL
