MODEL 1
REMARK minimizedAffinity 6.1391654
REMARK minimizedRMSD -1
REMARK  0 active torsions:
REMARK  status: ('A' for Active; 'I' for Inactive)
ROOT
ATOM      1  C   UNL d   1       1.259  -2.290   4.360  0.00  0.00     0.172 C 
ATOM      2  N   UNL d   1       0.808  -1.131   3.626  0.00  0.00    -0.070 N 
ATOM      3  C1  UNL d   1       0.045  -1.154   2.489  0.00  0.00    -0.004 A 
ATOM      4  C2  UNL d   1      -0.170   0.151   2.100  0.00  0.00    -0.047 A 
ATOM      5  C3  UNL d   1       0.487   0.986   3.035  0.00  0.00    -0.047 A 
ATOM      6  C4  UNL d   1       1.084   0.166   3.969  0.00  0.00    -0.004 A 
ENDROOT
TORSDOF 0
ENDMDL
