MODEL 1
REMARK minimizedAffinity 4.31722355
REMARK minimizedRMSD -1
REMARK  0 active torsions:
REMARK  status: ('A' for Active; 'I' for Inactive)
ROOT
ATOM      1  C   UNL d   1       0.628  -1.910   3.922  0.00  0.00     0.172 C 
ATOM      2  N   UNL d   1      -0.084  -0.763   3.410  0.00  0.00    -0.070 N 
ATOM      3  C1  UNL d   1       0.364   0.531   3.435  0.00  0.00    -0.004 A 
ATOM      4  C2  UNL d   1      -0.601   1.323   2.852  0.00  0.00    -0.047 A 
ATOM      5  C3  UNL d   1      -1.666   0.477   2.464  0.00  0.00    -0.047 A 
ATOM      6  C4  UNL d   1      -1.320  -0.809   2.821  0.00  0.00    -0.004 A 
ENDROOT
TORSDOF 0
ENDMDL
