MODEL 1
REMARK minimizedAffinity 17.3298206
REMARK minimizedRMSD -1
REMARK  0 active torsions:
REMARK  status: ('A' for Active; 'I' for Inactive)
ROOT
ATOM      1  C   UNL d   1       1.575   0.815   2.579  0.00  0.00     0.124 A 
ATOM      2  C1  UNL d   1       0.251   1.189   2.764  0.00  0.00     0.062 A 
ATOM      3  C2  UNL d   1      -0.761   0.560   2.045  0.00  0.00     0.162 A 
ATOM      4  C3  UNL d   1      -0.453  -0.452   1.135  0.00  0.00    -0.034 A 
ATOM      5  C4  UNL d   1       0.881  -0.822   0.954  0.00  0.00     0.162 A 
ATOM      6  C5  UNL d   1       1.888  -0.189   1.675  0.00  0.00     0.062 A 
ATOM      7  F   UNL d   1       3.167  -0.552   1.495  0.00  0.00    -0.097 F 
ATOM      8  F1  UNL d   1       1.212  -1.790   0.087  0.00  0.00    -0.096 F 
ATOM      9  I   UNL d   1      -1.964  -1.395   0.058  0.00  0.00    -0.060 I 
ATOM     10  F2  UNL d   1      -2.032   0.941   2.244  0.00  0.00    -0.096 F 
ATOM     11  F3  UNL d   1      -0.055   2.161   3.637  0.00  0.00    -0.097 F 
ATOM     12  F4  UNL d   1       2.547   1.424   3.272  0.00  0.00    -0.092 F 
ENDROOT
TORSDOF 0
ENDMDL
