MODEL 1
REMARK minimizedAffinity 12.6677933
REMARK minimizedRMSD -1
REMARK  0 active torsions:
REMARK  status: ('A' for Active; 'I' for Inactive)
ROOT
ATOM      1  C   UNL d   1       2.446   0.600  -0.294  0.00  0.00     0.124 A 
ATOM      2  C1  UNL d   1       1.721   1.784  -0.279  0.00  0.00     0.062 A 
ATOM      3  C2  UNL d   1       0.829   2.045   0.758  0.00  0.00     0.162 A 
ATOM      4  C3  UNL d   1       0.658   1.120   1.788  0.00  0.00    -0.034 A 
ATOM      5  C4  UNL d   1       1.391  -0.068   1.765  0.00  0.00     0.162 A 
ATOM      6  C5  UNL d   1       2.281  -0.324   0.727  0.00  0.00     0.062 A 
ATOM      7  F   UNL d   1       2.981  -1.468   0.714  0.00  0.00    -0.097 F 
ATOM      8  F1  UNL d   1       1.251  -0.978   2.741  0.00  0.00    -0.096 F 
ATOM      9  I   UNL d   1      -0.674   1.507   3.340  0.00  0.00    -0.060 I 
ATOM     10  F2  UNL d   1       0.142   3.196   0.747  0.00  0.00    -0.096 F 
ATOM     11  F3  UNL d   1       1.879   2.678  -1.265  0.00  0.00    -0.097 F 
ATOM     12  F4  UNL d   1       3.303   0.351  -1.293  0.00  0.00    -0.092 F 
ENDROOT
TORSDOF 0
ENDMDL
