MODEL 1
REMARK minimizedAffinity 19.2021847
REMARK minimizedRMSD -1
REMARK  0 active torsions:
REMARK  status: ('A' for Active; 'I' for Inactive)
ROOT
ATOM      1  C   UNL d   1       2.832   0.065  -0.386  0.00  0.00     0.124 A 
ATOM      2  C1  UNL d   1       1.917   1.071  -0.666  0.00  0.00     0.062 A 
ATOM      3  C2  UNL d   1       0.835   1.289   0.182  0.00  0.00     0.162 A 
ATOM      4  C3  UNL d   1       0.661   0.499   1.319  0.00  0.00    -0.034 A 
ATOM      5  C4  UNL d   1       1.585  -0.512   1.593  0.00  0.00     0.162 A 
ATOM      6  C5  UNL d   1       2.665  -0.725   0.742  0.00  0.00     0.062 A 
ATOM      7  F   UNL d   1       3.547  -1.698   1.014  0.00  0.00    -0.097 F 
ATOM      8  F1  UNL d   1       1.448  -1.290   2.677  0.00  0.00    -0.096 F 
ATOM      9  I   UNL d   1      -0.956   0.821   2.589  0.00  0.00    -0.060 I 
ATOM     10  F2  UNL d   1      -0.033   2.268  -0.113  0.00  0.00    -0.096 F 
ATOM     11  F3  UNL d   1       2.076   1.835  -1.756  0.00  0.00    -0.097 F 
ATOM     12  F4  UNL d   1       3.872  -0.143  -1.204  0.00  0.00    -0.092 F 
ENDROOT
TORSDOF 0
ENDMDL
