MODEL 1
REMARK minimizedAffinity 21.0534153
REMARK minimizedRMSD -1
REMARK  0 active torsions:
REMARK  status: ('A' for Active; 'I' for Inactive)
ROOT
ATOM      1  C   UNL d   1       2.695  -0.786   5.151  0.00  0.00     0.124 A 
ATOM      2  C1  UNL d   1       1.975  -1.956   4.952  0.00  0.00     0.062 A 
ATOM      3  C2  UNL d   1       0.897  -1.973   4.071  0.00  0.00     0.162 A 
ATOM      4  C3  UNL d   1       0.533  -0.816   3.382  0.00  0.00    -0.034 A 
ATOM      5  C4  UNL d   1       1.262   0.357   3.588  0.00  0.00     0.162 A 
ATOM      6  C5  UNL d   1       2.339   0.369   4.469  0.00  0.00     0.062 A 
ATOM      7  F   UNL d   1       3.033   1.499   4.661  0.00  0.00    -0.097 F 
ATOM      8  F1  UNL d   1       0.940   1.487   2.942  0.00  0.00    -0.096 F 
ATOM      9  I   UNL d   1      -1.077  -0.837   2.064  0.00  0.00    -0.060 I 
ATOM     10  F2  UNL d   1       0.219  -3.117   3.898  0.00  0.00    -0.096 F 
ATOM     11  F3  UNL d   1       2.317  -3.073   5.610  0.00  0.00    -0.097 F 
ATOM     12  F4  UNL d   1       3.731  -0.773   6.000  0.00  0.00    -0.092 F 
ENDROOT
TORSDOF 0
ENDMDL
