MODEL 1
REMARK minimizedAffinity 9.84707069
REMARK minimizedRMSD -1
REMARK  0 active torsions:
REMARK  status: ('A' for Active; 'I' for Inactive)
ROOT
ATOM      1  C   UNL d   1       0.391  -3.873  -4.921  0.00  0.00     0.124 A 
ATOM      2  C1  UNL d   1      -0.106  -4.661  -3.892  0.00  0.00     0.062 A 
ATOM      3  C2  UNL d   1      -0.685  -4.068  -2.774  0.00  0.00     0.162 A 
ATOM      4  C3  UNL d   1      -0.771  -2.679  -2.679  0.00  0.00    -0.034 A 
ATOM      5  C4  UNL d   1      -0.269  -1.893  -3.718  0.00  0.00     0.162 A 
ATOM      6  C5  UNL d   1       0.309  -2.491  -4.833  0.00  0.00     0.062 A 
ATOM      7  F   UNL d   1       0.789  -1.728  -5.827  0.00  0.00    -0.097 F 
ATOM      8  F1  UNL d   1      -0.335  -0.555  -3.659  0.00  0.00    -0.096 F 
ATOM      9  I   UNL d   1      -1.636  -1.788  -1.008  0.00  0.00    -0.060 I 
ATOM     10  F2  UNL d   1      -1.157  -4.853  -1.794  0.00  0.00    -0.096 F 
ATOM     11  F3  UNL d   1      -0.028  -5.997  -3.974  0.00  0.00    -0.097 F 
ATOM     12  F4  UNL d   1       0.948  -4.446  -5.995  0.00  0.00    -0.092 F 
ENDROOT
TORSDOF 0
ENDMDL
