MODEL 1
REMARK minimizedAffinity 16.8524876
REMARK minimizedRMSD -1
REMARK  0 active torsions:
REMARK  status: ('A' for Active; 'I' for Inactive)
ROOT
ATOM      1  C   UNL d   1      -2.241  -4.153  -4.878  0.00  0.00     0.124 A 
ATOM      2  C1  UNL d   1      -2.721  -2.909  -4.491  0.00  0.00     0.062 A 
ATOM      3  C2  UNL d   1      -2.254  -2.310  -3.325  0.00  0.00     0.162 A 
ATOM      4  C3  UNL d   1      -1.300  -2.953  -2.537  0.00  0.00    -0.034 A 
ATOM      5  C4  UNL d   1      -0.822  -4.203  -2.931  0.00  0.00     0.162 A 
ATOM      6  C5  UNL d   1      -1.292  -4.798  -4.098  0.00  0.00     0.062 A 
ATOM      7  F   UNL d   1      -0.826  -6.000  -4.469  0.00  0.00    -0.097 F 
ATOM      8  F1  UNL d   1       0.096  -4.849  -2.197  0.00  0.00    -0.096 F 
ATOM      9  I   UNL d   1      -0.599  -2.059  -0.793  0.00  0.00    -0.060 I 
ATOM     10  F2  UNL d   1      -2.737  -1.108  -2.976  0.00  0.00    -0.096 F 
ATOM     11  F3  UNL d   1      -3.639  -2.284  -5.243  0.00  0.00    -0.097 F 
ATOM     12  F4  UNL d   1      -2.692  -4.728  -6.000  0.00  0.00    -0.092 F 
ENDROOT
TORSDOF 0
ENDMDL
