MODEL 1
REMARK minimizedAffinity 17.2624264
REMARK minimizedRMSD -1
REMARK  0 active torsions:
REMARK  status: ('A' for Active; 'I' for Inactive)
ROOT
ATOM      1  C   UNL d   1       3.023  -0.300   0.364  0.00  0.00     0.124 A 
ATOM      2  C1  UNL d   1       3.085   0.569  -0.716  0.00  0.00     0.062 A 
ATOM      3  C2  UNL d   1       2.314   1.727  -0.728  0.00  0.00     0.162 A 
ATOM      4  C3  UNL d   1       1.474   2.025   0.345  0.00  0.00    -0.034 A 
ATOM      5  C4  UNL d   1       1.415   1.145   1.428  0.00  0.00     0.162 A 
ATOM      6  C5  UNL d   1       2.188  -0.011   1.435  0.00  0.00     0.062 A 
ATOM      7  F   UNL d   1       2.126  -0.850   2.479  0.00  0.00    -0.097 F 
ATOM      8  F1  UNL d   1       0.618   1.400   2.476  0.00  0.00    -0.096 F 
ATOM      9  I   UNL d   1       0.319   3.756   0.331  0.00  0.00    -0.060 I 
ATOM     10  F2  UNL d   1       2.395   2.549  -1.785  0.00  0.00    -0.096 F 
ATOM     11  F3  UNL d   1       3.890   0.292  -1.752  0.00  0.00    -0.097 F 
ATOM     12  F4  UNL d   1       3.765  -1.415   0.373  0.00  0.00    -0.092 F 
ENDROOT
TORSDOF 0
ENDMDL
