MODEL 1
REMARK minimizedAffinity 0.913758159
REMARK minimizedRMSD -1
REMARK  0 active torsions:
REMARK  status: ('A' for Active; 'I' for Inactive)
ROOT
ATOM      1  C   UNL d   1      -1.506  -2.252   2.248  0.00  0.00     0.077 C 
ATOM      2  C1  UNL d   1      -1.926  -1.652   3.556  0.00  0.00    -0.074 A 
ATOM      3  C2  UNL d   1      -2.501  -2.441   4.558  0.00  0.00    -0.005 A 
ATOM      4  C3  UNL d   1      -2.878  -1.870   5.773  0.00  0.00     0.006 A 
ATOM      5  C4  UNL d   1      -2.686  -0.506   5.999  0.00  0.00    -0.005 A 
ATOM      6  C5  UNL d   1      -2.112   0.299   5.009  0.00  0.00    -0.074 A 
ATOM      7  C6  UNL d   1      -1.890   1.764   5.239  0.00  0.00     0.077 C 
ATOM      8  C7  UNL d   1      -1.729  -0.284   3.793  0.00  0.00    -0.001 A 
ENDROOT
TORSDOF 0
ENDMDL
