MODEL 1
REMARK minimizedAffinity 15.3426142
REMARK minimizedRMSD -1
REMARK  0 active torsions:
REMARK  status: ('A' for Active; 'I' for Inactive)
ROOT
ATOM      1  C   UNL d   1       4.114  -1.877  -0.842  0.00  0.00     0.077 C 
ATOM      2  C1  UNL d   1       3.071  -2.374  -1.798  0.00  0.00    -0.074 A 
ATOM      3  C2  UNL d   1       3.431  -3.051  -2.968  0.00  0.00    -0.005 A 
ATOM      4  C3  UNL d   1       2.448  -3.516  -3.842  0.00  0.00     0.006 A 
ATOM      5  C4  UNL d   1       1.098  -3.310  -3.555  0.00  0.00    -0.005 A 
ATOM      6  C5  UNL d   1       0.719  -2.637  -2.390  0.00  0.00    -0.074 A 
ATOM      7  C6  UNL d   1      -0.728  -2.415  -2.062  0.00  0.00     0.077 C 
ATOM      8  C7  UNL d   1       1.712  -2.178  -1.513  0.00  0.00    -0.001 A 
ENDROOT
TORSDOF 0
ENDMDL
