MODEL 1
REMARK minimizedAffinity 15.0833693
REMARK minimizedRMSD -1
REMARK  0 active torsions:
REMARK  status: ('A' for Active; 'I' for Inactive)
ROOT
ATOM      1  C   UNL d   1      -1.527  -3.206  -4.097  0.00  0.00     0.077 C 
ATOM      2  C1  UNL d   1      -0.649  -2.711  -2.986  0.00  0.00    -0.074 A 
ATOM      3  C2  UNL d   1      -1.200  -2.188  -1.812  0.00  0.00    -0.005 A 
ATOM      4  C3  UNL d   1      -0.371  -1.740  -0.784  0.00  0.00     0.006 A 
ATOM      5  C4  UNL d   1       1.017  -1.811  -0.920  0.00  0.00    -0.005 A 
ATOM      6  C5  UNL d   1       1.586  -2.332  -2.086  0.00  0.00    -0.074 A 
ATOM      7  C6  UNL d   1       3.075  -2.425  -2.243  0.00  0.00     0.077 C 
ATOM      8  C7  UNL d   1       0.746  -2.786  -3.111  0.00  0.00    -0.001 A 
ENDROOT
TORSDOF 0
ENDMDL
