MODEL 1
REMARK minimizedAffinity 7.44306946
REMARK minimizedRMSD -1
REMARK  0 active torsions:
REMARK  status: ('A' for Active; 'I' for Inactive)
ROOT
ATOM      1  C   UNL d   1      -2.322  -4.045  -3.859  0.00  0.00     0.077 C 
ATOM      2  C1  UNL d   1      -1.444  -3.379  -2.842  0.00  0.00    -0.074 A 
ATOM      3  C2  UNL d   1      -0.155  -2.950  -3.175  0.00  0.00    -0.005 A 
ATOM      4  C3  UNL d   1       0.646  -2.324  -2.221  0.00  0.00     0.006 A 
ATOM      5  C4  UNL d   1       0.168  -2.120  -0.926  0.00  0.00    -0.005 A 
ATOM      6  C5  UNL d   1      -1.118  -2.541  -0.575  0.00  0.00    -0.074 A 
ATOM      7  C6  UNL d   1      -1.651  -2.321   0.810  0.00  0.00     0.077 C 
ATOM      8  C7  UNL d   1      -1.920  -3.164  -1.541  0.00  0.00    -0.001 A 
ENDROOT
TORSDOF 0
ENDMDL
