MODEL 1
REMARK minimizedAffinity 3.12350774
REMARK minimizedRMSD -1
REMARK  0 active torsions:
REMARK  status: ('A' for Active; 'I' for Inactive)
ROOT
ATOM      1  C   UNL d   1      -0.255  -2.978   0.469  0.00  0.00     0.077 C 
ATOM      2  C1  UNL d   1      -0.297  -3.017  -1.030  0.00  0.00    -0.074 A 
ATOM      3  C2  UNL d   1      -0.383  -1.838  -1.778  0.00  0.00    -0.005 A 
ATOM      4  C3  UNL d   1      -0.412  -1.890  -3.171  0.00  0.00     0.006 A 
ATOM      5  C4  UNL d   1      -0.356  -3.119  -3.830  0.00  0.00    -0.005 A 
ATOM      6  C5  UNL d   1      -0.269  -4.308  -3.099  0.00  0.00    -0.074 A 
ATOM      7  C6  UNL d   1      -0.197  -5.636  -3.792  0.00  0.00     0.077 C 
ATOM      8  C7  UNL d   1      -0.233  -4.247  -1.699  0.00  0.00    -0.001 A 
ENDROOT
TORSDOF 0
ENDMDL
