MODEL 1
REMARK minimizedAffinity 10.6348972
REMARK minimizedRMSD -1
REMARK  0 active torsions:
REMARK  status: ('A' for Active; 'I' for Inactive)
ROOT
ATOM      1  C   UNL d   1       0.138  -2.209  -0.074  0.00  0.00     0.077 C 
ATOM      2  C1  UNL d   1       0.085  -2.566  -1.530  0.00  0.00    -0.074 A 
ATOM      3  C2  UNL d   1      -1.091  -2.401  -2.268  0.00  0.00    -0.005 A 
ATOM      4  C3  UNL d   1      -1.122  -2.729  -3.624  0.00  0.00     0.006 A 
ATOM      5  C4  UNL d   1       0.021  -3.224  -4.253  0.00  0.00    -0.005 A 
ATOM      6  C5  UNL d   1       1.206  -3.394  -3.531  0.00  0.00    -0.074 A 
ATOM      7  C6  UNL d   1       2.446  -3.915  -4.195  0.00  0.00     0.077 C 
ATOM      8  C7  UNL d   1       1.231  -3.056  -2.171  0.00  0.00    -0.001 A 
ENDROOT
TORSDOF 0
ENDMDL
