MODEL 1
REMARK minimizedAffinity 5.58112383
REMARK minimizedRMSD -1
REMARK  0 active torsions:
REMARK  status: ('A' for Active; 'I' for Inactive)
ROOT
ATOM      1  C   UNL d   1      -3.447  -2.490   0.391  0.00  0.00     0.077 C 
ATOM      2  C1  UNL d   1      -2.124  -2.485  -0.316  0.00  0.00    -0.074 A 
ATOM      3  C2  UNL d   1      -0.927  -2.386   0.400  0.00  0.00    -0.005 A 
ATOM      4  C3  UNL d   1       0.296  -2.393  -0.271  0.00  0.00     0.006 A 
ATOM      5  C4  UNL d   1       0.334  -2.499  -1.662  0.00  0.00    -0.005 A 
ATOM      6  C5  UNL d   1      -0.853  -2.600  -2.394  0.00  0.00    -0.074 A 
ATOM      7  C6  UNL d   1      -0.829  -2.725  -3.889  0.00  0.00     0.077 C 
ATOM      8  C7  UNL d   1      -2.077  -2.600  -1.713  0.00  0.00    -0.001 A 
ENDROOT
TORSDOF 0
ENDMDL
