MODEL 1
REMARK minimizedAffinity 6.29649925
REMARK minimizedRMSD -1
REMARK  0 active torsions:
REMARK  status: ('A' for Active; 'I' for Inactive)
ROOT
ATOM      1  C   UNL d   1      -0.458  -2.345  -2.272  0.00  0.00     0.077 C 
ATOM      2  C1  UNL d   1      -0.027  -3.073  -3.509  0.00  0.00    -0.074 A 
ATOM      3  C2  UNL d   1      -0.955  -3.436  -4.490  0.00  0.00    -0.005 A 
ATOM      4  C3  UNL d   1      -0.537  -4.105  -5.641  0.00  0.00     0.006 A 
ATOM      5  C4  UNL d   1       0.810  -4.418  -5.822  0.00  0.00    -0.005 A 
ATOM      6  C5  UNL d   1       1.753  -4.062  -4.852  0.00  0.00    -0.074 A 
ATOM      7  C6  UNL d   1       3.207  -4.382  -5.035  0.00  0.00     0.077 C 
ATOM      8  C7  UNL d   1       1.327  -3.384  -3.702  0.00  0.00    -0.001 A 
ENDROOT
TORSDOF 0
ENDMDL
