MODEL 1
REMARK minimizedAffinity 8.21183968
REMARK minimizedRMSD -1
REMARK  0 active torsions:
REMARK  status: ('A' for Active; 'I' for Inactive)
ROOT
ATOM      1  C   UNL d   1      -2.994   1.007   0.730  0.00  0.00     0.077 C 
ATOM      2  C1  UNL d   1      -3.632   2.347   0.510  0.00  0.00    -0.074 A 
ATOM      3  C2  UNL d   1      -4.867   2.458  -0.137  0.00  0.00    -0.005 A 
ATOM      4  C3  UNL d   1      -5.452   3.710  -0.326  0.00  0.00     0.006 A 
ATOM      5  C4  UNL d   1      -4.809   4.862   0.128  0.00  0.00    -0.005 A 
ATOM      6  C5  UNL d   1      -3.574   4.770   0.778  0.00  0.00    -0.074 A 
ATOM      7  C6  UNL d   1      -2.874   5.998   1.282  0.00  0.00     0.077 C 
ATOM      8  C7  UNL d   1      -2.996   3.508   0.971  0.00  0.00    -0.001 A 
ENDROOT
TORSDOF 0
ENDMDL
