MODEL 1
REMARK minimizedAffinity 8.03186512
REMARK minimizedRMSD -1
REMARK  0 active torsions:
REMARK  status: ('A' for Active; 'I' for Inactive)
ROOT
ATOM      1  C   UNL d   1       0.208  -2.934   0.302  0.00  0.00     0.077 C 
ATOM      2  C1  UNL d   1       0.067  -2.993  -1.190  0.00  0.00    -0.074 A 
ATOM      3  C2  UNL d   1      -1.167  -2.757  -1.805  0.00  0.00    -0.005 A 
ATOM      4  C3  UNL d   1      -1.280  -2.805  -3.195  0.00  0.00     0.006 A 
ATOM      5  C4  UNL d   1      -0.163  -3.090  -3.982  0.00  0.00    -0.005 A 
ATOM      6  C5  UNL d   1       1.078  -3.328  -3.384  0.00  0.00    -0.074 A 
ATOM      7  C6  UNL d   1       2.291  -3.626  -4.215  0.00  0.00     0.077 C 
ATOM      8  C7  UNL d   1       1.186  -3.271  -1.988  0.00  0.00    -0.001 A 
ENDROOT
TORSDOF 0
ENDMDL
