MODEL 1
REMARK minimizedAffinity 9.58133507
REMARK minimizedRMSD -1
REMARK  0 active torsions:
REMARK  status: ('A' for Active; 'I' for Inactive)
ROOT
ATOM      1  C   UNL d   1       1.299  -2.224  -2.880  0.00  0.00     0.077 C 
ATOM      2  C1  UNL d   1       0.020  -2.393  -2.116  0.00  0.00    -0.074 A 
ATOM      3  C2  UNL d   1      -1.209  -2.474  -2.781  0.00  0.00    -0.005 A 
ATOM      4  C3  UNL d   1      -2.390  -2.641  -2.057  0.00  0.00     0.006 A 
ATOM      5  C4  UNL d   1      -2.354  -2.728  -0.665  0.00  0.00    -0.005 A 
ATOM      6  C5  UNL d   1      -1.136  -2.650   0.016  0.00  0.00    -0.074 A 
ATOM      7  C6  UNL d   1      -1.079  -2.752   1.512  0.00  0.00     0.077 C 
ATOM      8  C7  UNL d   1       0.047  -2.490  -0.718  0.00  0.00    -0.001 A 
ENDROOT
TORSDOF 0
ENDMDL
