MODEL 1
REMARK minimizedAffinity 6.36937475
REMARK minimizedRMSD -1
REMARK  0 active torsions:
REMARK  status: ('A' for Active; 'I' for Inactive)
ROOT
ATOM      1  C   UNL d   1       2.517  -0.821   5.994  0.00  0.00     0.077 C 
ATOM      2  C1  UNL d   1       3.266  -1.893   5.260  0.00  0.00    -0.074 A 
ATOM      3  C2  UNL d   1       3.021  -2.142   3.905  0.00  0.00    -0.005 A 
ATOM      4  C3  UNL d   1       3.733  -3.136   3.234  0.00  0.00     0.006 A 
ATOM      5  C4  UNL d   1       4.695  -3.890   3.908  0.00  0.00    -0.005 A 
ATOM      6  C5  UNL d   1       4.954  -3.654   5.262  0.00  0.00    -0.074 A 
ATOM      7  C6  UNL d   1       5.991  -4.448   5.999  0.00  0.00     0.077 C 
ATOM      8  C7  UNL d   1       4.239  -2.648   5.928  0.00  0.00    -0.001 A 
ENDROOT
TORSDOF 0
ENDMDL
