MODEL 1
REMARK minimizedAffinity 4.39223862
REMARK minimizedRMSD -1
REMARK  0 active torsions:
REMARK  status: ('A' for Active; 'I' for Inactive)
ROOT
ATOM      1  C   UNL d   1      -1.851  -2.986  -3.917  0.00  0.00     0.077 C 
ATOM      2  C1  UNL d   1      -1.566  -2.602  -2.495  0.00  0.00    -0.074 A 
ATOM      3  C2  UNL d   1      -0.270  -2.272  -2.086  0.00  0.00    -0.005 A 
ATOM      4  C3  UNL d   1      -0.022  -1.908  -0.763  0.00  0.00     0.006 A 
ATOM      5  C4  UNL d   1      -1.065  -1.870   0.163  0.00  0.00    -0.005 A 
ATOM      6  C5  UNL d   1      -2.367  -2.196  -0.228  0.00  0.00    -0.074 A 
ATOM      7  C6  UNL d   1      -3.502  -2.151   0.752  0.00  0.00     0.077 C 
ATOM      8  C7  UNL d   1      -2.610  -2.554  -1.561  0.00  0.00    -0.001 A 
ENDROOT
TORSDOF 0
ENDMDL
