MODEL 1
REMARK minimizedAffinity 10.4815998
REMARK minimizedRMSD -1
REMARK  0 active torsions:
REMARK  status: ('A' for Active; 'I' for Inactive)
ROOT
ATOM      1  C   UNL d   1       0.624  -5.455  -0.064  0.00  0.00     0.077 C 
ATOM      2  C1  UNL d   1       0.103  -4.215  -0.726  0.00  0.00    -0.074 A 
ATOM      3  C2  UNL d   1       0.089  -2.991  -0.050  0.00  0.00    -0.005 A 
ATOM      4  C3  UNL d   1      -0.390  -1.843  -0.682  0.00  0.00     0.006 A 
ATOM      5  C4  UNL d   1      -0.858  -1.908  -1.995  0.00  0.00    -0.005 A 
ATOM      6  C5  UNL d   1      -0.851  -3.123  -2.687  0.00  0.00    -0.074 A 
ATOM      7  C6  UNL d   1      -1.342  -3.208  -4.102  0.00  0.00     0.077 C 
ATOM      8  C7  UNL d   1      -0.362  -4.270  -2.048  0.00  0.00    -0.001 A 
ENDROOT
TORSDOF 0
ENDMDL
