MODEL 1
REMARK minimizedAffinity 19.1537991
REMARK minimizedRMSD -1
REMARK  0 active torsions:
REMARK  status: ('A' for Active; 'I' for Inactive)
ROOT
ATOM      1  C   UNL d   1      -2.860  -1.070   0.854  0.00  0.00     0.077 C 
ATOM      2  C1  UNL d   1      -1.777  -1.678   0.013  0.00  0.00    -0.074 A 
ATOM      3  C2  UNL d   1      -0.548  -2.038   0.575  0.00  0.00    -0.005 A 
ATOM      4  C3  UNL d   1       0.446  -2.611  -0.218  0.00  0.00     0.006 A 
ATOM      5  C4  UNL d   1       0.222  -2.830  -1.578  0.00  0.00    -0.005 A 
ATOM      6  C5  UNL d   1      -1.002  -2.478  -2.156  0.00  0.00    -0.074 A 
ATOM      7  C6  UNL d   1      -1.263  -2.716  -3.614  0.00  0.00     0.077 C 
ATOM      8  C7  UNL d   1      -1.998  -1.909  -1.352  0.00  0.00    -0.001 A 
ENDROOT
TORSDOF 0
ENDMDL
