MODEL 1
REMARK minimizedAffinity 12.7239037
REMARK minimizedRMSD -1
REMARK  0 active torsions:
REMARK  status: ('A' for Active; 'I' for Inactive)
ROOT
ATOM      1  C   UNL d   1      -3.807   6.000   0.750  0.00  0.00     0.077 C 
ATOM      2  C1  UNL d   1      -2.678   5.013   0.784  0.00  0.00    -0.074 A 
ATOM      3  C2  UNL d   1      -2.917   3.642   0.646  0.00  0.00    -0.005 A 
ATOM      4  C3  UNL d   1      -1.856   2.737   0.670  0.00  0.00     0.006 A 
ATOM      5  C4  UNL d   1      -0.547   3.193   0.832  0.00  0.00    -0.005 A 
ATOM      6  C5  UNL d   1      -0.288   4.560   0.969  0.00  0.00    -0.074 A 
ATOM      7  C6  UNL d   1       1.113   5.068   1.134  0.00  0.00     0.077 C 
ATOM      8  C7  UNL d   1      -1.359   5.464   0.937  0.00  0.00    -0.001 A 
ENDROOT
TORSDOF 0
ENDMDL
