MODEL 1
REMARK minimizedAffinity 7.02751589
REMARK minimizedRMSD -1
REMARK  0 active torsions:
REMARK  status: ('A' for Active; 'I' for Inactive)
ROOT
ATOM      1  C   UNL d   1      -2.344  -1.585  -0.197  0.00  0.00     0.077 C 
ATOM      2  C1  UNL d   1      -1.320  -1.980  -1.219  0.00  0.00    -0.074 A 
ATOM      3  C2  UNL d   1      -0.005  -2.274  -0.843  0.00  0.00    -0.005 A 
ATOM      4  C3  UNL d   1       0.934  -2.649  -1.804  0.00  0.00     0.006 A 
ATOM      5  C4  UNL d   1       0.569  -2.734  -3.148  0.00  0.00    -0.005 A 
ATOM      6  C5  UNL d   1      -0.741  -2.444  -3.542  0.00  0.00    -0.074 A 
ATOM      7  C6  UNL d   1      -1.153  -2.540  -4.982  0.00  0.00     0.077 C 
ATOM      8  C7  UNL d   1      -1.681  -2.075  -2.570  0.00  0.00    -0.001 A 
ENDROOT
TORSDOF 0
ENDMDL
