MODEL 1
REMARK minimizedAffinity 8.85152149
REMARK minimizedRMSD -1
REMARK  0 active torsions:
REMARK  status: ('A' for Active; 'I' for Inactive)
ROOT
ATOM      1  C   UNL d   1      -5.993   1.995   5.999  0.00  0.00     0.077 C 
ATOM      2  C1  UNL d   1      -4.639   1.375   5.827  0.00  0.00    -0.074 A 
ATOM      3  C2  UNL d   1      -3.521   2.160   5.528  0.00  0.00    -0.005 A 
ATOM      4  C3  UNL d   1      -2.266   1.570   5.380  0.00  0.00     0.006 A 
ATOM      5  C4  UNL d   1      -2.116   0.191   5.528  0.00  0.00    -0.005 A 
ATOM      6  C5  UNL d   1      -3.222  -0.611   5.827  0.00  0.00    -0.074 A 
ATOM      7  C6  UNL d   1      -3.077  -2.094   6.000  0.00  0.00     0.077 C 
ATOM      8  C7  UNL d   1      -4.479  -0.009   5.982  0.00  0.00    -0.001 A 
ENDROOT
TORSDOF 0
ENDMDL
