MODEL 1
REMARK minimizedAffinity -4.3983984
REMARK minimizedRMSD -1
REMARK  0 active torsions:
REMARK  status: ('A' for Active; 'I' for Inactive)
ROOT
ATOM      1  O1  BZF d   1      -1.664   1.556   2.128  0.00  0.00    -0.204 OA
ATOM      2  C2  BZF d   1      -1.953   2.729   1.457  0.00  0.00     0.174 A 
ATOM      3  C3  BZF d   1      -1.391   2.730   0.231  0.00  0.00    -0.012 A 
ATOM      4  C3A BZF d   1      -0.784   1.441   0.095  0.00  0.00    -0.107 A 
ATOM      5  C4  BZF d   1      -0.085   0.834  -0.909  0.00  0.00     0.055 A 
ATOM      6  C5  BZF d   1       0.434  -0.404  -0.697  0.00  0.00    -0.016 A 
ATOM      7  C6  BZF d   1       0.277  -1.061   0.505  0.00  0.00     0.022 A 
ATOM      8  C7  BZF d   1      -0.413  -0.502   1.529  0.00  0.00     0.029 A 
ATOM      9  C7A BZF d   1      -0.967   0.736   1.307  0.00  0.00     0.058 A 
ENDROOT
TORSDOF 0
ENDMDL
