MODEL 1
REMARK minimizedAffinity -2.24359322
REMARK minimizedRMSD -1
REMARK  0 active torsions:
REMARK  status: ('A' for Active; 'I' for Inactive)
ROOT
ATOM      1  O1  BZF d   1      -0.460  -0.090  -1.075  0.00  0.00    -0.204 OA
ATOM      2  C2  BZF d   1      -0.162   0.093   0.261  0.00  0.00     0.174 A 
ATOM      3  C3  BZF d   1       0.478  -0.984   0.760  0.00  0.00    -0.012 A 
ATOM      4  C3A BZF d   1       0.669  -1.859  -0.356  0.00  0.00    -0.107 A 
ATOM      5  C4  BZF d   1       1.259  -3.082  -0.501  0.00  0.00     0.055 A 
ATOM      6  C5  BZF d   1       1.212  -3.699  -1.710  0.00  0.00    -0.016 A 
ATOM      7  C6  BZF d   1       0.580  -3.126  -2.794  0.00  0.00     0.022 A 
ATOM      8  C7  BZF d   1      -0.015  -1.912  -2.701  0.00  0.00     0.029 A 
ATOM      9  C7A BZF d   1       0.059  -1.271  -1.489  0.00  0.00     0.058 A 
ENDROOT
TORSDOF 0
ENDMDL
