MODEL 1
REMARK minimizedAffinity -3.15769792
REMARK minimizedRMSD -1
REMARK  0 active torsions:
REMARK  status: ('A' for Active; 'I' for Inactive)
ROOT
ATOM      1  O1  BZF d   1       0.665  -1.350   0.043  0.00  0.00    -0.204 OA
ATOM      2  C2  BZF d   1       1.189  -1.151  -1.220  0.00  0.00     0.174 A 
ATOM      3  C3  BZF d   1       0.735   0.002  -1.751  0.00  0.00    -0.012 A 
ATOM      4  C3A BZF d   1      -0.054   0.605  -0.720  0.00  0.00    -0.107 A 
ATOM      5  C4  BZF d   1      -0.757   1.773  -0.638  0.00  0.00     0.055 A 
ATOM      6  C5  BZF d   1      -1.481   2.031   0.483  0.00  0.00    -0.016 A 
ATOM      7  C6  BZF d   1      -1.527   1.143   1.537  0.00  0.00     0.022 A 
ATOM      8  C7  BZF d   1      -0.842  -0.026   1.504  0.00  0.00     0.029 A 
ATOM      9  C7A BZF d   1      -0.084  -0.275   0.386  0.00  0.00     0.058 A 
ENDROOT
TORSDOF 0
ENDMDL
