MODEL 1
REMARK minimizedAffinity 0.497731924
REMARK minimizedRMSD -1
REMARK  0 active torsions:
REMARK  status: ('A' for Active; 'I' for Inactive)
ROOT
ATOM      1  O1  BZF d   1       0.613  -2.909  -0.373  0.00  0.00    -0.204 OA
ATOM      2  C2  BZF d   1       1.261  -3.034  -1.586  0.00  0.00     0.174 A 
ATOM      3  C3  BZF d   1       1.316  -1.847  -2.224  0.00  0.00    -0.012 A 
ATOM      4  C3A BZF d   1       0.743  -0.904  -1.314  0.00  0.00    -0.107 A 
ATOM      5  C4  BZF d   1       0.530   0.444  -1.369  0.00  0.00     0.055 A 
ATOM      6  C5  BZF d   1      -0.119   1.052  -0.342  0.00  0.00    -0.016 A 
ATOM      7  C6  BZF d   1      -0.573   0.344   0.752  0.00  0.00     0.022 A 
ATOM      8  C7  BZF d   1      -0.381  -0.993   0.853  0.00  0.00     0.029 A 
ATOM      9  C7A BZF d   1       0.304  -1.606  -0.168  0.00  0.00     0.058 A 
ENDROOT
TORSDOF 0
ENDMDL
