MODEL 1
REMARK minimizedAffinity -4.08712244
REMARK minimizedRMSD -1
REMARK  0 active torsions:
REMARK  status: ('A' for Active; 'I' for Inactive)
ROOT
ATOM      1  O1  BZF d   1      -1.503   0.981   2.359  0.00  0.00    -0.204 OA
ATOM      2  C2  BZF d   1      -2.087   2.090   1.778  0.00  0.00     0.174 A 
ATOM      3  C3  BZF d   1      -1.711   2.209   0.489  0.00  0.00    -0.012 A 
ATOM      4  C3A BZF d   1      -0.910   1.053   0.223  0.00  0.00    -0.107 A 
ATOM      5  C4  BZF d   1      -0.261   0.596  -0.889  0.00  0.00     0.055 A 
ATOM      6  C5  BZF d   1       0.494  -0.530  -0.797  0.00  0.00    -0.016 A 
ATOM      7  C6  BZF d   1       0.626  -1.220   0.391  0.00  0.00     0.022 A 
ATOM      8  C7  BZF d   1      -0.002  -0.808   1.518  0.00  0.00     0.029 A 
ATOM      9  C7A BZF d   1      -0.793   0.311   1.420  0.00  0.00     0.058 A 
ENDROOT
TORSDOF 0
ENDMDL
