MODEL 1
REMARK minimizedAffinity -4.52218485
REMARK minimizedRMSD -1
REMARK  0 active torsions:
REMARK  status: ('A' for Active; 'I' for Inactive)
ROOT
ATOM      1  O1  BZF d   1       0.636   0.322  -1.046  0.00  0.00    -0.204 OA
ATOM      2  C2  BZF d   1       1.155  -0.871  -0.581  0.00  0.00     0.174 A 
ATOM      3  C3  BZF d   1       0.568  -1.228   0.579  0.00  0.00    -0.012 A 
ATOM      4  C3A BZF d   1      -0.441  -0.240   0.810  0.00  0.00    -0.107 A 
ATOM      5  C4  BZF d   1      -1.369  -0.059   1.795  0.00  0.00     0.055 A 
ATOM      6  C5  BZF d   1      -2.158   1.048   1.764  0.00  0.00    -0.016 A 
ATOM      7  C6  BZF d   1      -2.042   1.994   0.768  0.00  0.00     0.022 A 
ATOM      8  C7  BZF d   1      -1.139   1.855  -0.234  0.00  0.00     0.029 A 
ATOM      9  C7A BZF d   1      -0.363   0.722  -0.223  0.00  0.00     0.058 A 
ENDROOT
TORSDOF 0
ENDMDL
