MODEL 1
REMARK minimizedAffinity -3.09064889
REMARK minimizedRMSD -1
REMARK  0 active torsions:
REMARK  status: ('A' for Active; 'I' for Inactive)
ROOT
ATOM      1  O1  BZF d   1      -0.633  -0.300  -2.128  0.00  0.00    -0.204 OA
ATOM      2  C2  BZF d   1       0.369  -1.251  -2.151  0.00  0.00     0.174 A 
ATOM      3  C3  BZF d   1       0.969  -1.342  -0.947  0.00  0.00    -0.012 A 
ATOM      4  C3A BZF d   1       0.240  -0.455  -0.094  0.00  0.00    -0.107 A 
ATOM      5  C4  BZF d   1       0.347  -0.121   1.226  0.00  0.00     0.055 A 
ATOM      6  C5  BZF d   1      -0.475   0.834   1.734  0.00  0.00    -0.016 A 
ATOM      7  C6  BZF d   1      -1.411   1.478   0.952  0.00  0.00     0.022 A 
ATOM      8  C7  BZF d   1      -1.559   1.177  -0.361  0.00  0.00     0.029 A 
ATOM      9  C7A BZF d   1      -0.751   0.189  -0.870  0.00  0.00     0.058 A 
ENDROOT
TORSDOF 0
ENDMDL
