MODEL 1
REMARK minimizedAffinity -5.27085924
REMARK minimizedRMSD -1
REMARK  0 active torsions:
REMARK  status: ('A' for Active; 'I' for Inactive)
ROOT
ATOM      1  O1  BZF d   1       0.733   0.202  -0.842  0.00  0.00    -0.204 OA
ATOM      2  C2  BZF d   1       0.542  -0.818   0.070  0.00  0.00     0.174 A 
ATOM      3  C3  BZF d   1      -0.260  -0.414   1.077  0.00  0.00    -0.012 A 
ATOM      4  C3A BZF d   1      -0.665   0.912   0.727  0.00  0.00    -0.107 A 
ATOM      5  C4  BZF d   1      -1.478   1.834   1.323  0.00  0.00     0.055 A 
ATOM      6  C5  BZF d   1      -1.607   3.064   0.759  0.00  0.00    -0.016 A 
ATOM      7  C6  BZF d   1      -0.936   3.407  -0.396  0.00  0.00     0.022 A 
ATOM      8  C7  BZF d   1      -0.123   2.524  -1.027  0.00  0.00     0.029 A 
ATOM      9  C7A BZF d   1      -0.016   1.270  -0.477  0.00  0.00     0.058 A 
ENDROOT
TORSDOF 0
ENDMDL
