MODEL 1
REMARK minimizedAffinity -5.14686871
REMARK minimizedRMSD -1
REMARK  0 active torsions:
REMARK  status: ('A' for Active; 'I' for Inactive)
ROOT
ATOM      1  O1  BZF d   1      -0.132   0.720  -1.043  0.00  0.00    -0.204 OA
ATOM      2  C2  BZF d   1       0.727  -0.358  -1.141  0.00  0.00     0.174 A 
ATOM      3  C3  BZF d   1       0.701  -1.095  -0.012  0.00  0.00    -0.012 A 
ATOM      4  C3A BZF d   1      -0.303  -0.490   0.809  0.00  0.00    -0.107 A 
ATOM      5  C4  BZF d   1      -0.802  -0.778   2.047  0.00  0.00     0.055 A 
ATOM      6  C5  BZF d   1      -1.726   0.054   2.597  0.00  0.00    -0.016 A 
ATOM      7  C6  BZF d   1      -2.168   1.183   1.940  0.00  0.00     0.022 A 
ATOM      8  C7  BZF d   1      -1.706   1.508   0.707  0.00  0.00     0.029 A 
ATOM      9  C7A BZF d   1      -0.796   0.651   0.136  0.00  0.00     0.058 A 
ENDROOT
TORSDOF 0
ENDMDL
