MODEL 1
REMARK minimizedAffinity -2.48624635
REMARK minimizedRMSD -1
REMARK  0 active torsions:
REMARK  status: ('A' for Active; 'I' for Inactive)
ROOT
ATOM      1  O1  BZF d   1       1.370  -0.721  -1.572  0.00  0.00    -0.204 OA
ATOM      2  C2  BZF d   1       1.241  -1.805  -0.726  0.00  0.00     0.174 A 
ATOM      3  C3  BZF d   1       0.398  -1.522   0.289  0.00  0.00    -0.012 A 
ATOM      4  C3A BZF d   1      -0.097  -0.209   0.012  0.00  0.00    -0.107 A 
ATOM      5  C4  BZF d   1      -0.981   0.615   0.648  0.00  0.00     0.055 A 
ATOM      6  C5  BZF d   1      -1.191   1.864   0.156  0.00  0.00    -0.016 A 
ATOM      7  C6  BZF d   1      -0.531   2.324  -0.964  0.00  0.00     0.022 A 
ATOM      8  C7  BZF d   1       0.352   1.542  -1.632  0.00  0.00     0.029 A 
ATOM      9  C7A BZF d   1       0.542   0.267  -1.157  0.00  0.00     0.058 A 
ENDROOT
TORSDOF 0
ENDMDL
