MODEL 1
REMARK minimizedAffinity -3.15000272
REMARK minimizedRMSD -1
REMARK  0 active torsions:
REMARK  status: ('A' for Active; 'I' for Inactive)
ROOT
ATOM      1  O1  BZF d   1       0.345  -0.252  -0.758  0.00  0.00    -0.204 OA
ATOM      2  C2  BZF d   1       0.802  -1.164   0.175  0.00  0.00     0.174 A 
ATOM      3  C3  BZF d   1       0.271  -0.913   1.389  0.00  0.00    -0.012 A 
ATOM      4  C3A BZF d   1      -0.642   0.169   1.184  0.00  0.00    -0.107 A 
ATOM      5  C4  BZF d   1      -1.485   0.856   2.011  0.00  0.00     0.055 A 
ATOM      6  C5  BZF d   1      -2.187   1.907   1.512  0.00  0.00    -0.016 A 
ATOM      7  C6  BZF d   1      -2.068   2.302   0.196  0.00  0.00     0.022 A 
ATOM      8  C7  BZF d   1      -1.249   1.648  -0.663  0.00  0.00     0.029 A 
ATOM      9  C7A BZF d   1      -0.562   0.565  -0.171  0.00  0.00     0.058 A 
ENDROOT
TORSDOF 0
ENDMDL
