MODEL 1
REMARK minimizedAffinity -2.29176617
REMARK minimizedRMSD -1
REMARK  0 active torsions:
REMARK  status: ('A' for Active; 'I' for Inactive)
ROOT
ATOM      1  O1  BZF d   1       0.838   1.086  -0.766  0.00  0.00    -0.204 OA
ATOM      2  C2  BZF d   1       1.354  -0.183  -0.949  0.00  0.00     0.174 A 
ATOM      3  C3  BZF d   1       0.906  -1.023   0.006  0.00  0.00    -0.012 A 
ATOM      4  C3A BZF d   1      -0.016  -0.253   0.784  0.00  0.00    -0.107 A 
ATOM      5  C4  BZF d   1      -0.799  -0.537   1.866  0.00  0.00     0.055 A 
ATOM      6  C5  BZF d   1      -1.529   0.458   2.432  0.00  0.00    -0.016 A 
ATOM      7  C6  BZF d   1      -1.497   1.749   1.947  0.00  0.00     0.022 A 
ATOM      8  C7  BZF d   1      -0.739   2.079   0.873  0.00  0.00     0.029 A 
ATOM      9  C7A BZF d   1      -0.025   1.068   0.278  0.00  0.00     0.058 A 
ENDROOT
TORSDOF 0
ENDMDL
