MODEL 1
REMARK minimizedAffinity -2.56294942
REMARK minimizedRMSD -1
REMARK  0 active torsions:
REMARK  status: ('A' for Active; 'I' for Inactive)
ROOT
ATOM      1  O1  BZF d   1      -1.728   1.226   2.081  0.00  0.00    -0.204 OA
ATOM      2  C2  BZF d   1      -2.212   2.475   1.745  0.00  0.00     0.174 A 
ATOM      3  C3  BZF d   1      -1.552   2.974   0.680  0.00  0.00    -0.012 A 
ATOM      4  C3A BZF d   1      -0.658   1.934   0.271  0.00  0.00    -0.107 A 
ATOM      5  C4  BZF d   1       0.252   1.823  -0.741  0.00  0.00     0.055 A 
ATOM      6  C5  BZF d   1       1.017   0.703  -0.821  0.00  0.00    -0.016 A 
ATOM      7  C6  BZF d   1       0.902  -0.322   0.096  0.00  0.00     0.022 A 
ATOM      8  C7  BZF d   1       0.010  -0.259   1.114  0.00  0.00     0.029 A 
ATOM      9  C7A BZF d   1      -0.788   0.857   1.178  0.00  0.00     0.058 A 
ENDROOT
TORSDOF 0
ENDMDL
