MODEL 1
REMARK minimizedAffinity -5.10211897
REMARK minimizedRMSD -1
REMARK  0 active torsions:
REMARK  status: ('A' for Active; 'I' for Inactive)
ROOT
ATOM      1  O1  BZF d   1       0.823   0.024  -0.865  0.00  0.00    -0.204 OA
ATOM      2  C2  BZF d   1       0.924  -1.113  -0.087  0.00  0.00     0.174 A 
ATOM      3  C3  BZF d   1       0.318  -0.932   1.105  0.00  0.00    -0.012 A 
ATOM      4  C3A BZF d   1      -0.273   0.369   1.033  0.00  0.00    -0.107 A 
ATOM      5  C4  BZF d   1      -1.023   1.109   1.901  0.00  0.00     0.055 A 
ATOM      6  C5  BZF d   1      -1.381   2.373   1.554  0.00  0.00    -0.016 A 
ATOM      7  C6  BZF d   1      -1.003   2.929   0.349  0.00  0.00     0.022 A 
ATOM      8  C7  BZF d   1      -0.264   2.232  -0.547  0.00  0.00     0.029 A 
ATOM      9  C7A BZF d   1       0.072   0.943  -0.213  0.00  0.00     0.058 A 
ENDROOT
TORSDOF 0
ENDMDL
