MODEL 1
REMARK minimizedAffinity -4.25181198
REMARK minimizedRMSD -1
REMARK  0 active torsions:
REMARK  status: ('A' for Active; 'I' for Inactive)
ROOT
ATOM      1  O1  BZF d   1       0.951  -0.582   1.251  0.00  0.00    -0.204 OA
ATOM      2  C2  BZF d   1       1.510  -0.817   0.010  0.00  0.00     0.174 A 
ATOM      3  C3  BZF d   1       0.777  -0.239  -0.963  0.00  0.00    -0.012 A 
ATOM      4  C3A BZF d   1      -0.258   0.476  -0.279  0.00  0.00    -0.107 A 
ATOM      5  C4  BZF d   1      -1.291   1.262  -0.701  0.00  0.00     0.055 A 
ATOM      6  C5  BZF d   1      -2.166   1.752   0.217  0.00  0.00    -0.016 A 
ATOM      7  C6  BZF d   1      -2.040   1.471   1.562  0.00  0.00     0.022 A 
ATOM      8  C7  BZF d   1      -1.028   0.699   2.028  0.00  0.00     0.029 A 
ATOM      9  C7A BZF d   1      -0.123   0.230   1.107  0.00  0.00     0.058 A 
ENDROOT
TORSDOF 0
ENDMDL
