MODEL 1
REMARK minimizedAffinity -4.5675292
REMARK minimizedRMSD -1
REMARK  0 active torsions:
REMARK  status: ('A' for Active; 'I' for Inactive)
ROOT
ATOM      1  O1  BZF d   1      -0.062   2.366  -0.784  0.00  0.00    -0.204 OA
ATOM      2  C2  BZF d   1      -0.625   3.516  -0.265  0.00  0.00     0.174 A 
ATOM      3  C3  BZF d   1      -1.359   3.237   0.831  0.00  0.00    -0.012 A 
ATOM      4  C3A BZF d   1      -1.174   1.837   1.062  0.00  0.00    -0.107 A 
ATOM      5  C4  BZF d   1      -1.635   0.973   2.013  0.00  0.00     0.055 A 
ATOM      6  C5  BZF d   1      -1.327  -0.346   1.912  0.00  0.00    -0.016 A 
ATOM      7  C6  BZF d   1      -0.566  -0.837   0.872  0.00  0.00     0.022 A 
ATOM      8  C7  BZF d   1      -0.081  -0.018  -0.093  0.00  0.00     0.029 A 
ATOM      9  C7A BZF d   1      -0.363   1.321   0.024  0.00  0.00     0.058 A 
ENDROOT
TORSDOF 0
ENDMDL
