MODEL 1
REMARK minimizedAffinity -2.9694643
REMARK minimizedRMSD -1
REMARK  0 active torsions:
REMARK  status: ('A' for Active; 'I' for Inactive)
ROOT
ATOM      1  O1  BZF d   1      -2.213   0.153   1.114  0.00  0.00    -0.204 OA
ATOM      2  C2  BZF d   1      -2.111   1.499   1.410  0.00  0.00     0.174 A 
ATOM      3  C3  BZF d   1      -0.912   1.984   1.025  0.00  0.00    -0.012 A 
ATOM      4  C3A BZF d   1      -0.258   0.893   0.370  0.00  0.00    -0.107 A 
ATOM      5  C4  BZF d   1       0.955   0.757  -0.242  0.00  0.00     0.055 A 
ATOM      6  C5  BZF d   1       1.322  -0.462  -0.718  0.00  0.00    -0.016 A 
ATOM      7  C6  BZF d   1       0.504  -1.566  -0.595  0.00  0.00     0.022 A 
ATOM      8  C7  BZF d   1      -0.711  -1.479   0.000  0.00  0.00     0.029 A 
ATOM      9  C7A BZF d   1      -1.098  -0.241   0.453  0.00  0.00     0.058 A 
ENDROOT
TORSDOF 0
ENDMDL
