MODEL 1
REMARK minimizedAffinity 15.9424076
REMARK minimizedRMSD -1
REMARK  0 active torsions:
REMARK  status: ('A' for Active; 'I' for Inactive)
ROOT
ATOM      1  C   UNL d   1       5.650   0.271  -6.000  0.00  0.00     0.023 A 
ATOM      2  C1  UNL d   1       5.563  -1.108  -5.811  0.00  0.00     0.003 A 
ATOM      3  C2  UNL d   1       4.606  -1.636  -4.941  0.00  0.00     0.048 A 
ATOM      4  C3  UNL d   1       3.739  -0.779  -4.265  0.00  0.00     0.023 A 
ATOM      5  C4  UNL d   1       3.822   0.602  -4.452  0.00  0.00     0.048 A 
ATOM      6  C5  UNL d   1       4.780   1.125  -5.322  0.00  0.00     0.003 A 
ATOM      7  I   UNL d   1       2.314  -1.562  -2.971  0.00  0.00    -0.146 I 
ENDROOT
TORSDOF 0
ENDMDL
