MODEL 1
REMARK minimizedAffinity 9.60645294
REMARK minimizedRMSD -1
REMARK  0 active torsions:
REMARK  status: ('A' for Active; 'I' for Inactive)
ROOT
ATOM      1  C   UNL d   1       1.859  -0.344   2.390  0.00  0.00     0.023 A 
ATOM      2  C1  UNL d   1       1.064  -1.325   2.983  0.00  0.00     0.003 A 
ATOM      3  C2  UNL d   1       0.635  -2.424   2.236  0.00  0.00     0.048 A 
ATOM      4  C3  UNL d   1       1.006  -2.536   0.896  0.00  0.00     0.023 A 
ATOM      5  C4  UNL d   1       1.802  -1.558   0.299  0.00  0.00     0.048 A 
ATOM      6  C5  UNL d   1       2.227  -0.460   1.049  0.00  0.00     0.003 A 
ATOM      7  I   UNL d   1       0.368  -4.171  -0.217  0.00  0.00    -0.146 I 
ENDROOT
TORSDOF 0
ENDMDL
