MODEL 1
REMARK minimizedAffinity 7.0897007
REMARK minimizedRMSD -1
REMARK  0 active torsions:
REMARK  status: ('A' for Active; 'I' for Inactive)
ROOT
ATOM      1  C   UNL d   1       5.551   5.417  -5.987  0.00  0.00     0.023 A 
ATOM      2  C1  UNL d   1       5.999   5.969  -4.787  0.00  0.00     0.003 A 
ATOM      3  C2  UNL d   1       5.323   5.697  -3.596  0.00  0.00     0.048 A 
ATOM      4  C3  UNL d   1       4.199   4.871  -3.612  0.00  0.00     0.023 A 
ATOM      5  C4  UNL d   1       3.747   4.316  -4.811  0.00  0.00     0.048 A 
ATOM      6  C5  UNL d   1       4.426   4.592  -5.999  0.00  0.00     0.003 A 
ATOM      7  I   UNL d   1       3.190   4.464  -1.841  0.00  0.00    -0.146 I 
ENDROOT
TORSDOF 0
ENDMDL
