MODEL 1
REMARK minimizedAffinity 7.2908349
REMARK minimizedRMSD -1
REMARK  0 active torsions:
REMARK  status: ('A' for Active; 'I' for Inactive)
ROOT
ATOM      1  C   UNL d   1       0.967  -0.175   2.685  0.00  0.00     0.023 A 
ATOM      2  C1  UNL d   1       0.477  -1.146   3.558  0.00  0.00     0.003 A 
ATOM      3  C2  UNL d   1       0.869  -2.479   3.414  0.00  0.00     0.048 A 
ATOM      4  C3  UNL d   1       1.753  -2.833   2.395  0.00  0.00     0.023 A 
ATOM      5  C4  UNL d   1       2.247  -1.864   1.520  0.00  0.00     0.048 A 
ATOM      6  C5  UNL d   1       1.851  -0.533   1.667  0.00  0.00     0.003 A 
ATOM      7  I   UNL d   1       2.338  -4.815   2.178  0.00  0.00    -0.146 I 
ENDROOT
TORSDOF 0
ENDMDL
