MODEL 1
REMARK minimizedAffinity 2.34534693
REMARK minimizedRMSD -1
REMARK  0 active torsions:
REMARK  status: ('A' for Active; 'I' for Inactive)
ROOT
ATOM      1  C   UNL d   1      -5.997   4.186   1.183  0.00  0.00     0.023 A 
ATOM      2  C1  UNL d   1      -5.520   4.290  -0.123  0.00  0.00     0.003 A 
ATOM      3  C2  UNL d   1      -4.354   3.619  -0.498  0.00  0.00     0.048 A 
ATOM      4  C3  UNL d   1      -3.671   2.844   0.438  0.00  0.00     0.023 A 
ATOM      5  C4  UNL d   1      -4.145   2.736   1.747  0.00  0.00     0.048 A 
ATOM      6  C5  UNL d   1      -5.310   3.410   2.117  0.00  0.00     0.003 A 
ATOM      7  I   UNL d   1      -1.936   1.844  -0.118  0.00  0.00    -0.146 I 
ENDROOT
TORSDOF 0
ENDMDL
