MODEL 1
REMARK minimizedAffinity 3.88854647
REMARK minimizedRMSD -1
REMARK  0 active torsions:
REMARK  status: ('A' for Active; 'I' for Inactive)
ROOT
ATOM      1  C   UNL d   1       5.869  -2.579   5.036  0.00  0.00     0.023 A 
ATOM      2  C1  UNL d   1       5.711  -2.696   3.655  0.00  0.00     0.003 A 
ATOM      3  C2  UNL d   1       4.450  -2.528   3.078  0.00  0.00     0.048 A 
ATOM      4  C3  UNL d   1       3.352  -2.242   3.888  0.00  0.00     0.023 A 
ATOM      5  C4  UNL d   1       3.505  -2.123   5.271  0.00  0.00     0.048 A 
ATOM      6  C5  UNL d   1       4.768  -2.293   5.843  0.00  0.00     0.003 A 
ATOM      7  I   UNL d   1       1.475  -1.991   3.033  0.00  0.00    -0.146 I 
ENDROOT
TORSDOF 0
ENDMDL
