MODEL 1
REMARK minimizedAffinity -1.96369278
REMARK minimizedRMSD -1
REMARK  0 active torsions:
REMARK  status: ('A' for Active; 'I' for Inactive)
ROOT
ATOM      1  C   UNL d   1       2.070  -2.252   2.919  0.00  0.00     0.023 A 
ATOM      2  C1  UNL d   1       0.768  -2.535   3.331  0.00  0.00     0.003 A 
ATOM      3  C2  UNL d   1       0.524  -3.610   4.188  0.00  0.00     0.048 A 
ATOM      4  C3  UNL d   1       1.586  -4.399   4.629  0.00  0.00     0.023 A 
ATOM      5  C4  UNL d   1       2.891  -4.119   4.219  0.00  0.00     0.048 A 
ATOM      6  C5  UNL d   1       3.130  -3.043   3.362  0.00  0.00     0.003 A 
ATOM      7  I   UNL d   1       1.225  -6.000   5.904  0.00  0.00    -0.146 I 
ENDROOT
TORSDOF 0
ENDMDL
