MODEL 1
REMARK minimizedAffinity -2.76003385
REMARK minimizedRMSD -1
REMARK  0 active torsions:
REMARK  status: ('A' for Active; 'I' for Inactive)
ROOT
ATOM      1  C   UNL d   1      -4.275  -5.295  -1.435  0.00  0.00     0.023 A 
ATOM      2  C1  UNL d   1      -5.383  -4.498  -1.721  0.00  0.00     0.003 A 
ATOM      3  C2  UNL d   1      -5.858  -4.404  -3.031  0.00  0.00     0.048 A 
ATOM      4  C3  UNL d   1      -5.220  -5.110  -4.050  0.00  0.00     0.023 A 
ATOM      5  C4  UNL d   1      -4.111  -5.910  -3.768  0.00  0.00     0.048 A 
ATOM      6  C5  UNL d   1      -3.639  -6.000  -2.457  0.00  0.00     0.003 A 
ATOM      7  I   UNL d   1      -5.925  -4.972  -6.000  0.00  0.00    -0.146 I 
ENDROOT
TORSDOF 0
ENDMDL
