MODEL 1
REMARK minimizedAffinity 10.2808743
REMARK minimizedRMSD -1
REMARK  0 active torsions:
REMARK  status: ('A' for Active; 'I' for Inactive)
ROOT
ATOM      1  N1  IND d   1      -3.449  -3.794   0.563  0.00  0.00    -0.196 N 
ATOM      2  C2  IND d   1      -3.647  -2.555   0.022  0.00  0.00     0.054 A 
ATOM      3  C3  IND d   1      -2.478  -2.048  -0.431  0.00  0.00    -0.031 A 
ATOM      4  C4  IND d   1      -0.139  -3.121  -0.480  0.00  0.00     0.051 A 
ATOM      5  C5  IND d   1       0.547  -4.229  -0.067  0.00  0.00    -0.031 A 
ATOM      6  C6  IND d   1      -0.078  -5.270   0.589  0.00  0.00     0.015 A 
ATOM      7  C7  IND d   1      -1.419  -5.248   0.846  0.00  0.00    -0.016 A 
ATOM      8  C8  IND d   1      -2.117  -4.122   0.434  0.00  0.00    -0.047 A 
ATOM      9  C9  IND d   1      -1.482  -3.043  -0.194  0.00  0.00    -0.096 A 
ATOM     10  HN1 IND d   1      -4.055  -4.287   0.924  0.00  0.00     0.298 HD
ENDROOT
TORSDOF 0
ENDMDL
