MODEL 1
REMARK minimizedAffinity 6.61216688
REMARK minimizedRMSD -1
REMARK  0 active torsions:
REMARK  status: ('A' for Active; 'I' for Inactive)
ROOT
ATOM      1  N1  IND d   1      -3.088  -2.611   0.406  0.00  0.00    -0.196 N 
ATOM      2  C2  IND d   1      -1.769  -2.970   0.386  0.00  0.00     0.054 A 
ATOM      3  C3  IND d   1      -1.079  -2.176  -0.464  0.00  0.00    -0.031 A 
ATOM      4  C4  IND d   1      -1.893  -0.163  -1.847  0.00  0.00     0.051 A 
ATOM      5  C5  IND d   1      -3.025   0.526  -2.184  0.00  0.00    -0.031 A 
ATOM      6  C6  IND d   1      -4.260   0.199  -1.662  0.00  0.00     0.015 A 
ATOM      7  C7  IND d   1      -4.408  -0.826  -0.771  0.00  0.00    -0.016 A 
ATOM      8  C8  IND d   1      -3.262  -1.532  -0.432  0.00  0.00    -0.047 A 
ATOM      9  C9  IND d   1      -2.013  -1.232  -0.991  0.00  0.00    -0.096 A 
ATOM     10  HN1 IND d   1      -3.705  -2.995   0.866  0.00  0.00     0.298 HD
ENDROOT
TORSDOF 0
ENDMDL
