MODEL 1
REMARK minimizedAffinity 5.62155819
REMARK minimizedRMSD -1
REMARK  0 active torsions:
REMARK  status: ('A' for Active; 'I' for Inactive)
ROOT
ATOM      1  N1  IND d   1      -2.968  -2.776  -0.145  0.00  0.00    -0.196 N 
ATOM      2  C2  IND d   1      -1.658  -2.386  -0.147  0.00  0.00     0.054 A 
ATOM      3  C3  IND d   1      -1.510  -1.238  -0.845  0.00  0.00    -0.031 A 
ATOM      4  C4  IND d   1      -3.297   0.227  -1.982  0.00  0.00     0.051 A 
ATOM      5  C5  IND d   1      -4.630   0.263  -2.280  0.00  0.00    -0.031 A 
ATOM      6  C6  IND d   1      -5.496  -0.731  -1.871  0.00  0.00     0.015 A 
ATOM      7  C7  IND d   1      -5.060  -1.797  -1.135  0.00  0.00    -0.016 A 
ATOM      8  C8  IND d   1      -3.706  -1.840  -0.837  0.00  0.00    -0.047 A 
ATOM      9  C9  IND d   1      -2.815  -0.856  -1.286  0.00  0.00    -0.096 A 
ATOM     10  HN1 IND d   1      -3.280  -3.486   0.227  0.00  0.00     0.298 HD
ENDROOT
TORSDOF 0
ENDMDL
