MODEL 1
REMARK minimizedAffinity 1.5810883
REMARK minimizedRMSD -1
REMARK  0 active torsions:
REMARK  status: ('A' for Active; 'I' for Inactive)
ROOT
ATOM      1  N1  IND d   1      -2.181  -3.936  -0.186  0.00  0.00    -0.196 N 
ATOM      2  C2  IND d   1      -2.866  -2.859   0.303  0.00  0.00     0.054 A 
ATOM      3  C3  IND d   1      -2.008  -1.952   0.823  0.00  0.00    -0.031 A 
ATOM      4  C4  IND d   1       0.565  -1.985   0.887  0.00  0.00     0.051 A 
ATOM      5  C5  IND d   1       1.640  -2.777   0.595  0.00  0.00    -0.031 A 
ATOM      6  C6  IND d   1       1.493  -4.020   0.014  0.00  0.00     0.015 A 
ATOM      7  C7  IND d   1       0.261  -4.514  -0.309  0.00  0.00    -0.016 A 
ATOM      8  C8  IND d   1      -0.833  -3.716  -0.008  0.00  0.00    -0.047 A 
ATOM      9  C9  IND d   1      -0.693  -2.471   0.621  0.00  0.00    -0.096 A 
ATOM     10  HN1 IND d   1      -2.533  -4.634  -0.544  0.00  0.00     0.298 HD
ENDROOT
TORSDOF 0
ENDMDL
