MODEL 1
REMARK minimizedAffinity 13.4451475
REMARK minimizedRMSD -1
REMARK  0 active torsions:
REMARK  status: ('A' for Active; 'I' for Inactive)
ROOT
ATOM      1  N1  IND d   1       1.143  -1.019   4.941  0.00  0.00    -0.196 N 
ATOM      2  C2  IND d   1       0.020  -1.392   5.627  0.00  0.00     0.054 A 
ATOM      3  C3  IND d   1      -0.842  -2.032   4.805  0.00  0.00    -0.031 A 
ATOM      4  C4  IND d   1      -0.571  -2.667   2.325  0.00  0.00     0.051 A 
ATOM      5  C5  IND d   1       0.268  -2.509   1.258  0.00  0.00    -0.031 A 
ATOM      6  C6  IND d   1       1.467  -1.835   1.367  0.00  0.00     0.015 A 
ATOM      7  C7  IND d   1       1.879  -1.302   2.555  0.00  0.00    -0.016 A 
ATOM      8  C8  IND d   1       1.026  -1.454   3.639  0.00  0.00    -0.047 A 
ATOM      9  C9  IND d   1      -0.212  -2.100   3.525  0.00  0.00    -0.096 A 
ATOM     10  HN1 IND d   1       1.810  -0.586   5.269  0.00  0.00     0.298 HD
ENDROOT
TORSDOF 0
ENDMDL
