MODEL 1
REMARK minimizedAffinity -3.87281322
REMARK minimizedRMSD -1
REMARK  0 active torsions:
REMARK  status: ('A' for Active; 'I' for Inactive)
ROOT
ATOM      1  N1  IND d   1       0.805  -0.736  -0.157  0.00  0.00    -0.196 N 
ATOM      2  C2  IND d   1       1.032  -1.480   0.967  0.00  0.00     0.054 A 
ATOM      3  C3  IND d   1      -0.057  -2.223   1.267  0.00  0.00    -0.031 A 
ATOM      4  C4  IND d   1      -2.283  -2.451  -0.006  0.00  0.00     0.051 A 
ATOM      5  C5  IND d   1      -2.972  -1.941  -1.070  0.00  0.00    -0.031 A 
ATOM      6  C6  IND d   1      -2.425  -0.986  -1.903  0.00  0.00     0.015 A 
ATOM      7  C7  IND d   1      -1.159  -0.511  -1.708  0.00  0.00    -0.016 A 
ATOM      8  C8  IND d   1      -0.459  -1.022  -0.624  0.00  0.00    -0.047 A 
ATOM      9  C9  IND d   1      -1.024  -1.960   0.249  0.00  0.00    -0.096 A 
ATOM     10  HN1 IND d   1       1.359  -0.182  -0.513  0.00  0.00     0.298 HD
ENDROOT
TORSDOF 0
ENDMDL
