MODEL 1
REMARK minimizedAffinity 9.97909737
REMARK minimizedRMSD -1
REMARK  0 active torsions:
REMARK  status: ('A' for Active; 'I' for Inactive)
ROOT
ATOM      1  N1  IND d   1       1.831  -2.369   5.998  0.00  0.00    -0.196 N 
ATOM      2  C2  IND d   1       0.580  -1.918   5.678  0.00  0.00     0.054 A 
ATOM      3  C3  IND d   1       0.535  -1.534   4.383  0.00  0.00    -0.031 A 
ATOM      4  C4  IND d   1       2.366  -1.655   2.577  0.00  0.00     0.051 A 
ATOM      5  C5  IND d   1       3.686  -1.960   2.400  0.00  0.00    -0.031 A 
ATOM      6  C6  IND d   1       4.471  -2.429   3.434  0.00  0.00     0.015 A 
ATOM      7  C7  IND d   1       3.959  -2.622   4.686  0.00  0.00    -0.016 A 
ATOM      8  C8  IND d   1       2.620  -2.307   4.870  0.00  0.00    -0.047 A 
ATOM      9  C9  IND d   1       1.830  -1.790   3.836  0.00  0.00    -0.096 A 
ATOM     10  HN1 IND d   1       2.082  -2.645   6.772  0.00  0.00     0.298 HD
ENDROOT
TORSDOF 0
ENDMDL
