MODEL 1
REMARK minimizedAffinity 12.1052971
REMARK minimizedRMSD -1
REMARK  0 active torsions:
REMARK  status: ('A' for Active; 'I' for Inactive)
ROOT
ATOM      1  N1  IND d   1      -2.500  -4.160   1.093  0.00  0.00    -0.196 N 
ATOM      2  C2  IND d   1      -1.274  -3.738   0.659  0.00  0.00     0.054 A 
ATOM      3  C3  IND d   1      -1.412  -2.748  -0.251  0.00  0.00    -0.031 A 
ATOM      4  C4  IND d   1      -3.551  -1.594  -1.100  0.00  0.00     0.051 A 
ATOM      5  C5  IND d   1      -4.914  -1.658  -1.021  0.00  0.00    -0.031 A 
ATOM      6  C6  IND d   1      -5.555  -2.576  -0.215  0.00  0.00     0.015 A 
ATOM      7  C7  IND d   1      -4.853  -3.461   0.555  0.00  0.00    -0.016 A 
ATOM      8  C8  IND d   1      -3.469  -3.403   0.471  0.00  0.00    -0.047 A 
ATOM      9  C9  IND d   1      -2.814  -2.502  -0.377  0.00  0.00    -0.096 A 
ATOM     10  HN1 IND d   1      -2.642  -4.791   1.659  0.00  0.00     0.298 HD
ENDROOT
TORSDOF 0
ENDMDL
