MODEL 1
REMARK minimizedAffinity 6.51886988
REMARK minimizedRMSD -1
REMARK  0 active torsions:
REMARK  status: ('A' for Active; 'I' for Inactive)
ROOT
ATOM      1  N1  IND d   1      -4.451  -3.423   0.650  0.00  0.00    -0.196 N 
ATOM      2  C2  IND d   1      -5.100  -2.436  -0.038  0.00  0.00     0.054 A 
ATOM      3  C3  IND d   1      -4.216  -1.689  -0.736  0.00  0.00    -0.031 A 
ATOM      4  C4  IND d   1      -1.668  -1.970  -0.975  0.00  0.00     0.051 A 
ATOM      5  C5  IND d   1      -0.617  -2.706  -0.506  0.00  0.00    -0.031 A 
ATOM      6  C6  IND d   1      -0.794  -3.743   0.388  0.00  0.00     0.015 A 
ATOM      7  C7  IND d   1      -2.036  -4.089   0.840  0.00  0.00    -0.016 A 
ATOM      8  C8  IND d   1      -3.105  -3.339   0.371  0.00  0.00    -0.047 A 
ATOM      9  C9  IND d   1      -2.926  -2.259  -0.503  0.00  0.00    -0.096 A 
ATOM     10  HN1 IND d   1      -4.822  -4.000   1.169  0.00  0.00     0.298 HD
ENDROOT
TORSDOF 0
ENDMDL
