MODEL 1
REMARK minimizedAffinity 8.86607552
REMARK minimizedRMSD -1
REMARK  0 active torsions:
REMARK  status: ('A' for Active; 'I' for Inactive)
ROOT
ATOM      1  N1  IND d   1       0.228   0.982  -0.649  0.00  0.00    -0.196 N 
ATOM      2  C2  IND d   1       0.019   2.320  -0.835  0.00  0.00     0.054 A 
ATOM      3  C3  IND d   1       0.132   2.981   0.339  0.00  0.00    -0.031 A 
ATOM      4  C4  IND d   1       0.751   2.081   2.670  0.00  0.00     0.051 A 
ATOM      5  C5  IND d   1       0.997   0.919   3.345  0.00  0.00    -0.031 A 
ATOM      6  C6  IND d   1       1.001  -0.306   2.710  0.00  0.00     0.015 A 
ATOM      7  C7  IND d   1       0.771  -0.414   1.368  0.00  0.00    -0.016 A 
ATOM      8  C8  IND d   1       0.514   0.763   0.680  0.00  0.00    -0.047 A 
ATOM      9  C9  IND d   1       0.466   2.005   1.327  0.00  0.00    -0.096 A 
ATOM     10  HN1 IND d   1       0.187   0.378  -1.260  0.00  0.00     0.298 HD
ENDROOT
TORSDOF 0
ENDMDL
