MODEL 1
REMARK minimizedAffinity 14.6500177
REMARK minimizedRMSD -1
REMARK  0 active torsions:
REMARK  status: ('A' for Active; 'I' for Inactive)
ROOT
ATOM      1  C4' PXY d   1      -3.746   1.923  -2.593  0.00  0.00     0.077 C 
ATOM      2  C1' PXY d   1      -5.057   4.171   2.569  0.00  0.00     0.077 C 
ATOM      3  C1  PXY d   1      -4.701   3.582   1.218  0.00  0.00    -0.082 A 
ATOM      4  C2  PXY d   1      -5.559   3.678   0.216  0.00  0.00     0.003 A 
ATOM      5  C3  PXY d   1      -5.266   3.123  -1.004  0.00  0.00     0.003 A 
ATOM      6  C4  PXY d   1      -4.060   2.511  -1.214  0.00  0.00    -0.082 A 
ATOM      7  C5  PXY d   1      -3.174   2.418  -0.200  0.00  0.00     0.003 A 
ATOM      8  C6  PXY d   1      -3.508   2.952   1.042  0.00  0.00     0.003 A 
ENDROOT
TORSDOF 0
ENDMDL
