MODEL 1
REMARK minimizedAffinity 11.0208235
REMARK minimizedRMSD -1
REMARK  0 active torsions:
REMARK  status: ('A' for Active; 'I' for Inactive)
ROOT
ATOM      1  C4' PXY d   1      -2.558   1.846   1.110  0.00  0.00     0.077 C 
ATOM      2  C1' PXY d   1      -4.138   1.930  -4.450  0.00  0.00     0.077 C 
ATOM      3  C1  PXY d   1      -3.711   1.909  -2.996  0.00  0.00    -0.082 A 
ATOM      4  C2  PXY d   1      -4.471   1.302  -2.099  0.00  0.00     0.003 A 
ATOM      5  C3  PXY d   1      -4.117   1.301  -0.775  0.00  0.00     0.003 A 
ATOM      6  C4  PXY d   1      -2.945   1.883  -0.371  0.00  0.00    -0.082 A 
ATOM      7  C5  PXY d   1      -2.158   2.496  -1.281  0.00  0.00     0.003 A 
ATOM      8  C6  PXY d   1      -2.557   2.521  -2.615  0.00  0.00     0.003 A 
ENDROOT
TORSDOF 0
ENDMDL
