MODEL 1
REMARK minimizedAffinity 16.5951824
REMARK minimizedRMSD -1
REMARK  0 active torsions:
REMARK  status: ('A' for Active; 'I' for Inactive)
ROOT
ATOM      1  C4' PXY d   1       4.385  -2.763   3.544  0.00  0.00     0.077 C 
ATOM      2  C1' PXY d   1      -0.221  -0.326   1.041  0.00  0.00     0.077 C 
ATOM      3  C1  PXY d   1       0.980  -0.967   1.709  0.00  0.00    -0.082 A 
ATOM      4  C2  PXY d   1       2.197  -0.698   1.263  0.00  0.00     0.003 A 
ATOM      5  C3  PXY d   1       3.292  -1.294   1.835  0.00  0.00     0.003 A 
ATOM      6  C4  PXY d   1       3.144  -2.132   2.907  0.00  0.00    -0.082 A 
ATOM      7  C5  PXY d   1       1.907  -2.403   3.374  0.00  0.00     0.003 A 
ATOM      8  C6  PXY d   1       0.805  -1.820   2.754  0.00  0.00     0.003 A 
ENDROOT
TORSDOF 0
ENDMDL
