MODEL 1
REMARK minimizedAffinity 0.7053532
REMARK minimizedRMSD -1
REMARK  0 active torsions:
REMARK  status: ('A' for Active; 'I' for Inactive)
ROOT
ATOM      1  C4' PXY d   1       2.860  -2.206  -3.197  0.00  0.00     0.077 C 
ATOM      2  C1' PXY d   1       6.000   1.756  -6.000  0.00  0.00     0.077 C 
ATOM      3  C1  PXY d   1       5.183   0.707  -5.271  0.00  0.00    -0.082 A 
ATOM      4  C2  PXY d   1       3.984   1.019  -4.807  0.00  0.00     0.003 A 
ATOM      5  C3  PXY d   1       3.245   0.092  -4.117  0.00  0.00     0.003 A 
ATOM      6  C4  PXY d   1       3.716  -1.182  -3.948  0.00  0.00    -0.082 A 
ATOM      7  C5  PXY d   1       4.934  -1.511  -4.428  0.00  0.00     0.003 A 
ATOM      8  C6  PXY d   1       5.686  -0.544  -5.089  0.00  0.00     0.003 A 
ENDROOT
TORSDOF 0
ENDMDL
