MODEL 1
REMARK minimizedAffinity 10.9884939
REMARK minimizedRMSD -1
REMARK  0 active torsions:
REMARK  status: ('A' for Active; 'I' for Inactive)
ROOT
ATOM      1  C4' PXY d   1       3.277  -4.416   4.718  0.00  0.00     0.077 C 
ATOM      2  C1' PXY d   1       1.474  -0.611   0.758  0.00  0.00     0.077 C 
ATOM      3  C1  PXY d   1       1.957  -1.611   1.789  0.00  0.00    -0.082 A 
ATOM      4  C2  PXY d   1       1.086  -2.181   2.606  0.00  0.00     0.003 A 
ATOM      5  C3  PXY d   1       1.511  -3.064   3.566  0.00  0.00     0.003 A 
ATOM      6  C4  PXY d   1       2.833  -3.407   3.655  0.00  0.00    -0.082 A 
ATOM      7  C5  PXY d   1       3.726  -2.838   2.818  0.00  0.00     0.003 A 
ATOM      8  C6  PXY d   1       3.281  -1.913   1.878  0.00  0.00     0.003 A 
ENDROOT
TORSDOF 0
ENDMDL
