MODEL 1
REMARK minimizedAffinity 6.45911217
REMARK minimizedRMSD -1
REMARK  0 active torsions:
REMARK  status: ('A' for Active; 'I' for Inactive)
ROOT
ATOM      1  C4' PXY d   1      -4.177  -0.969  -3.695  0.00  0.00     0.077 C 
ATOM      2  C1' PXY d   1      -5.876  -5.991  -5.999  0.00  0.00     0.077 C 
ATOM      3  C1  PXY d   1      -5.419  -4.675  -5.401  0.00  0.00    -0.082 A 
ATOM      4  C2  PXY d   1      -5.995  -4.222  -4.300  0.00  0.00     0.003 A 
ATOM      5  C3  PXY d   1      -5.616  -3.019  -3.763  0.00  0.00     0.003 A 
ATOM      6  C4  PXY d   1      -4.600  -2.297  -4.329  0.00  0.00    -0.082 A 
ATOM      7  C5  PXY d   1      -3.999  -2.758  -5.447  0.00  0.00     0.003 A 
ATOM      8  C6  PXY d   1      -4.427  -3.962  -5.999  0.00  0.00     0.003 A 
ENDROOT
TORSDOF 0
ENDMDL
