MODEL 1
REMARK minimizedAffinity 15.7562656
REMARK minimizedRMSD -1
REMARK  0 active torsions:
REMARK  status: ('A' for Active; 'I' for Inactive)
ROOT
ATOM      1  C4' PXY d   1      -5.227   2.461  -4.690  0.00  0.00     0.077 C 
ATOM      2  C1' PXY d   1      -2.766   1.988   0.519  0.00  0.00     0.077 C 
ATOM      3  C1  PXY d   1      -3.423   2.113  -0.842  0.00  0.00    -0.082 A 
ATOM      4  C2  PXY d   1      -2.792   1.667  -1.916  0.00  0.00     0.003 A 
ATOM      5  C3  PXY d   1      -3.358   1.801  -3.158  0.00  0.00     0.003 A 
ATOM      6  C4  PXY d   1      -4.606   2.348  -3.295  0.00  0.00    -0.082 A 
ATOM      7  C5  PXY d   1      -5.260   2.795  -2.203  0.00  0.00     0.003 A 
ATOM      8  C6  PXY d   1      -4.651   2.687  -0.956  0.00  0.00     0.003 A 
ENDROOT
TORSDOF 0
ENDMDL
