MODEL 1
REMARK minimizedAffinity 6.26188898
REMARK minimizedRMSD -1
REMARK  0 active torsions:
REMARK  status: ('A' for Active; 'I' for Inactive)
ROOT
ATOM      1  C4' PXY d   1      -3.501   2.546   0.738  0.00  0.00     0.077 C 
ATOM      2  C1' PXY d   1      -5.183   2.401  -4.790  0.00  0.00     0.077 C 
ATOM      3  C1  PXY d   1      -4.751   2.448  -3.338  0.00  0.00    -0.082 A 
ATOM      4  C2  PXY d   1      -3.540   2.033  -3.002  0.00  0.00     0.003 A 
ATOM      5  C3  PXY d   1      -3.144   2.039  -1.689  0.00  0.00     0.003 A 
ATOM      6  C4  PXY d   1      -3.977   2.525  -0.717  0.00  0.00    -0.082 A 
ATOM      7  C5  PXY d   1      -5.209   2.961  -1.053  0.00  0.00     0.003 A 
ATOM      8  C6  PXY d   1      -5.607   2.908  -2.386  0.00  0.00     0.003 A 
ENDROOT
TORSDOF 0
ENDMDL
