MODEL 1
REMARK minimizedAffinity -1.96086812
REMARK minimizedRMSD -1
REMARK  0 active torsions:
REMARK  status: ('A' for Active; 'I' for Inactive)
ROOT
ATOM      1  C2' OXE d   1      -2.359  -0.611   1.888  0.00  0.00     0.078 C 
ATOM      2  C1' OXE d   1       0.060  -1.267   3.152  0.00  0.00     0.078 C 
ATOM      3  C1  OXE d   1       0.086  -1.032   1.663  0.00  0.00    -0.078 A 
ATOM      4  C2  OXE d   1      -1.110  -0.757   1.045  0.00  0.00    -0.078 A 
ATOM      5  C3  OXE d   1      -1.134  -0.477  -0.318  0.00  0.00     0.003 A 
ATOM      6  C4  OXE d   1       0.023  -0.625  -1.092  0.00  0.00    -0.002 A 
ATOM      7  C5  OXE d   1       1.245  -0.943  -0.489  0.00  0.00    -0.002 A 
ATOM      8  C6  OXE d   1       1.302  -1.108   0.890  0.00  0.00     0.003 A 
ENDROOT
TORSDOF 0
ENDMDL
