MODEL 1
REMARK minimizedAffinity 2.96197915
REMARK minimizedRMSD -1
REMARK  0 active torsions:
REMARK  status: ('A' for Active; 'I' for Inactive)
ROOT
ATOM      1  C2' OXE d   1       3.939  -0.661  -0.073  0.00  0.00     0.078 C 
ATOM      2  C1' OXE d   1       1.351  -0.976  -1.116  0.00  0.00     0.078 C 
ATOM      3  C1  OXE d   1       1.500  -0.886   0.382  0.00  0.00    -0.078 A 
ATOM      4  C2  OXE d   1       2.774  -0.780   0.886  0.00  0.00    -0.078 A 
ATOM      5  C3  OXE d   1       2.964  -0.639   2.258  0.00  0.00     0.003 A 
ATOM      6  C4  OXE d   1       1.882  -0.760   3.139  0.00  0.00    -0.002 A 
ATOM      7  C5  OXE d   1       0.580  -0.909   2.649  0.00  0.00    -0.002 A 
ATOM      8  C6  OXE d   1       0.368  -0.931   1.275  0.00  0.00     0.003 A 
ENDROOT
TORSDOF 0
ENDMDL
