MODEL 1
REMARK minimizedAffinity -0.737431228
REMARK minimizedRMSD -1
REMARK  0 active torsions:
REMARK  status: ('A' for Active; 'I' for Inactive)
ROOT
ATOM      1  C2' OXE d   1       1.636  -1.429  -0.458  0.00  0.00     0.078 C 
ATOM      2  C1' OXE d   1      -0.016   0.463  -1.712  0.00  0.00     0.078 C 
ATOM      3  C1  OXE d   1      -0.375   0.034  -0.311  0.00  0.00    -0.078 A 
ATOM      4  C2  OXE d   1       0.412  -0.927   0.277  0.00  0.00    -0.078 A 
ATOM      5  C3  OXE d   1       0.158  -1.318   1.588  0.00  0.00     0.003 A 
ATOM      6  C4  OXE d   1      -0.982  -0.857   2.258  0.00  0.00    -0.002 A 
ATOM      7  C5  OXE d   1      -1.820   0.093   1.662  0.00  0.00    -0.002 A 
ATOM      8  C6  OXE d   1      -1.507   0.579   0.397  0.00  0.00     0.003 A 
ENDROOT
TORSDOF 0
ENDMDL
