MODEL 1
REMARK minimizedAffinity -1.97707522
REMARK minimizedRMSD -1
REMARK  0 active torsions:
REMARK  status: ('A' for Active; 'I' for Inactive)
ROOT
ATOM      1  C2' OXE d   1       0.388   0.012  -1.805  0.00  0.00     0.078 C 
ATOM      2  C1' OXE d   1       2.356  -1.499  -0.491  0.00  0.00     0.078 C 
ATOM      3  C1  OXE d   1       1.143  -1.081   0.302  0.00  0.00    -0.078 A 
ATOM      4  C2  OXE d   1       0.208  -0.303  -0.336  0.00  0.00    -0.078 A 
ATOM      5  C3  OXE d   1      -0.956   0.064   0.334  0.00  0.00     0.003 A 
ATOM      6  C4  OXE d   1      -1.111  -0.222   1.696  0.00  0.00    -0.002 A 
ATOM      7  C5  OXE d   1      -0.152  -0.981   2.375  0.00  0.00    -0.002 A 
ATOM      8  C6  OXE d   1       0.958  -1.453   1.683  0.00  0.00     0.003 A 
ENDROOT
TORSDOF 0
ENDMDL
