MODEL 1
REMARK minimizedAffinity 10.3436451
REMARK minimizedRMSD -1
REMARK  0 active torsions:
REMARK  status: ('A' for Active; 'I' for Inactive)
ROOT
ATOM      1  C2' OXE d   1      -4.591   0.409  -4.566  0.00  0.00     0.078 C 
ATOM      2  C1' OXE d   1      -2.752   1.699  -2.883  0.00  0.00     0.078 C 
ATOM      3  C1  OXE d   1      -3.860   2.529  -3.482  0.00  0.00    -0.078 A 
ATOM      4  C2  OXE d   1      -4.728   1.899  -4.341  0.00  0.00    -0.078 A 
ATOM      5  C3  OXE d   1      -5.800   2.606  -4.878  0.00  0.00     0.003 A 
ATOM      6  C4  OXE d   1      -5.914   3.986  -4.672  0.00  0.00    -0.002 A 
ATOM      7  C5  OXE d   1      -5.017   4.655  -3.832  0.00  0.00    -0.002 A 
ATOM      8  C6  OXE d   1      -4.012   3.934  -3.197  0.00  0.00     0.003 A 
ENDROOT
TORSDOF 0
ENDMDL
