MODEL 1
REMARK minimizedAffinity -4.53346634
REMARK minimizedRMSD -1
REMARK  0 active torsions:
REMARK  status: ('A' for Active; 'I' for Inactive)
ROOT
ATOM      1  C2' OXE d   1      -0.479  -0.628   2.174  0.00  0.00     0.078 C 
ATOM      2  C1' OXE d   1      -3.056   0.313   1.578  0.00  0.00     0.078 C 
ATOM      3  C1  OXE d   1      -2.002   0.421   0.505  0.00  0.00    -0.078 A 
ATOM      4  C2  OXE d   1      -0.732   0.002   0.821  0.00  0.00    -0.078 A 
ATOM      5  C3  OXE d   1       0.265   0.029  -0.150  0.00  0.00     0.003 A 
ATOM      6  C4  OXE d   1       0.025   0.622  -1.396  0.00  0.00    -0.002 A 
ATOM      7  C5  OXE d   1      -1.251   1.092  -1.724  0.00  0.00    -0.002 A 
ATOM      8  C6  OXE d   1      -2.284   0.961  -0.803  0.00  0.00     0.003 A 
ENDROOT
TORSDOF 0
ENDMDL
