MODEL 1
REMARK minimizedAffinity -3.12329555
REMARK minimizedRMSD -1
REMARK  0 active torsions:
REMARK  status: ('A' for Active; 'I' for Inactive)
ROOT
ATOM      1  C2' OXE d   1      -1.294   0.013   1.956  0.00  0.00     0.078 C 
ATOM      2  C1' OXE d   1      -0.517   0.173  -0.737  0.00  0.00     0.078 C 
ATOM      3  C1  OXE d   1       0.254  -0.759   0.164  0.00  0.00    -0.078 A 
ATOM      4  C2  OXE d   1      -0.104  -0.797   1.490  0.00  0.00    -0.078 A 
ATOM      5  C3  OXE d   1       0.539  -1.680   2.353  0.00  0.00     0.003 A 
ATOM      6  C4  OXE d   1       1.646  -2.418   1.916  0.00  0.00    -0.002 A 
ATOM      7  C5  OXE d   1       2.052  -2.365   0.578  0.00  0.00    -0.002 A 
ATOM      8  C6  OXE d   1       1.341  -1.575  -0.318  0.00  0.00     0.003 A 
ENDROOT
TORSDOF 0
ENDMDL
