MODEL 1
REMARK minimizedAffinity -2.97269535
REMARK minimizedRMSD -1
REMARK  0 active torsions:
REMARK  status: ('A' for Active; 'I' for Inactive)
ROOT
ATOM      1  C2' OXE d   1       2.278  -2.072  -0.482  0.00  0.00     0.078 C 
ATOM      2  C1' OXE d   1       0.313  -0.140  -1.015  0.00  0.00     0.078 C 
ATOM      3  C1  OXE d   1       0.372  -0.717   0.377  0.00  0.00    -0.078 A 
ATOM      4  C2  OXE d   1       1.307  -1.696   0.616  0.00  0.00    -0.078 A 
ATOM      5  C3  OXE d   1       1.440  -2.224   1.897  0.00  0.00     0.003 A 
ATOM      6  C4  OXE d   1       0.531  -1.878   2.905  0.00  0.00    -0.002 A 
ATOM      7  C5  OXE d   1      -0.454  -0.912   2.671  0.00  0.00    -0.002 A 
ATOM      8  C6  OXE d   1      -0.519  -0.293   1.428  0.00  0.00     0.003 A 
ENDROOT
TORSDOF 0
ENDMDL
