MODEL 1
REMARK minimizedAffinity -2.93631744
REMARK minimizedRMSD -1
REMARK  2 active torsions:
REMARK  status: ('A' for Active; 'I' for Inactive)
REMARK    1  A    between atoms: C1_2  and  C2_3 
REMARK    2  A    between atoms: C2_3  and  C3_4 
ROOT
ATOM      1  C3  UNL d   1       0.235  -0.691   0.134  0.00  0.00    -0.075 A 
ATOM      2  C4  UNL d   1       1.596  -0.829   0.441  0.00  0.00     0.002 A 
ATOM      3  C5  UNL d   1       2.042  -0.701   1.757  0.00  0.00     0.002 A 
ATOM      4  C6  UNL d   1       1.136  -0.423   2.778  0.00  0.00    -0.004 A 
ATOM      5  C7  UNL d   1      -0.216  -0.267   2.482  0.00  0.00     0.002 A 
ATOM      6  C8  UNL d   1      -0.666  -0.399   1.167  0.00  0.00     0.002 A 
ENDROOT
BRANCH   1   7
ATOM      7  C2  UNL d   1      -0.258  -0.858  -1.284  0.00  0.00     0.056 C 
BRANCH   7   8
ATOM      8  C1  UNL d   1      -1.025  -2.162  -1.528  0.00  0.00     0.007 C 
ATOM      9  C   UNL d   1      -0.208  -3.407  -1.210  0.00  0.00     0.009 C 
ENDBRANCH   7   8
ENDBRANCH   1   7
TORSDOF 2
ENDMDL
