MODEL 1
REMARK minimizedAffinity -5.29638386
REMARK minimizedRMSD -1
REMARK  2 active torsions:
REMARK  status: ('A' for Active; 'I' for Inactive)
REMARK    1  A    between atoms: C1_2  and  C2_3 
REMARK    2  A    between atoms: C2_3  and  C3_4 
ROOT
ATOM      1  C3  UNL d   1      -0.461   0.081   0.061  0.00  0.00    -0.075 A 
ATOM      2  C4  UNL d   1      -0.280   1.472   0.097  0.00  0.00     0.002 A 
ATOM      3  C5  UNL d   1      -0.622   2.201   1.237  0.00  0.00     0.002 A 
ATOM      4  C6  UNL d   1      -1.156   1.553   2.348  0.00  0.00    -0.004 A 
ATOM      5  C7  UNL d   1      -1.356   0.175   2.317  0.00  0.00     0.002 A 
ATOM      6  C8  UNL d   1      -1.012  -0.558   1.180  0.00  0.00     0.002 A 
ENDROOT
BRANCH   1   7
ATOM      7  C2  UNL d   1      -0.067  -0.718  -1.158  0.00  0.00     0.056 C 
BRANCH   7   8
ATOM      8  C1  UNL d   1      -1.086  -1.790  -1.557  0.00  0.00     0.007 C 
ATOM      9  C   UNL d   1      -0.533  -3.206  -1.468  0.00  0.00     0.009 C 
ENDBRANCH   7   8
ENDBRANCH   1   7
TORSDOF 2
ENDMDL
