MODEL 1
REMARK minimizedAffinity -3.32435441
REMARK minimizedRMSD -1
REMARK  2 active torsions:
REMARK  status: ('A' for Active; 'I' for Inactive)
REMARK    1  A    between atoms: C1_2  and  C2_3 
REMARK    2  A    between atoms: C2_3  and  C3_4 
ROOT
ATOM      1  C3  UNL d   1       0.401  -1.584  -0.771  0.00  0.00    -0.075 A 
ATOM      2  C4  UNL d   1       1.437  -2.443  -1.167  0.00  0.00     0.002 A 
ATOM      3  C5  UNL d   1       1.158  -3.748  -1.575  0.00  0.00     0.002 A 
ATOM      4  C6  UNL d   1      -0.155  -4.213  -1.584  0.00  0.00    -0.004 A 
ATOM      5  C7  UNL d   1      -1.190  -3.373  -1.177  0.00  0.00     0.002 A 
ATOM      6  C8  UNL d   1      -0.914  -2.066  -0.772  0.00  0.00     0.002 A 
ENDROOT
BRANCH   1   7
ATOM      7  C2  UNL d   1       0.693  -0.162  -0.356  0.00  0.00     0.056 C 
BRANCH   7   8
ATOM      8  C1  UNL d   1       1.080  -0.009   1.118  0.00  0.00     0.007 C 
ATOM      9  C   UNL d   1      -0.122   0.048   2.052  0.00  0.00     0.009 C 
ENDBRANCH   7   8
ENDBRANCH   1   7
TORSDOF 2
ENDMDL
