MODEL 1
REMARK minimizedAffinity 1.02349007
REMARK minimizedRMSD -1
REMARK  2 active torsions:
REMARK  status: ('A' for Active; 'I' for Inactive)
REMARK    1  A    between atoms: C1_2  and  C2_3 
REMARK    2  A    between atoms: C2_3  and  C3_4 
ROOT
ATOM      1  C3  UNL d   1       0.397  -0.235   0.404  0.00  0.00    -0.075 A 
ATOM      2  C4  UNL d   1       0.243   1.157   0.479  0.00  0.00     0.002 A 
ATOM      3  C5  UNL d   1      -0.080   1.769   1.690  0.00  0.00     0.002 A 
ATOM      4  C6  UNL d   1      -0.262   1.000   2.836  0.00  0.00    -0.004 A 
ATOM      5  C7  UNL d   1      -0.127  -0.385   2.770  0.00  0.00     0.002 A 
ATOM      6  C8  UNL d   1       0.200  -1.001   1.561  0.00  0.00     0.002 A 
ENDROOT
BRANCH   1   7
ATOM      7  C2  UNL d   1       0.776  -0.902  -0.897  0.00  0.00     0.056 C 
BRANCH   7   8
ATOM      8  C1  UNL d   1       0.195  -2.310  -1.069  0.00  0.00     0.007 C 
ATOM      9  C   UNL d   1       1.246  -3.408  -0.981  0.00  0.00     0.009 C 
ENDBRANCH   7   8
ENDBRANCH   1   7
TORSDOF 2
ENDMDL
