MODEL 1
REMARK minimizedAffinity 8.58625031
REMARK minimizedRMSD -1
REMARK  2 active torsions:
REMARK  status: ('A' for Active; 'I' for Inactive)
REMARK    1  A    between atoms: C1_2  and  C2_3 
REMARK    2  A    between atoms: C2_3  and  C3_4 
ROOT
ATOM      1  C3  UNL d   1       0.667   2.712   1.431  0.00  0.00    -0.075 A 
ATOM      2  C4  UNL d   1       0.711   2.260   2.758  0.00  0.00     0.002 A 
ATOM      3  C5  UNL d   1       0.510   0.912   3.055  0.00  0.00     0.002 A 
ATOM      4  C6  UNL d   1       0.254   0.001   2.032  0.00  0.00    -0.004 A 
ATOM      5  C7  UNL d   1       0.192   0.442   0.711  0.00  0.00     0.002 A 
ATOM      6  C8  UNL d   1       0.397   1.789   0.411  0.00  0.00     0.002 A 
ENDROOT
BRANCH   1   7
ATOM      7  C2  UNL d   1       0.913   4.165   1.101  0.00  0.00     0.056 C 
BRANCH   7   8
ATOM      8  C1  UNL d   1       0.085   4.685  -0.079  0.00  0.00     0.007 C 
ATOM      9  C   UNL d   1      -0.684   5.959   0.243  0.00  0.00     0.009 C 
ENDBRANCH   7   8
ENDBRANCH   1   7
TORSDOF 2
ENDMDL
