MODEL 1
REMARK minimizedAffinity 1.36939275
REMARK minimizedRMSD -1
REMARK  0 active torsions:
REMARK  status: ('A' for Active; 'I' for Inactive)
ROOT
ATOM      1  C   UNL d   1       0.792   1.202   2.509  0.00  0.00     0.020 A 
ATOM      2  C1  UNL d   1       0.672   0.048   1.735  0.00  0.00     0.020 A 
ATOM      3  C2  UNL d   1       0.422   0.149   0.365  0.00  0.00     0.034 A 
ATOM      4  C3  UNL d   1       0.291   1.407  -0.236  0.00  0.00     0.017 A 
ATOM      5  C4  UNL d   1       0.411   2.564   0.542  0.00  0.00     0.017 A 
ATOM      6  C5  UNL d   1       0.662   2.457   1.913  0.00  0.00     0.034 A 
ATOM      7 Cl   UNL d   1       0.262   4.150  -0.128  0.00  0.00    -0.070 Cl
ATOM      8 Cl1  UNL d   1      -0.018   1.457  -1.935  0.00  0.00    -0.070 Cl
ENDROOT
TORSDOF 0
ENDMDL
