MODEL 1
REMARK minimizedAffinity 1.19709241
REMARK minimizedRMSD -1
REMARK  0 active torsions:
REMARK  status: ('A' for Active; 'I' for Inactive)
ROOT
ATOM      1  C   UNL d   1       0.470   1.869   2.432  0.00  0.00     0.020 A 
ATOM      2  C1  UNL d   1       0.378   0.598   1.868  0.00  0.00     0.020 A 
ATOM      3  C2  UNL d   1       0.340   0.451   0.479  0.00  0.00     0.034 A 
ATOM      4  C3  UNL d   1       0.395   1.577  -0.349  0.00  0.00     0.017 A 
ATOM      5  C4  UNL d   1       0.488   2.853   0.218  0.00  0.00     0.017 A 
ATOM      6  C5  UNL d   1       0.525   2.995   1.609  0.00  0.00     0.034 A 
ATOM      7 Cl   UNL d   1       0.560   4.291  -0.740  0.00  0.00    -0.070 Cl
ATOM      8 Cl1  UNL d   1       0.344   1.322  -2.057  0.00  0.00    -0.070 Cl
ENDROOT
TORSDOF 0
ENDMDL
