MODEL 1
REMARK minimizedAffinity -3.88842225
REMARK minimizedRMSD -1
REMARK  0 active torsions:
REMARK  status: ('A' for Active; 'I' for Inactive)
ROOT
ATOM      1  C   UNL d   1       2.979  -0.970   3.304  0.00  0.00     0.020 A 
ATOM      2  C1  UNL d   1       1.926  -1.148   2.408  0.00  0.00     0.020 A 
ATOM      3  C2  UNL d   1       1.111  -0.067   2.066  0.00  0.00     0.034 A 
ATOM      4  C3  UNL d   1       1.347   1.196   2.620  0.00  0.00     0.017 A 
ATOM      5  C4  UNL d   1       2.404   1.373   3.520  0.00  0.00     0.017 A 
ATOM      6  C5  UNL d   1       3.218   0.287   3.859  0.00  0.00     0.034 A 
ATOM      7 Cl   UNL d   1       2.758   2.902   4.246  0.00  0.00    -0.070 Cl
ATOM      8 Cl1  UNL d   1       0.300   2.488   2.152  0.00  0.00    -0.070 Cl
ENDROOT
TORSDOF 0
ENDMDL
