MODEL 1
REMARK minimizedAffinity -5.48242188
REMARK minimizedRMSD -1
REMARK  0 active torsions:
REMARK  status: ('A' for Active; 'I' for Inactive)
ROOT
ATOM      1  C   UNL d   1      -0.243   4.771  -2.398  0.00  0.00     0.020 A 
ATOM      2  C1  UNL d   1       0.292   5.118  -1.158  0.00  0.00     0.020 A 
ATOM      3  C2  UNL d   1       0.194   4.232  -0.083  0.00  0.00     0.034 A 
ATOM      4  C3  UNL d   1      -0.440   2.995  -0.245  0.00  0.00     0.017 A 
ATOM      5  C4  UNL d   1      -0.977   2.648  -1.490  0.00  0.00     0.017 A 
ATOM      6  C5  UNL d   1      -0.877   3.539  -2.563  0.00  0.00     0.034 A 
ATOM      7 Cl   UNL d   1      -1.775   1.140  -1.768  0.00  0.00    -0.070 Cl
ATOM      8 Cl1  UNL d   1      -0.524   1.949   1.127  0.00  0.00    -0.070 Cl
ENDROOT
TORSDOF 0
ENDMDL
