MODEL 1
REMARK minimizedAffinity -0.38812381
REMARK minimizedRMSD -1
REMARK  0 active torsions:
REMARK  status: ('A' for Active; 'I' for Inactive)
ROOT
ATOM      1  C   UNL d   1       0.953   5.089  -0.750  0.00  0.00     0.020 A 
ATOM      2  C1  UNL d   1       0.358   6.000  -1.622  0.00  0.00     0.020 A 
ATOM      3  C2  UNL d   1      -0.616   5.568  -2.524  0.00  0.00     0.034 A 
ATOM      4  C3  UNL d   1      -0.998   4.222  -2.558  0.00  0.00     0.017 A 
ATOM      5  C4  UNL d   1      -0.400   3.308  -1.682  0.00  0.00     0.017 A 
ATOM      6  C5  UNL d   1       0.575   3.746  -0.780  0.00  0.00     0.034 A 
ATOM      7 Cl   UNL d   1      -0.819   1.632  -1.664  0.00  0.00    -0.070 Cl
ATOM      8 Cl1  UNL d   1      -2.209   3.758  -3.699  0.00  0.00    -0.070 Cl
ENDROOT
TORSDOF 0
ENDMDL
