MODEL 1
REMARK minimizedAffinity 9.17020607
REMARK minimizedRMSD -1
REMARK  0 active torsions:
REMARK  status: ('A' for Active; 'I' for Inactive)
ROOT
ATOM      1  C   UNL d   1      -0.121   0.357   2.412  0.00  0.00     0.020 A 
ATOM      2  C1  UNL d   1       0.286   1.542   3.024  0.00  0.00     0.020 A 
ATOM      3  C2  UNL d   1       0.491   2.690   2.256  0.00  0.00     0.034 A 
ATOM      4  C3  UNL d   1       0.288   2.656   0.872  0.00  0.00     0.017 A 
ATOM      5  C4  UNL d   1      -0.120   1.466   0.258  0.00  0.00     0.017 A 
ATOM      6  C5  UNL d   1      -0.323   0.320   1.032  0.00  0.00     0.034 A 
ATOM      7 Cl   UNL d   1      -0.390   1.347  -1.445  0.00  0.00    -0.070 Cl
ATOM      8 Cl1  UNL d   1       0.559   4.114  -0.016  0.00  0.00    -0.070 Cl
ENDROOT
TORSDOF 0
ENDMDL
