MODEL 1
REMARK minimizedAffinity -3.42452168
REMARK minimizedRMSD -1
REMARK  0 active torsions:
REMARK  status: ('A' for Active; 'I' for Inactive)
ROOT
ATOM      1  C   UNL d   1       0.012   4.913  -1.856  0.00  0.00     0.020 A 
ATOM      2  C1  UNL d   1      -1.131   4.977  -2.652  0.00  0.00     0.020 A 
ATOM      3  C2  UNL d   1      -1.971   3.867  -2.759  0.00  0.00     0.034 A 
ATOM      4  C3  UNL d   1      -1.669   2.687  -2.070  0.00  0.00     0.017 A 
ATOM      5  C4  UNL d   1      -0.522   2.623  -1.271  0.00  0.00     0.017 A 
ATOM      6  C5  UNL d   1       0.315   3.738  -1.167  0.00  0.00     0.034 A 
ATOM      7 Cl   UNL d   1      -0.084   1.202  -0.389  0.00  0.00    -0.070 Cl
ATOM      8 Cl1  UNL d   1      -2.753   1.353  -2.248  0.00  0.00    -0.070 Cl
ENDROOT
TORSDOF 0
ENDMDL
