MODEL 1
REMARK minimizedAffinity -2.38543105
REMARK minimizedRMSD -1
REMARK  0 active torsions:
REMARK  status: ('A' for Active; 'I' for Inactive)
ROOT
ATOM      1  C   UNL d   1      -2.304  -4.633  -4.949  0.00  0.00     0.023 A 
ATOM      2  C1  UNL d   1      -2.338  -3.671  -5.958  0.00  0.00     0.003 A 
ATOM      3  C2  UNL d   1      -3.194  -2.573  -5.851  0.00  0.00     0.048 A 
ATOM      4  C3  UNL d   1      -4.013  -2.442  -4.730  0.00  0.00     0.023 A 
ATOM      5  C4  UNL d   1      -3.982  -3.402  -3.716  0.00  0.00     0.048 A 
ATOM      6  C5  UNL d   1      -3.126  -4.498  -3.829  0.00  0.00     0.003 A 
ATOM      7  I   UNL d   1      -5.288  -0.809  -4.567  0.00  0.00    -0.146 I 
ENDROOT
TORSDOF 0
ENDMDL
