MODEL 1
REMARK minimizedAffinity -3.12572837
REMARK minimizedRMSD -1
REMARK  0 active torsions:
REMARK  status: ('A' for Active; 'I' for Inactive)
ROOT
ATOM      1  C   UNL d   1      -5.998  -3.558  -5.807  0.00  0.00     0.023 A 
ATOM      2  C1  UNL d   1      -5.945  -4.787  -5.148  0.00  0.00     0.003 A 
ATOM      3  C2  UNL d   1      -4.773  -5.183  -4.501  0.00  0.00     0.048 A 
ATOM      4  C3  UNL d   1      -3.658  -4.346  -4.515  0.00  0.00     0.023 A 
ATOM      5  C4  UNL d   1      -3.706  -3.116  -5.172  0.00  0.00     0.048 A 
ATOM      6  C5  UNL d   1      -4.880  -2.724  -5.819  0.00  0.00     0.003 A 
ATOM      7  I   UNL d   1      -1.913  -4.934  -3.552  0.00  0.00    -0.146 I 
ENDROOT
TORSDOF 0
ENDMDL
