MODEL 1
REMARK minimizedAffinity -2.27605581
REMARK minimizedRMSD -1
REMARK  0 active torsions:
REMARK  status: ('A' for Active; 'I' for Inactive)
ROOT
ATOM      1  C   UNL d   1      -6.000  -4.040  -5.792  0.00  0.00     0.023 A 
ATOM      2  C1  UNL d   1      -5.818  -5.420  -5.699  0.00  0.00     0.003 A 
ATOM      3  C2  UNL d   1      -4.532  -5.962  -5.757  0.00  0.00     0.048 A 
ATOM      4  C3  UNL d   1      -3.433  -5.118  -5.907  0.00  0.00     0.023 A 
ATOM      5  C4  UNL d   1      -3.609  -3.737  -6.000  0.00  0.00     0.048 A 
ATOM      6  C5  UNL d   1      -4.897  -3.200  -5.942  0.00  0.00     0.003 A 
ATOM      7  I   UNL d   1      -1.518  -5.922  -5.993  0.00  0.00    -0.146 I 
ENDROOT
TORSDOF 0
ENDMDL
