MODEL 1
REMARK minimizedAffinity -2.98058319
REMARK minimizedRMSD -1
REMARK  0 active torsions:
REMARK  status: ('A' for Active; 'I' for Inactive)
ROOT
ATOM      1  C   UNL d   1      -1.941  -5.448  -5.236  0.00  0.00     0.023 A 
ATOM      2  C1  UNL d   1      -3.037  -5.845  -4.470  0.00  0.00     0.003 A 
ATOM      3  C2  UNL d   1      -4.202  -5.076  -4.465  0.00  0.00     0.048 A 
ATOM      4  C3  UNL d   1      -4.266  -3.912  -5.231  0.00  0.00     0.023 A 
ATOM      5  C4  UNL d   1      -3.172  -3.512  -6.000  0.00  0.00     0.048 A 
ATOM      6  C5  UNL d   1      -2.008  -4.283  -6.000  0.00  0.00     0.003 A 
ATOM      7  I   UNL d   1      -6.000  -2.767  -5.226  0.00  0.00    -0.146 I 
ENDROOT
TORSDOF 0
ENDMDL
