MODEL 1
REMARK minimizedAffinity -0.284073442
REMARK minimizedRMSD -1
REMARK  0 active torsions:
REMARK  status: ('A' for Active; 'I' for Inactive)
ROOT
ATOM      1  C   UNL d   1      -4.046  -6.000  -5.967  0.00  0.00     0.023 A 
ATOM      2  C1  UNL d   1      -3.220  -4.940  -5.593  0.00  0.00     0.003 A 
ATOM      3  C2  UNL d   1      -3.779  -3.735  -5.163  0.00  0.00     0.048 A 
ATOM      4  C3  UNL d   1      -5.165  -3.597  -5.108  0.00  0.00     0.023 A 
ATOM      5  C4  UNL d   1      -5.996  -4.655  -5.480  0.00  0.00     0.048 A 
ATOM      6  C5  UNL d   1      -5.433  -5.858  -5.910  0.00  0.00     0.003 A 
ATOM      7  I   UNL d   1      -6.000  -1.804  -4.467  0.00  0.00    -0.146 I 
ENDROOT
TORSDOF 0
ENDMDL
