MODEL 1
REMARK minimizedAffinity 0.667083979
REMARK minimizedRMSD -1
REMARK  0 active torsions:
REMARK  status: ('A' for Active; 'I' for Inactive)
ROOT
ATOM      1  C   UNL d   1      -3.674  -5.483  -4.984  0.00  0.00     0.023 A 
ATOM      2  C1  UNL d   1      -3.561  -4.838  -3.752  0.00  0.00     0.003 A 
ATOM      3  C2  UNL d   1      -4.227  -3.631  -3.531  0.00  0.00     0.048 A 
ATOM      4  C3  UNL d   1      -5.006  -3.075  -4.545  0.00  0.00     0.023 A 
ATOM      5  C4  UNL d   1      -5.123  -3.717  -5.779  0.00  0.00     0.048 A 
ATOM      6  C5  UNL d   1      -4.454  -4.923  -5.996  0.00  0.00     0.003 A 
ATOM      7  I   UNL d   1      -5.998  -1.278  -4.218  0.00  0.00    -0.146 I 
ENDROOT
TORSDOF 0
ENDMDL
