MODEL 1
REMARK minimizedAffinity -2.19620967
REMARK minimizedRMSD -1
REMARK  0 active torsions:
REMARK  status: ('A' for Active; 'I' for Inactive)
ROOT
ATOM      1  C   UNL d   1      -2.948  -5.784  -5.987  0.00  0.00     0.023 A 
ATOM      2  C1  UNL d   1      -2.444  -4.494  -5.818  0.00  0.00     0.003 A 
ATOM      3  C2  UNL d   1      -3.318  -3.417  -5.661  0.00  0.00     0.048 A 
ATOM      4  C3  UNL d   1      -4.695  -3.636  -5.674  0.00  0.00     0.023 A 
ATOM      5  C4  UNL d   1      -5.204  -4.925  -5.842  0.00  0.00     0.048 A 
ATOM      6  C5  UNL d   1      -4.327  -5.999  -5.999  0.00  0.00     0.003 A 
ATOM      7  I   UNL d   1      -5.998  -2.034  -5.440  0.00  0.00    -0.146 I 
ENDROOT
TORSDOF 0
ENDMDL
