MODEL 1
REMARK minimizedAffinity -2.7573967
REMARK minimizedRMSD -1
REMARK  0 active torsions:
REMARK  status: ('A' for Active; 'I' for Inactive)
ROOT
ATOM      1  C   UNL d   1      -2.796  -5.901  -5.523  0.00  0.00     0.023 A 
ATOM      2  C1  UNL d   1      -2.401  -4.797  -4.768  0.00  0.00     0.003 A 
ATOM      3  C2  UNL d   1      -3.319  -3.787  -4.470  0.00  0.00     0.048 A 
ATOM      4  C3  UNL d   1      -4.631  -3.889  -4.931  0.00  0.00     0.023 A 
ATOM      5  C4  UNL d   1      -5.032  -4.992  -5.686  0.00  0.00     0.048 A 
ATOM      6  C5  UNL d   1      -4.110  -5.998  -5.982  0.00  0.00     0.003 A 
ATOM      7  I   UNL d   1      -6.000  -2.388  -4.490  0.00  0.00    -0.146 I 
ENDROOT
TORSDOF 0
ENDMDL
