MODEL 1
REMARK minimizedAffinity -3.36034274
REMARK minimizedRMSD -1
REMARK  0 active torsions:
REMARK  status: ('A' for Active; 'I' for Inactive)
ROOT
ATOM      1  C   UNL d   1      -2.640  -5.627  -5.760  0.00  0.00     0.023 A 
ATOM      2  C1  UNL d   1      -2.259  -4.388  -5.246  0.00  0.00     0.003 A 
ATOM      3  C2  UNL d   1      -3.222  -3.517  -4.732  0.00  0.00     0.048 A 
ATOM      4  C3  UNL d   1      -4.565  -3.893  -4.734  0.00  0.00     0.023 A 
ATOM      5  C4  UNL d   1      -4.951  -5.132  -5.246  0.00  0.00     0.048 A 
ATOM      6  C5  UNL d   1      -3.985  -5.999  -5.760  0.00  0.00     0.003 A 
ATOM      7  I   UNL d   1      -6.000  -2.599  -3.969  0.00  0.00    -0.146 I 
ENDROOT
TORSDOF 0
ENDMDL
