MODEL 1
REMARK minimizedAffinity -2.85798931
REMARK minimizedRMSD -1
REMARK  0 active torsions:
REMARK  status: ('A' for Active; 'I' for Inactive)
ROOT
ATOM      1  C   UNL d   1      -5.990  -3.401  -4.885  0.00  0.00     0.023 A 
ATOM      2  C1  UNL d   1      -4.810  -3.003  -4.256  0.00  0.00     0.003 A 
ATOM      3  C2  UNL d   1      -3.638  -3.741  -4.436  0.00  0.00     0.048 A 
ATOM      4  C3  UNL d   1      -3.653  -4.874  -5.248  0.00  0.00     0.023 A 
ATOM      5  C4  UNL d   1      -4.830  -5.275  -5.880  0.00  0.00     0.048 A 
ATOM      6  C5  UNL d   1      -6.000  -4.535  -5.697  0.00  0.00     0.003 A 
ATOM      7  I   UNL d   1      -1.910  -5.973  -5.517  0.00  0.00    -0.146 I 
ENDROOT
TORSDOF 0
ENDMDL
