MODEL 1
REMARK minimizedAffinity -3.05008054
REMARK minimizedRMSD -1
REMARK  0 active torsions:
REMARK  status: ('A' for Active; 'I' for Inactive)
ROOT
ATOM      1  C   UNL d   1      -5.244  -4.310  -5.018  0.00  0.00     0.023 A 
ATOM      2  C1  UNL d   1      -4.874  -5.310  -5.917  0.00  0.00     0.003 A 
ATOM      3  C2  UNL d   1      -3.565  -5.796  -5.923  0.00  0.00     0.048 A 
ATOM      4  C3  UNL d   1      -2.631  -5.278  -5.026  0.00  0.00     0.023 A 
ATOM      5  C4  UNL d   1      -2.996  -4.278  -4.124  0.00  0.00     0.048 A 
ATOM      6  C5  UNL d   1      -4.306  -3.794  -4.123  0.00  0.00     0.003 A 
ATOM      7  I   UNL d   1      -0.682  -6.000  -5.033  0.00  0.00    -0.146 I 
ENDROOT
TORSDOF 0
ENDMDL
