MODEL 1
REMARK minimizedAffinity -3.60396099
REMARK minimizedRMSD -1
REMARK  0 active torsions:
REMARK  status: ('A' for Active; 'I' for Inactive)
ROOT
ATOM      1  C   UNL d   1      -5.596  -2.276  -4.233  0.00  0.00     0.023 A 
ATOM      2  C1  UNL d   1      -5.248  -3.398  -3.481  0.00  0.00     0.003 A 
ATOM      3  C2  UNL d   1      -4.331  -4.322  -3.986  0.00  0.00     0.048 A 
ATOM      4  C3  UNL d   1      -3.765  -4.117  -5.244  0.00  0.00     0.023 A 
ATOM      5  C4  UNL d   1      -4.109  -2.995  -6.000  0.00  0.00     0.048 A 
ATOM      6  C5  UNL d   1      -5.027  -2.075  -5.491  0.00  0.00     0.003 A 
ATOM      7  I   UNL d   1      -2.399  -5.491  -5.997  0.00  0.00    -0.146 I 
ENDROOT
TORSDOF 0
ENDMDL
