MODEL 1
REMARK minimizedAffinity -3.23592353
REMARK minimizedRMSD -1
REMARK  0 active torsions:
REMARK  status: ('A' for Active; 'I' for Inactive)
ROOT
ATOM      1  C   UNL d   1       3.707  -4.118  -0.366  0.00  0.00     0.078 C 
ATOM      2  C1  UNL d   1       2.514  -3.268  -0.044  0.00  0.00    -0.077 A 
ATOM      3  C2  UNL d   1       2.666  -1.940   0.372  0.00  0.00    -0.001 A 
ATOM      4  C3  UNL d   1       1.548  -1.163   0.677  0.00  0.00     0.003 A 
ATOM      5  C4  UNL d   1       0.269  -1.706   0.571  0.00  0.00    -0.005 A 
ATOM      6  C5  UNL d   1       0.107  -3.027   0.160  0.00  0.00     0.003 A 
ATOM      7  C6  UNL d   1       1.225  -3.806  -0.146  0.00  0.00    -0.001 A 
ENDROOT
TORSDOF 0
ENDMDL
