MODEL 1
REMARK minimizedAffinity 1.982651
REMARK minimizedRMSD -1
REMARK  0 active torsions:
REMARK  status: ('A' for Active; 'I' for Inactive)
ROOT
ATOM      1  C   UNL d   1       3.374  -4.452  -0.445  0.00  0.00     0.078 C 
ATOM      2  C1  UNL d   1       2.358  -3.408  -0.090  0.00  0.00    -0.077 A 
ATOM      3  C2  UNL d   1       1.017  -3.750   0.125  0.00  0.00    -0.001 A 
ATOM      4  C3  UNL d   1       0.080  -2.767   0.445  0.00  0.00     0.003 A 
ATOM      5  C4  UNL d   1       0.474  -1.435   0.553  0.00  0.00    -0.005 A 
ATOM      6  C5  UNL d   1       1.805  -1.084   0.340  0.00  0.00     0.003 A 
ATOM      7  C6  UNL d   1       2.744  -2.066   0.019  0.00  0.00    -0.001 A 
ENDROOT
TORSDOF 0
ENDMDL
