MODEL 1
REMARK minimizedAffinity -3.47986269
REMARK minimizedRMSD -1
REMARK  0 active torsions:
REMARK  status: ('A' for Active; 'I' for Inactive)
ROOT
ATOM      1  C   UNL d   1       1.730   0.893   0.325  0.00  0.00     0.078 C 
ATOM      2  C1  UNL d   1       1.425  -0.574   0.270  0.00  0.00    -0.077 A 
ATOM      3  C2  UNL d   1       0.130  -1.051   0.507  0.00  0.00    -0.001 A 
ATOM      4  C3  UNL d   1      -0.138  -2.420   0.462  0.00  0.00     0.003 A 
ATOM      5  C4  UNL d   1       0.884  -3.324   0.181  0.00  0.00    -0.005 A 
ATOM      6  C5  UNL d   1       2.177  -2.859  -0.054  0.00  0.00     0.003 A 
ATOM      7  C6  UNL d   1       2.446  -1.490  -0.009  0.00  0.00    -0.001 A 
ENDROOT
TORSDOF 0
ENDMDL
