MODEL 1
REMARK minimizedAffinity -1.94984233
REMARK minimizedRMSD -1
REMARK  0 active torsions:
REMARK  status: ('A' for Active; 'I' for Inactive)
ROOT
ATOM      1  C   UNL d   1       2.366   0.123   0.952  0.00  0.00     0.078 C 
ATOM      2  C1  UNL d   1       1.373  -0.986   0.768  0.00  0.00    -0.077 A 
ATOM      3  C2  UNL d   1      -0.001  -0.752   0.895  0.00  0.00    -0.001 A 
ATOM      4  C3  UNL d   1      -0.913  -1.795   0.731  0.00  0.00     0.003 A 
ATOM      5  C4  UNL d   1      -0.461  -3.081   0.440  0.00  0.00    -0.005 A 
ATOM      6  C5  UNL d   1       0.906  -3.324   0.313  0.00  0.00     0.003 A 
ATOM      7  C6  UNL d   1       1.819  -2.281   0.477  0.00  0.00    -0.001 A 
ENDROOT
TORSDOF 0
ENDMDL
