MODEL 1
REMARK minimizedAffinity -5.74108934
REMARK minimizedRMSD -1
REMARK  0 active torsions:
REMARK  status: ('A' for Active; 'I' for Inactive)
ROOT
ATOM      1  C   UNL d   1      -0.727  -1.132  -0.079  0.00  0.00     0.078 C 
ATOM      2  C1  UNL d   1       0.539  -1.936  -0.049  0.00  0.00    -0.077 A 
ATOM      3  C2  UNL d   1       0.523  -3.315  -0.291  0.00  0.00    -0.001 A 
ATOM      4  C3  UNL d   1       1.707  -4.052  -0.251  0.00  0.00     0.003 A 
ATOM      5  C4  UNL d   1       2.916  -3.419   0.032  0.00  0.00    -0.005 A 
ATOM      6  C5  UNL d   1       2.941  -2.048   0.277  0.00  0.00     0.003 A 
ATOM      7  C6  UNL d   1       1.758  -1.309   0.237  0.00  0.00    -0.001 A 
ENDROOT
TORSDOF 0
ENDMDL
