MODEL 1
REMARK minimizedAffinity -4.75125885
REMARK minimizedRMSD -1
REMARK  0 active torsions:
REMARK  status: ('A' for Active; 'I' for Inactive)
ROOT
ATOM      1  C   UNL d   1      -1.579  -0.376   1.285  0.00  0.00     0.078 C 
ATOM      2  C1  UNL d   1      -0.385  -1.195   0.893  0.00  0.00    -0.077 A 
ATOM      3  C2  UNL d   1      -0.537  -2.458   0.307  0.00  0.00    -0.001 A 
ATOM      4  C3  UNL d   1       0.583  -3.213  -0.043  0.00  0.00     0.003 A 
ATOM      5  C4  UNL d   1       1.864  -2.715   0.189  0.00  0.00    -0.005 A 
ATOM      6  C5  UNL d   1       2.025  -1.460   0.774  0.00  0.00     0.003 A 
ATOM      7  C6  UNL d   1       0.906  -0.703   1.125  0.00  0.00    -0.001 A 
ENDROOT
TORSDOF 0
ENDMDL
