MODEL 1
REMARK minimizedAffinity -4.04689407
REMARK minimizedRMSD -1
REMARK  0 active torsions:
REMARK  status: ('A' for Active; 'I' for Inactive)
ROOT
ATOM      1  C   UNL d   1      -0.744  -0.383   1.673  0.00  0.00     0.078 C 
ATOM      2  C1  UNL d   1       0.314  -1.263   1.078  0.00  0.00    -0.077 A 
ATOM      3  C2  UNL d   1       1.187  -0.779   0.096  0.00  0.00    -0.001 A 
ATOM      4  C3  UNL d   1       2.161  -1.613  -0.456  0.00  0.00     0.003 A 
ATOM      5  C4  UNL d   1       2.270  -2.936  -0.034  0.00  0.00    -0.005 A 
ATOM      6  C5  UNL d   1       1.404  -3.428   0.941  0.00  0.00     0.003 A 
ATOM      7  C6  UNL d   1       0.430  -2.595   1.495  0.00  0.00    -0.001 A 
ENDROOT
TORSDOF 0
ENDMDL
