MODEL 1
REMARK minimizedAffinity -3.14584708
REMARK minimizedRMSD -1
REMARK  0 active torsions:
REMARK  status: ('A' for Active; 'I' for Inactive)
ROOT
ATOM      1  C   UNL d   1       2.568  -4.065  -0.166  0.00  0.00     0.078 C 
ATOM      2  C1  UNL d   1       1.624  -2.941   0.140  0.00  0.00    -0.077 A 
ATOM      3  C2  UNL d   1       0.266  -3.184   0.382  0.00  0.00    -0.001 A 
ATOM      4  C3  UNL d   1      -0.603  -2.127   0.656  0.00  0.00     0.003 A 
ATOM      5  C4  UNL d   1      -0.125  -0.819   0.688  0.00  0.00    -0.005 A 
ATOM      6  C5  UNL d   1       1.224  -0.566   0.446  0.00  0.00     0.003 A 
ATOM      7  C6  UNL d   1       2.095  -1.622   0.172  0.00  0.00    -0.001 A 
ENDROOT
TORSDOF 0
ENDMDL
