MODEL 1
REMARK minimizedAffinity -6.06051445
REMARK minimizedRMSD -1
REMARK  0 active torsions:
REMARK  status: ('A' for Active; 'I' for Inactive)
ROOT
ATOM      1  C   UNL d   1       3.459  -3.717  -0.128  0.00  0.00     0.078 C 
ATOM      2  C1  UNL d   1       2.373  -2.752   0.243  0.00  0.00    -0.077 A 
ATOM      3  C2  UNL d   1       2.603  -1.370   0.238  0.00  0.00    -0.001 A 
ATOM      4  C3  UNL d   1       1.585  -0.484   0.594  0.00  0.00     0.003 A 
ATOM      5  C4  UNL d   1       0.331  -0.969   0.959  0.00  0.00    -0.005 A 
ATOM      6  C5  UNL d   1       0.094  -2.342   0.969  0.00  0.00     0.003 A 
ATOM      7  C6  UNL d   1       1.110  -3.230   0.613  0.00  0.00    -0.001 A 
ENDROOT
TORSDOF 0
ENDMDL
