MODEL 1
REMARK minimizedAffinity -4.57431793
REMARK minimizedRMSD -1
REMARK  0 active torsions:
REMARK  status: ('A' for Active; 'I' for Inactive)
ROOT
ATOM      1  C   UNL d   1      -1.013  -0.398   1.032  0.00  0.00     0.078 C 
ATOM      2  C1  UNL d   1       0.247  -1.119   0.658  0.00  0.00    -0.077 A 
ATOM      3  C2  UNL d   1       1.488  -0.472   0.699  0.00  0.00    -0.001 A 
ATOM      4  C3  UNL d   1       2.651  -1.153   0.338  0.00  0.00     0.003 A 
ATOM      5  C4  UNL d   1       2.586  -2.484  -0.068  0.00  0.00    -0.005 A 
ATOM      6  C5  UNL d   1       1.355  -3.136  -0.115  0.00  0.00     0.003 A 
ATOM      7  C6  UNL d   1       0.190  -2.456   0.245  0.00  0.00    -0.001 A 
ENDROOT
TORSDOF 0
ENDMDL
