MODEL 1
REMARK minimizedAffinity -0.124747358
REMARK minimizedRMSD -1
REMARK  0 active torsions:
REMARK  status: ('A' for Active; 'I' for Inactive)
ROOT
ATOM      1  C   UNL d   1       1.422  -3.686  -0.156  0.00  0.00     0.078 C 
ATOM      2  C1  UNL d   1       0.872  -2.379   0.333  0.00  0.00    -0.077 A 
ATOM      3  C2  UNL d   1       1.691  -1.451   0.986  0.00  0.00    -0.001 A 
ATOM      4  C3  UNL d   1       1.164  -0.243   1.445  0.00  0.00     0.003 A 
ATOM      5  C4  UNL d   1      -0.186   0.048   1.256  0.00  0.00    -0.005 A 
ATOM      6  C5  UNL d   1      -1.010  -0.871   0.609  0.00  0.00     0.003 A 
ATOM      7  C6  UNL d   1      -0.484  -2.079   0.150  0.00  0.00    -0.001 A 
ENDROOT
TORSDOF 0
ENDMDL
