MODEL 1
REMARK minimizedAffinity -0.328869581
REMARK minimizedRMSD -1
REMARK  0 active torsions:
REMARK  status: ('A' for Active; 'I' for Inactive)
ROOT
ATOM      1  C   UNL d   1       2.174  -4.056   0.370  0.00  0.00     0.078 C 
ATOM      2  C1  UNL d   1       1.311  -2.846   0.570  0.00  0.00    -0.077 A 
ATOM      3  C2  UNL d   1       1.788  -1.726   1.261  0.00  0.00    -0.001 A 
ATOM      4  C3  UNL d   1       0.970  -0.611   1.448  0.00  0.00     0.003 A 
ATOM      5  C4  UNL d   1      -0.331  -0.605   0.947  0.00  0.00    -0.005 A 
ATOM      6  C5  UNL d   1      -0.815  -1.716   0.260  0.00  0.00     0.003 A 
ATOM      7  C6  UNL d   1       0.001  -2.832   0.073  0.00  0.00    -0.001 A 
ENDROOT
TORSDOF 0
ENDMDL
