MODEL 1
REMARK minimizedAffinity -0.763875723
REMARK minimizedRMSD -1
REMARK  0 active torsions:
REMARK  status: ('A' for Active; 'I' for Inactive)
ROOT
ATOM      1  C   UNL d   1      -0.904  -0.430   1.419  0.00  0.00     0.078 C 
ATOM      2  C1  UNL d   1       0.233  -1.311   0.994  0.00  0.00    -0.077 A 
ATOM      3  C2  UNL d   1       1.433  -0.763   0.525  0.00  0.00    -0.001 A 
ATOM      4  C3  UNL d   1       2.479  -1.595   0.123  0.00  0.00     0.003 A 
ATOM      5  C4  UNL d   1       2.336  -2.979   0.186  0.00  0.00    -0.005 A 
ATOM      6  C5  UNL d   1       1.144  -3.534   0.649  0.00  0.00     0.003 A 
ATOM      7  C6  UNL d   1       0.097  -2.703   1.051  0.00  0.00    -0.001 A 
ENDROOT
TORSDOF 0
ENDMDL
