MODEL 1
REMARK minimizedAffinity 3.70965648
REMARK minimizedRMSD -1
REMARK  1 active torsions:
REMARK  status: ('A' for Active; 'I' for Inactive)
REMARK    1  A    between atoms: C1_2  and  C2_3 
ROOT
ATOM      1  C2  UNL d   1      -0.460  -0.640   0.652  0.00  0.00    -0.076 A 
ATOM      2  C3  UNL d   1      -0.412  -1.090  -0.679  0.00  0.00     0.004 A 
ATOM      3  C4  UNL d   1      -1.555  -1.095  -1.477  0.00  0.00    -0.003 A 
ATOM      4  C5  UNL d   1      -2.765  -0.649  -0.957  0.00  0.00     0.000 A 
ATOM      5  C6  UNL d   1      -2.827  -0.182   0.356  0.00  0.00     0.000 A 
ATOM      6  C7  UNL d   1      -1.681  -0.155   1.169  0.00  0.00    -0.073 A 
ATOM      7  C8  UNL d   1      -1.807   0.353   2.579  0.00  0.00     0.078 C 
ENDROOT
BRANCH   1   8
ATOM      8  C1  UNL d   1       0.806  -0.683   1.478  0.00  0.00     0.053 C 
ATOM      9  C   UNL d   1       1.879   0.255   0.949  0.00  0.00     0.018 C 
ENDBRANCH   1   8
TORSDOF 1
ENDMDL
