MODEL 1
REMARK minimizedAffinity -1.77219367
REMARK minimizedRMSD -1
REMARK  1 active torsions:
REMARK  status: ('A' for Active; 'I' for Inactive)
REMARK    1  A    between atoms: C1_2  and  C2_3 
ROOT
ATOM      1  C2  UNL d   1       0.199  -0.673   2.277  0.00  0.00    -0.076 A 
ATOM      2  C3  UNL d   1      -1.034  -0.382   2.886  0.00  0.00     0.004 A 
ATOM      3  C4  UNL d   1      -2.189  -0.211   2.124  0.00  0.00    -0.003 A 
ATOM      4  C5  UNL d   1      -2.129  -0.328   0.740  0.00  0.00     0.000 A 
ATOM      5  C6  UNL d   1      -0.917  -0.634   0.120  0.00  0.00     0.000 A 
ATOM      6  C7  UNL d   1       0.252  -0.826   0.875  0.00  0.00    -0.073 A 
ATOM      7  C8  UNL d   1       1.533  -1.147   0.154  0.00  0.00     0.078 C 
ENDROOT
BRANCH   1   8
ATOM      8  C1  UNL d   1       1.422  -0.821   3.153  0.00  0.00     0.053 C 
ATOM      9  C   UNL d   1       1.109  -1.486   4.484  0.00  0.00     0.018 C 
ENDBRANCH   1   8
TORSDOF 1
ENDMDL
