MODEL 1
REMARK minimizedAffinity 8.45888805
REMARK minimizedRMSD -1
REMARK  1 active torsions:
REMARK  status: ('A' for Active; 'I' for Inactive)
REMARK    1  A    between atoms: C1_2  and  C2_3 
ROOT
ATOM      1  C2  UNL d   1      -3.047  -0.912   1.630  0.00  0.00    -0.076 A 
ATOM      2  C3  UNL d   1      -3.399  -1.474   0.390  0.00  0.00     0.004 A 
ATOM      3  C4  UNL d   1      -2.658  -1.199  -0.758  0.00  0.00    -0.003 A 
ATOM      4  C5  UNL d   1      -1.553  -0.359  -0.686  0.00  0.00     0.000 A 
ATOM      5  C6  UNL d   1      -1.178   0.193   0.539  0.00  0.00     0.000 A 
ATOM      6  C7  UNL d   1      -1.905  -0.087   1.709  0.00  0.00    -0.073 A 
ATOM      7  C8  UNL d   1      -1.460   0.540   3.002  0.00  0.00     0.078 C 
ENDROOT
BRANCH   1   8
ATOM      8  C1  UNL d   1      -3.903  -1.225   2.836  0.00  0.00     0.053 C 
ATOM      9  C   UNL d   1      -3.760  -2.667   3.295  0.00  0.00     0.018 C 
ENDBRANCH   1   8
TORSDOF 1
ENDMDL
