MODEL 1
REMARK minimizedAffinity -3.23783565
REMARK minimizedRMSD -1
REMARK  1 active torsions:
REMARK  status: ('A' for Active; 'I' for Inactive)
REMARK    1  A    between atoms: C1_2  and  C2_3 
ROOT
ATOM      1  C2  UNL d   1       1.518  -0.434   2.533  0.00  0.00    -0.076 A 
ATOM      2  C3  UNL d   1       2.682  -0.995   3.086  0.00  0.00     0.004 A 
ATOM      3  C4  UNL d   1       2.665  -1.586   4.348  0.00  0.00    -0.003 A 
ATOM      4  C5  UNL d   1       1.483  -1.627   5.078  0.00  0.00     0.000 A 
ATOM      5  C6  UNL d   1       0.314  -1.092   4.538  0.00  0.00     0.000 A 
ATOM      6  C7  UNL d   1       0.310  -0.507   3.260  0.00  0.00    -0.073 A 
ATOM      7  C8  UNL d   1      -0.978   0.061   2.730  0.00  0.00     0.078 C 
ENDROOT
BRANCH   1   8
ATOM      8  C1  UNL d   1       1.603   0.217   1.172  0.00  0.00     0.053 C 
ATOM      9  C   UNL d   1       2.728   1.236   1.083  0.00  0.00     0.018 C 
ENDBRANCH   1   8
TORSDOF 1
ENDMDL
