MODEL 1
REMARK minimizedAffinity 8.43187046
REMARK minimizedRMSD -1
REMARK  1 active torsions:
REMARK  status: ('A' for Active; 'I' for Inactive)
REMARK    1  A    between atoms: C1_2  and  C2_3 
ROOT
ATOM      1  C2  UNL d   1       3.186  -0.087   2.353  0.00  0.00    -0.076 A 
ATOM      2  C3  UNL d   1       2.318  -0.429   1.302  0.00  0.00     0.004 A 
ATOM      3  C4  UNL d   1       2.186   0.393   0.184  0.00  0.00    -0.003 A 
ATOM      4  C5  UNL d   1       2.922   1.570   0.099  0.00  0.00     0.000 A 
ATOM      5  C6  UNL d   1       3.801   1.916   1.124  0.00  0.00     0.000 A 
ATOM      6  C7  UNL d   1       3.958   1.090   2.251  0.00  0.00    -0.073 A 
ATOM      7  C8  UNL d   1       4.915   1.515   3.330  0.00  0.00     0.078 C 
ENDROOT
BRANCH   1   8
ATOM      8  C1  UNL d   1       3.267  -1.004   3.553  0.00  0.00     0.053 C 
ATOM      9  C   UNL d   1       1.896  -1.428   4.055  0.00  0.00     0.018 C 
ENDBRANCH   1   8
TORSDOF 1
ENDMDL
