MODEL 1
REMARK minimizedAffinity 4.86852169
REMARK minimizedRMSD -1
REMARK  1 active torsions:
REMARK  status: ('A' for Active; 'I' for Inactive)
REMARK    1  A    between atoms: C1_2  and  C2_3 
ROOT
ATOM      1  C2  UNL d   1      -0.914  -0.406   2.504  0.00  0.00    -0.076 A 
ATOM      2  C3  UNL d   1       0.176  -0.007   1.712  0.00  0.00     0.004 A 
ATOM      3  C4  UNL d   1       0.017   0.262   0.354  0.00  0.00    -0.003 A 
ATOM      4  C5  UNL d   1      -1.237   0.137  -0.235  0.00  0.00     0.000 A 
ATOM      5  C6  UNL d   1      -2.334  -0.240   0.540  0.00  0.00     0.000 A 
ATOM      6  C7  UNL d   1      -2.193  -0.499   1.914  0.00  0.00    -0.073 A 
ATOM      7  C8  UNL d   1      -3.409  -0.908   2.700  0.00  0.00     0.078 C 
ENDROOT
BRANCH   1   8
ATOM      8  C1  UNL d   1      -0.675  -0.711   3.966  0.00  0.00     0.053 C 
ATOM      9  C   UNL d   1       0.647  -1.423   4.203  0.00  0.00     0.018 C 
ENDBRANCH   1   8
TORSDOF 1
ENDMDL
