MODEL 1
REMARK minimizedAffinity 7.55393505
REMARK minimizedRMSD -1
REMARK  1 active torsions:
REMARK  status: ('A' for Active; 'I' for Inactive)
REMARK    1  A    between atoms: C1_2  and  C2_3 
ROOT
ATOM      1  C2  UNL d   1      -0.029  -0.500   2.436  0.00  0.00    -0.076 A 
ATOM      2  C3  UNL d   1      -0.423  -0.755   3.761  0.00  0.00     0.004 A 
ATOM      3  C4  UNL d   1       0.501  -1.173   4.717  0.00  0.00    -0.003 A 
ATOM      4  C5  UNL d   1       1.835  -1.342   4.363  0.00  0.00     0.000 A 
ATOM      5  C6  UNL d   1       2.247  -1.077   3.058  0.00  0.00     0.000 A 
ATOM      6  C7  UNL d   1       1.331  -0.639   2.086  0.00  0.00    -0.073 A 
ATOM      7  C8  UNL d   1       1.829  -0.374   0.692  0.00  0.00     0.078 C 
ENDROOT
BRANCH   1   8
ATOM      8  C1  UNL d   1      -1.081  -0.076   1.437  0.00  0.00     0.053 C 
ATOM      9  C   UNL d   1      -2.368   0.384   2.105  0.00  0.00     0.018 C 
ENDBRANCH   1   8
TORSDOF 1
ENDMDL
