MODEL 1
REMARK minimizedAffinity -1.30523884
REMARK minimizedRMSD -1
REMARK  1 active torsions:
REMARK  status: ('A' for Active; 'I' for Inactive)
REMARK    1  A    between atoms: C1_2  and  C2_3 
ROOT
ATOM      1  C2  UNL d   1      -1.572  -0.508   3.391  0.00  0.00    -0.076 A 
ATOM      2  C3  UNL d   1      -0.192  -0.632   3.623  0.00  0.00     0.004 A 
ATOM      3  C4  UNL d   1       0.304  -1.586   4.511  0.00  0.00    -0.003 A 
ATOM      4  C5  UNL d   1      -0.574  -2.432   5.180  0.00  0.00     0.000 A 
ATOM      5  C6  UNL d   1      -1.946  -2.334   4.949  0.00  0.00     0.000 A 
ATOM      6  C7  UNL d   1      -2.460  -1.389   4.045  0.00  0.00    -0.073 A 
ATOM      7  C8  UNL d   1      -3.949  -1.323   3.839  0.00  0.00     0.078 C 
ENDROOT
BRANCH   1   8
ATOM      8  C1  UNL d   1      -2.053   0.563   2.438  0.00  0.00     0.053 C 
ATOM      9  C   UNL d   1      -2.152   0.065   1.004  0.00  0.00     0.018 C 
ENDBRANCH   1   8
TORSDOF 1
ENDMDL
