MODEL 1
REMARK minimizedAffinity 5.04739666
REMARK minimizedRMSD -1
REMARK  1 active torsions:
REMARK  status: ('A' for Active; 'I' for Inactive)
REMARK    1  A    between atoms: C1_2  and  C2_3 
ROOT
ATOM      1  C2  UNL d   1       0.177  -0.653   2.390  0.00  0.00    -0.076 A 
ATOM      2  C3  UNL d   1      -0.364  -1.060   3.622  0.00  0.00     0.004 A 
ATOM      3  C4  UNL d   1       0.462  -1.440   4.678  0.00  0.00    -0.003 A 
ATOM      4  C5  UNL d   1       1.843  -1.419   4.520  0.00  0.00     0.000 A 
ATOM      5  C6  UNL d   1       2.398  -1.000   3.311  0.00  0.00     0.000 A 
ATOM      6  C7  UNL d   1       1.579  -0.599   2.241  0.00  0.00    -0.073 A 
ATOM      7  C8  UNL d   1       2.231  -0.163   0.958  0.00  0.00     0.078 C 
ENDROOT
BRANCH   1   8
ATOM      8  C1  UNL d   1      -0.769  -0.278   1.271  0.00  0.00     0.053 C 
ATOM      9  C   UNL d   1      -2.033   0.397   1.780  0.00  0.00     0.018 C 
ENDBRANCH   1   8
TORSDOF 1
ENDMDL
