MODEL 1
REMARK minimizedAffinity 4.52051163
REMARK minimizedRMSD -1
REMARK  0 active torsions:
REMARK  status: ('A' for Active; 'I' for Inactive)
ROOT
ATOM      1  O1  BZF d   1       5.336   3.695   4.006  0.00  0.00    -0.204 OA
ATOM      2  C2  BZF d   1       4.756   3.813   2.758  0.00  0.00     0.174 A 
ATOM      3  C3  BZF d   1       4.552   2.598   2.209  0.00  0.00    -0.012 A 
ATOM      4  C3A BZF d   1       4.951   1.660   3.212  0.00  0.00    -0.107 A 
ATOM      5  C4  BZF d   1       4.969   0.295   3.267  0.00  0.00     0.055 A 
ATOM      6  C5  BZF d   1       5.487  -0.315   4.366  0.00  0.00    -0.016 A 
ATOM      7  C6  BZF d   1       6.000   0.407   5.423  0.00  0.00     0.022 A 
ATOM      8  C7  BZF d   1       6.000   1.763   5.416  0.00  0.00     0.029 A 
ATOM      9  C7A BZF d   1       5.447   2.382   4.322  0.00  0.00     0.058 A 
ENDROOT
TORSDOF 0
ENDMDL
