MODEL 1
REMARK minimizedAffinity 2.94296813
REMARK minimizedRMSD -1
REMARK  0 active torsions:
REMARK  status: ('A' for Active; 'I' for Inactive)
ROOT
ATOM      1  O1  BZF d   1      -4.181  -0.781   3.753  0.00  0.00    -0.204 OA
ATOM      2  C2  BZF d   1      -2.865  -0.757   4.171  0.00  0.00     0.174 A 
ATOM      3  C3  BZF d   1      -2.029  -0.934   3.128  0.00  0.00    -0.012 A 
ATOM      4  C3A BZF d   1      -2.873  -0.986   1.973  0.00  0.00    -0.107 A 
ATOM      5  C4  BZF d   1      -2.629  -1.130   0.637  0.00  0.00     0.055 A 
ATOM      6  C5  BZF d   1      -3.679  -1.214  -0.221  0.00  0.00    -0.016 A 
ATOM      7  C6  BZF d   1      -4.984  -1.163   0.223  0.00  0.00     0.022 A 
ATOM      8  C7  BZF d   1      -5.276  -1.015   1.538  0.00  0.00     0.029 A 
ATOM      9  C7A BZF d   1      -4.217  -0.897   2.404  0.00  0.00     0.058 A 
ENDROOT
TORSDOF 0
ENDMDL
