MODEL 1
REMARK minimizedAffinity 7.09624338
REMARK minimizedRMSD -1
REMARK  0 active torsions:
REMARK  status: ('A' for Active; 'I' for Inactive)
ROOT
ATOM      1  O1  BZF d   1      -3.359   2.402  -0.818  0.00  0.00    -0.204 OA
ATOM      2  C2  BZF d   1      -3.855   3.577  -0.287  0.00  0.00     0.174 A 
ATOM      3  C3  BZF d   1      -2.849   4.396   0.082  0.00  0.00    -0.012 A 
ATOM      4  C3A BZF d   1      -1.651   3.728  -0.323  0.00  0.00    -0.107 A 
ATOM      5  C4  BZF d   1      -0.325   4.047  -0.244  0.00  0.00     0.055 A 
ATOM      6  C5  BZF d   1       0.598   3.143  -0.667  0.00  0.00    -0.016 A 
ATOM      7  C6  BZF d   1       0.231   1.911  -1.167  0.00  0.00     0.022 A 
ATOM      8  C7  BZF d   1      -1.072   1.552  -1.270  0.00  0.00     0.029 A 
ATOM      9  C7A BZF d   1      -2.008   2.476  -0.874  0.00  0.00     0.058 A 
ENDROOT
TORSDOF 0
ENDMDL
