MODEL 1
REMARK minimizedAffinity 8.67153931
REMARK minimizedRMSD -1
REMARK  0 active torsions:
REMARK  status: ('A' for Active; 'I' for Inactive)
ROOT
ATOM      1  O1  BZF d   1       4.882   3.594   3.379  0.00  0.00    -0.204 OA
ATOM      2  C2  BZF d   1       4.085   3.542   2.252  0.00  0.00     0.174 A 
ATOM      3  C3  BZF d   1       3.868   2.264   1.878  0.00  0.00    -0.012 A 
ATOM      4  C3A BZF d   1       4.498   1.466   2.884  0.00  0.00    -0.107 A 
ATOM      5  C4  BZF d   1       4.614   0.119   3.077  0.00  0.00     0.055 A 
ATOM      6  C5  BZF d   1       5.356  -0.337   4.120  0.00  0.00    -0.016 A 
ATOM      7  C6  BZF d   1       5.999   0.523   4.986  0.00  0.00     0.022 A 
ATOM      8  C7  BZF d   1       5.909   1.868   4.838  0.00  0.00     0.029 A 
ATOM      9  C7A BZF d   1       5.133   2.332   3.804  0.00  0.00     0.058 A 
ENDROOT
TORSDOF 0
ENDMDL
