MODEL 1
REMARK minimizedAffinity 4.59825277
REMARK minimizedRMSD -1
REMARK  0 active torsions:
REMARK  status: ('A' for Active; 'I' for Inactive)
ROOT
ATOM      1  O1  BZF d   1       4.929   3.563   3.754  0.00  0.00    -0.204 OA
ATOM      2  C2  BZF d   1       4.141   3.540   2.619  0.00  0.00     0.174 A 
ATOM      3  C3  BZF d   1       3.914   2.272   2.220  0.00  0.00    -0.012 A 
ATOM      4  C3A BZF d   1       4.526   1.448   3.218  0.00  0.00    -0.107 A 
ATOM      5  C4  BZF d   1       4.626   0.097   3.388  0.00  0.00     0.055 A 
ATOM      6  C5  BZF d   1       5.354  -0.385   4.429  0.00  0.00    -0.016 A 
ATOM      7  C6  BZF d   1       5.998   0.453   5.315  0.00  0.00     0.022 A 
ATOM      8  C7  BZF d   1       5.923   1.801   5.190  0.00  0.00     0.029 A 
ATOM      9  C7A BZF d   1       5.161   2.292   4.158  0.00  0.00     0.058 A 
ENDROOT
TORSDOF 0
ENDMDL
