MODEL 1
REMARK minimizedAffinity 5.62401009
REMARK minimizedRMSD -1
REMARK  0 active torsions:
REMARK  status: ('A' for Active; 'I' for Inactive)
ROOT
ATOM      1  O1  BZF d   1       3.827   1.747   1.874  0.00  0.00    -0.204 OA
ATOM      2  C2  BZF d   1       3.755   3.127   1.870  0.00  0.00     0.174 A 
ATOM      3  C3  BZF d   1       4.366   3.641   2.958  0.00  0.00    -0.012 A 
ATOM      4  C3A BZF d   1       4.929   2.516   3.640  0.00  0.00    -0.107 A 
ATOM      5  C4  BZF d   1       5.670   2.384   4.779  0.00  0.00     0.055 A 
ATOM      6  C5  BZF d   1       5.999   1.138   5.212  0.00  0.00    -0.016 A 
ATOM      7  C6  BZF d   1       5.601   0.005   4.534  0.00  0.00     0.022 A 
ATOM      8  C7  BZF d   1       4.869   0.086   3.396  0.00  0.00     0.029 A 
ATOM      9  C7A BZF d   1       4.563   1.344   2.938  0.00  0.00     0.058 A 
ENDROOT
TORSDOF 0
ENDMDL
