MODEL 1
REMARK minimizedAffinity 4.82520628
REMARK minimizedRMSD -1
REMARK  0 active torsions:
REMARK  status: ('A' for Active; 'I' for Inactive)
ROOT
ATOM      1  O1  BZF d   1       5.150   3.317   3.803  0.00  0.00    -0.204 OA
ATOM      2  C2  BZF d   1       4.406   3.315   2.638  0.00  0.00     0.174 A 
ATOM      3  C3  BZF d   1       4.131   2.053   2.249  0.00  0.00    -0.012 A 
ATOM      4  C3A BZF d   1       4.662   1.216   3.281  0.00  0.00    -0.107 A 
ATOM      5  C4  BZF d   1       4.687  -0.135   3.474  0.00  0.00     0.055 A 
ATOM      6  C5  BZF d   1       5.349  -0.637   4.550  0.00  0.00    -0.016 A 
ATOM      7  C6  BZF d   1       6.000   0.183   5.449  0.00  0.00     0.022 A 
ATOM      8  C7  BZF d   1       5.998   1.530   5.302  0.00  0.00     0.029 A 
ATOM      9  C7A BZF d   1       5.302   2.042   4.234  0.00  0.00     0.058 A 
ENDROOT
TORSDOF 0
ENDMDL
