MODEL 1
REMARK minimizedAffinity -0.677820742
REMARK minimizedRMSD -1
REMARK  0 active torsions:
REMARK  status: ('A' for Active; 'I' for Inactive)
ROOT
ATOM      1  O1  BZF d   1       3.218  -0.094  -2.840  0.00  0.00    -0.204 OA
ATOM      2  C2  BZF d   1       2.083   0.682  -2.981  0.00  0.00     0.174 A 
ATOM      3  C3  BZF d   1       2.207   1.526  -4.025  0.00  0.00    -0.012 A 
ATOM      4  C3A BZF d   1       3.463   1.197  -4.628  0.00  0.00    -0.107 A 
ATOM      5  C4  BZF d   1       4.138   1.677  -5.714  0.00  0.00     0.055 A 
ATOM      6  C5  BZF d   1       5.376   1.190  -5.990  0.00  0.00    -0.016 A 
ATOM      7  C6  BZF d   1       5.971   0.228  -5.200  0.00  0.00     0.022 A 
ATOM      8  C7  BZF d   1       5.339  -0.282  -4.115  0.00  0.00     0.029 A 
ATOM      9  C7A BZF d   1       4.074   0.185  -3.852  0.00  0.00     0.058 A 
ENDROOT
TORSDOF 0
ENDMDL
