MODEL 1
REMARK minimizedAffinity 4.89765692
REMARK minimizedRMSD -1
REMARK  0 active torsions:
REMARK  status: ('A' for Active; 'I' for Inactive)
ROOT
ATOM      1  O1  BZF d   1       4.662   3.217   2.275  0.00  0.00    -0.204 OA
ATOM      2  C2  BZF d   1       5.248   4.217   3.026  0.00  0.00     0.174 A 
ATOM      3  C3  BZF d   1       5.810   3.711   4.143  0.00  0.00    -0.012 A 
ATOM      4  C3A BZF d   1       5.639   2.294   4.040  0.00  0.00    -0.107 A 
ATOM      5  C4  BZF d   1       6.000   1.245   4.837  0.00  0.00     0.055 A 
ATOM      6  C5  BZF d   1       5.618  -0.012   4.487  0.00  0.00    -0.016 A 
ATOM      7  C6  BZF d   1       4.871  -0.254   3.353  0.00  0.00     0.022 A 
ATOM      8  C7  BZF d   1       4.493   0.753   2.530  0.00  0.00     0.029 A 
ATOM      9  C7A BZF d   1       4.906   2.021   2.862  0.00  0.00     0.058 A 
ENDROOT
TORSDOF 0
ENDMDL
