MODEL 1
REMARK minimizedAffinity 5.8741827
REMARK minimizedRMSD -1
REMARK  0 active torsions:
REMARK  status: ('A' for Active; 'I' for Inactive)
ROOT
ATOM      1  O1  BZF d   1      -2.222   1.043   1.207  0.00  0.00    -0.204 OA
ATOM      2  C2  BZF d   1      -2.738   0.796  -0.051  0.00  0.00     0.174 A 
ATOM      3  C3  BZF d   1      -3.585  -0.253  -0.024  0.00  0.00    -0.012 A 
ATOM      4  C3A BZF d   1      -3.671  -0.631   1.353  0.00  0.00    -0.107 A 
ATOM      5  C4  BZF d   1      -4.369  -1.598   2.019  0.00  0.00     0.055 A 
ATOM      6  C5  BZF d   1      -4.175  -1.750   3.356  0.00  0.00    -0.016 A 
ATOM      7  C6  BZF d   1      -3.288  -0.958   4.055  0.00  0.00     0.022 A 
ATOM      8  C7  BZF d   1      -2.578   0.018   3.439  0.00  0.00     0.029 A 
ATOM      9  C7A BZF d   1      -2.796   0.196   2.095  0.00  0.00     0.058 A 
ENDROOT
TORSDOF 0
ENDMDL
