MODEL 1
REMARK minimizedAffinity 8.59853077
REMARK minimizedRMSD -1
REMARK  0 active torsions:
REMARK  status: ('A' for Active; 'I' for Inactive)
ROOT
ATOM      1  O1  BZF d   1      -2.272   0.649   0.348  0.00  0.00    -0.204 OA
ATOM      2  C2  BZF d   1      -3.298  -0.121  -0.164  0.00  0.00     0.174 A 
ATOM      3  C3  BZF d   1      -4.288   0.659  -0.645  0.00  0.00    -0.012 A 
ATOM      4  C3A BZF d   1      -3.812   2.000  -0.503  0.00  0.00    -0.107 A 
ATOM      5  C4  BZF d   1      -4.338   3.221  -0.817  0.00  0.00     0.055 A 
ATOM      6  C5  BZF d   1      -3.649   4.343  -0.482  0.00  0.00    -0.016 A 
ATOM      7  C6  BZF d   1      -2.436   4.282   0.171  0.00  0.00     0.022 A 
ATOM      8  C7  BZF d   1      -1.871   3.094   0.499  0.00  0.00     0.029 A 
ATOM      9  C7A BZF d   1      -2.550   1.958   0.132  0.00  0.00     0.058 A 
ENDROOT
TORSDOF 0
ENDMDL
