MODEL 1
REMARK minimizedAffinity 7.83400011
REMARK minimizedRMSD -1
REMARK  0 active torsions:
REMARK  status: ('A' for Active; 'I' for Inactive)
ROOT
ATOM      1  O1  BZF d   1       4.671   4.223   3.347  0.00  0.00    -0.204 OA
ATOM      2  C2  BZF d   1       5.407   4.819   4.353  0.00  0.00     0.174 A 
ATOM      3  C3  BZF d   1       6.000   3.887   5.128  0.00  0.00    -0.012 A 
ATOM      4  C3A BZF d   1       5.684   2.633   4.516  0.00  0.00    -0.107 A 
ATOM      5  C4  BZF d   1       6.000   1.338   4.813  0.00  0.00     0.055 A 
ATOM      6  C5  BZF d   1       5.471   0.340   4.057  0.00  0.00    -0.016 A 
ATOM      7  C6  BZF d   1       4.621   0.599   3.003  0.00  0.00     0.022 A 
ATOM      8  C7  BZF d   1       4.282   1.868   2.667  0.00  0.00     0.029 A 
ATOM      9  C7A BZF d   1       4.841   2.881   3.408  0.00  0.00     0.058 A 
ENDROOT
TORSDOF 0
ENDMDL
