MODEL 1
REMARK minimizedAffinity 5.29729652
REMARK minimizedRMSD -1
REMARK  0 active torsions:
REMARK  status: ('A' for Active; 'I' for Inactive)
ROOT
ATOM      1  O1  BZF d   1       0.705  -0.654  -2.313  0.00  0.00    -0.204 OA
ATOM      2  C2  BZF d   1       0.951   0.660  -2.661  0.00  0.00     0.174 A 
ATOM      3  C3  BZF d   1       0.054   1.485  -2.083  0.00  0.00    -0.012 A 
ATOM      4  C3A BZF d   1      -0.750   0.642  -1.252  0.00  0.00    -0.107 A 
ATOM      5  C4  BZF d   1      -1.801   0.879  -0.412  0.00  0.00     0.055 A 
ATOM      6  C5  BZF d   1      -2.411  -0.173   0.195  0.00  0.00    -0.016 A 
ATOM      7  C6  BZF d   1      -2.001  -1.473  -0.019  0.00  0.00     0.022 A 
ATOM      8  C7  BZF d   1      -0.960  -1.757  -0.840  0.00  0.00     0.029 A 
ATOM      9  C7A BZF d   1      -0.321  -0.694  -1.429  0.00  0.00     0.058 A 
ENDROOT
TORSDOF 0
ENDMDL
