MODEL 1
REMARK minimizedAffinity -6.20933819
REMARK minimizedRMSD -1
REMARK  0 active torsions:
REMARK  status: ('A' for Active; 'I' for Inactive)
ROOT
ATOM      1  O1  BZF d   1      -4.288   1.604   4.451  0.00  0.00    -0.204 OA
ATOM      2  C2  BZF d   1      -3.850   2.896   4.232  0.00  0.00     0.174 A 
ATOM      3  C3  BZF d   1      -3.222   2.993   3.042  0.00  0.00    -0.012 A 
ATOM      4  C3A BZF d   1      -3.351   1.701   2.442  0.00  0.00    -0.107 A 
ATOM      5  C4  BZF d   1      -2.946   1.176   1.248  0.00  0.00     0.055 A 
ATOM      6  C5  BZF d   1      -3.166  -0.142   0.998  0.00  0.00    -0.016 A 
ATOM      7  C6  BZF d   1      -3.783  -0.963   1.919  0.00  0.00     0.022 A 
ATOM      8  C7  BZF d   1      -4.207  -0.486   3.114  0.00  0.00     0.029 A 
ATOM      9  C7A BZF d   1      -4.016   0.852   3.357  0.00  0.00     0.058 A 
ENDROOT
TORSDOF 0
ENDMDL
