MODEL 1
REMARK minimizedAffinity -6.49747133
REMARK minimizedRMSD -1
REMARK  0 active torsions:
REMARK  status: ('A' for Active; 'I' for Inactive)
ROOT
ATOM      1  O1  BZF d   1      -4.451   3.440   5.327  0.00  0.00    -0.204 OA
ATOM      2  C2  BZF d   1      -4.623   4.810   5.288  0.00  0.00     0.174 A 
ATOM      3  C3  BZF d   1      -4.225   5.310   4.100  0.00  0.00    -0.012 A 
ATOM      4  C3A BZF d   1      -3.862   4.170   3.316  0.00  0.00    -0.107 A 
ATOM      5  C4  BZF d   1      -3.403   4.016   2.039  0.00  0.00     0.055 A 
ATOM      6  C5  BZF d   1      -3.074   2.773   1.600  0.00  0.00    -0.016 A 
ATOM      7  C6  BZF d   1      -3.186   1.663   2.411  0.00  0.00     0.022 A 
ATOM      8  C7  BZF d   1      -3.642   1.765   3.684  0.00  0.00     0.029 A 
ATOM      9  C7A BZF d   1      -4.006   3.015   4.120  0.00  0.00     0.058 A 
ENDROOT
TORSDOF 0
ENDMDL
