MODEL 1
REMARK minimizedAffinity 4.03571367
REMARK minimizedRMSD -1
REMARK  0 active torsions:
REMARK  status: ('A' for Active; 'I' for Inactive)
ROOT
ATOM      1  O1  BZF d   1      -3.190   3.560  -1.033  0.00  0.00    -0.204 OA
ATOM      2  C2  BZF d   1      -3.109   4.688  -0.241  0.00  0.00     0.174 A 
ATOM      3  C3  BZF d   1      -3.027   4.353   1.063  0.00  0.00    -0.012 A 
ATOM      4  C3A BZF d   1      -2.965   2.924   1.081  0.00  0.00    -0.107 A 
ATOM      5  C4  BZF d   1      -2.859   2.001   2.082  0.00  0.00     0.055 A 
ATOM      6  C5  BZF d   1      -2.899   0.679   1.769  0.00  0.00    -0.016 A 
ATOM      7  C6  BZF d   1      -3.049   0.246   0.468  0.00  0.00     0.022 A 
ATOM      8  C7  BZF d   1      -3.153   1.123  -0.559  0.00  0.00     0.029 A 
ATOM      9  C7A BZF d   1      -3.080   2.460  -0.250  0.00  0.00     0.058 A 
ENDROOT
TORSDOF 0
ENDMDL
