MODEL 1
REMARK minimizedAffinity 5.57045221
REMARK minimizedRMSD -1
REMARK  0 active torsions:
REMARK  status: ('A' for Active; 'I' for Inactive)
ROOT
ATOM      1  O1  BZF d   1      -2.228   3.121   1.231  0.00  0.00    -0.204 OA
ATOM      2  C2  BZF d   1      -2.599   3.656   0.013  0.00  0.00     0.174 A 
ATOM      3  C3  BZF d   1      -3.160   2.714  -0.773  0.00  0.00    -0.012 A 
ATOM      4  C3A BZF d   1      -3.223   1.537   0.038  0.00  0.00    -0.107 A 
ATOM      5  C4  BZF d   1      -3.694   0.273  -0.177  0.00  0.00     0.055 A 
ATOM      6  C5  BZF d   1      -3.539  -0.663   0.795  0.00  0.00    -0.016 A 
ATOM      7  C6  BZF d   1      -2.916  -0.373   1.991  0.00  0.00     0.022 A 
ATOM      8  C7  BZF d   1      -2.437   0.868   2.252  0.00  0.00     0.029 A 
ATOM      9  C7A BZF d   1      -2.621   1.825   1.284  0.00  0.00     0.058 A 
ENDROOT
TORSDOF 0
ENDMDL
