MODEL 1
REMARK minimizedAffinity 9.87029743
REMARK minimizedRMSD -1
REMARK  0 active torsions:
REMARK  status: ('A' for Active; 'I' for Inactive)
ROOT
ATOM      1  C   UNL d   1      -1.970  -0.361   3.141  0.00  0.00     0.124 A 
ATOM      2  C1  UNL d   1      -0.702  -0.683   3.603  0.00  0.00     0.062 A 
ATOM      3  C2  UNL d   1       0.305   0.278   3.611  0.00  0.00     0.162 A 
ATOM      4  C3  UNL d   1       0.048   1.571   3.156  0.00  0.00    -0.034 A 
ATOM      5  C4  UNL d   1      -1.230   1.887   2.691  0.00  0.00     0.162 A 
ATOM      6  C5  UNL d   1      -2.233   0.923   2.685  0.00  0.00     0.062 A 
ATOM      7  F   UNL d   1      -3.458   1.236   2.238  0.00  0.00    -0.097 F 
ATOM      8  F1  UNL d   1      -1.512   3.121   2.246  0.00  0.00    -0.096 F 
ATOM      9  I   UNL d   1       1.551   3.011   3.166  0.00  0.00    -0.060 I 
ATOM     10  F2  UNL d   1       1.522  -0.061   4.064  0.00  0.00    -0.096 F 
ATOM     11  F3  UNL d   1      -0.445  -1.923   4.043  0.00  0.00    -0.097 F 
ATOM     12  F4  UNL d   1      -2.937  -1.287   3.133  0.00  0.00    -0.092 F 
ENDROOT
TORSDOF 0
ENDMDL
