MODEL 1
REMARK minimizedAffinity 12.5289364
REMARK minimizedRMSD -1
REMARK  0 active torsions:
REMARK  status: ('A' for Active; 'I' for Inactive)
ROOT
ATOM      1  C   UNL d   1       0.149   1.656  -0.002  0.00  0.00     0.124 A 
ATOM      2  C1  UNL d   1      -0.293   2.534  -0.982  0.00  0.00     0.062 A 
ATOM      3  C2  UNL d   1      -1.020   3.668  -0.630  0.00  0.00     0.162 A 
ATOM      4  C3  UNL d   1      -1.309   3.931   0.709  0.00  0.00    -0.034 A 
ATOM      5  C4  UNL d   1      -0.862   3.042   1.689  0.00  0.00     0.162 A 
ATOM      6  C5  UNL d   1      -0.136   1.911   1.332  0.00  0.00     0.062 A 
ATOM      7  F   UNL d   1       0.289   1.063   2.280  0.00  0.00    -0.097 F 
ATOM      8  F1  UNL d   1      -1.123   3.264   2.986  0.00  0.00    -0.096 F 
ATOM      9  I   UNL d   1      -2.395   5.625   1.240  0.00  0.00    -0.060 I 
ATOM     10  F2  UNL d   1      -1.433   4.499  -1.598  0.00  0.00    -0.096 F 
ATOM     11  F3  UNL d   1      -0.019   2.290  -2.272  0.00  0.00    -0.097 F 
ATOM     12  F4  UNL d   1       0.847   0.565  -0.344  0.00  0.00    -0.092 F 
ENDROOT
TORSDOF 0
ENDMDL
