MODEL 1
REMARK minimizedAffinity 10.6975212
REMARK minimizedRMSD -1
REMARK  0 active torsions:
REMARK  status: ('A' for Active; 'I' for Inactive)
ROOT
ATOM      1  C   UNL d   1       1.146   3.379   0.525  0.00  0.00     0.124 A 
ATOM      2  C1  UNL d   1       0.305   3.145  -0.554  0.00  0.00     0.062 A 
ATOM      3  C2  UNL d   1      -0.748   2.242  -0.438  0.00  0.00     0.162 A 
ATOM      4  C3  UNL d   1      -0.966   1.566   0.762  0.00  0.00    -0.034 A 
ATOM      5  C4  UNL d   1      -0.115   1.805   1.843  0.00  0.00     0.162 A 
ATOM      6  C5  UNL d   1       0.935   2.709   1.722  0.00  0.00     0.062 A 
ATOM      7  F   UNL d   1       1.747   2.933   2.766  0.00  0.00    -0.097 F 
ATOM      8  F1  UNL d   1      -0.297   1.172   3.011  0.00  0.00    -0.096 F 
ATOM      9  I   UNL d   1      -2.539   0.214   0.939  0.00  0.00    -0.060 I 
ATOM     10  F2  UNL d   1      -1.545   2.036  -1.497  0.00  0.00    -0.096 F 
ATOM     11  F3  UNL d   1       0.507   3.790  -1.712  0.00  0.00    -0.097 F 
ATOM     12  F4  UNL d   1       2.159   4.247   0.411  0.00  0.00    -0.092 F 
ENDROOT
TORSDOF 0
ENDMDL
