MODEL 1
REMARK minimizedAffinity 20.6185799
REMARK minimizedRMSD -1
REMARK  0 active torsions:
REMARK  status: ('A' for Active; 'I' for Inactive)
ROOT
ATOM      1  C   UNL d   1       1.264   3.370   0.673  0.00  0.00     0.124 A 
ATOM      2  C1  UNL d   1       1.074   2.774   1.912  0.00  0.00     0.062 A 
ATOM      3  C2  UNL d   1      -0.049   1.985   2.144  0.00  0.00     0.162 A 
ATOM      4  C3  UNL d   1      -0.990   1.786   1.134  0.00  0.00    -0.034 A 
ATOM      5  C4  UNL d   1      -0.793   2.390  -0.109  0.00  0.00     0.162 A 
ATOM      6  C5  UNL d   1       0.331   3.178  -0.336  0.00  0.00     0.062 A 
ATOM      7  F   UNL d   1       0.513   3.753  -1.534  0.00  0.00    -0.097 F 
ATOM      8  F1  UNL d   1      -1.678   2.220  -1.102  0.00  0.00    -0.096 F 
ATOM      9  I   UNL d   1      -2.671   0.607   1.477  0.00  0.00    -0.060 I 
ATOM     10  F2  UNL d   1      -0.207   1.421   3.351  0.00  0.00    -0.096 F 
ATOM     11  F3  UNL d   1       1.974   2.959   2.888  0.00  0.00    -0.097 F 
ATOM     12  F4  UNL d   1       2.345   4.130   0.452  0.00  0.00    -0.092 F 
ENDROOT
TORSDOF 0
ENDMDL
