MODEL 1
REMARK minimizedAffinity 17.2782192
REMARK minimizedRMSD -1
REMARK  0 active torsions:
REMARK  status: ('A' for Active; 'I' for Inactive)
ROOT
ATOM      1  C   UNL d   1      -3.002   4.836  -2.832  0.00  0.00     0.124 A 
ATOM      2  C1  UNL d   1      -4.232   5.088  -2.241  0.00  0.00     0.062 A 
ATOM      3  C2  UNL d   1      -4.305   5.420  -0.891  0.00  0.00     0.162 A 
ATOM      4  C3  UNL d   1      -3.144   5.503  -0.123  0.00  0.00    -0.034 A 
ATOM      5  C4  UNL d   1      -1.910   5.248  -0.725  0.00  0.00     0.162 A 
ATOM      6  C5  UNL d   1      -1.843   4.916  -2.074  0.00  0.00     0.062 A 
ATOM      7  F   UNL d   1      -0.653   4.673  -2.644  0.00  0.00    -0.097 F 
ATOM      8  F1  UNL d   1      -0.774   5.319  -0.016  0.00  0.00    -0.096 F 
ATOM      9  I   UNL d   1      -3.248   6.000   1.895  0.00  0.00    -0.060 I 
ATOM     10  F2  UNL d   1      -5.507   5.658  -0.346  0.00  0.00    -0.096 F 
ATOM     11  F3  UNL d   1      -5.354   5.010  -2.971  0.00  0.00    -0.097 F 
ATOM     12  F4  UNL d   1      -2.935   4.515  -4.131  0.00  0.00    -0.092 F 
ENDROOT
TORSDOF 0
ENDMDL
