MODEL 1
REMARK minimizedAffinity -4.71980715
REMARK minimizedRMSD -1
REMARK  1 active torsions:
REMARK  status: ('A' for Active; 'I' for Inactive)
REMARK    1  A    between atoms: N_2  and  C1_3 
ROOT
ATOM      1  C1  UNL d   1      -0.118  -0.458   0.483  0.00  0.00     0.143 A 
ATOM      2  C2  UNL d   1      -1.181  -1.246   0.936  0.00  0.00    -0.057 A 
ATOM      3  C3  UNL d   1      -1.235  -2.619   0.663  0.00  0.00     0.033 A 
ATOM      4  C4  UNL d   1      -0.237  -3.223  -0.096  0.00  0.00    -0.042 A 
ATOM      5  C5  UNL d   1       0.816  -2.453  -0.577  0.00  0.00     0.033 A 
ATOM      6  C6  UNL d   1       0.868  -1.085  -0.296  0.00  0.00    -0.057 A 
ENDROOT
BRANCH   1   7
ATOM      7  N   UNL d   1      -0.057   0.929   0.638  0.00  0.00    -0.732 N 
ATOM      8  C   UNL d   1       0.006   1.798  -0.518  0.00  0.00     0.284 C 
ATOM      9  H3  UNL d   1      -0.671   1.265   1.377  0.00  0.00     0.395 HD
ENDBRANCH   1   7
TORSDOF 1
ENDMDL
