MODEL 1
REMARK minimizedAffinity -3.48421144
REMARK minimizedRMSD -1
REMARK  1 active torsions:
REMARK  status: ('A' for Active; 'I' for Inactive)
REMARK    1  A    between atoms: N_2  and  C1_3 
ROOT
ATOM      1  C1  UNL d   1       0.067  -0.158   0.190  0.00  0.00     0.143 A 
ATOM      2  C2  UNL d   1      -1.126  -0.701   0.680  0.00  0.00    -0.057 A 
ATOM      3  C3  UNL d   1      -1.273  -2.080   0.869  0.00  0.00     0.033 A 
ATOM      4  C4  UNL d   1      -0.235  -2.947   0.542  0.00  0.00    -0.042 A 
ATOM      5  C5  UNL d   1       0.951  -2.433   0.030  0.00  0.00     0.033 A 
ATOM      6  C6  UNL d   1       1.093  -1.053  -0.150  0.00  0.00    -0.057 A 
ENDROOT
BRANCH   1   7
ATOM      7  N   UNL d   1       0.239   1.195  -0.113  0.00  0.00    -0.732 N 
ATOM      8  C   UNL d   1       1.443   1.891   0.285  0.00  0.00     0.284 C 
ATOM      9  H3  UNL d   1      -0.086   1.428  -1.049  0.00  0.00     0.395 HD
ENDBRANCH   1   7
TORSDOF 1
ENDMDL
