MODEL 1
REMARK minimizedAffinity -4.07202721
REMARK minimizedRMSD -1
REMARK  1 active torsions:
REMARK  status: ('A' for Active; 'I' for Inactive)
REMARK    1  A    between atoms: N_2  and  C1_3 
ROOT
ATOM      1  C1  UNL d   1       0.117  -0.448  -0.250  0.00  0.00     0.143 A 
ATOM      2  C2  UNL d   1       1.175  -1.333  -0.485  0.00  0.00    -0.057 A 
ATOM      3  C3  UNL d   1       1.233  -2.580   0.149  0.00  0.00     0.033 A 
ATOM      4  C4  UNL d   1       0.245  -2.953   1.055  0.00  0.00    -0.042 A 
ATOM      5  C5  UNL d   1      -0.802  -2.079   1.323  0.00  0.00     0.033 A 
ATOM      6  C6  UNL d   1      -0.858  -0.838   0.681  0.00  0.00    -0.057 A 
ENDROOT
BRANCH   1   7
ATOM      7  N   UNL d   1       0.054   0.845  -0.775  0.00  0.00    -0.732 N 
ATOM      8  C   UNL d   1       0.684   1.951  -0.086  0.00  0.00     0.284 C 
ATOM      9  H3  UNL d   1       0.176   0.861  -1.785  0.00  0.00     0.395 HD
ENDBRANCH   1   7
TORSDOF 1
ENDMDL
