MODEL 1
REMARK minimizedAffinity -2.9551065
REMARK minimizedRMSD -1
REMARK  1 active torsions:
REMARK  status: ('A' for Active; 'I' for Inactive)
REMARK    1  A    between atoms: N_2  and  C1_3 
ROOT
ATOM      1  C1  UNL d   1      -0.166  -0.163   0.425  0.00  0.00     0.143 A 
ATOM      2  C2  UNL d   1      -1.335  -0.872   0.724  0.00  0.00    -0.057 A 
ATOM      3  C3  UNL d   1      -1.352  -2.272   0.738  0.00  0.00     0.033 A 
ATOM      4  C4  UNL d   1      -0.203  -2.991   0.424  0.00  0.00    -0.042 A 
ATOM      5  C5  UNL d   1       0.963  -2.307   0.099  0.00  0.00     0.033 A 
ATOM      6  C6  UNL d   1       0.976  -0.909   0.093  0.00  0.00    -0.057 A 
ENDROOT
BRANCH   1   7
ATOM      7  N   UNL d   1      -0.110   1.227   0.298  0.00  0.00    -0.732 N 
ATOM      8  C   UNL d   1       0.791   1.845  -0.650  0.00  0.00     0.284 C 
ATOM      9  H3  UNL d   1      -1.031   1.658   0.338  0.00  0.00     0.395 HD
ENDBRANCH   1   7
TORSDOF 1
ENDMDL
