MODEL 1
REMARK minimizedAffinity -2.96207023
REMARK minimizedRMSD -1
REMARK  1 active torsions:
REMARK  status: ('A' for Active; 'I' for Inactive)
REMARK    1  A    between atoms: N_2  and  C1_3 
ROOT
ATOM      1  C1  UNL d   1       0.631  -1.315  -0.358  0.00  0.00     0.143 A 
ATOM      2  C2  UNL d   1       0.872  -1.182  -1.729  0.00  0.00    -0.057 A 
ATOM      3  C3  UNL d   1       0.617   0.022  -2.397  0.00  0.00     0.033 A 
ATOM      4  C4  UNL d   1       0.089   1.109  -1.708  0.00  0.00    -0.042 A 
ATOM      5  C5  UNL d   1      -0.182   0.991  -0.349  0.00  0.00     0.033 A 
ATOM      6  C6  UNL d   1       0.081  -0.212   0.313  0.00  0.00    -0.057 A 
ENDROOT
BRANCH   1   7
ATOM      7  N   UNL d   1       0.771  -2.515   0.343  0.00  0.00    -0.732 N 
ATOM      8  C   UNL d   1      -0.310  -3.477   0.381  0.00  0.00     0.284 C 
ATOM      9  H3  UNL d   1       1.692  -2.930   0.224  0.00  0.00     0.395 HD
ENDBRANCH   1   7
TORSDOF 1
ENDMDL
