MODEL 1
REMARK minimizedAffinity -4.52114058
REMARK minimizedRMSD -1
REMARK  1 active torsions:
REMARK  status: ('A' for Active; 'I' for Inactive)
REMARK    1  A    between atoms: N_2  and  C1_3 
ROOT
ATOM      1  C1  UNL d   1      -0.169  -0.992  -0.315  0.00  0.00     0.143 A 
ATOM      2  C2  UNL d   1      -0.302  -2.262   0.255  0.00  0.00    -0.057 A 
ATOM      3  C3  UNL d   1       0.154  -3.407  -0.409  0.00  0.00     0.033 A 
ATOM      4  C4  UNL d   1       0.727  -3.304  -1.673  0.00  0.00    -0.042 A 
ATOM      5  C5  UNL d   1       0.847  -2.054  -2.269  0.00  0.00     0.033 A 
ATOM      6  C6  UNL d   1       0.395  -0.914  -1.598  0.00  0.00    -0.057 A 
ENDROOT
BRANCH   1   7
ATOM      7  N   UNL d   1      -0.692   0.173   0.252  0.00  0.00    -0.732 N 
ATOM      8  C   UNL d   1      -0.148   1.469  -0.093  0.00  0.00     0.284 C 
ATOM      9  H3  UNL d   1      -1.707   0.153   0.316  0.00  0.00     0.395 HD
ENDBRANCH   1   7
TORSDOF 1
ENDMDL
