MODEL 1
REMARK minimizedAffinity -4.29034185
REMARK minimizedRMSD -1
REMARK  1 active torsions:
REMARK  status: ('A' for Active; 'I' for Inactive)
REMARK    1  A    between atoms: N_2  and  C1_3 
ROOT
ATOM      1  C1  UNL d   1      -0.260   0.462  -0.092  0.00  0.00     0.143 A 
ATOM      2  C2  UNL d   1      -0.853  -0.180   1.000  0.00  0.00    -0.057 A 
ATOM      3  C3  UNL d   1      -1.104  -1.558   0.984  0.00  0.00     0.033 A 
ATOM      4  C4  UNL d   1      -0.790  -2.314  -0.141  0.00  0.00    -0.042 A 
ATOM      5  C5  UNL d   1      -0.223  -1.692  -1.247  0.00  0.00     0.033 A 
ATOM      6  C6  UNL d   1       0.031  -0.317  -1.222  0.00  0.00    -0.057 A 
ENDROOT
BRANCH   1   7
ATOM      7  N   UNL d   1      -0.075   1.845  -0.174  0.00  0.00    -0.732 N 
ATOM      8  C   UNL d   1       1.194   2.442   0.182  0.00  0.00     0.284 C 
ATOM      9  H3  UNL d   1      -0.504   2.245  -1.006  0.00  0.00     0.395 HD
ENDBRANCH   1   7
TORSDOF 1
ENDMDL
