MODEL 1
REMARK minimizedAffinity -2.86918783
REMARK minimizedRMSD -1
REMARK  1 active torsions:
REMARK  status: ('A' for Active; 'I' for Inactive)
REMARK    1  A    between atoms: N_2  and  C1_3 
ROOT
ATOM      1  C1  UNL d   1       0.422  -1.180  -0.487  0.00  0.00     0.143 A 
ATOM      2  C2  UNL d   1      -0.305  -0.299   0.321  0.00  0.00    -0.057 A 
ATOM      3  C3  UNL d   1      -0.960  -0.746   1.475  0.00  0.00     0.033 A 
ATOM      4  C4  UNL d   1      -0.923  -2.091   1.826  0.00  0.00    -0.042 A 
ATOM      5  C5  UNL d   1      -0.228  -2.989   1.024  0.00  0.00     0.033 A 
ATOM      6  C6  UNL d   1       0.429  -2.536  -0.124  0.00  0.00    -0.057 A 
ENDROOT
BRANCH   1   7
ATOM      7  N   UNL d   1       1.012  -0.815  -1.700  0.00  0.00    -0.732 N 
ATOM      8  C   UNL d   1       0.307   0.031  -2.638  0.00  0.00     0.284 C 
ATOM      9  H3  UNL d   1       2.000  -0.592  -1.599  0.00  0.00     0.395 HD
ENDBRANCH   1   7
TORSDOF 1
ENDMDL
