MODEL 1
REMARK minimizedAffinity -5.39324903
REMARK minimizedRMSD -1
REMARK  1 active torsions:
REMARK  status: ('A' for Active; 'I' for Inactive)
REMARK    1  A    between atoms: N_2  and  C1_3 
ROOT
ATOM      1  C1  UNL d   1       0.296  -0.559  -0.694  0.00  0.00     0.143 A 
ATOM      2  C2  UNL d   1       0.164  -1.207   0.539  0.00  0.00    -0.057 A 
ATOM      3  C3  UNL d   1       0.186  -2.604   0.630  0.00  0.00     0.033 A 
ATOM      4  C4  UNL d   1       0.310  -3.380  -0.518  0.00  0.00    -0.042 A 
ATOM      5  C5  UNL d   1       0.417  -2.758  -1.756  0.00  0.00     0.033 A 
ATOM      6  C6  UNL d   1       0.402  -1.362  -1.840  0.00  0.00    -0.057 A 
ENDROOT
BRANCH   1   7
ATOM      7  N   UNL d   1       0.183   0.824  -0.861  0.00  0.00    -0.732 N 
ATOM      8  C   UNL d   1       0.689   1.732   0.146  0.00  0.00     0.284 C 
ATOM      9  H3  UNL d   1       0.373   1.116  -1.817  0.00  0.00     0.395 HD
ENDBRANCH   1   7
TORSDOF 1
ENDMDL
