MODEL 1
REMARK minimizedAffinity -3.01936913
REMARK minimizedRMSD -1
REMARK  1 active torsions:
REMARK  status: ('A' for Active; 'I' for Inactive)
REMARK    1  A    between atoms: N_2  and  C1_3 
ROOT
ATOM      1  C1  UNL d   1      -0.392   0.126   0.179  0.00  0.00     0.143 A 
ATOM      2  C2  UNL d   1      -1.201  -0.488   1.141  0.00  0.00    -0.057 A 
ATOM      3  C3  UNL d   1      -1.118  -1.864   1.387  0.00  0.00     0.033 A 
ATOM      4  C4  UNL d   1      -0.244  -2.657   0.651  0.00  0.00    -0.042 A 
ATOM      5  C5  UNL d   1       0.551  -2.072  -0.328  0.00  0.00     0.033 A 
ATOM      6  C6  UNL d   1       0.469  -0.696  -0.564  0.00  0.00    -0.057 A 
ENDROOT
BRANCH   1   7
ATOM      7  N   UNL d   1      -0.497   1.472  -0.180  0.00  0.00    -0.732 N 
ATOM      8  C   UNL d   1       0.484   2.435   0.273  0.00  0.00     0.284 C 
ATOM      9  H3  UNL d   1      -0.783   1.595  -1.149  0.00  0.00     0.395 HD
ENDBRANCH   1   7
TORSDOF 1
ENDMDL
