MODEL 1
REMARK minimizedAffinity -2.99582577
REMARK minimizedRMSD -1
REMARK  1 active torsions:
REMARK  status: ('A' for Active; 'I' for Inactive)
REMARK    1  A    between atoms: N_2  and  C1_3 
ROOT
ATOM      1  C1  UNL d   1      -0.078   0.093  -0.265  0.00  0.00     0.143 A 
ATOM      2  C2  UNL d   1      -0.978  -0.398   0.687  0.00  0.00    -0.057 A 
ATOM      3  C3  UNL d   1      -0.938  -1.735   1.101  0.00  0.00     0.033 A 
ATOM      4  C4  UNL d   1      -0.014  -2.614   0.547  0.00  0.00    -0.042 A 
ATOM      5  C5  UNL d   1       0.874  -2.154  -0.420  0.00  0.00     0.033 A 
ATOM      6  C6  UNL d   1       0.834  -0.816  -0.824  0.00  0.00    -0.057 A 
ENDROOT
BRANCH   1   7
ATOM      7  N   UNL d   1      -0.131   1.387  -0.790  0.00  0.00    -0.732 N 
ATOM      8  C   UNL d   1       0.406   2.506  -0.047  0.00  0.00     0.284 C 
ATOM      9  H3  UNL d   1       0.076   1.411  -1.786  0.00  0.00     0.395 HD
ENDBRANCH   1   7
TORSDOF 1
ENDMDL
