MODEL 1
REMARK minimizedAffinity -2.80006146
REMARK minimizedRMSD -1
REMARK  1 active torsions:
REMARK  status: ('A' for Active; 'I' for Inactive)
REMARK    1  A    between atoms: N_2  and  C1_3 
ROOT
ATOM      1  C1  UNL d   1       0.182  -0.009   0.130  0.00  0.00     0.143 A 
ATOM      2  C2  UNL d   1      -0.892  -0.532   0.859  0.00  0.00    -0.057 A 
ATOM      3  C3  UNL d   1      -1.014  -1.908   1.086  0.00  0.00     0.033 A 
ATOM      4  C4  UNL d   1      -0.077  -2.792   0.561  0.00  0.00    -0.042 A 
ATOM      5  C5  UNL d   1       0.985  -2.297  -0.188  0.00  0.00     0.033 A 
ATOM      6  C6  UNL d   1       1.105  -0.921  -0.406  0.00  0.00    -0.057 A 
ENDROOT
BRANCH   1   7
ATOM      7  N   UNL d   1       0.306   1.339  -0.214  0.00  0.00    -0.732 N 
ATOM      8  C   UNL d   1       1.392   2.137   0.312  0.00  0.00     0.284 C 
ATOM      9  H3  UNL d   1       0.102   1.510  -1.196  0.00  0.00     0.395 HD
ENDBRANCH   1   7
TORSDOF 1
ENDMDL
