MODEL 1
REMARK minimizedAffinity 15.9989529
REMARK minimizedRMSD -1
REMARK  0 active torsions:
REMARK  status: ('A' for Active; 'I' for Inactive)
ROOT
ATOM      1  C   UNL d   1       2.005   0.635  -0.616  0.00  0.00    -0.002 A 
ATOM      2  C1  UNL d   1       1.081   0.150  -1.531  0.00  0.00     0.010 A 
ATOM      3  C2  UNL d   1       0.977  -1.220  -1.778  0.00  0.00     0.041 A 
ATOM      4  C3  UNL d   1       1.825  -2.104  -1.081  0.00  0.00    -0.075 A 
ATOM      5  S   UNL d   1       1.875  -3.822  -1.220  0.00  0.00     0.015 SA
ATOM      6  C4  UNL d   1       3.124  -3.953  -0.068  0.00  0.00     0.022 A 
ATOM      7  C5  UNL d   1       3.505  -2.726   0.421  0.00  0.00     0.026 A 
ATOM      8  C6  UNL d   1       2.763  -1.640  -0.155  0.00  0.00    -0.082 A 
ATOM      9  C7  UNL d   1       2.844  -0.245   0.073  0.00  0.00     0.045 A 
ENDROOT
TORSDOF 0
ENDMDL
