MODEL 1
REMARK minimizedAffinity 23.4377174
REMARK minimizedRMSD -1
REMARK  0 active torsions:
REMARK  status: ('A' for Active; 'I' for Inactive)
ROOT
ATOM      1  C   UNL d   1       0.057   1.670   3.999  0.00  0.00    -0.002 A 
ATOM      2  C1  UNL d   1       0.064   2.221   5.272  0.00  0.00     0.010 A 
ATOM      3  C2  UNL d   1      -1.133   2.457   5.951  0.00  0.00     0.041 A 
ATOM      4  C3  UNL d   1      -2.349   2.123   5.323  0.00  0.00    -0.075 A 
ATOM      5  S   UNL d   1      -3.938   2.320   5.963  0.00  0.00     0.015 SA
ATOM      6  C4  UNL d   1      -4.663   1.676   4.562  0.00  0.00     0.022 A 
ATOM      7  C5  UNL d   1      -3.731   1.314   3.618  0.00  0.00     0.026 A 
ATOM      8  C6  UNL d   1      -2.382   1.565   4.042  0.00  0.00    -0.082 A 
ATOM      9  C7  UNL d   1      -1.151   1.339   3.379  0.00  0.00     0.045 A 
ENDROOT
TORSDOF 0
ENDMDL
