MODEL 1
REMARK minimizedAffinity 19.1077328
REMARK minimizedRMSD -1
REMARK  0 active torsions:
REMARK  status: ('A' for Active; 'I' for Inactive)
ROOT
ATOM      1  C   UNL d   1       0.494   2.340   2.087  0.00  0.00    -0.002 A 
ATOM      2  C1  UNL d   1       0.785   1.043   2.482  0.00  0.00     0.010 A 
ATOM      3  C2  UNL d   1      -0.234   0.180   2.893  0.00  0.00     0.041 A 
ATOM      4  C3  UNL d   1      -1.563   0.647   2.897  0.00  0.00    -0.075 A 
ATOM      5  S   UNL d   1      -2.972  -0.231   3.358  0.00  0.00     0.015 SA
ATOM      6  C4  UNL d   1      -3.994   1.095   3.040  0.00  0.00     0.022 A 
ATOM      7  C5  UNL d   1      -3.294   2.190   2.593  0.00  0.00     0.026 A 
ATOM      8  C6  UNL d   1      -1.881   1.950   2.502  0.00  0.00    -0.082 A 
ATOM      9  C7  UNL d   1      -0.826   2.801   2.092  0.00  0.00     0.045 A 
ENDROOT
TORSDOF 0
ENDMDL
