MODEL 1
REMARK minimizedAffinity 18.395689
REMARK minimizedRMSD -1
REMARK  0 active torsions:
REMARK  status: ('A' for Active; 'I' for Inactive)
ROOT
ATOM      1  C   UNL d   1       0.991   1.148   1.477  0.00  0.00    -0.002 A 
ATOM      2  C1  UNL d   1       1.033   2.171   2.414  0.00  0.00     0.010 A 
ATOM      3  C2  UNL d   1      -0.126   2.566   3.086  0.00  0.00     0.041 A 
ATOM      4  C3  UNL d   1      -1.338   1.907   2.801  0.00  0.00    -0.075 A 
ATOM      5  S   UNL d   1      -2.881   2.220   3.502  0.00  0.00     0.015 SA
ATOM      6  C4  UNL d   1      -3.632   1.002   2.576  0.00  0.00     0.022 A 
ATOM      7  C5  UNL d   1      -2.742   0.362   1.746  0.00  0.00     0.026 A 
ATOM      8  C6  UNL d   1      -1.404   0.873   1.863  0.00  0.00    -0.082 A 
ATOM      9  C7  UNL d   1      -0.213   0.497   1.197  0.00  0.00     0.045 A 
ENDROOT
TORSDOF 0
ENDMDL
