MODEL 1
REMARK minimizedAffinity 16.9149647
REMARK minimizedRMSD -1
REMARK  0 active torsions:
REMARK  status: ('A' for Active; 'I' for Inactive)
ROOT
ATOM      1  C   UNL d   1      -0.886   1.105   2.144  0.00  0.00    -0.002 A 
ATOM      2  C1  UNL d   1       0.147   1.645   2.897  0.00  0.00     0.010 A 
ATOM      3  C2  UNL d   1       1.466   1.584   2.441  0.00  0.00     0.041 A 
ATOM      4  C3  UNL d   1       1.731   0.967   1.203  0.00  0.00    -0.075 A 
ATOM      5  S   UNL d   1       3.267   0.777   0.444  0.00  0.00     0.015 SA
ATOM      6  C4  UNL d   1       2.588  -0.024  -0.898  0.00  0.00     0.022 A 
ATOM      7  C5  UNL d   1       1.224  -0.153  -0.787  0.00  0.00     0.026 A 
ATOM      8  C6  UNL d   1       0.707   0.417   0.426  0.00  0.00    -0.082 A 
ATOM      9  C7  UNL d   1      -0.619   0.494   0.916  0.00  0.00     0.045 A 
ENDROOT
TORSDOF 0
ENDMDL
