MODEL 1
REMARK minimizedAffinity 14.0217085
REMARK minimizedRMSD -1
REMARK  0 active torsions:
REMARK  status: ('A' for Active; 'I' for Inactive)
ROOT
ATOM      1  C   UNL d   1       1.838   1.509   2.195  0.00  0.00    -0.002 A 
ATOM      2  C1  UNL d   1       1.407   2.132   3.358  0.00  0.00     0.010 A 
ATOM      3  C2  UNL d   1       0.047   2.184   3.673  0.00  0.00     0.041 A 
ATOM      4  C3  UNL d   1      -0.880   1.593   2.792  0.00  0.00    -0.075 A 
ATOM      5  S   UNL d   1      -2.593   1.534   2.973  0.00  0.00     0.015 SA
ATOM      6  C4  UNL d   1      -2.793   0.680   1.512  0.00  0.00     0.022 A 
ATOM      7  C5  UNL d   1      -1.592   0.437   0.888  0.00  0.00     0.026 A 
ATOM      8  C6  UNL d   1      -0.469   0.959   1.616  0.00  0.00    -0.082 A 
ATOM      9  C7  UNL d   1       0.916   0.923   1.324  0.00  0.00     0.045 A 
ENDROOT
TORSDOF 0
ENDMDL
