MODEL 1
REMARK minimizedAffinity 16.5076199
REMARK minimizedRMSD -1
REMARK  0 active torsions:
REMARK  status: ('A' for Active; 'I' for Inactive)
ROOT
ATOM      1  C   UNL d   1       0.722  -4.012  -2.142  0.00  0.00    -0.002 A 
ATOM      2  C1  UNL d   1       1.404  -4.273  -0.962  0.00  0.00     0.010 A 
ATOM      3  C2  UNL d   1       2.090  -3.254  -0.297  0.00  0.00     0.041 A 
ATOM      4  C3  UNL d   1       2.076  -1.956  -0.843  0.00  0.00    -0.075 A 
ATOM      5  S   UNL d   1       2.845  -0.551  -0.203  0.00  0.00     0.015 SA
ATOM      6  C4  UNL d   1       2.285   0.429  -1.480  0.00  0.00     0.022 A 
ATOM      7  C5  UNL d   1       1.529  -0.282  -2.382  0.00  0.00     0.026 A 
ATOM      8  C6  UNL d   1       1.396  -1.668  -2.030  0.00  0.00    -0.082 A 
ATOM      9  C7  UNL d   1       0.712  -2.723  -2.680  0.00  0.00     0.045 A 
ENDROOT
TORSDOF 0
ENDMDL
