MODEL 1
REMARK minimizedAffinity 20.703516
REMARK minimizedRMSD -1
REMARK  0 active torsions:
REMARK  status: ('A' for Active; 'I' for Inactive)
ROOT
ATOM      1  C   UNL d   1      -3.748  -3.236  -4.881  0.00  0.00    -0.002 A 
ATOM      2  C1  UNL d   1      -3.019  -3.611  -6.000  0.00  0.00     0.010 A 
ATOM      3  C2  UNL d   1      -1.732  -4.134  -5.866  0.00  0.00     0.041 A 
ATOM      4  C3  UNL d   1      -1.185  -4.277  -4.576  0.00  0.00    -0.075 A 
ATOM      5  S   UNL d   1       0.373  -4.895  -4.170  0.00  0.00     0.015 SA
ATOM      6  C4  UNL d   1       0.106  -4.677  -2.501  0.00  0.00     0.022 A 
ATOM      7  C5  UNL d   1      -1.135  -4.146  -2.242  0.00  0.00     0.026 A 
ATOM      8  C6  UNL d   1      -1.900  -3.907  -3.433  0.00  0.00    -0.082 A 
ATOM      9  C7  UNL d   1      -3.202  -3.379  -3.602  0.00  0.00     0.045 A 
ENDROOT
TORSDOF 0
ENDMDL
