MODEL 1
REMARK minimizedAffinity 16.2785168
REMARK minimizedRMSD -1
REMARK  0 active torsions:
REMARK  status: ('A' for Active; 'I' for Inactive)
ROOT
ATOM      1  C   UNL d   1      -3.027   0.087   3.762  0.00  0.00    -0.002 A 
ATOM      2  C1  UNL d   1      -3.000   0.024   5.148  0.00  0.00     0.010 A 
ATOM      3  C2  UNL d   1      -3.559   1.047   5.917  0.00  0.00     0.041 A 
ATOM      4  C3  UNL d   1      -4.152   2.144   5.263  0.00  0.00    -0.075 A 
ATOM      5  S   UNL d   1      -4.900   3.513   5.998  0.00  0.00     0.015 SA
ATOM      6  C4  UNL d   1      -5.273   4.213   4.490  0.00  0.00     0.022 A 
ATOM      7  C5  UNL d   1      -4.845   3.436   3.440  0.00  0.00     0.026 A 
ATOM      8  C6  UNL d   1      -4.192   2.230   3.868  0.00  0.00    -0.082 A 
ATOM      9  C7  UNL d   1      -3.617   1.178   3.117  0.00  0.00     0.045 A 
ENDROOT
TORSDOF 0
ENDMDL
