MODEL 1
REMARK minimizedAffinity 22.4242458
REMARK minimizedRMSD -1
REMARK  0 active torsions:
REMARK  status: ('A' for Active; 'I' for Inactive)
ROOT
ATOM      1  C   UNL d   1       0.772   0.183  -2.635  0.00  0.00    -0.002 A 
ATOM      2  C1  UNL d   1       0.674  -0.914  -1.792  0.00  0.00     0.010 A 
ATOM      3  C2  UNL d   1       1.695  -1.208  -0.886  0.00  0.00     0.041 A 
ATOM      4  C3  UNL d   1       2.826  -0.370  -0.840  0.00  0.00    -0.075 A 
ATOM      5  S   UNL d   1       4.199  -0.533   0.190  0.00  0.00     0.015 SA
ATOM      6  C4  UNL d   1       4.948   0.851  -0.464  0.00  0.00     0.022 A 
ATOM      7  C5  UNL d   1       4.183   1.436  -1.446  0.00  0.00     0.026 A 
ATOM      8  C6  UNL d   1       2.947   0.742  -1.678  0.00  0.00    -0.082 A 
ATOM      9  C7  UNL d   1       1.896   1.012  -2.586  0.00  0.00     0.045 A 
ENDROOT
TORSDOF 0
ENDMDL
