MODEL 1
REMARK minimizedAffinity -4.12083769
REMARK minimizedRMSD -1
REMARK  1 active torsions:
REMARK  status: ('A' for Active; 'I' for Inactive)
REMARK    1  A    between atoms: N_2  and  C1_3 
ROOT
ATOM      1  C1  UNL d   1      -4.716  -0.253   0.088  0.00  0.00     0.143 A 
ATOM      2  C2  UNL d   1      -4.814   0.322   1.359  0.00  0.00    -0.057 A 
ATOM      3  C3  UNL d   1      -3.785   1.117   1.877  0.00  0.00     0.033 A 
ATOM      4  C4  UNL d   1      -2.623   1.327   1.142  0.00  0.00    -0.042 A 
ATOM      5  C5  UNL d   1      -2.493   0.745  -0.113  0.00  0.00     0.033 A 
ATOM      6  C6  UNL d   1      -3.528  -0.042  -0.628  0.00  0.00    -0.057 A 
ENDROOT
BRANCH   1   7
ATOM      7  N   UNL d   1      -5.663  -1.133  -0.443  0.00  0.00    -0.732 N 
ATOM      8  C   UNL d   1      -5.992  -1.101  -1.851  0.00  0.00     0.284 C 
ATOM      9  H3  UNL d   1      -5.580  -2.071  -0.057  0.00  0.00     0.395 HD
ENDBRANCH   1   7
TORSDOF 1
ENDMDL
