MODEL 1
REMARK minimizedAffinity -2.88630199
REMARK minimizedRMSD -1
REMARK  1 active torsions:
REMARK  status: ('A' for Active; 'I' for Inactive)
REMARK    1  A    between atoms: N_2  and  C1_3 
ROOT
ATOM      1  C1  UNL d   1      -0.550   0.597  -0.213  0.00  0.00     0.143 A 
ATOM      2  C2  UNL d   1       0.468   1.555  -0.143  0.00  0.00    -0.057 A 
ATOM      3  C3  UNL d   1       1.717   1.247   0.409  0.00  0.00     0.033 A 
ATOM      4  C4  UNL d   1       1.963  -0.020   0.928  0.00  0.00    -0.042 A 
ATOM      5  C5  UNL d   1       0.958  -0.980   0.891  0.00  0.00     0.033 A 
ATOM      6  C6  UNL d   1      -0.286  -0.669   0.333  0.00  0.00    -0.057 A 
ENDROOT
BRANCH   1   7
ATOM      7  N   UNL d   1      -1.845   0.870  -0.660  0.00  0.00    -0.732 N 
ATOM      8  C   UNL d   1      -2.955   0.894   0.269  0.00  0.00     0.284 C 
ATOM      9  H3  UNL d   1      -1.868   1.612  -1.355  0.00  0.00     0.395 HD
ENDBRANCH   1   7
TORSDOF 1
ENDMDL
