MODEL 1
REMARK minimizedAffinity -4.54737091
REMARK minimizedRMSD -1
REMARK  1 active torsions:
REMARK  status: ('A' for Active; 'I' for Inactive)
REMARK    1  A    between atoms: N_2  and  C1_3 
ROOT
ATOM      1  C1  UNL d   1       0.239  -0.123  -0.094  0.00  0.00     0.143 A 
ATOM      2  C2  UNL d   1       0.728  -1.099  -0.968  0.00  0.00    -0.057 A 
ATOM      3  C3  UNL d   1       1.716  -2.006  -0.565  0.00  0.00     0.033 A 
ATOM      4  C4  UNL d   1       2.255  -1.932   0.716  0.00  0.00    -0.042 A 
ATOM      5  C5  UNL d   1       1.802  -0.954   1.593  0.00  0.00     0.033 A 
ATOM      6  C6  UNL d   1       0.810  -0.056   1.186  0.00  0.00    -0.057 A 
ENDROOT
BRANCH   1   7
ATOM      7  N   UNL d   1      -0.671   0.869  -0.467  0.00  0.00    -0.732 N 
ATOM      8  C   UNL d   1      -2.076   0.738  -0.148  0.00  0.00     0.284 C 
ATOM      9  H3  UNL d   1      -0.300   1.807  -0.333  0.00  0.00     0.395 HD
ENDBRANCH   1   7
TORSDOF 1
ENDMDL
