MODEL 1
REMARK minimizedAffinity -4.24800587
REMARK minimizedRMSD -1
REMARK  1 active torsions:
REMARK  status: ('A' for Active; 'I' for Inactive)
REMARK    1  A    between atoms: N_2  and  C1_3 
ROOT
ATOM      1  C1  UNL d   1       0.291  -0.174   0.093  0.00  0.00     0.143 A 
ATOM      2  C2  UNL d   1       0.703  -1.210  -0.752  0.00  0.00    -0.057 A 
ATOM      3  C3  UNL d   1       1.893  -1.910  -0.517  0.00  0.00     0.033 A 
ATOM      4  C4  UNL d   1       2.709  -1.565   0.556  0.00  0.00    -0.042 A 
ATOM      5  C5  UNL d   1       2.332  -0.522   1.395  0.00  0.00     0.033 A 
ATOM      6  C6  UNL d   1       1.139   0.168   1.158  0.00  0.00    -0.057 A 
ENDROOT
BRANCH   1   7
ATOM      7  N   UNL d   1      -0.830   0.625  -0.145  0.00  0.00    -0.732 N 
ATOM      8  C   UNL d   1      -1.994   0.534   0.710  0.00  0.00     0.284 C 
ATOM      9  H3  UNL d   1      -0.581   1.575  -0.409  0.00  0.00     0.395 HD
ENDBRANCH   1   7
TORSDOF 1
ENDMDL
