MODEL 1
REMARK minimizedAffinity -1.11758769
REMARK minimizedRMSD -1
REMARK  1 active torsions:
REMARK  status: ('A' for Active; 'I' for Inactive)
REMARK    1  A    between atoms: N_2  and  C1_3 
ROOT
ATOM      1  C1  UNL d   1      -1.210   0.413   0.241  0.00  0.00     0.143 A 
ATOM      2  C2  UNL d   1      -0.775   0.595  -1.076  0.00  0.00    -0.057 A 
ATOM      3  C3  UNL d   1       0.370  -0.051  -1.558  0.00  0.00     0.033 A 
ATOM      4  C4  UNL d   1       1.118  -0.871  -0.719  0.00  0.00    -0.042 A 
ATOM      5  C5  UNL d   1       0.718  -1.047   0.600  0.00  0.00     0.033 A 
ATOM      6  C6  UNL d   1      -0.430  -0.404   1.074  0.00  0.00    -0.057 A 
ENDROOT
BRANCH   1   7
ATOM      7  N   UNL d   1      -2.284   1.105   0.808  0.00  0.00    -0.732 N 
ATOM      8  C   UNL d   1      -3.647   0.733   0.496  0.00  0.00     0.284 C 
ATOM      9  H3  UNL d   1      -2.128   1.328   1.789  0.00  0.00     0.395 HD
ENDBRANCH   1   7
TORSDOF 1
ENDMDL
