MODEL 1
REMARK minimizedAffinity -4.81102324
REMARK minimizedRMSD -1
REMARK  1 active torsions:
REMARK  status: ('A' for Active; 'I' for Inactive)
REMARK    1  A    between atoms: N_2  and  C1_3 
ROOT
ATOM      1  C1  UNL d   1       1.075  -0.209   0.716  0.00  0.00     0.143 A 
ATOM      2  C2  UNL d   1      -0.191  -0.035   0.148  0.00  0.00    -0.057 A 
ATOM      3  C3  UNL d   1      -0.565   1.182  -0.434  0.00  0.00     0.033 A 
ATOM      4  C4  UNL d   1       0.314   2.260  -0.432  0.00  0.00    -0.042 A 
ATOM      5  C5  UNL d   1       1.569   2.118   0.149  0.00  0.00     0.033 A 
ATOM      6  C6  UNL d   1       1.939   0.897   0.722  0.00  0.00    -0.057 A 
ENDROOT
BRANCH   1   7
ATOM      7  N   UNL d   1       1.471  -1.363   1.397  0.00  0.00    -0.732 N 
ATOM      8  C   UNL d   1       2.759  -1.969   1.134  0.00  0.00     0.284 C 
ATOM      9  H3  UNL d   1       1.215  -1.340   2.381  0.00  0.00     0.395 HD
ENDBRANCH   1   7
TORSDOF 1
ENDMDL
