MODEL 1
REMARK minimizedAffinity -4.64840126
REMARK minimizedRMSD -1
REMARK  0 active torsions:
REMARK  status: ('A' for Active; 'I' for Inactive)
ROOT
ATOM      1  C   UNL d   1      -1.234  -0.484   2.660  0.00  0.00     0.124 A 
ATOM      2  C1  UNL d   1       0.137  -0.316   2.518  0.00  0.00     0.062 A 
ATOM      3  C2  UNL d   1       0.696  -0.170   1.252  0.00  0.00     0.162 A 
ATOM      4  C3  UNL d   1      -0.115  -0.191   0.117  0.00  0.00    -0.034 A 
ATOM      5  C4  UNL d   1      -1.492  -0.362   0.268  0.00  0.00     0.162 A 
ATOM      6  C5  UNL d   1      -2.047  -0.507   1.536  0.00  0.00     0.062 A 
ATOM      7  F   UNL d   1      -3.371  -0.670   1.672  0.00  0.00    -0.097 F 
ATOM      8  F1  UNL d   1      -2.302  -0.387  -0.801  0.00  0.00    -0.096 F 
ATOM      9  I   UNL d   1       0.717   0.026  -1.778  0.00  0.00    -0.060 I 
ATOM     10  F2  UNL d   1       2.023  -0.009   1.144  0.00  0.00    -0.096 F 
ATOM     11  F3  UNL d   1       0.924  -0.294   3.603  0.00  0.00    -0.097 F 
ATOM     12  F4  UNL d   1      -1.769  -0.625   3.880  0.00  0.00    -0.092 F 
ENDROOT
TORSDOF 0
ENDMDL
