MODEL 1
REMARK minimizedAffinity -3.31755757
REMARK minimizedRMSD -1
REMARK  0 active torsions:
REMARK  status: ('A' for Active; 'I' for Inactive)
ROOT
ATOM      1  C   UNL d   1       1.109   1.029  -0.212  0.00  0.00     0.124 A 
ATOM      2  C1  UNL d   1      -0.224   0.665  -0.340  0.00  0.00     0.062 A 
ATOM      3  C2  UNL d   1      -0.926   0.180   0.759  0.00  0.00     0.162 A 
ATOM      4  C3  UNL d   1      -0.297   0.058   1.998  0.00  0.00    -0.034 A 
ATOM      5  C4  UNL d   1       1.045   0.425   2.119  0.00  0.00     0.162 A 
ATOM      6  C5  UNL d   1       1.742   0.909   1.017  0.00  0.00     0.062 A 
ATOM      7  F   UNL d   1       3.030   1.261   1.143  0.00  0.00    -0.097 F 
ATOM      8  F1  UNL d   1       1.681   0.320   3.295  0.00  0.00    -0.096 F 
ATOM      9  I   UNL d   1      -1.343  -0.667   3.645  0.00  0.00    -0.060 I 
ATOM     10  F2  UNL d   1      -2.214  -0.164   0.607  0.00  0.00    -0.096 F 
ATOM     11  F3  UNL d   1      -0.838   0.779  -1.527  0.00  0.00    -0.097 F 
ATOM     12  F4  UNL d   1       1.782   1.494  -1.272  0.00  0.00    -0.092 F 
ENDROOT
TORSDOF 0
ENDMDL
