MODEL 1
REMARK minimizedAffinity -0.305225104
REMARK minimizedRMSD -1
REMARK  0 active torsions:
REMARK  status: ('A' for Active; 'I' for Inactive)
ROOT
ATOM      1  C   UNL d   1      -0.488  -0.226   2.096  0.00  0.00     0.124 A 
ATOM      2  C1  UNL d   1      -1.292  -0.509   1.000  0.00  0.00     0.062 A 
ATOM      3  C2  UNL d   1      -0.820  -0.289  -0.290  0.00  0.00     0.162 A 
ATOM      4  C3  UNL d   1       0.465   0.216  -0.493  0.00  0.00    -0.034 A 
ATOM      5  C4  UNL d   1       1.267   0.499   0.614  0.00  0.00     0.162 A 
ATOM      6  C5  UNL d   1       0.790   0.278   1.902  0.00  0.00     0.062 A 
ATOM      7  F   UNL d   1       1.568   0.552   2.959  0.00  0.00    -0.097 F 
ATOM      8  F1  UNL d   1       2.507   0.986   0.455  0.00  0.00    -0.096 F 
ATOM      9  I   UNL d   1       1.175   0.546  -2.421  0.00  0.00    -0.060 I 
ATOM     10  F2  UNL d   1      -1.618  -0.572  -1.330  0.00  0.00    -0.096 F 
ATOM     11  F3  UNL d   1      -2.528  -0.995   1.185  0.00  0.00    -0.097 F 
ATOM     12  F4  UNL d   1      -0.946  -0.437   3.337  0.00  0.00    -0.092 F 
ENDROOT
TORSDOF 0
ENDMDL
