MODEL 1
REMARK minimizedAffinity -3.34639311
REMARK minimizedRMSD -1
REMARK  0 active torsions:
REMARK  status: ('A' for Active; 'I' for Inactive)
ROOT
ATOM      1  C   UNL d   1      -0.584   1.365  -1.357  0.00  0.00     0.124 A 
ATOM      2  C1  UNL d   1       0.575   1.204  -0.611  0.00  0.00     0.062 A 
ATOM      3  C2  UNL d   1       0.515   0.662   0.670  0.00  0.00     0.162 A 
ATOM      4  C3  UNL d   1      -0.711   0.276   1.213  0.00  0.00    -0.034 A 
ATOM      5  C4  UNL d   1      -1.873   0.441   0.457  0.00  0.00     0.162 A 
ATOM      6  C5  UNL d   1      -1.807   0.984  -0.822  0.00  0.00     0.062 A 
ATOM      7  F   UNL d   1      -2.928   1.138  -1.541  0.00  0.00    -0.097 F 
ATOM      8  F1  UNL d   1      -3.067   0.081   0.949  0.00  0.00    -0.096 F 
ATOM      9  I   UNL d   1      -0.806  -0.535   3.127  0.00  0.00    -0.060 I 
ATOM     10  F2  UNL d   1       1.651   0.518   1.367  0.00  0.00    -0.096 F 
ATOM     11  F3  UNL d   1       1.758   1.572  -1.125  0.00  0.00    -0.097 F 
ATOM     12  F4  UNL d   1      -0.523   1.887  -2.588  0.00  0.00    -0.092 F 
ENDROOT
TORSDOF 0
ENDMDL
