MODEL 1
REMARK minimizedAffinity -2.97388744
REMARK minimizedRMSD -1
REMARK  0 active torsions:
REMARK  status: ('A' for Active; 'I' for Inactive)
ROOT
ATOM      1  C   UNL d   1      -0.916   0.011   2.714  0.00  0.00     0.124 A 
ATOM      2  C1  UNL d   1      -1.853  -0.203   1.713  0.00  0.00     0.062 A 
ATOM      3  C2  UNL d   1      -1.488  -0.082   0.375  0.00  0.00     0.162 A 
ATOM      4  C3  UNL d   1      -0.179   0.254   0.031  0.00  0.00    -0.034 A 
ATOM      5  C4  UNL d   1       0.758   0.469   1.043  0.00  0.00     0.162 A 
ATOM      6  C5  UNL d   1       0.388   0.347   2.379  0.00  0.00     0.062 A 
ATOM      7  F   UNL d   1       1.295   0.554   3.345  0.00  0.00    -0.097 F 
ATOM      8  F1  UNL d   1       2.025   0.793   0.747  0.00  0.00    -0.096 F 
ATOM      9  I   UNL d   1       0.371   0.436  -1.968  0.00  0.00    -0.060 I 
ATOM     10  F2  UNL d   1      -2.414  -0.294  -0.572  0.00  0.00    -0.096 F 
ATOM     11  F3  UNL d   1      -3.114  -0.526   2.034  0.00  0.00    -0.097 F 
ATOM     12  F4  UNL d   1      -1.270  -0.105   4.000  0.00  0.00    -0.092 F 
ENDROOT
TORSDOF 0
ENDMDL
