MODEL 1
REMARK minimizedAffinity -3.53152823
REMARK minimizedRMSD -1
REMARK  0 active torsions:
REMARK  status: ('A' for Active; 'I' for Inactive)
ROOT
ATOM      1  C   UNL d   1       0.433  -0.231   2.628  0.00  0.00     0.124 A 
ATOM      2  C1  UNL d   1      -0.882  -0.514   2.285  0.00  0.00     0.062 A 
ATOM      3  C2  UNL d   1      -1.399  -0.073   1.071  0.00  0.00     0.162 A 
ATOM      4  C3  UNL d   1      -0.600   0.655   0.189  0.00  0.00    -0.034 A 
ATOM      5  C4  UNL d   1       0.721   0.936   0.541  0.00  0.00     0.162 A 
ATOM      6  C5  UNL d   1       1.233   0.493   1.756  0.00  0.00     0.062 A 
ATOM      7  F   UNL d   1       2.504   0.768   2.085  0.00  0.00    -0.097 F 
ATOM      8  F1  UNL d   1       1.516   1.634  -0.284  0.00  0.00    -0.096 F 
ATOM      9  I   UNL d   1      -1.370   1.316  -1.629  0.00  0.00    -0.060 I 
ATOM     10  F2  UNL d   1      -2.673  -0.361   0.765  0.00  0.00    -0.096 F 
ATOM     11  F3  UNL d   1      -1.657  -1.213   3.127  0.00  0.00    -0.097 F 
ATOM     12  F4  UNL d   1       0.928  -0.656   3.798  0.00  0.00    -0.092 F 
ENDROOT
TORSDOF 0
ENDMDL
