MODEL 1
REMARK minimizedAffinity -4.75174761
REMARK minimizedRMSD -1
REMARK  0 active torsions:
REMARK  status: ('A' for Active; 'I' for Inactive)
ROOT
ATOM      1  C   UNL d   1      -1.193  -0.191   2.303  0.00  0.00     0.124 A 
ATOM      2  C1  UNL d   1       0.132   0.167   2.095  0.00  0.00     0.062 A 
ATOM      3  C2  UNL d   1       0.568   0.526   0.823  0.00  0.00     0.162 A 
ATOM      4  C3  UNL d   1      -0.321   0.531  -0.251  0.00  0.00    -0.034 A 
ATOM      5  C4  UNL d   1      -1.652   0.169  -0.034  0.00  0.00     0.162 A 
ATOM      6  C5  UNL d   1      -2.083  -0.189   1.239  0.00  0.00     0.062 A 
ATOM      7  F   UNL d   1      -3.364  -0.535   1.438  0.00  0.00    -0.097 F 
ATOM      8  F1  UNL d   1      -2.534   0.163  -1.045  0.00  0.00    -0.096 F 
ATOM      9  I   UNL d   1       0.328   1.069  -2.154  0.00  0.00    -0.060 I 
ATOM     10  F2  UNL d   1       1.854   0.868   0.652  0.00  0.00    -0.096 F 
ATOM     11  F3  UNL d   1       0.994   0.165   3.122  0.00  0.00    -0.097 F 
ATOM     12  F4  UNL d   1      -1.610  -0.538   3.527  0.00  0.00    -0.092 F 
ENDROOT
TORSDOF 0
ENDMDL
