MODEL 1
REMARK minimizedAffinity -5.7558198
REMARK minimizedRMSD -1
REMARK  0 active torsions:
REMARK  status: ('A' for Active; 'I' for Inactive)
ROOT
ATOM      1  C   UNL d   1      -1.353  -0.072   2.862  0.00  0.00     0.124 A 
ATOM      2  C1  UNL d   1      -2.286  -0.005   1.837  0.00  0.00     0.062 A 
ATOM      3  C2  UNL d   1      -1.868   0.145   0.518  0.00  0.00     0.162 A 
ATOM      4  C3  UNL d   1      -0.508   0.228   0.216  0.00  0.00    -0.034 A 
ATOM      5  C4  UNL d   1       0.424   0.161   1.253  0.00  0.00     0.162 A 
ATOM      6  C5  UNL d   1       0.001   0.011   2.569  0.00  0.00     0.062 A 
ATOM      7  F   UNL d   1       0.904  -0.054   3.558  0.00  0.00    -0.097 F 
ATOM      8  F1  UNL d   1       1.739   0.237   0.998  0.00  0.00    -0.096 F 
ATOM      9  I   UNL d   1       0.122   0.453  -1.755  0.00  0.00    -0.060 I 
ATOM     10  F2  UNL d   1      -2.791   0.207  -0.453  0.00  0.00    -0.096 F 
ATOM     11  F3  UNL d   1      -3.595  -0.084   2.117  0.00  0.00    -0.097 F 
ATOM     12  F4  UNL d   1      -1.759  -0.216   4.130  0.00  0.00    -0.092 F 
ENDROOT
TORSDOF 0
ENDMDL
