MODEL 1
REMARK minimizedAffinity -2.49438286
REMARK minimizedRMSD -1
REMARK  0 active torsions:
REMARK  status: ('A' for Active; 'I' for Inactive)
ROOT
ATOM      1  C   UNL d   1       0.828   0.268   1.537  0.00  0.00     0.124 A 
ATOM      2  C1  UNL d   1       0.357   0.828   0.357  0.00  0.00     0.062 A 
ATOM      3  C2  UNL d   1      -0.996   1.119   0.211  0.00  0.00     0.162 A 
ATOM      4  C3  UNL d   1      -1.889   0.852   1.249  0.00  0.00    -0.034 A 
ATOM      5  C4  UNL d   1      -1.408   0.288   2.433  0.00  0.00     0.162 A 
ATOM      6  C5  UNL d   1      -0.055  -0.001   2.573  0.00  0.00     0.062 A 
ATOM      7  F   UNL d   1       0.398  -0.542   3.713  0.00  0.00    -0.097 F 
ATOM      8  F1  UNL d   1      -2.239   0.019   3.450  0.00  0.00    -0.096 F 
ATOM      9  I   UNL d   1      -3.913   1.287   1.036  0.00  0.00    -0.060 I 
ATOM     10  F2  UNL d   1      -1.423   1.660  -0.939  0.00  0.00    -0.096 F 
ATOM     11  F3  UNL d   1       1.208   1.088  -0.646  0.00  0.00    -0.097 F 
ATOM     12  F4  UNL d   1       2.130  -0.013   1.673  0.00  0.00    -0.092 F 
ENDROOT
TORSDOF 0
ENDMDL
