MODEL 1
REMARK minimizedAffinity -1.71066856
REMARK minimizedRMSD -1
REMARK  0 active torsions:
REMARK  status: ('A' for Active; 'I' for Inactive)
ROOT
ATOM      1  C   UNL d   1       1.030   0.951   0.936  0.00  0.00     0.124 A 
ATOM      2  C1  UNL d   1       0.352   1.014  -0.274  0.00  0.00     0.062 A 
ATOM      3  C2  UNL d   1      -1.007   0.718  -0.330  0.00  0.00     0.162 A 
ATOM      4  C3  UNL d   1      -1.698   0.358   0.827  0.00  0.00    -0.034 A 
ATOM      5  C4  UNL d   1      -1.009   0.296   2.039  0.00  0.00     0.162 A 
ATOM      6  C5  UNL d   1       0.349   0.593   2.091  0.00  0.00     0.062 A 
ATOM      7  F   UNL d   1       1.003   0.532   3.260  0.00  0.00    -0.097 F 
ATOM      8  F1  UNL d   1      -1.642  -0.046   3.171  0.00  0.00    -0.096 F 
ATOM      9  I   UNL d   1      -3.730  -0.086   0.746  0.00  0.00    -0.060 I 
ATOM     10  F2  UNL d   1      -1.637   0.786  -1.513  0.00  0.00    -0.096 F 
ATOM     11  F3  UNL d   1       1.007   1.359  -1.391  0.00  0.00    -0.097 F 
ATOM     12  F4  UNL d   1       2.337   1.236   0.987  0.00  0.00    -0.092 F 
ENDROOT
TORSDOF 0
ENDMDL
