MODEL 1
REMARK minimizedAffinity -5.67606878
REMARK minimizedRMSD -1
REMARK  0 active torsions:
REMARK  status: ('A' for Active; 'I' for Inactive)
ROOT
ATOM      1  C   UNL d   1       1.431   0.175   2.492  0.00  0.00     0.124 A 
ATOM      2  C1  UNL d   1       2.150   0.834   1.504  0.00  0.00     0.062 A 
ATOM      3  C2  UNL d   1       1.601   1.008   0.237  0.00  0.00     0.162 A 
ATOM      4  C3  UNL d   1       0.325   0.523  -0.050  0.00  0.00    -0.034 A 
ATOM      5  C4  UNL d   1      -0.392  -0.139   0.948  0.00  0.00     0.162 A 
ATOM      6  C5  UNL d   1       0.161  -0.310   2.213  0.00  0.00     0.062 A 
ATOM      7  F   UNL d   1      -0.535  -0.947   3.167  0.00  0.00    -0.097 F 
ATOM      8  F1  UNL d   1      -1.621  -0.618   0.707  0.00  0.00    -0.096 F 
ATOM      9  I   UNL d   1      -0.500   0.780  -1.944  0.00  0.00    -0.060 I 
ATOM     10  F2  UNL d   1       2.318   1.648  -0.699  0.00  0.00    -0.096 F 
ATOM     11  F3  UNL d   1       3.377   1.303   1.770  0.00  0.00    -0.097 F 
ATOM     12  F4  UNL d   1       1.962   0.009   3.710  0.00  0.00    -0.092 F 
ENDROOT
TORSDOF 0
ENDMDL
