MODEL 1
REMARK minimizedAffinity -5.39896822
REMARK minimizedRMSD -1
REMARK  0 active torsions:
REMARK  status: ('A' for Active; 'I' for Inactive)
ROOT
ATOM      1  C   UNL d   1      -1.681  -0.311   2.662  0.00  0.00     0.124 A 
ATOM      2  C1  UNL d   1      -0.308  -0.348   2.466  0.00  0.00     0.062 A 
ATOM      3  C2  UNL d   1       0.226  -0.113   1.202  0.00  0.00     0.162 A 
ATOM      4  C3  UNL d   1      -0.614   0.163   0.124  0.00  0.00    -0.034 A 
ATOM      5  C4  UNL d   1      -1.995   0.197   0.328  0.00  0.00     0.162 A 
ATOM      6  C5  UNL d   1      -2.524  -0.039   1.593  0.00  0.00     0.062 A 
ATOM      7  F   UNL d   1      -3.851  -0.002   1.780  0.00  0.00    -0.097 F 
ATOM      8  F1  UNL d   1      -2.832   0.460  -0.687  0.00  0.00    -0.096 F 
ATOM      9  I   UNL d   1       0.180   0.516  -1.767  0.00  0.00    -0.060 I 
ATOM     10  F2  UNL d   1       1.557  -0.155   1.042  0.00  0.00    -0.096 F 
ATOM     11  F3  UNL d   1       0.508  -0.613   3.497  0.00  0.00    -0.097 F 
ATOM     12  F4  UNL d   1      -2.192  -0.539   3.878  0.00  0.00    -0.092 F 
ENDROOT
TORSDOF 0
ENDMDL
