MODEL 1
REMARK minimizedAffinity -2.27507663
REMARK minimizedRMSD -1
REMARK  0 active torsions:
REMARK  status: ('A' for Active; 'I' for Inactive)
ROOT
ATOM      1  C   UNL d   1       0.604   0.238   2.467  0.00  0.00     0.124 A 
ATOM      2  C1  UNL d   1       1.200   0.617   1.273  0.00  0.00     0.062 A 
ATOM      3  C2  UNL d   1       0.438   0.725   0.113  0.00  0.00     0.162 A 
ATOM      4  C3  UNL d   1      -0.930   0.455   0.143  0.00  0.00    -0.034 A 
ATOM      5  C4  UNL d   1      -1.523   0.073   1.348  0.00  0.00     0.162 A 
ATOM      6  C5  UNL d   1      -0.756  -0.034   2.504  0.00  0.00     0.062 A 
ATOM      7  F   UNL d   1      -1.333  -0.400   3.658  0.00  0.00    -0.097 F 
ATOM      8  F1  UNL d   1      -2.835  -0.194   1.413  0.00  0.00    -0.096 F 
ATOM      9  I   UNL d   1      -2.074   0.615  -1.588  0.00  0.00    -0.060 I 
ATOM     10  F2  UNL d   1       1.040   1.094  -1.027  0.00  0.00    -0.096 F 
ATOM     11  F3  UNL d   1       2.515   0.879   1.234  0.00  0.00    -0.097 F 
ATOM     12  F4  UNL d   1       1.341   0.134   3.581  0.00  0.00    -0.092 F 
ENDROOT
TORSDOF 0
ENDMDL
