MODEL 1
REMARK minimizedAffinity -0.639889717
REMARK minimizedRMSD -1
REMARK  0 active torsions:
REMARK  status: ('A' for Active; 'I' for Inactive)
ROOT
ATOM      1  O1  BZF d   1      -1.154   0.501  -5.985  0.00  0.00    -0.204 OA
ATOM      2  C2  BZF d   1      -1.747  -0.747  -5.996  0.00  0.00     0.174 A 
ATOM      3  C3  BZF d   1      -1.253  -1.519  -5.007  0.00  0.00    -0.012 A 
ATOM      4  C3A BZF d   1      -0.359  -0.673  -4.279  0.00  0.00    -0.107 A 
ATOM      5  C4  BZF d   1       0.424  -0.862  -3.176  0.00  0.00     0.055 A 
ATOM      6  C5  BZF d   1       1.236   0.146  -2.762  0.00  0.00    -0.016 A 
ATOM      7  C6  BZF d   1       1.294   1.353  -3.429  0.00  0.00     0.022 A 
ATOM      8  C7  BZF d   1       0.532   1.589  -4.524  0.00  0.00     0.029 A 
ATOM      9  C7A BZF d   1      -0.314   0.584  -4.926  0.00  0.00     0.058 A 
ENDROOT
TORSDOF 0
ENDMDL
