MODEL 1
REMARK minimizedAffinity -0.368390381
REMARK minimizedRMSD -1
REMARK  0 active torsions:
REMARK  status: ('A' for Active; 'I' for Inactive)
ROOT
ATOM      1  O1  BZF d   1       2.668  -1.124  -1.762  0.00  0.00    -0.204 OA
ATOM      2  C2  BZF d   1       1.933  -1.422  -0.631  0.00  0.00     0.174 A 
ATOM      3  C3  BZF d   1       0.643  -1.062  -0.789  0.00  0.00    -0.012 A 
ATOM      4  C3A BZF d   1       0.547  -0.588  -2.136  0.00  0.00    -0.107 A 
ATOM      5  C4  BZF d   1      -0.484  -0.106  -2.890  0.00  0.00     0.055 A 
ATOM      6  C5  BZF d   1      -0.229   0.341  -4.148  0.00  0.00    -0.016 A 
ATOM      7  C6  BZF d   1       1.043   0.324  -4.681  0.00  0.00     0.022 A 
ATOM      8  C7  BZF d   1       2.097  -0.149  -3.972  0.00  0.00     0.029 A 
ATOM      9  C7A BZF d   1       1.837  -0.632  -2.713  0.00  0.00     0.058 A 
ENDROOT
TORSDOF 0
ENDMDL
