MODEL 1
REMARK minimizedAffinity -2.96135259
REMARK minimizedRMSD -1
REMARK  0 active torsions:
REMARK  status: ('A' for Active; 'I' for Inactive)
ROOT
ATOM      1  O1  BZF d   1      -1.836  -1.107   1.949  0.00  0.00    -0.204 OA
ATOM      2  C2  BZF d   1      -1.595  -0.149   2.915  0.00  0.00     0.174 A 
ATOM      3  C3  BZF d   1      -0.739   0.787   2.457  0.00  0.00    -0.012 A 
ATOM      4  C3A BZF d   1      -0.497   0.439   1.090  0.00  0.00    -0.107 A 
ATOM      5  C4  BZF d   1       0.257   0.999   0.099  0.00  0.00     0.055 A 
ATOM      6  C5  BZF d   1       0.336   0.372  -1.104  0.00  0.00    -0.016 A 
ATOM      7  C6  BZF d   1      -0.321  -0.816  -1.348  0.00  0.00     0.022 A 
ATOM      8  C7  BZF d   1      -1.085  -1.407  -0.398  0.00  0.00     0.029 A 
ATOM      9  C7A BZF d   1      -1.193  -0.759   0.809  0.00  0.00     0.058 A 
ENDROOT
TORSDOF 0
ENDMDL
