MODEL 1
REMARK minimizedAffinity -5.46968174
REMARK minimizedRMSD -1
REMARK  0 active torsions:
REMARK  status: ('A' for Active; 'I' for Inactive)
ROOT
ATOM      1  O1  BZF d   1       1.919  -0.746   0.762  0.00  0.00    -0.204 OA
ATOM      2  C2  BZF d   1       1.651  -0.953  -0.577  0.00  0.00     0.174 A 
ATOM      3  C3  BZF d   1       0.388  -0.585  -0.875  0.00  0.00    -0.012 A 
ATOM      4  C3A BZF d   1      -0.138  -0.031   0.335  0.00  0.00    -0.107 A 
ATOM      5  C4  BZF d   1      -1.341   0.521   0.670  0.00  0.00     0.055 A 
ATOM      6  C5  BZF d   1      -1.559   0.898   1.957  0.00  0.00    -0.016 A 
ATOM      7  C6  BZF d   1      -0.601   0.733   2.935  0.00  0.00     0.022 A 
ATOM      8  C7  BZF d   1       0.610   0.194   2.650  0.00  0.00     0.029 A 
ATOM      9  C7A BZF d   1       0.846  -0.158   1.344  0.00  0.00     0.058 A 
ENDROOT
TORSDOF 0
ENDMDL
