MODEL 1
REMARK minimizedAffinity -2.56475186
REMARK minimizedRMSD -1
REMARK  0 active torsions:
REMARK  status: ('A' for Active; 'I' for Inactive)
ROOT
ATOM      1  O1  BZF d   1       0.327   0.339   2.941  0.00  0.00    -0.204 OA
ATOM      2  C2  BZF d   1      -0.959   0.833   3.042  0.00  0.00     0.174 A 
ATOM      3  C3  BZF d   1      -1.560   0.854   1.835  0.00  0.00    -0.012 A 
ATOM      4  C3A BZF d   1      -0.621   0.254   0.937  0.00  0.00    -0.107 A 
ATOM      5  C4  BZF d   1      -0.646  -0.024  -0.400  0.00  0.00     0.055 A 
ATOM      6  C5  BZF d   1       0.463  -0.547  -0.986  0.00  0.00    -0.016 A 
ATOM      7  C6  BZF d   1       1.613  -0.799  -0.269  0.00  0.00     0.022 A 
ATOM      8  C7  BZF d   1       1.685  -0.545   1.060  0.00  0.00     0.029 A 
ATOM      9  C7A BZF d   1       0.555  -0.047   1.663  0.00  0.00     0.058 A 
ENDROOT
TORSDOF 0
ENDMDL
