MODEL 1
REMARK minimizedAffinity -3.20872593
REMARK minimizedRMSD -1
REMARK  0 active torsions:
REMARK  status: ('A' for Active; 'I' for Inactive)
ROOT
ATOM      1  O1  BZF d   1       1.045   0.139  -0.153  0.00  0.00    -0.204 OA
ATOM      2  C2  BZF d   1      -0.136  -0.263   0.443  0.00  0.00     0.174 A 
ATOM      3  C3  BZF d   1      -1.079  -0.516  -0.487  0.00  0.00    -0.012 A 
ATOM      4  C3A BZF d   1      -0.421  -0.346  -1.746  0.00  0.00    -0.107 A 
ATOM      5  C4  BZF d   1      -0.829  -0.473  -3.043  0.00  0.00     0.055 A 
ATOM      6  C5  BZF d   1       0.039  -0.164  -4.042  0.00  0.00    -0.016 A 
ATOM      7  C6  BZF d   1       1.319   0.281  -3.780  0.00  0.00     0.022 A 
ATOM      8  C7  BZF d   1       1.770   0.418  -2.510  0.00  0.00     0.029 A 
ATOM      9  C7A BZF d   1       0.906   0.075  -1.499  0.00  0.00     0.058 A 
ENDROOT
TORSDOF 0
ENDMDL
