MODEL 1
REMARK minimizedAffinity -0.974722981
REMARK minimizedRMSD -1
REMARK  0 active torsions:
REMARK  status: ('A' for Active; 'I' for Inactive)
ROOT
ATOM      1  O1  BZF d   1       1.223  -0.229   0.187  0.00  0.00    -0.204 OA
ATOM      2  C2  BZF d   1       0.113   0.195  -0.517  0.00  0.00     0.174 A 
ATOM      3  C3  BZF d   1      -0.922   0.428   0.316  0.00  0.00    -0.012 A 
ATOM      4  C3A BZF d   1      -0.400   0.218   1.631  0.00  0.00    -0.107 A 
ATOM      5  C4  BZF d   1      -0.941   0.312   2.882  0.00  0.00     0.055 A 
ATOM      6  C5  BZF d   1      -0.183  -0.030   3.957  0.00  0.00    -0.016 A 
ATOM      7  C6  BZF d   1       1.116  -0.474   3.817  0.00  0.00     0.022 A 
ATOM      8  C7  BZF d   1       1.698  -0.578   2.598  0.00  0.00     0.029 A 
ATOM      9  C7A BZF d   1       0.945  -0.202   1.512  0.00  0.00     0.058 A 
ENDROOT
TORSDOF 0
ENDMDL
