MODEL 1
REMARK minimizedAffinity -2.66273451
REMARK minimizedRMSD -1
REMARK  0 active torsions:
REMARK  status: ('A' for Active; 'I' for Inactive)
ROOT
ATOM      1  O1  BZF d   1       0.672  -1.504  -1.132  0.00  0.00    -0.204 OA
ATOM      2  C2  BZF d   1      -0.256  -0.853  -0.342  0.00  0.00     0.174 A 
ATOM      3  C3  BZF d   1      -0.564   0.353  -0.861  0.00  0.00    -0.012 A 
ATOM      4  C3A BZF d   1       0.150   0.424  -2.099  0.00  0.00    -0.107 A 
ATOM      5  C4  BZF d   1       0.237   1.370  -3.080  0.00  0.00     0.055 A 
ATOM      6  C5  BZF d   1       1.081   1.162  -4.125  0.00  0.00    -0.016 A 
ATOM      7  C6  BZF d   1       1.854   0.023  -4.218  0.00  0.00     0.022 A 
ATOM      8  C7  BZF d   1       1.798  -0.946  -3.272  0.00  0.00     0.029 A 
ATOM      9  C7A BZF d   1       0.922  -0.753  -2.232  0.00  0.00     0.058 A 
ENDROOT
TORSDOF 0
ENDMDL
