MODEL 1
REMARK minimizedAffinity -1.86275053
REMARK minimizedRMSD -1
REMARK  0 active torsions:
REMARK  status: ('A' for Active; 'I' for Inactive)
ROOT
ATOM      1  O1  BZF d   1       1.803  -0.813  -0.001  0.00  0.00    -0.204 OA
ATOM      2  C2  BZF d   1       2.622  -0.869   1.110  0.00  0.00     0.174 A 
ATOM      3  C3  BZF d   1       1.996  -0.364   2.193  0.00  0.00    -0.012 A 
ATOM      4  C3A BZF d   1       0.672  -0.051   1.749  0.00  0.00    -0.107 A 
ATOM      5  C4  BZF d   1      -0.428   0.467   2.371  0.00  0.00     0.055 A 
ATOM      6  C5  BZF d   1      -1.544   0.718   1.637  0.00  0.00    -0.016 A 
ATOM      7  C6  BZF d   1      -1.593   0.468   0.281  0.00  0.00     0.022 A 
ATOM      8  C7  BZF d   1      -0.529  -0.051  -0.378  0.00  0.00     0.029 A 
ATOM      9  C7A BZF d   1       0.589  -0.336   0.367  0.00  0.00     0.058 A 
ENDROOT
TORSDOF 0
ENDMDL
