MODEL 1
REMARK minimizedAffinity -3.10527992
REMARK minimizedRMSD -1
REMARK  0 active torsions:
REMARK  status: ('A' for Active; 'I' for Inactive)
ROOT
ATOM      1  O1  BZF d   1      -0.764   0.269  -0.075  0.00  0.00    -0.204 OA
ATOM      2  C2  BZF d   1       0.318   0.119  -0.921  0.00  0.00     0.174 A 
ATOM      3  C3  BZF d   1       1.443  -0.128  -0.219  0.00  0.00    -0.012 A 
ATOM      4  C3A BZF d   1       1.022  -0.225   1.145  0.00  0.00    -0.107 A 
ATOM      5  C4  BZF d   1       1.680  -0.474   2.315  0.00  0.00     0.055 A 
ATOM      6  C5  BZF d   1       0.989  -0.428   3.484  0.00  0.00    -0.016 A 
ATOM      7  C6  BZF d   1      -0.357  -0.131   3.521  0.00  0.00     0.022 A 
ATOM      8  C7  BZF d   1      -1.055   0.117   2.385  0.00  0.00     0.029 A 
ATOM      9  C7A BZF d   1      -0.366   0.039   1.199  0.00  0.00     0.058 A 
ENDROOT
TORSDOF 0
ENDMDL
