MODEL 1
REMARK minimizedAffinity -3.04676771
REMARK minimizedRMSD -1
REMARK  0 active torsions:
REMARK  status: ('A' for Active; 'I' for Inactive)
ROOT
ATOM      1  O1  BZF d   1       0.862  -0.959  -0.156  0.00  0.00    -0.204 OA
ATOM      2  C2  BZF d   1       0.793  -0.653  -1.501  0.00  0.00     0.174 A 
ATOM      3  C3  BZF d   1      -0.238   0.181  -1.750  0.00  0.00    -0.012 A 
ATOM      4  C3A BZF d   1      -0.796   0.483  -0.467  0.00  0.00    -0.107 A 
ATOM      5  C4  BZF d   1      -1.833   1.271  -0.056  0.00  0.00     0.055 A 
ATOM      6  C5  BZF d   1      -2.165   1.291   1.262  0.00  0.00    -0.016 A 
ATOM      7  C6  BZF d   1      -1.485   0.534   2.194  0.00  0.00     0.022 A 
ATOM      8  C7  BZF d   1      -0.447  -0.259   1.834  0.00  0.00     0.029 A 
ATOM      9  C7A BZF d   1      -0.088  -0.257   0.508  0.00  0.00     0.058 A 
ENDROOT
TORSDOF 0
ENDMDL
