MODEL 1
REMARK minimizedAffinity -1.56783223
REMARK minimizedRMSD -1
REMARK  0 active torsions:
REMARK  status: ('A' for Active; 'I' for Inactive)
ROOT
ATOM      1  O1  BZF d   1       1.403  -0.851   0.064  0.00  0.00    -0.204 OA
ATOM      2  C2  BZF d   1       2.302  -0.977   1.106  0.00  0.00     0.174 A 
ATOM      3  C3  BZF d   1       1.810  -0.421   2.232  0.00  0.00    -0.012 A 
ATOM      4  C3A BZF d   1       0.485   0.001   1.896  0.00  0.00    -0.107 A 
ATOM      5  C4  BZF d   1      -0.514   0.609   2.601  0.00  0.00     0.055 A 
ATOM      6  C5  BZF d   1      -1.662   0.952   1.959  0.00  0.00    -0.016 A 
ATOM      7  C6  BZF d   1      -1.841   0.708   0.613  0.00  0.00     0.022 A 
ATOM      8  C7  BZF d   1      -0.881   0.103  -0.127  0.00  0.00     0.029 A 
ATOM      9  C7A BZF d   1       0.267  -0.275   0.526  0.00  0.00     0.058 A 
ENDROOT
TORSDOF 0
ENDMDL
