MODEL 1
REMARK minimizedAffinity -2.16300654
REMARK minimizedRMSD -1
REMARK  0 active torsions:
REMARK  status: ('A' for Active; 'I' for Inactive)
ROOT
ATOM      1  O1  BZF d   1       0.016   1.672  -3.336  0.00  0.00    -0.204 OA
ATOM      2  C2  BZF d   1       1.112   1.314  -4.097  0.00  0.00     0.174 A 
ATOM      3  C3  BZF d   1       1.832   0.355  -3.479  0.00  0.00    -0.012 A 
ATOM      4  C3A BZF d   1       1.092   0.032  -2.298  0.00  0.00    -0.107 A 
ATOM      5  C4  BZF d   1       1.287  -0.860  -1.282  0.00  0.00     0.055 A 
ATOM      6  C5  BZF d   1       0.416  -0.875  -0.240  0.00  0.00    -0.016 A 
ATOM      7  C6  BZF d   1      -0.658  -0.010  -0.178  0.00  0.00     0.022 A 
ATOM      8  C7  BZF d   1      -0.895   0.889  -1.164  0.00  0.00     0.029 A 
ATOM      9  C7A BZF d   1      -0.035   0.884  -2.235  0.00  0.00     0.058 A 
ENDROOT
TORSDOF 0
ENDMDL
