MODEL 1
REMARK minimizedAffinity 3.29037738
REMARK minimizedRMSD -1
REMARK  0 active torsions:
REMARK  status: ('A' for Active; 'I' for Inactive)
ROOT
ATOM      1  O1  BZF d   1       4.875  -0.768   3.865  0.00  0.00    -0.204 OA
ATOM      2  C2  BZF d   1       4.257  -0.501   2.658  0.00  0.00     0.174 A 
ATOM      3  C3  BZF d   1       4.124   0.828   2.473  0.00  0.00    -0.012 A 
ATOM      4  C3A BZF d   1       4.776   1.432   3.594  0.00  0.00    -0.107 A 
ATOM      5  C4  BZF d   1       4.992   2.727   3.969  0.00  0.00     0.055 A 
ATOM      6  C5  BZF d   1       5.599   2.977   5.159  0.00  0.00    -0.016 A 
ATOM      7  C6  BZF d   1       5.998   1.959   6.000  0.00  0.00     0.022 A 
ATOM      8  C7  BZF d   1       5.810   0.658   5.668  0.00  0.00     0.029 A 
ATOM      9  C7A BZF d   1       5.226   0.401   4.452  0.00  0.00     0.058 A 
ENDROOT
TORSDOF 0
ENDMDL
