MODEL 1
REMARK minimizedAffinity 9.213027
REMARK minimizedRMSD -1
REMARK  1 active torsions:
REMARK  status: ('A' for Active; 'I' for Inactive)
REMARK    1  A    between atoms: C1_2  and  C2_3 
ROOT
ATOM      1  C2  UNL d   1      -0.601  -0.699   1.760  0.00  0.00    -0.081 A 
ATOM      2  C3  UNL d   1      -1.629   0.132   2.221  0.00  0.00     0.006 A 
ATOM      3  C4  UNL d   1      -2.398  -0.239   3.327  0.00  0.00     0.002 A 
ATOM      4  C5  UNL d   1      -2.147  -1.442   3.995  0.00  0.00    -0.080 A 
ATOM      5  C6  UNL d   1      -2.945  -1.838   5.201  0.00  0.00     0.076 C 
ATOM      6  C7  UNL d   1      -1.131  -2.281   3.524  0.00  0.00     0.002 A 
ATOM      7  C8  UNL d   1      -0.363  -1.911   2.418  0.00  0.00     0.006 A 
ENDROOT
BRANCH   1   8
ATOM      8  C1  UNL d   1       0.271  -0.272   0.608  0.00  0.00     0.054 C 
ATOM      9  C   UNL d   1       1.732  -0.177   1.026  0.00  0.00     0.018 C 
ENDBRANCH   1   8
TORSDOF 1
ENDMDL
