MODEL 1
REMARK minimizedAffinity 3.52723432
REMARK minimizedRMSD -1
REMARK  1 active torsions:
REMARK  status: ('A' for Active; 'I' for Inactive)
REMARK    1  A    between atoms: C1_2  and  C2_3 
ROOT
ATOM      1  C2  UNL d   1      -2.358  -1.015   2.125  0.00  0.00    -0.081 A 
ATOM      2  C3  UNL d   1      -1.500   0.080   1.966  0.00  0.00     0.006 A 
ATOM      3  C4  UNL d   1      -0.408   0.005   1.099  0.00  0.00     0.002 A 
ATOM      4  C5  UNL d   1      -0.161  -1.164   0.370  0.00  0.00    -0.080 A 
ATOM      5  C6  UNL d   1       0.991  -1.248  -0.588  0.00  0.00     0.076 C 
ATOM      6  C7  UNL d   1      -1.007  -2.264   0.542  0.00  0.00     0.002 A 
ATOM      7  C8  UNL d   1      -2.099  -2.189   1.410  0.00  0.00     0.006 A 
ENDROOT
BRANCH   1   8
ATOM      8  C1  UNL d   1      -3.574  -0.914   3.011  0.00  0.00     0.054 C 
ATOM      9  C   UNL d   1      -3.357   0.088   4.136  0.00  0.00     0.018 C 
ENDBRANCH   1   8
TORSDOF 1
ENDMDL
