MODEL 1
REMARK minimizedAffinity -2.5823667
REMARK minimizedRMSD -1
REMARK  1 active torsions:
REMARK  status: ('A' for Active; 'I' for Inactive)
REMARK    1  A    between atoms: C1_2  and  C2_3 
ROOT
ATOM      1  C2  UNL d   1      -4.408  -4.765  -4.686  0.00  0.00    -0.081 A 
ATOM      2  C3  UNL d   1      -3.379  -4.358  -3.827  0.00  0.00     0.006 A 
ATOM      3  C4  UNL d   1      -2.063  -4.766  -4.056  0.00  0.00     0.002 A 
ATOM      4  C5  UNL d   1      -1.752  -5.578  -5.152  0.00  0.00    -0.080 A 
ATOM      5  C6  UNL d   1      -0.338  -5.998  -5.426  0.00  0.00     0.076 C 
ATOM      6  C7  UNL d   1      -2.782  -5.999  -6.000  0.00  0.00     0.002 A 
ATOM      7  C8  UNL d   1      -4.099  -5.593  -5.771  0.00  0.00     0.006 A 
ENDROOT
BRANCH   1   8
ATOM      8  C1  UNL d   1      -5.818  -4.275  -4.478  0.00  0.00     0.054 C 
ATOM      9  C   UNL d   1      -5.984  -2.843  -4.968  0.00  0.00     0.018 C 
ENDBRANCH   1   8
TORSDOF 1
ENDMDL
