MODEL 1
REMARK minimizedAffinity 0.707037508
REMARK minimizedRMSD -1
REMARK  1 active torsions:
REMARK  status: ('A' for Active; 'I' for Inactive)
REMARK    1  A    between atoms: C1_2  and  C2_3 
ROOT
ATOM      1  C2  UNL d   1      -2.414  -5.208  -4.727  0.00  0.00    -0.081 A 
ATOM      2  C3  UNL d   1      -3.141  -5.131  -5.921  0.00  0.00     0.006 A 
ATOM      3  C4  UNL d   1      -4.306  -4.363  -5.993  0.00  0.00     0.002 A 
ATOM      4  C5  UNL d   1      -4.757  -3.652  -4.876  0.00  0.00    -0.080 A 
ATOM      5  C6  UNL d   1      -5.989  -2.800  -4.948  0.00  0.00     0.076 C 
ATOM      6  C7  UNL d   1      -4.040  -3.743  -3.678  0.00  0.00     0.002 A 
ATOM      7  C8  UNL d   1      -2.876  -4.511  -3.605  0.00  0.00     0.006 A 
ENDROOT
BRANCH   1   8
ATOM      8  C1  UNL d   1      -1.123  -5.984  -4.665  0.00  0.00     0.054 C 
ATOM      9  C   UNL d   1      -0.379  -5.929  -5.991  0.00  0.00     0.018 C 
ENDBRANCH   1   8
TORSDOF 1
ENDMDL
