MODEL 1
REMARK minimizedAffinity 3.76043725
REMARK minimizedRMSD -1
REMARK  1 active torsions:
REMARK  status: ('A' for Active; 'I' for Inactive)
REMARK    1  A    between atoms: C1_2  and  C2_3 
ROOT
ATOM      1  C2  UNL d   1      -2.406  -0.844   2.342  0.00  0.00    -0.081 A 
ATOM      2  C3  UNL d   1      -2.010  -2.153   2.044  0.00  0.00     0.006 A 
ATOM      3  C4  UNL d   1      -1.109  -2.402   1.006  0.00  0.00     0.002 A 
ATOM      4  C5  UNL d   1      -0.584  -1.346   0.254  0.00  0.00    -0.080 A 
ATOM      5  C6  UNL d   1       0.407  -1.597  -0.844  0.00  0.00     0.076 C 
ATOM      6  C7  UNL d   1      -0.992  -0.039   0.540  0.00  0.00     0.002 A 
ATOM      7  C8  UNL d   1      -1.894   0.210   1.577  0.00  0.00     0.006 A 
ENDROOT
BRANCH   1   8
ATOM      8  C1  UNL d   1      -3.327  -0.567   3.502  0.00  0.00     0.054 C 
ATOM      9  C   UNL d   1      -3.497   0.929   3.729  0.00  0.00     0.018 C 
ENDBRANCH   1   8
TORSDOF 1
ENDMDL
