MODEL 1
REMARK minimizedAffinity 0.0760760754
REMARK minimizedRMSD -1
REMARK  1 active torsions:
REMARK  status: ('A' for Active; 'I' for Inactive)
REMARK    1  A    between atoms: C1_2  and  C2_3 
ROOT
ATOM      1  C2  UNL d   1      -2.239  -0.247   0.327  0.00  0.00    -0.081 A 
ATOM      2  C3  UNL d   1      -2.653  -1.562   0.082  0.00  0.00     0.006 A 
ATOM      3  C4  UNL d   1      -3.546  -1.841  -0.956  0.00  0.00     0.002 A 
ATOM      4  C5  UNL d   1      -4.033  -0.813  -1.769  0.00  0.00    -0.080 A 
ATOM      5  C6  UNL d   1      -4.968  -1.103  -2.905  0.00  0.00     0.076 C 
ATOM      6  C7  UNL d   1      -3.633   0.503  -1.513  0.00  0.00     0.002 A 
ATOM      7  C8  UNL d   1      -2.741   0.783  -0.476  0.00  0.00     0.006 A 
ENDROOT
BRANCH   1   8
ATOM      8  C1  UNL d   1      -1.226   0.049   1.403  0.00  0.00     0.054 C 
ATOM      9  C   UNL d   1       0.187   0.085   0.839  0.00  0.00     0.018 C 
ENDBRANCH   1   8
TORSDOF 1
ENDMDL
