MODEL 1
REMARK minimizedAffinity 0.0881215557
REMARK minimizedRMSD -1
REMARK  1 active torsions:
REMARK  status: ('A' for Active; 'I' for Inactive)
REMARK    1  A    between atoms: C1_2  and  C2_3 
ROOT
ATOM      1  C2  UNL d   1      -2.988  -5.061  -3.942  0.00  0.00    -0.081 A 
ATOM      2  C3  UNL d   1      -3.911  -4.298  -3.216  0.00  0.00     0.006 A 
ATOM      3  C4  UNL d   1      -4.825  -3.475  -3.879  0.00  0.00     0.002 A 
ATOM      4  C5  UNL d   1      -4.836  -3.407  -5.276  0.00  0.00    -0.080 A 
ATOM      5  C6  UNL d   1      -5.832  -2.550  -6.000  0.00  0.00     0.076 C 
ATOM      6  C7  UNL d   1      -3.902  -4.155  -6.000  0.00  0.00     0.002 A 
ATOM      7  C8  UNL d   1      -2.987  -4.977  -5.339  0.00  0.00     0.006 A 
ENDROOT
BRANCH   1   8
ATOM      8  C1  UNL d   1      -2.043  -5.998  -3.234  0.00  0.00     0.054 C 
ATOM      9  C   UNL d   1      -0.635  -5.899  -3.802  0.00  0.00     0.018 C 
ENDBRANCH   1   8
TORSDOF 1
ENDMDL
