MODEL 1
REMARK minimizedAffinity 1.88688612
REMARK minimizedRMSD -1
REMARK  1 active torsions:
REMARK  status: ('A' for Active; 'I' for Inactive)
REMARK    1  A    between atoms: C1_2  and  C2_3 
ROOT
ATOM      1  C2  UNL d   1      -4.632  -3.855  -4.697  0.00  0.00    -0.081 A 
ATOM      2  C3  UNL d   1      -4.707  -4.909  -5.616  0.00  0.00     0.006 A 
ATOM      3  C4  UNL d   1      -3.553  -5.597  -5.999  0.00  0.00     0.002 A 
ATOM      4  C5  UNL d   1      -2.308  -5.249  -5.465  0.00  0.00    -0.080 A 
ATOM      5  C6  UNL d   1      -1.066  -5.999  -5.846  0.00  0.00     0.076 C 
ATOM      6  C7  UNL d   1      -2.231  -4.185  -4.560  0.00  0.00     0.002 A 
ATOM      7  C8  UNL d   1      -3.383  -3.496  -4.177  0.00  0.00     0.006 A 
ENDROOT
BRANCH   1   8
ATOM      8  C1  UNL d   1      -5.882  -3.153  -4.232  0.00  0.00     0.054 C 
ATOM      9  C   UNL d   1      -5.809  -1.657  -4.499  0.00  0.00     0.018 C 
ENDBRANCH   1   8
TORSDOF 1
ENDMDL
