MODEL 1
REMARK minimizedAffinity 0.056106396
REMARK minimizedRMSD -1
REMARK  1 active torsions:
REMARK  status: ('A' for Active; 'I' for Inactive)
REMARK    1  A    between atoms: C1_2  and  C2_3 
ROOT
ATOM      1  C2  UNL d   1      -4.433  -3.310  -4.571  0.00  0.00    -0.081 A 
ATOM      2  C3  UNL d   1      -4.042  -3.757  -5.839  0.00  0.00     0.006 A 
ATOM      3  C4  UNL d   1      -2.912  -4.565  -5.987  0.00  0.00     0.002 A 
ATOM      4  C5  UNL d   1      -2.160  -4.944  -4.871  0.00  0.00    -0.080 A 
ATOM      5  C6  UNL d   1      -0.962  -5.836  -5.013  0.00  0.00     0.076 C 
ATOM      6  C7  UNL d   1      -2.540  -4.483  -3.606  0.00  0.00     0.002 A 
ATOM      7  C8  UNL d   1      -3.670  -3.675  -3.457  0.00  0.00     0.006 A 
ENDROOT
BRANCH   1   8
ATOM      8  C1  UNL d   1      -5.688  -2.492  -4.400  0.00  0.00     0.054 C 
ATOM      9  C   UNL d   1      -5.987  -1.671  -5.646  0.00  0.00     0.018 C 
ENDBRANCH   1   8
TORSDOF 1
ENDMDL
