MODEL 1
REMARK minimizedAffinity 0.751393616
REMARK minimizedRMSD -1
REMARK  1 active torsions:
REMARK  status: ('A' for Active; 'I' for Inactive)
REMARK    1  A    between atoms: C1_2  and  C2_3 
ROOT
ATOM      1  C2  UNL d   1      -4.677  -3.924  -5.898  0.00  0.00    -0.081 A 
ATOM      2  C3  UNL d   1      -4.627  -5.321  -5.985  0.00  0.00     0.006 A 
ATOM      3  C4  UNL d   1      -3.404  -5.992  -5.916  0.00  0.00     0.002 A 
ATOM      4  C5  UNL d   1      -2.211  -5.279  -5.752  0.00  0.00    -0.080 A 
ATOM      5  C6  UNL d   1      -0.895  -5.989  -5.646  0.00  0.00     0.076 C 
ATOM      6  C7  UNL d   1      -2.259  -3.882  -5.683  0.00  0.00     0.002 A 
ATOM      7  C8  UNL d   1      -3.482  -3.211  -5.752  0.00  0.00     0.006 A 
ENDROOT
BRANCH   1   8
ATOM      8  C1  UNL d   1      -6.000  -3.202  -5.906  0.00  0.00     0.054 C 
ATOM      9  C   UNL d   1      -5.828  -1.727  -5.571  0.00  0.00     0.018 C 
ENDBRANCH   1   8
TORSDOF 1
ENDMDL
