MODEL 1
REMARK minimizedAffinity -1.21983397
REMARK minimizedRMSD -1
REMARK  1 active torsions:
REMARK  status: ('A' for Active; 'I' for Inactive)
REMARK    1  A    between atoms: C1_2  and  C2_3 
ROOT
ATOM      1  C2  UNL d   1      -4.503  -4.626  -4.902  0.00  0.00    -0.081 A 
ATOM      2  C3  UNL d   1      -3.628  -4.326  -3.850  0.00  0.00     0.006 A 
ATOM      3  C4  UNL d   1      -2.307  -4.780  -3.876  0.00  0.00     0.002 A 
ATOM      4  C5  UNL d   1      -1.837  -5.533  -4.957  0.00  0.00    -0.080 A 
ATOM      5  C6  UNL d   1      -0.412  -6.000  -5.012  0.00  0.00     0.076 C 
ATOM      6  C7  UNL d   1      -2.715  -5.847  -6.000  0.00  0.00     0.002 A 
ATOM      7  C8  UNL d   1      -4.036  -5.395  -5.974  0.00  0.00     0.006 A 
ENDROOT
BRANCH   1   8
ATOM      8  C1  UNL d   1      -5.909  -4.084  -4.908  0.00  0.00     0.054 C 
ATOM      9  C   UNL d   1      -5.971  -2.713  -5.567  0.00  0.00     0.018 C 
ENDBRANCH   1   8
TORSDOF 1
ENDMDL
