MODEL 1
REMARK minimizedAffinity 0.594779849
REMARK minimizedRMSD -1
REMARK  1 active torsions:
REMARK  status: ('A' for Active; 'I' for Inactive)
REMARK    1  A    between atoms: C1_2  and  C2_3 
ROOT
ATOM      1  C2  UNL d   1       1.315  -1.937   0.875  0.00  0.00    -0.081 A 
ATOM      2  C3  UNL d   1       0.906  -0.632   0.573  0.00  0.00     0.006 A 
ATOM      3  C4  UNL d   1      -0.428  -0.252   0.737  0.00  0.00     0.002 A 
ATOM      4  C5  UNL d   1      -1.373  -1.168   1.213  0.00  0.00    -0.080 A 
ATOM      5  C6  UNL d   1      -2.802  -0.764   1.423  0.00  0.00     0.076 C 
ATOM      6  C7  UNL d   1      -0.968  -2.476   1.498  0.00  0.00     0.002 A 
ATOM      7  C8  UNL d   1       0.366  -2.856   1.334  0.00  0.00     0.006 A 
ENDROOT
BRANCH   1   8
ATOM      8  C1  UNL d   1       2.766  -2.331   0.760  0.00  0.00     0.054 C 
ATOM      9  C   UNL d   1       3.664  -1.363   1.518  0.00  0.00     0.018 C 
ENDBRANCH   1   8
TORSDOF 1
ENDMDL
