MODEL 1
REMARK minimizedAffinity 10.0287752
REMARK minimizedRMSD -1
REMARK  1 active torsions:
REMARK  status: ('A' for Active; 'I' for Inactive)
REMARK    1  A    between atoms: C1_2  and  C2_3 
ROOT
ATOM      1  C2  UNL d   1      -4.406  -4.254  -5.119  0.00  0.00    -0.081 A 
ATOM      2  C3  UNL d   1      -5.332  -3.679  -5.997  0.00  0.00     0.006 A 
ATOM      3  C4  UNL d   1      -5.859  -2.411  -5.739  0.00  0.00     0.002 A 
ATOM      4  C5  UNL d   1      -5.463  -1.695  -4.604  0.00  0.00    -0.080 A 
ATOM      5  C6  UNL d   1      -5.998  -0.321  -4.332  0.00  0.00     0.076 C 
ATOM      6  C7  UNL d   1      -4.551  -2.278  -3.718  0.00  0.00     0.002 A 
ATOM      7  C8  UNL d   1      -4.024  -3.545  -3.974  0.00  0.00     0.006 A 
ENDROOT
BRANCH   1   8
ATOM      8  C1  UNL d   1      -3.787  -5.594  -5.428  0.00  0.00     0.054 C 
ATOM      9  C   UNL d   1      -2.770  -5.991  -4.367  0.00  0.00     0.018 C 
ENDBRANCH   1   8
TORSDOF 1
ENDMDL
