MODEL 1
REMARK minimizedAffinity -1.98654854
REMARK minimizedRMSD -1
REMARK  1 active torsions:
REMARK  status: ('A' for Active; 'I' for Inactive)
REMARK    1  A    between atoms: C1_2  and  C2_3 
ROOT
ATOM      1  C2  UNL d   1      -4.478  -4.536  -4.974  0.00  0.00    -0.081 A 
ATOM      2  C3  UNL d   1      -3.569  -4.095  -4.004  0.00  0.00     0.006 A 
ATOM      3  C4  UNL d   1      -2.258  -4.576  -3.992  0.00  0.00     0.002 A 
ATOM      4  C5  UNL d   1      -1.831  -5.498  -4.954  0.00  0.00    -0.080 A 
ATOM      5  C6  UNL d   1      -0.417  -5.998  -4.971  0.00  0.00     0.076 C 
ATOM      6  C7  UNL d   1      -2.744  -5.951  -5.912  0.00  0.00     0.002 A 
ATOM      7  C8  UNL d   1      -4.055  -5.472  -5.924  0.00  0.00     0.006 A 
ENDROOT
BRANCH   1   8
ATOM      8  C1  UNL d   1      -5.875  -3.971  -5.028  0.00  0.00     0.054 C 
ATOM      9  C   UNL d   1      -5.866  -2.458  -4.864  0.00  0.00     0.018 C 
ENDBRANCH   1   8
TORSDOF 1
ENDMDL
