MODEL 1
REMARK minimizedAffinity -2.65241861
REMARK minimizedRMSD -1
REMARK  1 active torsions:
REMARK  status: ('A' for Active; 'I' for Inactive)
REMARK    1  A    between atoms: C1_2  and  C2_3 
ROOT
ATOM      1  C2  UNL d   1      -4.623  -4.050  -5.199  0.00  0.00    -0.081 A 
ATOM      2  C3  UNL d   1      -4.593  -5.370  -5.665  0.00  0.00     0.006 A 
ATOM      3  C4  UNL d   1      -3.375  -5.998  -5.935  0.00  0.00     0.002 A 
ATOM      4  C5  UNL d   1      -2.168  -5.320  -5.737  0.00  0.00    -0.080 A 
ATOM      5  C6  UNL d   1      -0.852  -5.993  -5.994  0.00  0.00     0.076 C 
ATOM      6  C7  UNL d   1      -2.198  -3.995  -5.288  0.00  0.00     0.002 A 
ATOM      7  C8  UNL d   1      -3.416  -3.366  -5.019  0.00  0.00     0.006 A 
ENDROOT
BRANCH   1   8
ATOM      8  C1  UNL d   1      -5.932  -3.391  -4.845  0.00  0.00     0.054 C 
ATOM      9  C   UNL d   1      -5.800  -1.875  -4.820  0.00  0.00     0.018 C 
ENDBRANCH   1   8
TORSDOF 1
ENDMDL
