MODEL 1
REMARK minimizedAffinity 3.74791574
REMARK minimizedRMSD -1
REMARK  1 active torsions:
REMARK  status: ('A' for Active; 'I' for Inactive)
REMARK    1  A    between atoms: C1_2  and  C2_3 
ROOT
ATOM      1  C2  UNL d   1      -3.071   0.448  -3.890  0.00  0.00    -0.081 A 
ATOM      2  C3  UNL d   1      -2.931   0.210  -5.263  0.00  0.00     0.006 A 
ATOM      3  C4  UNL d   1      -3.870  -0.566  -5.947  0.00  0.00     0.002 A 
ATOM      4  C5  UNL d   1      -4.968  -1.110  -5.271  0.00  0.00    -0.080 A 
ATOM      5  C6  UNL d   1      -5.999  -1.920  -6.000  0.00  0.00     0.076 C 
ATOM      6  C7  UNL d   1      -5.098  -0.888  -3.896  0.00  0.00     0.002 A 
ATOM      7  C8  UNL d   1      -4.160  -0.113  -3.212  0.00  0.00     0.006 A 
ENDROOT
BRANCH   1   8
ATOM      8  C1  UNL d   1      -2.096   1.337  -3.163  0.00  0.00     0.054 C 
ATOM      9  C   UNL d   1      -1.017   1.860  -4.101  0.00  0.00     0.018 C 
ENDBRANCH   1   8
TORSDOF 1
ENDMDL
