MODEL 1
REMARK minimizedAffinity 16.7672825
REMARK minimizedRMSD -1
REMARK  1 active torsions:
REMARK  status: ('A' for Active; 'I' for Inactive)
REMARK    1  A    between atoms: C1_2  and  C2_3 
ROOT
ATOM      1  C2  UNL d   1       4.218   2.323  -0.281  0.00  0.00    -0.073 A 
ATOM      2  C3  UNL d   1       5.133   2.206  -1.333  0.00  0.00    -0.002 A 
ATOM      3  C4  UNL d   1       6.000   3.257  -1.633  0.00  0.00     0.004 A 
ATOM      4  C5  UNL d   1       5.966   4.432  -0.881  0.00  0.00    -0.004 A 
ATOM      5  C6  UNL d   1       5.067   4.563   0.182  0.00  0.00    -0.075 A 
ATOM      6  C7  UNL d   1       5.017   5.821   0.999  0.00  0.00     0.076 C 
ATOM      7  C8  UNL d   1       4.198   3.504   0.475  0.00  0.00     0.001 A 
ENDROOT
BRANCH   1   8
ATOM      8  C1  UNL d   1       3.284   1.188   0.051  0.00  0.00     0.053 C 
ATOM      9  C   UNL d   1       2.546   0.680  -1.177  0.00  0.00     0.018 C 
ENDBRANCH   1   8
TORSDOF 1
ENDMDL
