MODEL 1
REMARK minimizedAffinity 9.98250961
REMARK minimizedRMSD -1
REMARK  1 active torsions:
REMARK  status: ('A' for Active; 'I' for Inactive)
REMARK    1  A    between atoms: C1_2  and  C2_3 
ROOT
ATOM      1  C2  UNL d   1       1.877   1.921  -1.317  0.00  0.00    -0.073 A 
ATOM      2  C3  UNL d   1       1.604   0.549  -1.319  0.00  0.00    -0.002 A 
ATOM      3  C4  UNL d   1       0.916  -0.031  -2.385  0.00  0.00     0.004 A 
ATOM      4  C5  UNL d   1       0.499   0.752  -3.461  0.00  0.00    -0.004 A 
ATOM      5  C6  UNL d   1       0.772   2.124  -3.483  0.00  0.00    -0.075 A 
ATOM      6  C7  UNL d   1       0.329   2.981  -4.632  0.00  0.00     0.076 C 
ATOM      7  C8  UNL d   1       1.462   2.699  -2.407  0.00  0.00     0.001 A 
ENDROOT
BRANCH   1   8
ATOM      8  C1  UNL d   1       2.626   2.551  -0.171  0.00  0.00     0.053 C 
ATOM      9  C   UNL d   1       4.103   2.729  -0.485  0.00  0.00     0.018 C 
ENDBRANCH   1   8
TORSDOF 1
ENDMDL
