MODEL 1
REMARK minimizedAffinity 11.5818062
REMARK minimizedRMSD -1
REMARK  1 active torsions:
REMARK  status: ('A' for Active; 'I' for Inactive)
REMARK    1  A    between atoms: C1_2  and  C2_3 
ROOT
ATOM      1  C2  UNL d   1      -3.015  -0.178   5.551  0.00  0.00    -0.073 A 
ATOM      2  C3  UNL d   1      -4.238  -0.851   5.663  0.00  0.00    -0.002 A 
ATOM      3  C4  UNL d   1      -5.416  -0.138   5.886  0.00  0.00     0.004 A 
ATOM      4  C5  UNL d   1      -5.386   1.253   5.994  0.00  0.00    -0.004 A 
ATOM      5  C6  UNL d   1      -4.176   1.943   5.873  0.00  0.00    -0.075 A 
ATOM      6  C7  UNL d   1      -4.126   3.439   5.989  0.00  0.00     0.076 C 
ATOM      7  C8  UNL d   1      -2.996   1.220   5.652  0.00  0.00     0.001 A 
ENDROOT
BRANCH   1   8
ATOM      8  C1  UNL d   1      -1.741  -0.943   5.303  0.00  0.00     0.053 C 
ATOM      9  C   UNL d   1      -2.011  -2.377   4.874  0.00  0.00     0.018 C 
ENDBRANCH   1   8
TORSDOF 1
ENDMDL
