MODEL 1
REMARK minimizedAffinity 13.6486778
REMARK minimizedRMSD -1
REMARK  1 active torsions:
REMARK  status: ('A' for Active; 'I' for Inactive)
REMARK    1  A    between atoms: C1_2  and  C2_3 
ROOT
ATOM      1  C2  UNL d   1       3.730   2.857  -0.246  0.00  0.00    -0.073 A 
ATOM      2  C3  UNL d   1       4.788   2.843  -1.161  0.00  0.00    -0.002 A 
ATOM      3  C4  UNL d   1       5.754   3.850  -1.138  0.00  0.00     0.004 A 
ATOM      4  C5  UNL d   1       5.675   4.876  -0.197  0.00  0.00    -0.004 A 
ATOM      5  C6  UNL d   1       4.632   4.902   0.734  0.00  0.00    -0.075 A 
ATOM      6  C7  UNL d   1       4.532   6.000   1.751  0.00  0.00     0.076 C 
ATOM      7  C8  UNL d   1       3.665   3.888   0.703  0.00  0.00     0.001 A 
ENDROOT
BRANCH   1   8
ATOM      8  C1  UNL d   1       2.689   1.768  -0.262  0.00  0.00     0.053 C 
ATOM      9  C   UNL d   1       2.603   1.082  -1.617  0.00  0.00     0.018 C 
ENDBRANCH   1   8
TORSDOF 1
ENDMDL
