MODEL 1
REMARK minimizedAffinity 5.20240879
REMARK minimizedRMSD -1
REMARK  1 active torsions:
REMARK  status: ('A' for Active; 'I' for Inactive)
REMARK    1  A    between atoms: C1_2  and  C2_3 
ROOT
ATOM      1  C2  UNL d   1      -1.912  -2.598   2.525  0.00  0.00    -0.073 A 
ATOM      2  C3  UNL d   1      -1.829  -1.600   1.548  0.00  0.00    -0.002 A 
ATOM      3  C4  UNL d   1      -1.174  -1.848   0.341  0.00  0.00     0.004 A 
ATOM      4  C5  UNL d   1      -0.604  -3.096   0.096  0.00  0.00    -0.004 A 
ATOM      5  C6  UNL d   1      -0.687  -4.111   1.055  0.00  0.00    -0.075 A 
ATOM      6  C7  UNL d   1      -0.076  -5.459   0.807  0.00  0.00     0.076 C 
ATOM      7  C8  UNL d   1      -1.343  -3.853   2.266  0.00  0.00     0.001 A 
ENDROOT
BRANCH   1   8
ATOM      8  C1  UNL d   1      -2.623  -2.337   3.828  0.00  0.00     0.053 C 
ATOM      9  C   UNL d   1      -1.753  -1.567   4.808  0.00  0.00     0.018 C 
ENDBRANCH   1   8
TORSDOF 1
ENDMDL
