MODEL 1
REMARK minimizedAffinity 15.7260122
REMARK minimizedRMSD -1
REMARK  1 active torsions:
REMARK  status: ('A' for Active; 'I' for Inactive)
REMARK    1  A    between atoms: C1_2  and  C2_3 
ROOT
ATOM      1  C2  UNL d   1      -3.659  -2.617   1.411  0.00  0.00    -0.073 A 
ATOM      2  C3  UNL d   1      -2.635  -3.017   2.276  0.00  0.00    -0.002 A 
ATOM      3  C4  UNL d   1      -1.299  -2.906   1.886  0.00  0.00     0.004 A 
ATOM      4  C5  UNL d   1      -0.975  -2.389   0.632  0.00  0.00    -0.004 A 
ATOM      5  C6  UNL d   1      -1.984  -1.973  -0.242  0.00  0.00    -0.075 A 
ATOM      6  C7  UNL d   1      -1.652  -1.416  -1.596  0.00  0.00     0.076 C 
ATOM      7  C8  UNL d   1      -3.323  -2.090   0.156  0.00  0.00     0.001 A 
ENDROOT
BRANCH   1   8
ATOM      8  C1  UNL d   1      -5.102  -2.728   1.830  0.00  0.00     0.053 C 
ATOM      9  C   UNL d   1      -6.000  -3.153   0.678  0.00  0.00     0.018 C 
ENDBRANCH   1   8
TORSDOF 1
ENDMDL
