MODEL 1
REMARK minimizedAffinity 13.3295774
REMARK minimizedRMSD -1
REMARK  1 active torsions:
REMARK  status: ('A' for Active; 'I' for Inactive)
REMARK    1  A    between atoms: C1_2  and  C2_3 
ROOT
ATOM      1  C2  UNL d   1       2.206   1.348  -1.606  0.00  0.00    -0.073 A 
ATOM      2  C3  UNL d   1       3.278   0.590  -2.089  0.00  0.00    -0.002 A 
ATOM      3  C4  UNL d   1       3.048  -0.622  -2.742  0.00  0.00     0.004 A 
ATOM      4  C5  UNL d   1       1.745  -1.084  -2.925  0.00  0.00    -0.004 A 
ATOM      5  C6  UNL d   1       0.659  -0.335  -2.460  0.00  0.00    -0.075 A 
ATOM      6  C7  UNL d   1      -0.749  -0.819  -2.647  0.00  0.00     0.076 C 
ATOM      7  C8  UNL d   1       0.899   0.879  -1.802  0.00  0.00     0.001 A 
ENDROOT
BRANCH   1   8
ATOM      8  C1  UNL d   1       2.449   2.660  -0.905  0.00  0.00     0.053 C 
ATOM      9  C   UNL d   1       3.581   2.564   0.106  0.00  0.00     0.018 C 
ENDBRANCH   1   8
TORSDOF 1
ENDMDL
