MODEL 1
REMARK minimizedAffinity 14.2447348
REMARK minimizedRMSD -1
REMARK  1 active torsions:
REMARK  status: ('A' for Active; 'I' for Inactive)
REMARK    1  A    between atoms: C1_2  and  C2_3 
ROOT
ATOM      1  C2  UNL d   1      -4.530   0.252   5.302  0.00  0.00    -0.073 A 
ATOM      2  C3  UNL d   1      -3.505   0.921   5.981  0.00  0.00    -0.002 A 
ATOM      3  C4  UNL d   1      -2.212   0.397   6.000  0.00  0.00     0.004 A 
ATOM      4  C5  UNL d   1      -1.928  -0.795   5.335  0.00  0.00    -0.004 A 
ATOM      5  C6  UNL d   1      -2.936  -1.473   4.640  0.00  0.00    -0.075 A 
ATOM      6  C7  UNL d   1      -2.648  -2.758   3.921  0.00  0.00     0.076 C 
ATOM      7  C8  UNL d   1      -4.233  -0.941   4.629  0.00  0.00     0.001 A 
ENDROOT
BRANCH   1   8
ATOM      8  C1  UNL d   1      -5.926   0.818   5.274  0.00  0.00     0.053 C 
ATOM      9  C   UNL d   1      -5.997   2.193   5.919  0.00  0.00     0.018 C 
ENDBRANCH   1   8
TORSDOF 1
ENDMDL
