MODEL 1
REMARK minimizedAffinity 11.9395685
REMARK minimizedRMSD -1
REMARK  1 active torsions:
REMARK  status: ('A' for Active; 'I' for Inactive)
REMARK    1  A    between atoms: C1_2  and  C2_3 
ROOT
ATOM      1  C2  UNL d   1      -1.278  -2.257  -0.629  0.00  0.00    -0.073 A 
ATOM      2  C3  UNL d   1      -0.792  -2.005  -1.916  0.00  0.00    -0.002 A 
ATOM      3  C4  UNL d   1      -1.484  -1.152  -2.776  0.00  0.00     0.004 A 
ATOM      4  C5  UNL d   1      -2.664  -0.538  -2.357  0.00  0.00    -0.004 A 
ATOM      5  C6  UNL d   1      -3.160  -0.769  -1.069  0.00  0.00    -0.075 A 
ATOM      6  C7  UNL d   1      -4.429  -0.118  -0.603  0.00  0.00     0.076 C 
ATOM      7  C8  UNL d   1      -2.460  -1.629  -0.212  0.00  0.00     0.001 A 
ENDROOT
BRANCH   1   8
ATOM      8  C1  UNL d   1      -0.530  -3.172   0.306  0.00  0.00     0.053 C 
ATOM      9  C   UNL d   1      -0.410  -4.582  -0.251  0.00  0.00     0.018 C 
ENDBRANCH   1   8
TORSDOF 1
ENDMDL
