MODEL 1
REMARK minimizedAffinity 2.2366643
REMARK minimizedRMSD -1
REMARK  1 active torsions:
REMARK  status: ('A' for Active; 'I' for Inactive)
REMARK    1  A    between atoms: C1_2  and  C2_3 
ROOT
ATOM      1  C2  UNL d   1      -4.111   5.214  -0.902  0.00  0.00    -0.073 A 
ATOM      2  C3  UNL d   1      -5.409   5.531  -0.486  0.00  0.00    -0.002 A 
ATOM      3  C4  UNL d   1      -6.000   4.837   0.571  0.00  0.00     0.004 A 
ATOM      4  C5  UNL d   1      -5.298   3.825   1.225  0.00  0.00    -0.004 A 
ATOM      5  C6  UNL d   1      -3.995   3.501   0.831  0.00  0.00    -0.075 A 
ATOM      6  C7  UNL d   1      -3.228   2.413   1.524  0.00  0.00     0.076 C 
ATOM      7  C8  UNL d   1      -3.410   4.201  -0.232  0.00  0.00     0.001 A 
ENDROOT
BRANCH   1   8
ATOM      8  C1  UNL d   1      -3.466   5.965  -2.038  0.00  0.00     0.053 C 
ATOM      9  C   UNL d   1      -4.342   5.981  -3.281  0.00  0.00     0.018 C 
ENDBRANCH   1   8
TORSDOF 1
ENDMDL
