MODEL 1
REMARK minimizedAffinity 4.18377638
REMARK minimizedRMSD -1
REMARK  1 active torsions:
REMARK  status: ('A' for Active; 'I' for Inactive)
REMARK    1  A    between atoms: C1_2  and  C2_3 
ROOT
ATOM      1  C2  UNL d   1       2.845   1.769  -0.966  0.00  0.00    -0.073 A 
ATOM      2  C3  UNL d   1       2.670   1.825   0.421  0.00  0.00    -0.002 A 
ATOM      3  C4  UNL d   1       3.358   2.773   1.180  0.00  0.00     0.004 A 
ATOM      4  C5  UNL d   1       4.219   3.678   0.561  0.00  0.00    -0.004 A 
ATOM      5  C6  UNL d   1       4.397   3.646  -0.826  0.00  0.00    -0.075 A 
ATOM      6  C7  UNL d   1       5.322   4.612  -1.507  0.00  0.00     0.076 C 
ATOM      7  C8  UNL d   1       3.706   2.690  -1.581  0.00  0.00     0.001 A 
ENDROOT
BRANCH   1   8
ATOM      8  C1  UNL d   1       2.100   0.752  -1.791  0.00  0.00     0.053 C 
ATOM      9  C   UNL d   1       3.044  -0.172  -2.545  0.00  0.00     0.018 C 
ENDBRANCH   1   8
TORSDOF 1
ENDMDL
