MODEL 1
REMARK minimizedAffinity -2.23441744
REMARK minimizedRMSD -1
REMARK  0 active torsions:
REMARK  status: ('A' for Active; 'I' for Inactive)
ROOT
ATOM      1  C1  DEN d   1      -1.235  -0.012   0.453  0.00  0.00     0.130 A 
ATOM      2  C2  DEN d   1      -0.797   1.376   0.583  0.00  0.00    -0.031 A 
ATOM      3  C3  DEN d   1       0.483   1.520  -0.138  0.00  0.00     0.027 A 
ATOM      4  C4  DEN d   1       1.820  -0.259  -1.443  0.00  0.00     0.027 A 
ATOM      5  C5  DEN d   1       1.854  -1.582  -1.823  0.00  0.00    -0.003 A 
ATOM      6  C6  DEN d   1       0.886  -2.475  -1.446  0.00  0.00     0.001 A 
ATOM      7  C7  DEN d   1      -0.182  -2.046  -0.703  0.00  0.00     0.017 A 
ATOM      8  C8  DEN d   1      -0.219  -0.714  -0.309  0.00  0.00    -0.094 A 
ATOM      9  C9  DEN d   1       0.763   0.175  -0.710  0.00  0.00    -0.072 A 
ENDROOT
TORSDOF 0
ENDMDL
