MODEL 1
REMARK minimizedAffinity -6.89550781
REMARK minimizedRMSD -1
REMARK  0 active torsions:
REMARK  status: ('A' for Active; 'I' for Inactive)
ROOT
ATOM      1  C1  DEN d   1       0.717  -1.230   0.458  0.00  0.00     0.130 A 
ATOM      2  C2  DEN d   1      -0.471  -0.522   0.929  0.00  0.00    -0.031 A 
ATOM      3  C3  DEN d   1      -0.685   0.645   0.050  0.00  0.00     0.027 A 
ATOM      4  C4  DEN d   1       0.698   1.419  -1.985  0.00  0.00     0.027 A 
ATOM      5  C5  DEN d   1       1.802   1.146  -2.761  0.00  0.00    -0.003 A 
ATOM      6  C6  DEN d   1       2.635   0.090  -2.500  0.00  0.00     0.001 A 
ATOM      7  C7  DEN d   1       2.351  -0.758  -1.463  0.00  0.00     0.017 A 
ATOM      8  C8  DEN d   1       1.243  -0.485  -0.672  0.00  0.00    -0.094 A 
ATOM      9  C9  DEN d   1       0.406   0.580  -0.959  0.00  0.00    -0.072 A 
ENDROOT
TORSDOF 0
ENDMDL
