MODEL 1
REMARK minimizedAffinity -1.76395297
REMARK minimizedRMSD -1
REMARK  0 active torsions:
REMARK  status: ('A' for Active; 'I' for Inactive)
ROOT
ATOM      1  C1  DEN d   1       0.201   1.380   0.355  0.00  0.00     0.130 A 
ATOM      2  C2  DEN d   1      -0.954   0.848   1.072  0.00  0.00    -0.031 A 
ATOM      3  C3  DEN d   1      -1.015  -0.607   0.825  0.00  0.00     0.027 A 
ATOM      4  C4  DEN d   1       0.563  -2.080  -0.587  0.00  0.00     0.027 A 
ATOM      5  C5  DEN d   1       1.678  -2.076  -1.395  0.00  0.00    -0.003 A 
ATOM      6  C6  DEN d   1       2.354  -0.924  -1.702  0.00  0.00     0.001 A 
ATOM      7  C7  DEN d   1       1.947   0.266  -1.160  0.00  0.00     0.017 A 
ATOM      8  C8  DEN d   1       0.819   0.271  -0.350  0.00  0.00    -0.094 A 
ATOM      9  C9  DEN d   1       0.156  -0.905  -0.042  0.00  0.00    -0.072 A 
ENDROOT
TORSDOF 0
ENDMDL
