MODEL 1
REMARK minimizedAffinity -4.22185278
REMARK minimizedRMSD -1
REMARK  0 active torsions:
REMARK  status: ('A' for Active; 'I' for Inactive)
ROOT
ATOM      1  C1  DEN d   1       0.651  -1.416   1.702  0.00  0.00     0.130 A 
ATOM      2  C2  DEN d   1       0.857  -1.899   0.339  0.00  0.00    -0.031 A 
ATOM      3  C3  DEN d   1      -0.036  -1.135  -0.555  0.00  0.00     0.027 A 
ATOM      4  C4  DEN d   1      -1.704   0.743   0.034  0.00  0.00     0.027 A 
ATOM      5  C5  DEN d   1      -2.237   1.489   1.062  0.00  0.00    -0.003 A 
ATOM      6  C6  DEN d   1      -1.873   1.297   2.369  0.00  0.00     0.001 A 
ATOM      7  C7  DEN d   1      -0.916   0.367   2.677  0.00  0.00     0.017 A 
ATOM      8  C8  DEN d   1      -0.379  -0.394   1.647  0.00  0.00    -0.094 A 
ATOM      9  C9  DEN d   1      -0.751  -0.177   0.331  0.00  0.00    -0.072 A 
ENDROOT
TORSDOF 0
ENDMDL
