MODEL 1
REMARK minimizedAffinity -5.25026989
REMARK minimizedRMSD -1
REMARK  0 active torsions:
REMARK  status: ('A' for Active; 'I' for Inactive)
ROOT
ATOM      1  C1  DEN d   1       2.186  -1.578  -1.042  0.00  0.00     0.130 A 
ATOM      2  C2  DEN d   1       3.003  -0.548  -1.679  0.00  0.00    -0.031 A 
ATOM      3  C3  DEN d   1       2.291   0.740  -1.556  0.00  0.00     0.027 A 
ATOM      4  C4  DEN d   1       0.019   1.239  -0.443  0.00  0.00     0.027 A 
ATOM      5  C5  DEN d   1      -1.051   0.683   0.223  0.00  0.00    -0.003 A 
ATOM      6  C6  DEN d   1      -1.132  -0.660   0.481  0.00  0.00     0.001 A 
ATOM      7  C7  DEN d   1      -0.104  -1.486   0.112  0.00  0.00     0.017 A 
ATOM      8  C8  DEN d   1       0.975  -0.934  -0.566  0.00  0.00    -0.094 A 
ATOM      9  C9  DEN d   1       1.044   0.428  -0.808  0.00  0.00    -0.072 A 
ENDROOT
TORSDOF 0
ENDMDL
