MODEL 1
REMARK minimizedAffinity -4.90018129
REMARK minimizedRMSD -1
REMARK  0 active torsions:
REMARK  status: ('A' for Active; 'I' for Inactive)
ROOT
ATOM      1  C1  DEN d   1      -0.153   1.355   0.024  0.00  0.00     0.130 A 
ATOM      2  C2  DEN d   1      -1.232   0.596   0.651  0.00  0.00    -0.031 A 
ATOM      3  C3  DEN d   1      -0.937  -0.841   0.484  0.00  0.00     0.027 A 
ATOM      4  C4  DEN d   1       1.078  -1.959  -0.675  0.00  0.00     0.027 A 
ATOM      5  C5  DEN d   1       2.247  -1.727  -1.366  0.00  0.00    -0.003 A 
ATOM      6  C6  DEN d   1       2.676  -0.462  -1.669  0.00  0.00     0.001 A 
ATOM      7  C7  DEN d   1       1.955   0.621  -1.241  0.00  0.00     0.017 A 
ATOM      8  C8  DEN d   1       0.772   0.394  -0.550  0.00  0.00    -0.094 A 
ATOM      9  C9  DEN d   1       0.361  -0.892  -0.243  0.00  0.00    -0.072 A 
ENDROOT
TORSDOF 0
ENDMDL
