MODEL 1
REMARK minimizedAffinity -4.27613068
REMARK minimizedRMSD -1
REMARK  0 active torsions:
REMARK  status: ('A' for Active; 'I' for Inactive)
ROOT
ATOM      1  C1  DEN d   1       0.349   1.556   0.116  0.00  0.00     0.130 A 
ATOM      2  C2  DEN d   1      -0.917   1.148   0.720  0.00  0.00    -0.031 A 
ATOM      3  C3  DEN d   1      -1.043  -0.316   0.573  0.00  0.00     0.027 A 
ATOM      4  C4  DEN d   1       0.594  -1.983  -0.520  0.00  0.00     0.027 A 
ATOM      5  C5  DEN d   1       1.797  -2.106  -1.180  0.00  0.00    -0.003 A 
ATOM      6  C6  DEN d   1       2.579  -1.023  -1.481  0.00  0.00     0.001 A 
ATOM      7  C7  DEN d   1       2.188   0.228  -1.083  0.00  0.00     0.017 A 
ATOM      8  C8  DEN d   1       0.973   0.361  -0.424  0.00  0.00    -0.094 A 
ATOM      9  C9  DEN d   1       0.203  -0.747  -0.117  0.00  0.00    -0.072 A 
ENDROOT
TORSDOF 0
ENDMDL
