MODEL 1
REMARK minimizedAffinity -2.98205948
REMARK minimizedRMSD -1
REMARK  0 active torsions:
REMARK  status: ('A' for Active; 'I' for Inactive)
ROOT
ATOM      1  C1  DEN d   1      -1.534   2.442   2.443  0.00  0.00     0.130 A 
ATOM      2  C2  DEN d   1      -2.467   1.624   3.212  0.00  0.00    -0.031 A 
ATOM      3  C3  DEN d   1      -2.209   0.207   2.885  0.00  0.00     0.027 A 
ATOM      4  C4  DEN d   1      -0.460  -0.794   1.275  0.00  0.00     0.027 A 
ATOM      5  C5  DEN d   1       0.550  -0.494   0.387  0.00  0.00    -0.003 A 
ATOM      6  C6  DEN d   1       0.910   0.796   0.099  0.00  0.00     0.001 A 
ATOM      7  C7  DEN d   1       0.286   1.834   0.739  0.00  0.00     0.017 A 
ATOM      8  C8  DEN d   1      -0.739   1.540   1.630  0.00  0.00    -0.094 A 
ATOM      9  C9  DEN d   1      -1.080   0.229   1.916  0.00  0.00    -0.072 A 
ENDROOT
TORSDOF 0
ENDMDL
