MODEL 1
REMARK minimizedAffinity -3.38872409
REMARK minimizedRMSD -1
REMARK  0 active torsions:
REMARK  status: ('A' for Active; 'I' for Inactive)
ROOT
ATOM      1  C1  DEN d   1      -0.461   0.334  -0.193  0.00  0.00     0.130 A 
ATOM      2  C2  DEN d   1      -0.409  -0.983   0.436  0.00  0.00    -0.031 A 
ATOM      3  C3  DEN d   1       0.623  -1.779  -0.258  0.00  0.00     0.027 A 
ATOM      4  C4  DEN d   1       2.141  -1.103  -2.231  0.00  0.00     0.027 A 
ATOM      5  C5  DEN d   1       2.454  -0.090  -3.110  0.00  0.00    -0.003 A 
ATOM      6  C6  DEN d   1       1.800   1.113  -3.101  0.00  0.00     0.001 A 
ATOM      7  C7  DEN d   1       0.829   1.351  -2.165  0.00  0.00     0.017 A 
ATOM      8  C8  DEN d   1       0.502   0.332  -1.279  0.00  0.00    -0.094 A 
ATOM      9  C9  DEN d   1       1.184  -0.873  -1.297  0.00  0.00    -0.072 A 
ENDROOT
TORSDOF 0
ENDMDL
