MODEL 1
REMARK minimizedAffinity -3.19813776
REMARK minimizedRMSD -1
REMARK  0 active torsions:
REMARK  status: ('A' for Active; 'I' for Inactive)
ROOT
ATOM      1  C1  DEN d   1       0.908   0.465   1.071  0.00  0.00     0.130 A 
ATOM      2  C2  DEN d   1       0.506  -0.424  -0.016  0.00  0.00    -0.031 A 
ATOM      3  C3  DEN d   1      -0.935  -0.707   0.135  0.00  0.00     0.027 A 
ATOM      4  C4  DEN d   1      -2.576   0.144   1.934  0.00  0.00     0.027 A 
ATOM      5  C5  DEN d   1      -2.695   0.913   3.071  0.00  0.00    -0.003 A 
ATOM      6  C6  DEN d   1      -1.624   1.554   3.635  0.00  0.00     0.001 A 
ATOM      7  C7  DEN d   1      -0.394   1.474   3.038  0.00  0.00     0.017 A 
ATOM      8  C8  DEN d   1      -0.264   0.695   1.896  0.00  0.00    -0.094 A 
ATOM      9  C9  DEN d   1      -1.361   0.065   1.334  0.00  0.00    -0.072 A 
ENDROOT
TORSDOF 0
ENDMDL
