MODEL 1
REMARK minimizedAffinity -7.18946695
REMARK minimizedRMSD -1
REMARK  0 active torsions:
REMARK  status: ('A' for Active; 'I' for Inactive)
ROOT
ATOM      1  C1  DEN d   1       2.277   1.162  -2.588  0.00  0.00     0.130 A 
ATOM      2  C2  DEN d   1       3.266   0.101  -2.416  0.00  0.00    -0.031 A 
ATOM      3  C3  DEN d   1       2.743  -0.852  -1.417  0.00  0.00     0.027 A 
ATOM      4  C4  DEN d   1       0.509  -0.790  -0.129  0.00  0.00     0.027 A 
ATOM      5  C5  DEN d   1      -0.653  -0.078   0.070  0.00  0.00    -0.003 A 
ATOM      6  C6  DEN d   1      -0.902   1.106  -0.573  0.00  0.00     0.001 A 
ATOM      7  C7  DEN d   1       0.003   1.590  -1.480  0.00  0.00     0.017 A 
ATOM      8  C8  DEN d   1       1.180   0.881  -1.680  0.00  0.00    -0.094 A 
ATOM      9  C9  DEN d   1       1.409  -0.320  -1.029  0.00  0.00    -0.072 A 
ENDROOT
TORSDOF 0
ENDMDL
