MODEL 1
REMARK minimizedAffinity -0.455240518
REMARK minimizedRMSD -1
REMARK  1 active torsions:
REMARK  status: ('A' for Active; 'I' for Inactive)
REMARK    1  A    between atoms: C1_2  and  C2_3 
ROOT
ATOM      1  C2  UNL d   1      -0.046   0.167  -1.607  0.00  0.00    -0.076 A 
ATOM      2  C3  UNL d   1       1.097  -0.364  -2.230  0.00  0.00     0.004 A 
ATOM      3  C4  UNL d   1       2.078  -1.022  -1.490  0.00  0.00    -0.003 A 
ATOM      4  C5  UNL d   1       1.932  -1.160  -0.114  0.00  0.00     0.000 A 
ATOM      5  C6  UNL d   1       0.796  -0.655   0.518  0.00  0.00     0.000 A 
ATOM      6  C7  UNL d   1      -0.210  -0.004  -0.215  0.00  0.00    -0.073 A 
ATOM      7  C8  UNL d   1      -1.411   0.527   0.519  0.00  0.00     0.078 C 
ENDROOT
BRANCH   1   8
ATOM      8  C1  UNL d   1      -1.063   0.894  -2.457  0.00  0.00     0.053 C 
ATOM      9  C   UNL d   1      -0.678   2.343  -2.716  0.00  0.00     0.018 C 
ENDBRANCH   1   8
TORSDOF 1
ENDMDL
