MODEL 1
REMARK minimizedAffinity -2.81450081
REMARK minimizedRMSD -1
REMARK  1 active torsions:
REMARK  status: ('A' for Active; 'I' for Inactive)
REMARK    1  A    between atoms: C1_2  and  C2_3 
ROOT
ATOM      1  C2  UNL d   1       0.540  -0.893   1.219  0.00  0.00    -0.076 A 
ATOM      2  C3  UNL d   1       1.673  -1.174   0.436  0.00  0.00     0.004 A 
ATOM      3  C4  UNL d   1       1.693  -0.884  -0.927  0.00  0.00    -0.003 A 
ATOM      4  C5  UNL d   1       0.580  -0.308  -1.529  0.00  0.00     0.000 A 
ATOM      5  C6  UNL d   1      -0.546  -0.006  -0.764  0.00  0.00     0.000 A 
ATOM      6  C7  UNL d   1      -0.576  -0.277   0.615  0.00  0.00    -0.073 A 
ATOM      7  C8  UNL d   1      -1.819   0.063   1.390  0.00  0.00     0.078 C 
ENDROOT
BRANCH   1   8
ATOM      8  C1  UNL d   1       0.567  -1.255   2.687  0.00  0.00     0.053 C 
ATOM      9  C   UNL d   1       1.971  -1.214   3.272  0.00  0.00     0.018 C 
ENDBRANCH   1   8
TORSDOF 1
ENDMDL
