MODEL 1
REMARK minimizedAffinity 0.127808601
REMARK minimizedRMSD -1
REMARK  1 active torsions:
REMARK  status: ('A' for Active; 'I' for Inactive)
REMARK    1  A    between atoms: C1_2  and  C2_3 
ROOT
ATOM      1  C2  UNL d   1      -0.073   0.067  -0.479  0.00  0.00    -0.076 A 
ATOM      2  C3  UNL d   1      -0.952   0.477   0.538  0.00  0.00     0.004 A 
ATOM      3  C4  UNL d   1      -0.833  -0.022   1.834  0.00  0.00    -0.003 A 
ATOM      4  C5  UNL d   1       0.169  -0.938   2.135  0.00  0.00     0.000 A 
ATOM      5  C6  UNL d   1       1.061  -1.343   1.142  0.00  0.00     0.000 A 
ATOM      6  C7  UNL d   1       0.964  -0.837  -0.166  0.00  0.00    -0.073 A 
ATOM      7  C8  UNL d   1       1.950  -1.313  -1.198  0.00  0.00     0.078 C 
ENDROOT
BRANCH   1   8
ATOM      8  C1  UNL d   1      -0.268   0.621  -1.872  0.00  0.00     0.053 C 
ATOM      9  C   UNL d   1      -1.466   1.553  -1.966  0.00  0.00     0.018 C 
ENDBRANCH   1   8
TORSDOF 1
ENDMDL
