MODEL 1
REMARK minimizedAffinity -3.97437119
REMARK minimizedRMSD -1
REMARK  1 active torsions:
REMARK  status: ('A' for Active; 'I' for Inactive)
REMARK    1  A    between atoms: C1_2  and  C2_3 
ROOT
ATOM      1  C2  UNL d   1       0.419   0.250   0.843  0.00  0.00    -0.076 A 
ATOM      2  C3  UNL d   1      -0.586   0.062   1.807  0.00  0.00     0.004 A 
ATOM      3  C4  UNL d   1      -0.315  -0.594   3.007  0.00  0.00    -0.003 A 
ATOM      4  C5  UNL d   1       0.965  -1.071   3.263  0.00  0.00     0.000 A 
ATOM      5  C6  UNL d   1       1.979  -0.877   2.325  0.00  0.00     0.000 A 
ATOM      6  C7  UNL d   1       1.727  -0.204   1.117  0.00  0.00    -0.073 A 
ATOM      7  C8  UNL d   1       2.856  -0.029   0.139  0.00  0.00     0.078 C 
ENDROOT
BRANCH   1   8
ATOM      8  C1  UNL d   1       0.060   0.943  -0.452  0.00  0.00     0.053 C 
ATOM      9  C   UNL d   1      -0.897   0.125  -1.305  0.00  0.00     0.018 C 
ENDBRANCH   1   8
TORSDOF 1
ENDMDL
