MODEL 1
REMARK minimizedAffinity -1.87148833
REMARK minimizedRMSD -1
REMARK  1 active torsions:
REMARK  status: ('A' for Active; 'I' for Inactive)
REMARK    1  A    between atoms: C1_2  and  C2_3 
ROOT
ATOM      1  C2  UNL d   1      -0.690   0.871  -1.203  0.00  0.00    -0.076 A 
ATOM      2  C3  UNL d   1      -1.304   1.077   0.045  0.00  0.00     0.004 A 
ATOM      3  C4  UNL d   1      -0.666   0.707   1.228  0.00  0.00    -0.003 A 
ATOM      4  C5  UNL d   1       0.596   0.124   1.182  0.00  0.00     0.000 A 
ATOM      5  C6  UNL d   1       1.227  -0.071  -0.046  0.00  0.00     0.000 A 
ATOM      6  C7  UNL d   1       0.605   0.312  -1.247  0.00  0.00    -0.073 A 
ATOM      7  C8  UNL d   1       1.329   0.072  -2.543  0.00  0.00     0.078 C 
ENDROOT
BRANCH   1   8
ATOM      8  C1  UNL d   1      -1.441   1.268  -2.454  0.00  0.00     0.053 C 
ATOM      9  C   UNL d   1      -1.284   2.745  -2.784  0.00  0.00     0.018 C 
ENDBRANCH   1   8
TORSDOF 1
ENDMDL
