MODEL 1
REMARK minimizedAffinity -5.37205076
REMARK minimizedRMSD -1
REMARK  1 active torsions:
REMARK  status: ('A' for Active; 'I' for Inactive)
REMARK    1  A    between atoms: C1_2  and  C2_3 
ROOT
ATOM      1  C2  UNL d   1      -0.279   0.097   0.032  0.00  0.00    -0.076 A 
ATOM      2  C3  UNL d   1       1.112  -0.066   0.151  0.00  0.00     0.004 A 
ATOM      3  C4  UNL d   1       1.673  -0.624   1.299  0.00  0.00    -0.003 A 
ATOM      4  C5  UNL d   1       0.852  -1.028   2.345  0.00  0.00     0.000 A 
ATOM      5  C6  UNL d   1      -0.532  -0.890   2.237  0.00  0.00     0.000 A 
ATOM      6  C7  UNL d   1      -1.114  -0.344   1.080  0.00  0.00    -0.073 A 
ATOM      7  C8  UNL d   1      -2.612  -0.213   1.019  0.00  0.00     0.078 C 
ENDROOT
BRANCH   1   8
ATOM      8  C1  UNL d   1      -0.828   0.733  -1.225  0.00  0.00     0.053 C 
ATOM      9  C   UNL d   1      -0.192   2.082  -1.522  0.00  0.00     0.018 C 
ENDBRANCH   1   8
TORSDOF 1
ENDMDL
