MODEL 1
REMARK minimizedAffinity -4.21369839
REMARK minimizedRMSD -1
REMARK  1 active torsions:
REMARK  status: ('A' for Active; 'I' for Inactive)
REMARK    1  A    between atoms: C1_2  and  C2_3 
ROOT
ATOM      1  C2  UNL d   1       0.294  -0.717   1.144  0.00  0.00    -0.076 A 
ATOM      2  C3  UNL d   1      -1.065  -0.565   0.821  0.00  0.00     0.004 A 
ATOM      3  C4  UNL d   1      -1.458  -0.111  -0.437  0.00  0.00    -0.003 A 
ATOM      4  C5  UNL d   1      -0.497   0.200  -1.392  0.00  0.00     0.000 A 
ATOM      5  C6  UNL d   1       0.856   0.039  -1.095  0.00  0.00     0.000 A 
ATOM      6  C7  UNL d   1       1.268  -0.434   0.163  0.00  0.00    -0.073 A 
ATOM      7  C8  UNL d   1       2.741  -0.582   0.431  0.00  0.00     0.078 C 
ENDROOT
BRANCH   1   8
ATOM      8  C1  UNL d   1       0.661  -1.188   2.533  0.00  0.00     0.053 C 
ATOM      9  C   UNL d   1      -0.195  -2.357   2.996  0.00  0.00     0.018 C 
ENDBRANCH   1   8
TORSDOF 1
ENDMDL
