MODEL 1
REMARK minimizedAffinity 5.33878946
REMARK minimizedRMSD -1
REMARK  2 active torsions:
REMARK  status: ('A' for Active; 'I' for Inactive)
REMARK    1  A    between atoms: C2'_3  and  C1'_4 
REMARK    2  A    between atoms: C1'_4  and  C1_5 
ROOT
ATOM      1  C1  I4B d   1      -4.391   5.647   3.348  0.00  0.00    -0.075 A 
ATOM      2  C2  I4B d   1      -3.545   5.998   4.371  0.00  0.00     0.003 A 
ATOM      3  C3  I4B d   1      -3.915   5.757   5.716  0.00  0.00     0.002 A 
ATOM      4  C4  I4B d   1      -5.153   5.214   5.994  0.00  0.00    -0.004 A 
ATOM      5  C5  I4B d   1      -6.000   4.838   4.955  0.00  0.00     0.002 A 
ATOM      6  C6  I4B d   1      -5.612   5.044   3.624  0.00  0.00     0.003 A 
ENDROOT
BRANCH   1   7
ATOM      7  C1' I4B d   1      -3.983   5.946   1.941  0.00  0.00     0.060 C 
BRANCH   7   8
ATOM      8  C2' I4B d   1      -4.855   5.120   1.017  0.00  0.00    -0.013 C 
ATOM      9  C4' I4B d   1      -5.648   5.999   0.085  0.00  0.00     0.013 C 
ATOM     10  C3' I4B d   1      -3.965   4.186   0.253  0.00  0.00     0.013 C 
ENDBRANCH   7   8
ENDBRANCH   1   7
TORSDOF 2
ENDMDL
