MODEL 1
REMARK minimizedAffinity 10.8173456
REMARK minimizedRMSD -1
REMARK  2 active torsions:
REMARK  status: ('A' for Active; 'I' for Inactive)
REMARK    1  A    between atoms: C2'_3  and  C1'_4 
REMARK    2  A    between atoms: C1'_4  and  C1_5 
ROOT
ATOM      1  C1  I4B d   1       1.848   2.007   2.428  0.00  0.00    -0.075 A 
ATOM      2  C2  I4B d   1       2.074   3.037   3.306  0.00  0.00     0.003 A 
ATOM      3  C3  I4B d   1       1.863   2.851   4.693  0.00  0.00     0.002 A 
ATOM      4  C4  I4B d   1       1.379   1.643   5.151  0.00  0.00    -0.004 A 
ATOM      5  C5  I4B d   1       1.171   0.592   4.262  0.00  0.00     0.002 A 
ATOM      6  C6  I4B d   1       1.419   0.771   2.893  0.00  0.00     0.003 A 
ENDROOT
BRANCH   1   7
ATOM      7  C1' I4B d   1       2.050   2.248   0.966  0.00  0.00     0.060 C 
BRANCH   7   8
ATOM      8  C2' I4B d   1       2.753   1.038   0.386  0.00  0.00    -0.013 C 
ATOM      9  C4' I4B d   1       1.833   0.249  -0.509  0.00  0.00     0.013 C 
ATOM     10  C3' I4B d   1       3.958   1.518  -0.366  0.00  0.00     0.013 C 
ENDBRANCH   7   8
ENDBRANCH   1   7
TORSDOF 2
ENDMDL
