MODEL 1
REMARK minimizedAffinity 2.17110491
REMARK minimizedRMSD -1
REMARK  2 active torsions:
REMARK  status: ('A' for Active; 'I' for Inactive)
REMARK    1  A    between atoms: C2'_3  and  C1'_4 
REMARK    2  A    between atoms: C1'_4  and  C1_5 
ROOT
ATOM      1  C1  I4B d   1      -4.800   5.244   2.688  0.00  0.00    -0.075 A 
ATOM      2  C2  I4B d   1      -3.564   5.269   2.092  0.00  0.00     0.003 A 
ATOM      3  C3  I4B d   1      -3.432   5.676   0.742  0.00  0.00     0.002 A 
ATOM      4  C4  I4B d   1      -4.560   6.000   0.016  0.00  0.00    -0.004 A 
ATOM      5  C5  I4B d   1      -5.810   5.996   0.629  0.00  0.00     0.002 A 
ATOM      6  C6  I4B d   1      -5.930   5.628   1.977  0.00  0.00     0.003 A 
ENDROOT
BRANCH   1   7
ATOM      7  C1' I4B d   1      -4.908   4.777   4.105  0.00  0.00     0.060 C 
BRANCH   7   8
ATOM      8  C2' I4B d   1      -4.858   5.996   5.003  0.00  0.00    -0.013 C 
ATOM      9  C4' I4B d   1      -5.998   5.994   5.989  0.00  0.00     0.013 C 
ATOM     10  C3' I4B d   1      -3.534   5.999   5.707  0.00  0.00     0.013 C 
ENDBRANCH   7   8
ENDBRANCH   1   7
TORSDOF 2
ENDMDL
