MODEL 1
REMARK minimizedAffinity 6.00039482
REMARK minimizedRMSD -1
REMARK  2 active torsions:
REMARK  status: ('A' for Active; 'I' for Inactive)
REMARK    1  A    between atoms: C2'_3  and  C1'_4 
REMARK    2  A    between atoms: C1'_4  and  C1_5 
ROOT
ATOM      1  C1  I4B d   1       2.850   1.492   0.412  0.00  0.00    -0.075 A 
ATOM      2  C2  I4B d   1       2.540   2.007   1.646  0.00  0.00     0.003 A 
ATOM      3  C3  I4B d   1       3.405   2.942   2.265  0.00  0.00     0.002 A 
ATOM      4  C4  I4B d   1       4.585   3.294   1.642  0.00  0.00    -0.004 A 
ATOM      5  C5  I4B d   1       4.886   2.788   0.381  0.00  0.00     0.002 A 
ATOM      6  C6  I4B d   1       4.008   1.891  -0.244  0.00  0.00     0.003 A 
ENDROOT
BRANCH   1   7
ATOM      7  C1' I4B d   1       1.932   0.482  -0.199  0.00  0.00     0.060 C 
BRANCH   7   8
ATOM      8  C2' I4B d   1       2.768  -0.698  -0.649  0.00  0.00    -0.013 C 
ATOM      9  C4' I4B d   1       2.340  -1.966   0.042  0.00  0.00     0.013 C 
ATOM     10  C3' I4B d   1       2.633  -0.821  -2.137  0.00  0.00     0.013 C 
ENDBRANCH   7   8
ENDBRANCH   1   7
TORSDOF 2
ENDMDL
