MODEL 1
REMARK minimizedAffinity 8.69176006
REMARK minimizedRMSD -1
REMARK  2 active torsions:
REMARK  status: ('A' for Active; 'I' for Inactive)
REMARK    1  A    between atoms: C2'_3  and  C1'_4 
REMARK    2  A    between atoms: C1'_4  and  C1_5 
ROOT
ATOM      1  C1  I4B d   1       2.765   0.805  -0.215  0.00  0.00    -0.075 A 
ATOM      2  C2  I4B d   1       4.101   0.674  -0.497  0.00  0.00     0.003 A 
ATOM      3  C3  I4B d   1       5.006   1.709  -0.158  0.00  0.00     0.002 A 
ATOM      4  C4  I4B d   1       4.528   2.871   0.413  0.00  0.00    -0.004 A 
ATOM      5  C5  I4B d   1       3.175   2.992   0.719  0.00  0.00     0.002 A 
ATOM      6  C6  I4B d   1       2.290   1.948   0.415  0.00  0.00     0.003 A 
ENDROOT
BRANCH   1   7
ATOM      7  C1' I4B d   1       1.832  -0.293  -0.617  0.00  0.00     0.060 C 
BRANCH   7   8
ATOM      8  C2' I4B d   1       2.617  -1.589  -0.632  0.00  0.00    -0.013 C 
ATOM      9  C4' I4B d   1       1.902  -2.669   0.137  0.00  0.00     0.013 C 
ATOM     10  C3' I4B d   1       2.822  -1.989  -2.063  0.00  0.00     0.013 C 
ENDBRANCH   7   8
ENDBRANCH   1   7
TORSDOF 2
ENDMDL
