MODEL 1
REMARK minimizedAffinity -4.35353422
REMARK minimizedRMSD -1
REMARK  0 active torsions:
REMARK  status: ('A' for Active; 'I' for Inactive)
ROOT
ATOM      1  C1  BNZ d   1      -0.222  -0.250   2.688  0.00  0.00     0.000 A 
ATOM      2  C2  BNZ d   1      -1.179   0.072   1.763  0.00  0.00     0.000 A 
ATOM      3  C3  BNZ d   1      -0.854   0.233   0.445  0.00  0.00     0.000 A 
ATOM      4  C4  BNZ d   1       0.432   0.111   0.060  0.00  0.00     0.000 A 
ATOM      5  C5  BNZ d   1       1.411  -0.204   0.982  0.00  0.00     0.000 A 
ATOM      6  C6  BNZ d   1       1.074  -0.404   2.301  0.00  0.00     0.000 A 
ENDROOT
TORSDOF 0
ENDMDL
