MODEL 1
REMARK minimizedAffinity -4.1085434
REMARK minimizedRMSD -1
REMARK  0 active torsions:
REMARK  status: ('A' for Active; 'I' for Inactive)
ROOT
ATOM      1  C1  BNZ d   1      -0.410   0.117   1.146  0.00  0.00     0.000 A 
ATOM      2  C2  BNZ d   1       0.274  -0.336   2.243  0.00  0.00     0.000 A 
ATOM      3  C3  BNZ d   1       1.581  -0.721   2.142  0.00  0.00     0.000 A 
ATOM      4  C4  BNZ d   1       2.191  -0.690   0.939  0.00  0.00     0.000 A 
ATOM      5  C5  BNZ d   1       1.511  -0.245  -0.178  0.00  0.00     0.000 A 
ATOM      6  C6  BNZ d   1       0.207   0.178  -0.065  0.00  0.00     0.000 A 
ENDROOT
TORSDOF 0
ENDMDL
