MODEL 1
REMARK minimizedAffinity 3.38445902
REMARK minimizedRMSD -1
REMARK  0 active torsions:
REMARK  status: ('A' for Active; 'I' for Inactive)
ROOT
ATOM      1  C   UNL d   1       1.182  -0.776   1.528  0.00  0.00     0.124 A 
ATOM      2  C1  UNL d   1       0.053  -0.036   1.205  0.00  0.00     0.062 A 
ATOM      3  C2  UNL d   1      -0.103   0.478  -0.079  0.00  0.00     0.162 A 
ATOM      4  C3  UNL d   1       0.871   0.252  -1.051  0.00  0.00    -0.034 A 
ATOM      5  C4  UNL d   1       2.005  -0.493  -0.718  0.00  0.00     0.162 A 
ATOM      6  C5  UNL d   1       2.156  -1.004   0.567  0.00  0.00     0.062 A 
ATOM      7  F   UNL d   1       3.248  -1.719   0.877  0.00  0.00    -0.097 F 
ATOM      8  F1  UNL d   1       2.961  -0.729  -1.628  0.00  0.00    -0.096 F 
ATOM      9  I   UNL d   1       0.641   1.018  -2.972  0.00  0.00    -0.060 I 
ATOM     10  F2  UNL d   1      -1.204   1.189  -0.363  0.00  0.00    -0.096 F 
ATOM     11  F3  UNL d   1      -0.889   0.186   2.133  0.00  0.00    -0.097 F 
ATOM     12  F4  UNL d   1       1.331  -1.268   2.765  0.00  0.00    -0.092 F 
ENDROOT
TORSDOF 0
ENDMDL
