MODEL 1
REMARK minimizedAffinity 5.85881615
REMARK minimizedRMSD -1
REMARK  0 active torsions:
REMARK  status: ('A' for Active; 'I' for Inactive)
ROOT
ATOM      1  C   UNL d   1      -2.396   0.800   1.349  0.00  0.00     0.124 A 
ATOM      2  C1  UNL d   1      -2.129   0.006   0.242  0.00  0.00     0.062 A 
ATOM      3  C2  UNL d   1      -0.844  -0.482   0.024  0.00  0.00     0.162 A 
ATOM      4  C3  UNL d   1       0.185  -0.178   0.916  0.00  0.00    -0.034 A 
ATOM      5  C4  UNL d   1      -0.091   0.623   2.026  0.00  0.00     0.162 A 
ATOM      6  C5  UNL d   1      -1.377   1.108   2.239  0.00  0.00     0.062 A 
ATOM      7  F   UNL d   1      -1.633   1.875   3.309  0.00  0.00    -0.097 F 
ATOM      8  F1  UNL d   1       0.874   0.935   2.903  0.00  0.00    -0.096 F 
ATOM      9  I   UNL d   1       2.108  -0.905   0.594  0.00  0.00    -0.060 I 
ATOM     10  F2  UNL d   1      -0.615  -1.247  -1.053  0.00  0.00    -0.096 F 
ATOM     11  F3  UNL d   1      -3.112  -0.292  -0.620  0.00  0.00    -0.097 F 
ATOM     12  F4  UNL d   1      -3.634   1.269   1.555  0.00  0.00    -0.092 F 
ENDROOT
TORSDOF 0
ENDMDL
