MODEL 1
REMARK minimizedAffinity -0.986615479
REMARK minimizedRMSD -1
REMARK  0 active torsions:
REMARK  status: ('A' for Active; 'I' for Inactive)
ROOT
ATOM      1  C   UNL d   1       0.086   0.010  -0.116  0.00  0.00     0.124 A 
ATOM      2  C1  UNL d   1       0.291  -1.310  -0.494  0.00  0.00     0.062 A 
ATOM      3  C2  UNL d   1      -0.795  -2.152  -0.714  0.00  0.00     0.162 A 
ATOM      4  C3  UNL d   1      -2.097  -1.677  -0.559  0.00  0.00    -0.034 A 
ATOM      5  C4  UNL d   1      -2.295  -0.348  -0.178  0.00  0.00     0.162 A 
ATOM      6  C5  UNL d   1      -1.206   0.489   0.041  0.00  0.00     0.062 A 
ATOM      7  F   UNL d   1      -1.407   1.764   0.406  0.00  0.00    -0.097 F 
ATOM      8  F1  UNL d   1      -3.534   0.142  -0.020  0.00  0.00    -0.096 F 
ATOM      9  I   UNL d   1      -3.723  -2.932  -0.888  0.00  0.00    -0.060 I 
ATOM     10  F2  UNL d   1      -0.567  -3.423  -1.079  0.00  0.00    -0.096 F 
ATOM     11  F3  UNL d   1       1.539  -1.776  -0.646  0.00  0.00    -0.097 F 
ATOM     12  F4  UNL d   1       1.133   0.817   0.096  0.00  0.00    -0.092 F 
ENDROOT
TORSDOF 0
ENDMDL
