MODEL 1
REMARK minimizedAffinity -2.22929549
REMARK minimizedRMSD -1
REMARK  0 active torsions:
REMARK  status: ('A' for Active; 'I' for Inactive)
ROOT
ATOM      1  C   UNL d   1      -0.227   0.300   2.071  0.00  0.00     0.124 A 
ATOM      2  C1  UNL d   1       0.825  -0.363   1.455  0.00  0.00     0.062 A 
ATOM      3  C2  UNL d   1       0.606  -1.096   0.292  0.00  0.00     0.162 A 
ATOM      4  C3  UNL d   1      -0.671  -1.169  -0.264  0.00  0.00    -0.034 A 
ATOM      5  C4  UNL d   1      -1.725  -0.500   0.362  0.00  0.00     0.162 A 
ATOM      6  C5  UNL d   1      -1.501   0.231   1.524  0.00  0.00     0.062 A 
ATOM      7  F   UNL d   1      -2.519   0.871   2.117  0.00  0.00    -0.097 F 
ATOM      8  F1  UNL d   1      -2.965  -0.549  -0.146  0.00  0.00    -0.096 F 
ATOM      9  I   UNL d   1      -1.002  -2.264  -2.002  0.00  0.00    -0.060 I 
ATOM     10  F2  UNL d   1       1.642  -1.726  -0.281  0.00  0.00    -0.096 F 
ATOM     11  F3  UNL d   1       2.056  -0.298   1.982  0.00  0.00    -0.097 F 
ATOM     12  F4  UNL d   1      -0.014   1.004   3.190  0.00  0.00    -0.092 F 
ENDROOT
TORSDOF 0
ENDMDL
