MODEL 1
REMARK minimizedAffinity -2.38314915
REMARK minimizedRMSD -1
REMARK  0 active torsions:
REMARK  status: ('A' for Active; 'I' for Inactive)
ROOT
ATOM      1  C   UNL d   1       0.315   1.445   2.399  0.00  0.00     0.124 A 
ATOM      2  C1  UNL d   1       1.318   0.630   1.893  0.00  0.00     0.062 A 
ATOM      3  C2  UNL d   1       1.030  -0.298   0.896  0.00  0.00     0.162 A 
ATOM      4  C3  UNL d   1      -0.268  -0.415   0.398  0.00  0.00    -0.034 A 
ATOM      5  C4  UNL d   1      -1.272   0.407   0.912  0.00  0.00     0.162 A 
ATOM      6  C5  UNL d   1      -0.978   1.333   1.908  0.00  0.00     0.062 A 
ATOM      7  F   UNL d   1      -1.949   2.120   2.396  0.00  0.00    -0.097 F 
ATOM      8  F1  UNL d   1      -2.530   0.321   0.456  0.00  0.00    -0.096 F 
ATOM      9  I   UNL d   1      -0.703  -1.802  -1.092  0.00  0.00    -0.060 I 
ATOM     10  F2  UNL d   1       2.019  -1.073   0.426  0.00  0.00    -0.096 F 
ATOM     11  F3  UNL d   1       2.568   0.736   2.365  0.00  0.00    -0.097 F 
ATOM     12  F4  UNL d   1       0.595   2.337   3.358  0.00  0.00    -0.092 F 
ENDROOT
TORSDOF 0
ENDMDL
