MODEL 1
REMARK minimizedAffinity 0.889806986
REMARK minimizedRMSD -1
REMARK  0 active torsions:
REMARK  status: ('A' for Active; 'I' for Inactive)
ROOT
ATOM      1  C   UNL d   1       1.179  -0.458   0.864  0.00  0.00     0.124 A 
ATOM      2  C1  UNL d   1       1.936  -1.117  -0.094  0.00  0.00     0.062 A 
ATOM      3  C2  UNL d   1       1.705  -0.888  -1.448  0.00  0.00     0.162 A 
ATOM      4  C3  UNL d   1       0.712   0.005  -1.851  0.00  0.00    -0.034 A 
ATOM      5  C4  UNL d   1      -0.046   0.663  -0.881  0.00  0.00     0.162 A 
ATOM      6  C5  UNL d   1       0.189   0.431   0.470  0.00  0.00     0.062 A 
ATOM      7  F   UNL d   1      -0.544   1.069   1.395  0.00  0.00    -0.097 F 
ATOM      8  F1  UNL d   1      -1.009   1.528  -1.234  0.00  0.00    -0.096 F 
ATOM      9  I   UNL d   1       0.363   0.349  -3.874  0.00  0.00    -0.060 I 
ATOM     10  F2  UNL d   1       2.452  -1.539  -2.352  0.00  0.00    -0.096 F 
ATOM     11  F3  UNL d   1       2.893  -1.977   0.284  0.00  0.00    -0.097 F 
ATOM     12  F4  UNL d   1       1.403  -0.680   2.166  0.00  0.00    -0.092 F 
ENDROOT
TORSDOF 0
ENDMDL
