MODEL 1
REMARK minimizedAffinity 3.26903391
REMARK minimizedRMSD -1
REMARK  0 active torsions:
REMARK  status: ('A' for Active; 'I' for Inactive)
ROOT
ATOM      1  C   UNL d   1       1.146  -0.533   0.898  0.00  0.00     0.124 A 
ATOM      2  C1  UNL d   1       0.176   0.394   0.542  0.00  0.00     0.062 A 
ATOM      3  C2  UNL d   1       0.036   0.785  -0.786  0.00  0.00     0.162 A 
ATOM      4  C3  UNL d   1       0.868   0.249  -1.769  0.00  0.00    -0.034 A 
ATOM      5  C4  UNL d   1       1.842  -0.681  -1.403  0.00  0.00     0.162 A 
ATOM      6  C5  UNL d   1       1.978  -1.069  -0.074  0.00  0.00     0.062 A 
ATOM      7  F   UNL d   1       2.916  -1.965   0.268  0.00  0.00    -0.097 F 
ATOM      8  F1  UNL d   1       2.659  -1.217  -2.323  0.00  0.00    -0.096 F 
ATOM      9  I   UNL d   1       0.662   0.832  -3.757  0.00  0.00    -0.060 I 
ATOM     10  F2  UNL d   1      -0.910   1.682  -1.102  0.00  0.00    -0.096 F 
ATOM     11  F3  UNL d   1      -0.628   0.915   1.480  0.00  0.00    -0.097 F 
ATOM     12  F4  UNL d   1       1.279  -0.907   2.177  0.00  0.00    -0.092 F 
ENDROOT
TORSDOF 0
ENDMDL
