MODEL 1
REMARK minimizedAffinity 9.9183197
REMARK minimizedRMSD -1
REMARK  0 active torsions:
REMARK  status: ('A' for Active; 'I' for Inactive)
ROOT
ATOM      1  C   UNL d   1       1.231  -0.061   1.356  0.00  0.00     0.124 A 
ATOM      2  C1  UNL d   1       0.265   0.881   1.029  0.00  0.00     0.062 A 
ATOM      3  C2  UNL d   1       0.039   1.219  -0.302  0.00  0.00     0.162 A 
ATOM      4  C3  UNL d   1       0.781   0.615  -1.317  0.00  0.00    -0.034 A 
ATOM      5  C4  UNL d   1       1.752  -0.330  -0.980  0.00  0.00     0.162 A 
ATOM      6  C5  UNL d   1       1.974  -0.665   0.352  0.00  0.00     0.062 A 
ATOM      7  F   UNL d   1       2.908  -1.574   0.666  0.00  0.00    -0.097 F 
ATOM      8  F1  UNL d   1       2.484  -0.930  -1.931  0.00  0.00    -0.096 F 
ATOM      9  I   UNL d   1       0.448   1.118  -3.309  0.00  0.00    -0.060 I 
ATOM     10  F2  UNL d   1      -0.901   2.132  -0.589  0.00  0.00    -0.096 F 
ATOM     11  F3  UNL d   1      -0.454   1.467   1.998  0.00  0.00    -0.097 F 
ATOM     12  F4  UNL d   1       1.446  -0.384   2.638  0.00  0.00    -0.092 F 
ENDROOT
TORSDOF 0
ENDMDL
