MODEL 1
REMARK minimizedAffinity -1.38135791
REMARK minimizedRMSD -1
REMARK  0 active torsions:
REMARK  status: ('A' for Active; 'I' for Inactive)
ROOT
ATOM      1  C   UNL d   1       0.660   1.056   0.186  0.00  0.00     0.124 A 
ATOM      2  C1  UNL d   1       0.632   0.455  -1.065  0.00  0.00     0.062 A 
ATOM      3  C2  UNL d   1      -0.291  -0.550  -1.338  0.00  0.00     0.162 A 
ATOM      4  C3  UNL d   1      -1.195  -0.961  -0.358  0.00  0.00    -0.034 A 
ATOM      5  C4  UNL d   1      -1.160  -0.353   0.898  0.00  0.00     0.162 A 
ATOM      6  C5  UNL d   1      -0.236   0.652   1.166  0.00  0.00     0.062 A 
ATOM      7  F   UNL d   1      -0.210   1.231   2.375  0.00  0.00    -0.097 F 
ATOM      8  F1  UNL d   1      -2.015  -0.723   1.863  0.00  0.00    -0.096 F 
ATOM      9  I   UNL d   1      -2.577  -2.464  -0.762  0.00  0.00    -0.060 I 
ATOM     10  F2  UNL d   1      -0.296  -1.113  -2.555  0.00  0.00    -0.096 F 
ATOM     11  F3  UNL d   1       1.497   0.843  -2.013  0.00  0.00    -0.097 F 
ATOM     12  F4  UNL d   1       1.549   2.022   0.447  0.00  0.00    -0.092 F 
ENDROOT
TORSDOF 0
ENDMDL
