MODEL 1
REMARK minimizedAffinity 3.91068769
REMARK minimizedRMSD -1
REMARK  0 active torsions:
REMARK  status: ('A' for Active; 'I' for Inactive)
ROOT
ATOM      1  C   UNL d   1       1.503   0.485   1.418  0.00  0.00     0.124 A 
ATOM      2  C1  UNL d   1       1.919  -0.735   0.904  0.00  0.00     0.062 A 
ATOM      3  C2  UNL d   1       1.030  -1.534   0.190  0.00  0.00     0.162 A 
ATOM      4  C3  UNL d   1      -0.284  -1.114  -0.015  0.00  0.00    -0.034 A 
ATOM      5  C4  UNL d   1      -0.696   0.114   0.506  0.00  0.00     0.162 A 
ATOM      6  C5  UNL d   1       0.196   0.908   1.219  0.00  0.00     0.062 A 
ATOM      7  F   UNL d   1      -0.207   2.087   1.715  0.00  0.00    -0.097 F 
ATOM      8  F1  UNL d   1      -1.952   0.548   0.327  0.00  0.00    -0.096 F 
ATOM      9  I   UNL d   1      -1.617  -2.304  -1.083  0.00  0.00    -0.060 I 
ATOM     10  F2  UNL d   1       1.459  -2.708  -0.296  0.00  0.00    -0.096 F 
ATOM     11  F3  UNL d   1       3.180  -1.147   1.096  0.00  0.00    -0.097 F 
ATOM     12  F4  UNL d   1       2.360   1.250   2.106  0.00  0.00    -0.092 F 
ENDROOT
TORSDOF 0
ENDMDL
