MODEL 1
REMARK minimizedAffinity 4.71228886
REMARK minimizedRMSD -1
REMARK  0 active torsions:
REMARK  status: ('A' for Active; 'I' for Inactive)
ROOT
ATOM      1  C   UNL d   1       0.722   0.672  -2.210  0.00  0.00     0.124 A 
ATOM      2  C1  UNL d   1       0.239  -0.213  -3.164  0.00  0.00     0.062 A 
ATOM      3  C2  UNL d   1      -0.668  -1.205  -2.803  0.00  0.00     0.162 A 
ATOM      4  C3  UNL d   1      -1.099  -1.317  -1.481  0.00  0.00    -0.034 A 
ATOM      5  C4  UNL d   1      -0.608  -0.423  -0.527  0.00  0.00     0.162 A 
ATOM      6  C5  UNL d   1       0.298   0.567  -0.893  0.00  0.00     0.062 A 
ATOM      7  F   UNL d   1       0.763   1.421   0.030  0.00  0.00    -0.097 F 
ATOM      8  F1  UNL d   1      -1.002  -0.502   0.753  0.00  0.00    -0.096 F 
ATOM      9  I   UNL d   1      -2.455  -2.799  -0.937  0.00  0.00    -0.060 I 
ATOM     10  F2  UNL d   1      -1.118  -2.047  -3.745  0.00  0.00    -0.096 F 
ATOM     11  F3  UNL d   1       0.648  -0.114  -4.437  0.00  0.00    -0.097 F 
ATOM     12  F4  UNL d   1       1.595   1.625  -2.561  0.00  0.00    -0.092 F 
ENDROOT
TORSDOF 0
ENDMDL
