MODEL 1
REMARK minimizedAffinity 4.81857252
REMARK minimizedRMSD -1
REMARK  3 active torsions:
REMARK  status: ('A' for Active; 'I' for Inactive)
REMARK    1  A    between atoms: C3'_2  and  C2'_3 
REMARK    2  A    between atoms: C2'_3  and  C1'_4 
REMARK    3  A    between atoms: C1'_4  and  C1_5 
ROOT
ATOM      1  C1  N4B d   1       3.161  -1.553  -4.314  0.00  0.00    -0.075 A 
ATOM      2  C2  N4B d   1       2.813  -2.269  -5.481  0.00  0.00     0.002 A 
ATOM      3  C3  N4B d   1       3.681  -3.200  -5.998  0.00  0.00     0.002 A 
ATOM      4  C4  N4B d   1       4.903  -3.417  -5.380  0.00  0.00    -0.004 A 
ATOM      5  C5  N4B d   1       5.220  -2.739  -4.239  0.00  0.00     0.002 A 
ATOM      6  C6  N4B d   1       4.356  -1.804  -3.706  0.00  0.00     0.002 A 
ENDROOT
BRANCH   1   7
ATOM      7  C1' N4B d   1       2.283  -0.465  -3.760  0.00  0.00     0.057 C 
BRANCH   7   8
ATOM      8  C2' N4B d   1       2.840   0.892  -4.181  0.00  0.00     0.009 C 
BRANCH   8   9
ATOM      9  C3' N4B d   1       4.317   0.816  -4.528  0.00  0.00     0.004 C 
ATOM     10  C4' N4B d   1       4.753   1.913  -5.453  0.00  0.00     0.003 C 
ENDBRANCH   8   9
ENDBRANCH   7   8
ENDBRANCH   1   7
TORSDOF 3
ENDMDL
