MODEL 1
REMARK minimizedAffinity -0.0208834913
REMARK minimizedRMSD -1
REMARK  3 active torsions:
REMARK  status: ('A' for Active; 'I' for Inactive)
REMARK    1  A    between atoms: C3'_2  and  C2'_3 
REMARK    2  A    between atoms: C2'_3  and  C1'_4 
REMARK    3  A    between atoms: C1'_4  and  C1_5 
ROOT
ATOM      1  C1  N4B d   1      -3.215  -5.986   1.579  0.00  0.00    -0.075 A 
ATOM      2  C2  N4B d   1      -4.002  -5.943   2.751  0.00  0.00     0.002 A 
ATOM      3  C3  N4B d   1      -5.370  -5.870   2.657  0.00  0.00     0.002 A 
ATOM      4  C4  N4B d   1      -5.970  -5.819   1.407  0.00  0.00    -0.004 A 
ATOM      5  C5  N4B d   1      -5.205  -5.887   0.280  0.00  0.00     0.002 A 
ATOM      6  C6  N4B d   1      -3.829  -5.965   0.360  0.00  0.00     0.002 A 
ENDROOT
BRANCH   1   7
ATOM      7  C1' N4B d   1      -1.712  -5.980   1.631  0.00  0.00     0.057 C 
BRANCH   7   8
ATOM      8  C2' N4B d   1      -1.262  -5.808   3.079  0.00  0.00     0.009 C 
BRANCH   8   9
ATOM      9  C3' N4B d   1       0.227  -5.527   3.181  0.00  0.00     0.004 C 
ATOM     10  C4' N4B d   1       0.989  -5.981   1.972  0.00  0.00     0.003 C 
ENDBRANCH   8   9
ENDBRANCH   7   8
ENDBRANCH   1   7
TORSDOF 3
ENDMDL
