MODEL 1
REMARK minimizedAffinity 9.72528648
REMARK minimizedRMSD -1
REMARK  3 active torsions:
REMARK  status: ('A' for Active; 'I' for Inactive)
REMARK    1  A    between atoms: C3'_2  and  C2'_3 
REMARK    2  A    between atoms: C2'_3  and  C1'_4 
REMARK    3  A    between atoms: C1'_4  and  C1_5 
ROOT
ATOM      1  C1  N4B d   1      -0.734  -5.919   1.080  0.00  0.00    -0.075 A 
ATOM      2  C2  N4B d   1      -2.144  -5.997   1.042  0.00  0.00     0.002 A 
ATOM      3  C3  N4B d   1      -2.863  -5.999   2.212  0.00  0.00     0.002 A 
ATOM      4  C4  N4B d   1      -2.196  -5.944   3.427  0.00  0.00    -0.004 A 
ATOM      5  C5  N4B d   1      -0.836  -5.843   3.454  0.00  0.00     0.002 A 
ATOM      6  C6  N4B d   1      -0.101  -5.836   2.286  0.00  0.00     0.002 A 
ENDROOT
BRANCH   1   7
ATOM      7  C1' N4B d   1       0.099  -6.000  -0.170  0.00  0.00     0.057 C 
BRANCH   7   8
ATOM      8  C2' N4B d   1      -0.397  -4.962  -1.171  0.00  0.00     0.009 C 
BRANCH   8   9
ATOM      9  C3' N4B d   1       0.076  -3.562  -0.820  0.00  0.00     0.004 C 
ATOM     10  C4' N4B d   1      -0.618  -2.497  -1.617  0.00  0.00     0.003 C 
ENDBRANCH   8   9
ENDBRANCH   7   8
ENDBRANCH   1   7
TORSDOF 3
ENDMDL
