MODEL 1
REMARK minimizedAffinity 3.1685729
REMARK minimizedRMSD -1
REMARK  3 active torsions:
REMARK  status: ('A' for Active; 'I' for Inactive)
REMARK    1  A    between atoms: C3'_2  and  C2'_3 
REMARK    2  A    between atoms: C2'_3  and  C1'_4 
REMARK    3  A    between atoms: C1'_4  and  C1_5 
ROOT
ATOM      1  C1  N4B d   1      -0.890  -1.142   0.104  0.00  0.00    -0.075 A 
ATOM      2  C2  N4B d   1      -0.247  -0.059  -0.536  0.00  0.00     0.002 A 
ATOM      3  C3  N4B d   1       0.288   0.961   0.211  0.00  0.00     0.002 A 
ATOM      4  C4  N4B d   1       0.175   0.930   1.593  0.00  0.00    -0.004 A 
ATOM      5  C5  N4B d   1      -0.425  -0.131   2.205  0.00  0.00     0.002 A 
ATOM      6  C6  N4B d   1      -0.963  -1.166   1.466  0.00  0.00     0.002 A 
ENDROOT
BRANCH   1   7
ATOM      7  C1' N4B d   1      -1.565  -2.237  -0.675  0.00  0.00     0.057 C 
BRANCH   7   8
ATOM      8  C2' N4B d   1      -2.918  -1.737  -1.172  0.00  0.00     0.009 C 
BRANCH   8   9
ATOM      9  C3' N4B d   1      -2.905  -1.451  -2.664  0.00  0.00     0.004 C 
ATOM     10  C4' N4B d   1      -2.940   0.016  -2.974  0.00  0.00     0.003 C 
ENDBRANCH   8   9
ENDBRANCH   7   8
ENDBRANCH   1   7
TORSDOF 3
ENDMDL
