MODEL 1
REMARK minimizedAffinity 12.5375528
REMARK minimizedRMSD -1
REMARK  3 active torsions:
REMARK  status: ('A' for Active; 'I' for Inactive)
REMARK    1  A    between atoms: C3'_2  and  C2'_3 
REMARK    2  A    between atoms: C2'_3  and  C1'_4 
REMARK    3  A    between atoms: C1'_4  and  C1_5 
ROOT
ATOM      1  C1  N4B d   1       1.345  -0.075  -0.723  0.00  0.00    -0.075 A 
ATOM      2  C2  N4B d   1       1.227   0.938   0.254  0.00  0.00     0.002 A 
ATOM      3  C3  N4B d   1       0.092   1.021   1.023  0.00  0.00     0.002 A 
ATOM      4  C4  N4B d   1      -0.941   0.118   0.822  0.00  0.00    -0.004 A 
ATOM      5  C5  N4B d   1      -0.809  -0.873  -0.106  0.00  0.00     0.002 A 
ATOM      6  C6  N4B d   1       0.328  -0.971  -0.884  0.00  0.00     0.002 A 
ENDROOT
BRANCH   1   7
ATOM      7  C1' N4B d   1       2.529  -0.154  -1.646  0.00  0.00     0.057 C 
BRANCH   7   8
ATOM      8  C2' N4B d   1       2.768   1.217  -2.273  0.00  0.00     0.009 C 
BRANCH   8   9
ATOM      9  C3' N4B d   1       3.045   1.120  -3.763  0.00  0.00     0.004 C 
ATOM     10  C4' N4B d   1       4.458   0.720  -4.067  0.00  0.00     0.003 C 
ENDBRANCH   8   9
ENDBRANCH   7   8
ENDBRANCH   1   7
TORSDOF 3
ENDMDL
