MODEL 1
REMARK minimizedAffinity 14.7758703
REMARK minimizedRMSD -1
REMARK  3 active torsions:
REMARK  status: ('A' for Active; 'I' for Inactive)
REMARK    1  A    between atoms: C3'_2  and  C2'_3 
REMARK    2  A    between atoms: C2'_3  and  C1'_4 
REMARK    3  A    between atoms: C1'_4  and  C1_5 
ROOT
ATOM      1  C1  N4B d   1      -2.512  -2.269  -1.337  0.00  0.00    -0.075 A 
ATOM      2  C2  N4B d   1      -3.147  -1.283  -2.124  0.00  0.00     0.002 A 
ATOM      3  C3  N4B d   1      -3.456  -1.547  -3.436  0.00  0.00     0.002 A 
ATOM      4  C4  N4B d   1      -3.125  -2.776  -3.985  0.00  0.00    -0.004 A 
ATOM      5  C5  N4B d   1      -2.535  -3.732  -3.211  0.00  0.00     0.002 A 
ATOM      6  C6  N4B d   1      -2.222  -3.482  -1.890  0.00  0.00     0.002 A 
ENDROOT
BRANCH   1   7
ATOM      7  C1' N4B d   1      -2.077  -1.997   0.077  0.00  0.00     0.057 C 
BRANCH   7   8
ATOM      8  C2' N4B d   1      -0.678  -1.387   0.062  0.00  0.00     0.009 C 
BRANCH   8   9
ATOM      9  C3' N4B d   1      -0.720   0.131   0.077  0.00  0.00     0.004 C 
ATOM     10  C4' N4B d   1       0.637   0.751  -0.076  0.00  0.00     0.003 C 
ENDBRANCH   8   9
ENDBRANCH   7   8
ENDBRANCH   1   7
TORSDOF 3
ENDMDL
