MODEL 1
REMARK minimizedAffinity 7.72900867
REMARK minimizedRMSD -1
REMARK  3 active torsions:
REMARK  status: ('A' for Active; 'I' for Inactive)
REMARK    1  A    between atoms: C3'_2  and  C2'_3 
REMARK    2  A    between atoms: C2'_3  and  C1'_4 
REMARK    3  A    between atoms: C1'_4  and  C1_5 
ROOT
ATOM      1  C1  N4B d   1      -1.445  -1.738  -0.806  0.00  0.00    -0.075 A 
ATOM      2  C2  N4B d   1      -0.377  -1.114  -0.124  0.00  0.00     0.002 A 
ATOM      3  C3  N4B d   1       0.053   0.130  -0.514  0.00  0.00     0.002 A 
ATOM      4  C4  N4B d   1      -0.554   0.760  -1.590  0.00  0.00    -0.004 A 
ATOM      5  C5  N4B d   1      -1.602   0.162  -2.228  0.00  0.00     0.002 A 
ATOM      6  C6  N4B d   1      -2.047  -1.087  -1.844  0.00  0.00     0.002 A 
ENDROOT
BRANCH   1   7
ATOM      7  C1' N4B d   1      -1.894  -3.134  -0.472  0.00  0.00     0.057 C 
BRANCH   7   8
ATOM      8  C2' N4B d   1      -1.998  -3.949  -1.757  0.00  0.00     0.009 C 
BRANCH   8   9
ATOM      9  C3' N4B d   1      -1.592  -5.397  -1.546  0.00  0.00     0.004 C 
ATOM     10  C4' N4B d   1      -2.207  -5.999  -0.318  0.00  0.00     0.003 C 
ENDBRANCH   8   9
ENDBRANCH   7   8
ENDBRANCH   1   7
TORSDOF 3
ENDMDL
