MODEL 1
REMARK minimizedAffinity -3.1706531
REMARK minimizedRMSD -1
REMARK  2 active torsions:
REMARK  status: ('A' for Active; 'I' for Inactive)
REMARK    1  A    between atoms: C2'_3  and  C1'_4 
REMARK    2  A    between atoms: C1'_4  and  C1_5 
ROOT
ATOM      1  C1  I4B d   1       0.092  -0.161   0.411  0.00  0.00    -0.075 A 
ATOM      2  C2  I4B d   1       1.014   0.666   1.003  0.00  0.00     0.003 A 
ATOM      3  C3  I4B d   1       1.160   2.003   0.559  0.00  0.00     0.002 A 
ATOM      4  C4  I4B d   1       0.404   2.453  -0.504  0.00  0.00    -0.004 A 
ATOM      5  C5  I4B d   1      -0.546   1.619  -1.088  0.00  0.00     0.002 A 
ATOM      6  C6  I4B d   1      -0.712   0.308  -0.619  0.00  0.00     0.003 A 
ENDROOT
BRANCH   1   7
ATOM      7  C1' I4B d   1      -0.012  -1.577   0.882  0.00  0.00     0.060 C 
BRANCH   7   8
ATOM      8  C2' I4B d   1      -1.464  -1.852   1.216  0.00  0.00    -0.013 C 
ATOM      9  C4' I4B d   1      -2.084  -2.793   0.217  0.00  0.00     0.013 C 
ATOM     10  C3' I4B d   1      -1.521  -2.420   2.603  0.00  0.00     0.013 C 
ENDBRANCH   7   8
ENDBRANCH   1   7
TORSDOF 2
ENDMDL
