MODEL 1
REMARK minimizedAffinity 0.116463445
REMARK minimizedRMSD -1
REMARK  2 active torsions:
REMARK  status: ('A' for Active; 'I' for Inactive)
REMARK    1  A    between atoms: C2'_3  and  C1'_4 
REMARK    2  A    between atoms: C1'_4  and  C1_5 
ROOT
ATOM      1  C1  I4B d   1      -1.361  -0.765  -1.530  0.00  0.00    -0.075 A 
ATOM      2  C2  I4B d   1      -0.741  -0.761  -2.755  0.00  0.00     0.003 A 
ATOM      3  C3  I4B d   1      -1.506  -0.868  -3.942  0.00  0.00     0.002 A 
ATOM      4  C4  I4B d   1      -2.874  -1.027  -3.856  0.00  0.00    -0.004 A 
ATOM      5  C5  I4B d   1      -3.503  -1.008  -2.615  0.00  0.00     0.002 A 
ATOM      6  C6  I4B d   1      -2.744  -0.864  -1.445  0.00  0.00     0.003 A 
ENDROOT
BRANCH   1   7
ATOM      7  C1' I4B d   1      -0.519  -0.684  -0.296  0.00  0.00     0.060 C 
BRANCH   7   8
ATOM      8  C2' I4B d   1       0.419   0.496  -0.448  0.00  0.00    -0.013 C 
ATOM      9  C4' I4B d   1       0.123   1.563   0.573  0.00  0.00     0.013 C 
ATOM     10  C3' I4B d   1       1.824  -0.009  -0.312  0.00  0.00     0.013 C 
ENDBRANCH   7   8
ENDBRANCH   1   7
TORSDOF 2
ENDMDL
