MODEL 1
REMARK minimizedAffinity -5.89931536
REMARK minimizedRMSD -1
REMARK  2 active torsions:
REMARK  status: ('A' for Active; 'I' for Inactive)
REMARK    1  A    between atoms: C2'_3  and  C1'_4 
REMARK    2  A    between atoms: C1'_4  and  C1_5 
ROOT
ATOM      1  C1  I4B d   1      -0.299  -0.506  -0.710  0.00  0.00    -0.075 A 
ATOM      2  C2  I4B d   1      -0.633   0.797  -0.434  0.00  0.00     0.003 A 
ATOM      3  C3  I4B d   1       0.369   1.727  -0.068  0.00  0.00     0.002 A 
ATOM      4  C4  I4B d   1       1.676   1.304   0.060  0.00  0.00    -0.004 A 
ATOM      5  C5  I4B d   1       2.016  -0.012  -0.242  0.00  0.00     0.002 A 
ATOM      6  C6  I4B d   1       1.025  -0.920  -0.641  0.00  0.00     0.003 A 
ENDROOT
BRANCH   1   7
ATOM      7  C1' I4B d   1      -1.387  -1.470  -1.062  0.00  0.00     0.060 C 
BRANCH   7   8
ATOM      8  C2' I4B d   1      -2.127  -0.920  -2.265  0.00  0.00    -0.013 C 
ATOM      9  C4' I4B d   1      -1.831  -1.726  -3.502  0.00  0.00     0.013 C 
ATOM     10  C3' I4B d   1      -3.593  -0.929  -1.950  0.00  0.00     0.013 C 
ENDBRANCH   7   8
ENDBRANCH   1   7
TORSDOF 2
ENDMDL
