MODEL 1
REMARK minimizedAffinity 7.07240772
REMARK minimizedRMSD -1
REMARK  2 active torsions:
REMARK  status: ('A' for Active; 'I' for Inactive)
REMARK    1  A    between atoms: C2'_3  and  C1'_4 
REMARK    2  A    between atoms: C1'_4  and  C1_5 
ROOT
ATOM      1  C1  I4B d   1       1.345   1.079   1.137  0.00  0.00    -0.075 A 
ATOM      2  C2  I4B d   1       2.492   1.001   0.387  0.00  0.00     0.003 A 
ATOM      3  C3  I4B d   1       2.519   0.223  -0.795  0.00  0.00     0.002 A 
ATOM      4  C4  I4B d   1       1.399  -0.496  -1.161  0.00  0.00    -0.004 A 
ATOM      5  C5  I4B d   1       0.230  -0.397  -0.412  0.00  0.00     0.002 A 
ATOM      6  C6  I4B d   1       0.199   0.405   0.738  0.00  0.00     0.003 A 
ENDROOT
BRANCH   1   7
ATOM      7  C1' I4B d   1       1.362   1.884   2.398  0.00  0.00     0.060 C 
BRANCH   7   8
ATOM      8  C2' I4B d   1       1.621   0.937   3.553  0.00  0.00    -0.013 C 
ATOM      9  C4' I4B d   1       2.693   1.471   4.466  0.00  0.00     0.013 C 
ATOM     10  C3' I4B d   1       0.330   0.741   4.290  0.00  0.00     0.013 C 
ENDBRANCH   7   8
ENDBRANCH   1   7
TORSDOF 2
ENDMDL
