MODEL 1
REMARK minimizedAffinity 2.81060624
REMARK minimizedRMSD -1
REMARK  2 active torsions:
REMARK  status: ('A' for Active; 'I' for Inactive)
REMARK    1  A    between atoms: C2'_3  and  C1'_4 
REMARK    2  A    between atoms: C1'_4  and  C1_5 
ROOT
ATOM      1  C1  I4B d   1       0.952   1.061   1.763  0.00  0.00    -0.075 A 
ATOM      2  C2  I4B d   1       1.686   1.538   0.706  0.00  0.00     0.003 A 
ATOM      3  C3  I4B d   1       1.629   0.890  -0.552  0.00  0.00     0.002 A 
ATOM      4  C4  I4B d   1       0.870  -0.254  -0.693  0.00  0.00    -0.004 A 
ATOM      5  C5  I4B d   1       0.108  -0.722   0.374  0.00  0.00     0.002 A 
ATOM      6  C6  I4B d   1       0.140  -0.054   1.606  0.00  0.00     0.003 A 
ENDROOT
BRANCH   1   7
ATOM      7  C1' I4B d   1       1.061   1.751   3.086  0.00  0.00     0.060 C 
BRANCH   7   8
ATOM      8  C2' I4B d   1       1.577   0.745   4.095  0.00  0.00    -0.013 C 
ATOM      9  C4' I4B d   1       3.059   0.902   4.312  0.00  0.00     0.013 C 
ATOM     10  C3' I4B d   1       0.819   0.943   5.374  0.00  0.00     0.013 C 
ENDBRANCH   7   8
ENDBRANCH   1   7
TORSDOF 2
ENDMDL
