MODEL 1
REMARK minimizedAffinity -4.82705975
REMARK minimizedRMSD -1
REMARK  2 active torsions:
REMARK  status: ('A' for Active; 'I' for Inactive)
REMARK    1  A    between atoms: C2'_3  and  C1'_4 
REMARK    2  A    between atoms: C1'_4  and  C1_5 
ROOT
ATOM      1  C1  I4B d   1       0.006   0.230   0.163  0.00  0.00    -0.075 A 
ATOM      2  C2  I4B d   1       1.070   0.883  -0.408  0.00  0.00     0.003 A 
ATOM      3  C3  I4B d   1       1.528   2.109   0.132  0.00  0.00     0.002 A 
ATOM      4  C4  I4B d   1       0.865   2.667   1.206  0.00  0.00    -0.004 A 
ATOM      5  C5  I4B d   1      -0.199   1.993   1.798  0.00  0.00     0.002 A 
ATOM      6  C6  I4B d   1      -0.624   0.760   1.281  0.00  0.00     0.003 A 
ENDROOT
BRANCH   1   7
ATOM      7  C1' I4B d   1      -0.472  -1.046  -0.454  0.00  0.00     0.060 C 
BRANCH   7   8
ATOM      8  C2' I4B d   1      -1.788  -0.764  -1.149  0.00  0.00    -0.013 C 
ATOM      9  C4' I4B d   1      -1.586  -0.521  -2.621  0.00  0.00     0.013 C 
ATOM     10  C3' I4B d   1      -2.696  -1.935  -0.914  0.00  0.00     0.013 C 
ENDBRANCH   7   8
ENDBRANCH   1   7
TORSDOF 2
ENDMDL
