MODEL 1
REMARK minimizedAffinity -4.4836545
REMARK minimizedRMSD -1
REMARK  2 active torsions:
REMARK  status: ('A' for Active; 'I' for Inactive)
REMARK    1  A    between atoms: C2'_3  and  C1'_4 
REMARK    2  A    between atoms: C1'_4  and  C1_5 
ROOT
ATOM      1  C1  I4B d   1      -0.232  -0.264  -0.751  0.00  0.00    -0.075 A 
ATOM      2  C2  I4B d   1       1.135  -0.314  -0.869  0.00  0.00     0.003 A 
ATOM      3  C3  I4B d   1       1.939   0.687  -0.272  0.00  0.00     0.002 A 
ATOM      4  C4  I4B d   1       1.336   1.740   0.385  0.00  0.00    -0.004 A 
ATOM      5  C5  I4B d   1      -0.048   1.777   0.522  0.00  0.00     0.002 A 
ATOM      6  C6  I4B d   1      -0.837   0.762  -0.038  0.00  0.00     0.003 A 
ENDROOT
BRANCH   1   7
ATOM      7  C1' I4B d   1      -1.052  -1.321  -1.422  0.00  0.00     0.060 C 
BRANCH   7   8
ATOM      8  C2' I4B d   1      -1.481  -0.790  -2.774  0.00  0.00    -0.013 C 
ATOM      9  C4' I4B d   1      -0.973  -1.665  -3.890  0.00  0.00     0.013 C 
ATOM     10  C3' I4B d   1      -2.979  -0.711  -2.787  0.00  0.00     0.013 C 
ENDBRANCH   7   8
ENDBRANCH   1   7
TORSDOF 2
ENDMDL
