MODEL 1
REMARK minimizedAffinity 12.4281693
REMARK minimizedRMSD -1
REMARK  2 active torsions:
REMARK  status: ('A' for Active; 'I' for Inactive)
REMARK    1  A    between atoms: C2'_3  and  C1'_4 
REMARK    2  A    between atoms: C1'_4  and  C1_5 
ROOT
ATOM      1  C1  I4B d   1       0.946   1.300   3.117  0.00  0.00    -0.075 A 
ATOM      2  C2  I4B d   1       0.501   1.210   4.413  0.00  0.00     0.003 A 
ATOM      3  C3  I4B d   1       1.425   1.199   5.485  0.00  0.00     0.002 A 
ATOM      4  C4  I4B d   1       2.778   1.228   5.216  0.00  0.00    -0.004 A 
ATOM      5  C5  I4B d   1       3.227   1.342   3.904  0.00  0.00     0.002 A 
ATOM      6  C6  I4B d   1       2.306   1.391   2.848  0.00  0.00     0.003 A 
ENDROOT
BRANCH   1   7
ATOM      7  C1' I4B d   1      -0.056   1.276   2.007  0.00  0.00     0.060 C 
BRANCH   7   8
ATOM      8  C2' I4B d   1       0.667   0.884   0.734  0.00  0.00    -0.013 C 
ATOM      9  C4' I4B d   1       0.141  -0.417   0.187  0.00  0.00     0.013 C 
ATOM     10  C3' I4B d   1       0.495   1.997  -0.256  0.00  0.00     0.013 C 
ENDBRANCH   7   8
ENDBRANCH   1   7
TORSDOF 2
ENDMDL
