MODEL 1
REMARK minimizedAffinity 10.7870035
REMARK minimizedRMSD -1
REMARK  2 active torsions:
REMARK  status: ('A' for Active; 'I' for Inactive)
REMARK    1  A    between atoms: C2'_3  and  C1'_4 
REMARK    2  A    between atoms: C1'_4  and  C1_5 
ROOT
ATOM      1  C1  I4B d   1       3.303   3.513  -3.416  0.00  0.00    -0.075 A 
ATOM      2  C2  I4B d   1       4.263   3.341  -2.451  0.00  0.00     0.003 A 
ATOM      3  C3  I4B d   1       5.636   3.368  -2.798  0.00  0.00     0.002 A 
ATOM      4  C4  I4B d   1       5.999   3.519  -4.120  0.00  0.00    -0.004 A 
ATOM      5  C5  I4B d   1       5.025   3.716  -5.095  0.00  0.00     0.002 A 
ATOM      6  C6  I4B d   1       3.668   3.726  -4.739  0.00  0.00     0.003 A 
ENDROOT
BRANCH   1   7
ATOM      7  C1' I4B d   1       1.862   3.446  -3.020  0.00  0.00     0.060 C 
BRANCH   7   8
ATOM      8  C2' I4B d   1       1.757   2.572  -1.786  0.00  0.00    -0.013 C 
ATOM      9  C4' I4B d   1       0.718   3.098  -0.832  0.00  0.00     0.013 C 
ATOM     10  C3' I4B d   1       1.427   1.179  -2.233  0.00  0.00     0.013 C 
ENDBRANCH   7   8
ENDBRANCH   1   7
TORSDOF 2
ENDMDL
