MODEL 1
REMARK minimizedAffinity -2.13713288
REMARK minimizedRMSD -1
REMARK  2 active torsions:
REMARK  status: ('A' for Active; 'I' for Inactive)
REMARK    1  A    between atoms: C2'_3  and  C1'_4 
REMARK    2  A    between atoms: C1'_4  and  C1_5 
ROOT
ATOM      1  C1  I4B d   1       1.457   1.505   2.369  0.00  0.00    -0.075 A 
ATOM      2  C2  I4B d   1       0.703   1.408   3.511  0.00  0.00     0.003 A 
ATOM      3  C3  I4B d   1       1.330   1.413   4.781  0.00  0.00     0.002 A 
ATOM      4  C4  I4B d   1       2.706   1.465   4.860  0.00  0.00    -0.004 A 
ATOM      5  C5  I4B d   1       3.468   1.586   3.701  0.00  0.00     0.002 A 
ATOM      6  C6  I4B d   1       2.839   1.619   2.448  0.00  0.00     0.003 A 
ENDROOT
BRANCH   1   7
ATOM      7  C1' I4B d   1       0.765   1.464   1.043  0.00  0.00     0.060 C 
BRANCH   7   8
ATOM      8  C2' I4B d   1      -0.246   0.336   1.079  0.00  0.00    -0.013 C 
ATOM      9  C4' I4B d   1      -1.643   0.848   0.847  0.00  0.00     0.013 C 
ATOM     10  C3' I4B d   1       0.143  -0.668   0.036  0.00  0.00     0.013 C 
ENDBRANCH   7   8
ENDBRANCH   1   7
TORSDOF 2
ENDMDL
