MODEL 1
REMARK minimizedAffinity -3.13163018
REMARK minimizedRMSD -1
REMARK  2 active torsions:
REMARK  status: ('A' for Active; 'I' for Inactive)
REMARK    1  A    between atoms: C2'_3  and  C1'_4 
REMARK    2  A    between atoms: C1'_4  and  C1_5 
ROOT
ATOM      1  C1  I4B d   1      -0.265   0.018   2.248  0.00  0.00    -0.075 A 
ATOM      2  C2  I4B d   1       0.793   0.011   1.374  0.00  0.00     0.003 A 
ATOM      3  C3  I4B d   1       1.948   0.784   1.647  0.00  0.00     0.002 A 
ATOM      4  C4  I4B d   1       1.982   1.581   2.772  0.00  0.00    -0.004 A 
ATOM      5  C5  I4B d   1       0.918   1.569   3.669  0.00  0.00     0.002 A 
ATOM      6  C6  I4B d   1      -0.208   0.773   3.413  0.00  0.00     0.003 A 
ENDROOT
BRANCH   1   7
ATOM      7  C1' I4B d   1      -1.482  -0.784   1.913  0.00  0.00     0.060 C 
BRANCH   7   8
ATOM      8  C2' I4B d   1      -1.628  -1.872   2.958  0.00  0.00    -0.013 C 
ATOM      9  C4' I4B d   1      -2.891  -1.693   3.759  0.00  0.00     0.013 C 
ATOM     10  C3' I4B d   1      -1.617  -3.195   2.253  0.00  0.00     0.013 C 
ENDBRANCH   7   8
ENDBRANCH   1   7
TORSDOF 2
ENDMDL
