MODEL 1
REMARK minimizedAffinity 2.65615535
REMARK minimizedRMSD -1
REMARK  0 active torsions:
REMARK  status: ('A' for Active; 'I' for Inactive)
ROOT
ATOM      1  O1  BZF d   1       1.566   1.654   1.368  0.00  0.00    -0.204 OA
ATOM      2  C2  BZF d   1       2.235   0.511   1.761  0.00  0.00     0.174 A 
ATOM      3  C3  BZF d   1       1.664  -0.586   1.224  0.00  0.00    -0.012 A 
ATOM      4  C3A BZF d   1       0.626  -0.091   0.372  0.00  0.00    -0.107 A 
ATOM      5  C4  BZF d   1      -0.285  -0.696  -0.446  0.00  0.00     0.055 A 
ATOM      6  C5  BZF d   1      -1.210   0.069  -1.084  0.00  0.00    -0.016 A 
ATOM      7  C6  BZF d   1      -1.256   1.438  -0.922  0.00  0.00     0.022 A 
ATOM      8  C7  BZF d   1      -0.370   2.083  -0.124  0.00  0.00     0.029 A 
ATOM      9  C7A BZF d   1       0.586   1.317   0.495  0.00  0.00     0.058 A 
ENDROOT
TORSDOF 0
ENDMDL
