MODEL 1
REMARK minimizedAffinity 5.55696917
REMARK minimizedRMSD -1
REMARK  0 active torsions:
REMARK  status: ('A' for Active; 'I' for Inactive)
ROOT
ATOM      1  O1  BZF d   1      -6.000   4.174  -3.651  0.00  0.00    -0.204 OA
ATOM      2  C2  BZF d   1      -5.410   4.930  -4.645  0.00  0.00     0.174 A 
ATOM      3  C3  BZF d   1      -4.189   4.447  -4.952  0.00  0.00    -0.012 A 
ATOM      4  C3A BZF d   1      -4.042   3.264  -4.161  0.00  0.00    -0.107 A 
ATOM      5  C4  BZF d   1      -3.049   2.335  -4.036  0.00  0.00     0.055 A 
ATOM      6  C5  BZF d   1      -3.186   1.340  -3.121  0.00  0.00    -0.016 A 
ATOM      7  C6  BZF d   1      -4.300   1.247  -2.312  0.00  0.00     0.022 A 
ATOM      8  C7  BZF d   1      -5.314   2.142  -2.403  0.00  0.00     0.029 A 
ATOM      9  C7A BZF d   1      -5.192   3.129  -3.350  0.00  0.00     0.058 A 
ENDROOT
TORSDOF 0
ENDMDL
