MODEL 1
REMARK minimizedAffinity 3.23808956
REMARK minimizedRMSD -1
REMARK  0 active torsions:
REMARK  status: ('A' for Active; 'I' for Inactive)
ROOT
ATOM      1  O1  BZF d   1      -0.883   3.521   0.159  0.00  0.00    -0.204 OA
ATOM      2  C2  BZF d   1      -0.325   2.574  -0.678  0.00  0.00     0.174 A 
ATOM      3  C3  BZF d   1      -1.033   1.426  -0.641  0.00  0.00    -0.012 A 
ATOM      4  C3A BZF d   1      -2.153   1.702   0.206  0.00  0.00    -0.107 A 
ATOM      5  C4  BZF d   1      -3.223   0.961   0.618  0.00  0.00     0.055 A 
ATOM      6  C5  BZF d   1      -4.100   1.503   1.504  0.00  0.00    -0.016 A 
ATOM      7  C6  BZF d   1      -3.934   2.779   2.001  0.00  0.00     0.022 A 
ATOM      8  C7  BZF d   1      -2.890   3.554   1.618  0.00  0.00     0.029 A 
ATOM      9  C7A BZF d   1      -2.021   3.022   0.698  0.00  0.00     0.058 A 
ENDROOT
TORSDOF 0
ENDMDL
