MODEL 1
REMARK minimizedAffinity 7.31648779
REMARK minimizedRMSD -1
REMARK  0 active torsions:
REMARK  status: ('A' for Active; 'I' for Inactive)
ROOT
ATOM      1  O1  BZF d   1       1.435   1.227  -0.601  0.00  0.00    -0.204 OA
ATOM      2  C2  BZF d   1       1.674   2.226   0.323  0.00  0.00     0.174 A 
ATOM      3  C3  BZF d   1       2.436   1.767   1.337  0.00  0.00    -0.012 A 
ATOM      4  C3A BZF d   1       2.766   0.421   0.981  0.00  0.00    -0.107 A 
ATOM      5  C4  BZF d   1       3.513  -0.553   1.580  0.00  0.00     0.055 A 
ATOM      6  C5  BZF d   1       3.576  -1.783   1.007  0.00  0.00    -0.016 A 
ATOM      7  C6  BZF d   1       2.902  -2.076  -0.161  0.00  0.00     0.022 A 
ATOM      8  C7  BZF d   1       2.152  -1.141  -0.794  0.00  0.00     0.029 A 
ATOM      9  C7A BZF d   1       2.113   0.113  -0.235  0.00  0.00     0.058 A 
ENDROOT
TORSDOF 0
ENDMDL
