MODEL 1
REMARK minimizedAffinity -2.09470105
REMARK minimizedRMSD -1
REMARK  0 active torsions:
REMARK  status: ('A' for Active; 'I' for Inactive)
ROOT
ATOM      1  O1  BZF d   1      -3.986   1.097   2.096  0.00  0.00    -0.204 OA
ATOM      2  C2  BZF d   1      -4.552   0.939   0.846  0.00  0.00     0.174 A 
ATOM      3  C3  BZF d   1      -3.637   1.146  -0.123  0.00  0.00    -0.012 A 
ATOM      4  C3A BZF d   1      -2.402   1.362   0.566  0.00  0.00    -0.107 A 
ATOM      5  C4  BZF d   1      -1.124   1.606   0.149  0.00  0.00     0.055 A 
ATOM      6  C5  BZF d   1      -0.161   1.844   1.077  0.00  0.00    -0.016 A 
ATOM      7  C6  BZF d   1      -0.439   1.849   2.428  0.00  0.00     0.022 A 
ATOM      8  C7  BZF d   1      -1.690   1.607   2.890  0.00  0.00     0.029 A 
ATOM      9  C7A BZF d   1      -2.660   1.334   1.956  0.00  0.00     0.058 A 
ENDROOT
TORSDOF 0
ENDMDL
