MODEL 1
REMARK minimizedAffinity 2.53301668
REMARK minimizedRMSD -1
REMARK  0 active torsions:
REMARK  status: ('A' for Active; 'I' for Inactive)
ROOT
ATOM      1  O1  BZF d   1      -3.950   0.126  -2.388  0.00  0.00    -0.204 OA
ATOM      2  C2  BZF d   1      -5.199   0.111  -1.798  0.00  0.00     0.174 A 
ATOM      3  C3  BZF d   1      -6.000   1.045  -2.350  0.00  0.00    -0.012 A 
ATOM      4  C3A BZF d   1      -5.231   1.621  -3.411  0.00  0.00    -0.107 A 
ATOM      5  C4  BZF d   1      -5.487   2.592  -4.336  0.00  0.00     0.055 A 
ATOM      6  C5  BZF d   1      -4.498   2.972  -5.186  0.00  0.00    -0.016 A 
ATOM      7  C6  BZF d   1      -3.240   2.407  -5.135  0.00  0.00     0.022 A 
ATOM      8  C7  BZF d   1      -2.940   1.437  -4.237  0.00  0.00     0.029 A 
ATOM      9  C7A BZF d   1      -3.948   1.028  -3.399  0.00  0.00     0.058 A 
ENDROOT
TORSDOF 0
ENDMDL
