MODEL 1
REMARK minimizedAffinity 2.58110476
REMARK minimizedRMSD -1
REMARK  0 active torsions:
REMARK  status: ('A' for Active; 'I' for Inactive)
ROOT
ATOM      1  O1  BZF d   1      -1.447   1.053   0.194  0.00  0.00    -0.204 OA
ATOM      2  C2  BZF d   1      -1.212   1.567   1.455  0.00  0.00     0.174 A 
ATOM      3  C3  BZF d   1      -2.364   1.687   2.145  0.00  0.00    -0.012 A 
ATOM      4  C3A BZF d   1      -3.372   1.132   1.294  0.00  0.00    -0.107 A 
ATOM      5  C4  BZF d   1      -4.719   0.951   1.429  0.00  0.00     0.055 A 
ATOM      6  C5  BZF d   1      -5.425   0.446   0.383  0.00  0.00    -0.016 A 
ATOM      7  C6  BZF d   1      -4.818   0.118  -0.812  0.00  0.00     0.022 A 
ATOM      8  C7  BZF d   1      -3.484   0.275  -0.991  0.00  0.00     0.029 A 
ATOM      9  C7A BZF d   1      -2.763   0.754   0.076  0.00  0.00     0.058 A 
ENDROOT
TORSDOF 0
ENDMDL
