MODEL 1
REMARK minimizedAffinity 2.64876795
REMARK minimizedRMSD -1
REMARK  0 active torsions:
REMARK  status: ('A' for Active; 'I' for Inactive)
ROOT
ATOM      1  O1  BZF d   1      -5.841   1.504  -1.021  0.00  0.00    -0.204 OA
ATOM      2  C2  BZF d   1      -5.479   0.366  -0.326  0.00  0.00     0.174 A 
ATOM      3  C3  BZF d   1      -4.988  -0.570  -1.164  0.00  0.00    -0.012 A 
ATOM      4  C3A BZF d   1      -4.961   0.054  -2.451  0.00  0.00    -0.107 A 
ATOM      5  C4  BZF d   1      -4.560  -0.363  -3.688  0.00  0.00     0.055 A 
ATOM      6  C5  BZF d   1      -4.734   0.464  -4.752  0.00  0.00    -0.016 A 
ATOM      7  C6  BZF d   1      -5.308   1.711  -4.617  0.00  0.00     0.022 A 
ATOM      8  C7  BZF d   1      -5.717   2.170  -3.409  0.00  0.00     0.029 A 
ATOM      9  C7A BZF d   1      -5.513   1.350  -2.326  0.00  0.00     0.058 A 
ENDROOT
TORSDOF 0
ENDMDL
