MODEL 1
REMARK minimizedAffinity 5.46385813
REMARK minimizedRMSD -1
REMARK  0 active torsions:
REMARK  status: ('A' for Active; 'I' for Inactive)
ROOT
ATOM      1  O1  BZF d   1      -2.902   1.231  -2.192  0.00  0.00    -0.204 OA
ATOM      2  C2  BZF d   1      -2.148   0.076  -2.251  0.00  0.00     0.174 A 
ATOM      3  C3  BZF d   1      -2.664  -0.787  -3.150  0.00  0.00    -0.012 A 
ATOM      4  C3A BZF d   1      -3.759  -0.092  -3.754  0.00  0.00    -0.107 A 
ATOM      5  C4  BZF d   1      -4.655  -0.419  -4.731  0.00  0.00     0.055 A 
ATOM      6  C5  BZF d   1      -5.647   0.457  -5.037  0.00  0.00    -0.016 A 
ATOM      7  C6  BZF d   1      -5.777   1.664  -4.384  0.00  0.00     0.022 A 
ATOM      8  C7  BZF d   1      -4.910   2.035  -3.411  0.00  0.00     0.029 A 
ATOM      9  C7A BZF d   1      -3.886   1.167  -3.122  0.00  0.00     0.058 A 
ENDROOT
TORSDOF 0
ENDMDL
