MODEL 1
REMARK minimizedAffinity -4.01051617
REMARK minimizedRMSD -1
REMARK  0 active torsions:
REMARK  status: ('A' for Active; 'I' for Inactive)
ROOT
ATOM      1  C   UNL d   1       1.904  -2.045  -2.042  0.00  0.00     0.020 A 
ATOM      2  C1  UNL d   1       2.258  -0.786  -2.525  0.00  0.00     0.020 A 
ATOM      3  C2  UNL d   1       1.782   0.364  -1.892  0.00  0.00     0.034 A 
ATOM      4  C3  UNL d   1       0.949   0.258  -0.772  0.00  0.00     0.017 A 
ATOM      5  C4  UNL d   1       0.594  -1.006  -0.288  0.00  0.00     0.017 A 
ATOM      6  C5  UNL d   1       1.073  -2.155  -0.926  0.00  0.00     0.034 A 
ATOM      7 Cl   UNL d   1      -0.430  -1.218   1.088  0.00  0.00    -0.070 Cl
ATOM      8 Cl1  UNL d   1       0.398   1.722  -0.039  0.00  0.00    -0.070 Cl
ENDROOT
TORSDOF 0
ENDMDL
