MODEL 1
REMARK minimizedAffinity -4.18156052
REMARK minimizedRMSD -1
REMARK  0 active torsions:
REMARK  status: ('A' for Active; 'I' for Inactive)
ROOT
ATOM      1  C   UNL d   1       0.582   1.414   0.564  0.00  0.00     0.020 A 
ATOM      2  C1  UNL d   1      -0.011   0.361   1.259  0.00  0.00     0.020 A 
ATOM      3  C2  UNL d   1      -0.090  -0.905   0.674  0.00  0.00     0.034 A 
ATOM      4  C3  UNL d   1       0.424  -1.120  -0.610  0.00  0.00     0.017 A 
ATOM      5  C4  UNL d   1       1.019  -0.062  -1.307  0.00  0.00     0.017 A 
ATOM      6  C5  UNL d   1       1.096   1.203  -0.716  0.00  0.00     0.034 A 
ATOM      7 Cl   UNL d   1       1.676  -0.251  -2.894  0.00  0.00    -0.070 Cl
ATOM      8 Cl1  UNL d   1       0.292  -2.711  -1.272  0.00  0.00    -0.070 Cl
ENDROOT
TORSDOF 0
ENDMDL
