MODEL 1
REMARK minimizedAffinity -4.39046335
REMARK minimizedRMSD -1
REMARK  0 active torsions:
REMARK  status: ('A' for Active; 'I' for Inactive)
ROOT
ATOM      1  C   UNL d   1       1.652   0.950  -2.641  0.00  0.00     0.020 A 
ATOM      2  C1  UNL d   1       1.248   1.855  -1.660  0.00  0.00     0.020 A 
ATOM      3  C2  UNL d   1       0.552   1.402  -0.537  0.00  0.00     0.034 A 
ATOM      4  C3  UNL d   1       0.258   0.041  -0.392  0.00  0.00     0.017 A 
ATOM      5  C4  UNL d   1       0.664  -0.866  -1.377  0.00  0.00     0.017 A 
ATOM      6  C5  UNL d   1       1.361  -0.407  -2.500  0.00  0.00     0.034 A 
ATOM      7 Cl   UNL d   1       0.338  -2.560  -1.269  0.00  0.00    -0.070 Cl
ATOM      8 Cl1  UNL d   1      -0.606  -0.448   1.022  0.00  0.00    -0.070 Cl
ENDROOT
TORSDOF 0
ENDMDL
