MODEL 1
REMARK minimizedAffinity -2.77828526
REMARK minimizedRMSD -1
REMARK  0 active torsions:
REMARK  status: ('A' for Active; 'I' for Inactive)
ROOT
ATOM      1  C   UNL d   1      -0.088   1.819   0.230  0.00  0.00     0.020 A 
ATOM      2  C1  UNL d   1      -0.746   0.773   0.875  0.00  0.00     0.020 A 
ATOM      3  C2  UNL d   1      -0.670  -0.523   0.360  0.00  0.00     0.034 A 
ATOM      4  C3  UNL d   1       0.066  -0.776  -0.804  0.00  0.00     0.017 A 
ATOM      5  C4  UNL d   1       0.726   0.275  -1.451  0.00  0.00     0.017 A 
ATOM      6  C5  UNL d   1       0.647   1.571  -0.931  0.00  0.00     0.034 A 
ATOM      7 Cl   UNL d   1       1.652   0.041  -2.891  0.00  0.00    -0.070 Cl
ATOM      8 Cl1  UNL d   1       0.117  -2.403  -1.385  0.00  0.00    -0.070 Cl
ENDROOT
TORSDOF 0
ENDMDL
