MODEL 1
REMARK minimizedAffinity -4.45441628
REMARK minimizedRMSD -1
REMARK  0 active torsions:
REMARK  status: ('A' for Active; 'I' for Inactive)
ROOT
ATOM      1  C   UNL d   1       1.383   0.469  -2.605  0.00  0.00     0.020 A 
ATOM      2  C1  UNL d   1       1.906  -0.818  -2.725  0.00  0.00     0.020 A 
ATOM      3  C2  UNL d   1       1.548  -1.806  -1.806  0.00  0.00     0.034 A 
ATOM      4  C3  UNL d   1       0.664  -1.509  -0.762  0.00  0.00     0.017 A 
ATOM      5  C4  UNL d   1       0.139  -0.217  -0.642  0.00  0.00     0.017 A 
ATOM      6  C5  UNL d   1       0.502   0.769  -1.565  0.00  0.00     0.034 A 
ATOM      7 Cl   UNL d   1      -0.957   0.225   0.619  0.00  0.00    -0.070 Cl
ATOM      8 Cl1  UNL d   1       0.264  -2.780   0.338  0.00  0.00    -0.070 Cl
ENDROOT
TORSDOF 0
ENDMDL
