MODEL 1
REMARK minimizedAffinity -2.98429966
REMARK minimizedRMSD -1
REMARK  0 active torsions:
REMARK  status: ('A' for Active; 'I' for Inactive)
ROOT
ATOM      1  C   UNL d   1      -0.045   0.232   1.427  0.00  0.00     0.020 A 
ATOM      2  C1  UNL d   1       0.547   1.302   0.757  0.00  0.00     0.020 A 
ATOM      3  C2  UNL d   1       0.994   1.142  -0.556  0.00  0.00     0.034 A 
ATOM      4  C3  UNL d   1       0.851  -0.090  -1.204  0.00  0.00     0.017 A 
ATOM      5  C4  UNL d   1       0.256  -1.164  -0.531  0.00  0.00     0.017 A 
ATOM      6  C5  UNL d   1      -0.190  -0.998   0.784  0.00  0.00     0.034 A 
ATOM      7 Cl   UNL d   1       0.044  -2.715  -1.264  0.00  0.00    -0.070 Cl
ATOM      8 Cl1  UNL d   1       1.426  -0.216  -2.828  0.00  0.00    -0.070 Cl
ENDROOT
TORSDOF 0
ENDMDL
