MODEL 1
REMARK minimizedAffinity -4.07219267
REMARK minimizedRMSD -1
REMARK  0 active torsions:
REMARK  status: ('A' for Active; 'I' for Inactive)
ROOT
ATOM      1  C   UNL d   1       1.305   0.675  -2.448  0.00  0.00     0.020 A 
ATOM      2  C1  UNL d   1       0.206  -0.176  -2.346  0.00  0.00     0.020 A 
ATOM      3  C2  UNL d   1      -0.509  -0.254  -1.149  0.00  0.00     0.034 A 
ATOM      4  C3  UNL d   1      -0.124   0.521  -0.048  0.00  0.00     0.017 A 
ATOM      5  C4  UNL d   1       0.980   1.375  -0.152  0.00  0.00     0.017 A 
ATOM      6  C5  UNL d   1       1.692   1.449  -1.353  0.00  0.00     0.034 A 
ATOM      7 Cl   UNL d   1       1.515   2.361   1.163  0.00  0.00    -0.070 Cl
ATOM      8 Cl1  UNL d   1      -1.053   0.375   1.401  0.00  0.00    -0.070 Cl
ENDROOT
TORSDOF 0
ENDMDL
