MODEL 1
REMARK minimizedAffinity -3.1638062
REMARK minimizedRMSD -1
REMARK  0 active torsions:
REMARK  status: ('A' for Active; 'I' for Inactive)
ROOT
ATOM      1  C   UNL d   1      -0.490   0.412   0.979  0.00  0.00     0.020 A 
ATOM      2  C1  UNL d   1       0.168   1.508   0.422  0.00  0.00     0.020 A 
ATOM      3  C2  UNL d   1       0.805   1.385  -0.815  0.00  0.00     0.034 A 
ATOM      4  C3  UNL d   1       0.785   0.164  -1.499  0.00  0.00     0.017 A 
ATOM      5  C4  UNL d   1       0.124  -0.935  -0.939  0.00  0.00     0.017 A 
ATOM      6  C5  UNL d   1      -0.512  -0.807   0.300  0.00  0.00     0.034 A 
ATOM      7 Cl   UNL d   1       0.056  -2.474  -1.723  0.00  0.00    -0.070 Cl
ATOM      8 Cl1  UNL d   1       1.594   0.084  -3.024  0.00  0.00    -0.070 Cl
ENDROOT
TORSDOF 0
ENDMDL
