MODEL 1
REMARK minimizedAffinity -3.94172096
REMARK minimizedRMSD -1
REMARK  0 active torsions:
REMARK  status: ('A' for Active; 'I' for Inactive)
ROOT
ATOM      1  C   UNL d   1       0.147  -0.703  -2.424  0.00  0.00     0.020 A 
ATOM      2  C1  UNL d   1       1.129   0.255  -2.671  0.00  0.00     0.020 A 
ATOM      3  C2  UNL d   1       1.426   1.216  -1.702  0.00  0.00     0.034 A 
ATOM      4  C3  UNL d   1       0.741   1.221  -0.482  0.00  0.00     0.017 A 
ATOM      5  C4  UNL d   1      -0.244   0.258  -0.235  0.00  0.00     0.017 A 
ATOM      6  C5  UNL d   1      -0.538  -0.702  -1.208  0.00  0.00     0.034 A 
ATOM      7 Cl   UNL d   1      -1.132   0.200   1.247  0.00  0.00    -0.070 Cl
ATOM      8 Cl1  UNL d   1       1.160   2.438   0.670  0.00  0.00    -0.070 Cl
ENDROOT
TORSDOF 0
ENDMDL
