MODEL 1
REMARK minimizedAffinity -2.01288271
REMARK minimizedRMSD -1
REMARK  0 active torsions:
REMARK  status: ('A' for Active; 'I' for Inactive)
ROOT
ATOM      1  C   UNL d   1      -0.313  -1.352   0.417  0.00  0.00     0.020 A 
ATOM      2  C1  UNL d   1      -0.619  -0.310   1.292  0.00  0.00     0.020 A 
ATOM      3  C2  UNL d   1      -0.278   1.003   0.961  0.00  0.00     0.034 A 
ATOM      4  C3  UNL d   1       0.372   1.277  -0.248  0.00  0.00     0.017 A 
ATOM      5  C4  UNL d   1       0.679   0.231  -1.125  0.00  0.00     0.017 A 
ATOM      6  C5  UNL d   1       0.334  -1.082  -0.789  0.00  0.00     0.034 A 
ATOM      7 Cl   UNL d   1       1.479   0.492  -2.635  0.00  0.00    -0.070 Cl
ATOM      8 Cl1  UNL d   1       0.765   2.924  -0.593  0.00  0.00    -0.070 Cl
ENDROOT
TORSDOF 0
ENDMDL
