MODEL 1
REMARK minimizedAffinity -4.1036377
REMARK minimizedRMSD -1
REMARK  0 active torsions:
REMARK  status: ('A' for Active; 'I' for Inactive)
ROOT
ATOM      1  C   UNL d   1      -0.170   0.372   0.990  0.00  0.00     0.020 A 
ATOM      2  C1  UNL d   1       0.407   1.451   0.321  0.00  0.00     0.020 A 
ATOM      3  C2  UNL d   1       0.984   1.264  -0.937  0.00  0.00     0.034 A 
ATOM      4  C3  UNL d   1       0.985  -0.004  -1.530  0.00  0.00     0.017 A 
ATOM      5  C4  UNL d   1       0.405  -1.086  -0.857  0.00  0.00     0.017 A 
ATOM      6  C5  UNL d   1      -0.171  -0.893   0.403  0.00  0.00     0.034 A 
ATOM      7 Cl   UNL d   1       0.368  -2.680  -1.524  0.00  0.00    -0.070 Cl
ATOM      8 Cl1  UNL d   1       1.715  -0.163  -3.088  0.00  0.00    -0.070 Cl
ENDROOT
TORSDOF 0
ENDMDL
