MODEL 1
REMARK minimizedAffinity -0.610046327
REMARK minimizedRMSD -1
REMARK  0 active torsions:
REMARK  status: ('A' for Active; 'I' for Inactive)
ROOT
ATOM      1  C   UNL d   1      -0.832  -1.343   0.330  0.00  0.00     0.020 A 
ATOM      2  C1  UNL d   1      -1.202  -0.318   1.198  0.00  0.00     0.020 A 
ATOM      3  C2  UNL d   1      -0.619   0.946   1.076  0.00  0.00     0.034 A 
ATOM      4  C3  UNL d   1       0.337   1.186   0.082  0.00  0.00     0.017 A 
ATOM      5  C4  UNL d   1       0.707   0.156  -0.790  0.00  0.00     0.017 A 
ATOM      6  C5  UNL d   1       0.121  -1.107  -0.663  0.00  0.00     0.034 A 
ATOM      7 Cl   UNL d   1       1.879   0.377  -2.041  0.00  0.00    -0.070 Cl
ATOM      8 Cl1  UNL d   1       1.016   2.772  -0.013  0.00  0.00    -0.070 Cl
ENDROOT
TORSDOF 0
ENDMDL
