MODEL 1
REMARK minimizedAffinity -4.30725765
REMARK minimizedRMSD -1
REMARK  0 active torsions:
REMARK  status: ('A' for Active; 'I' for Inactive)
ROOT
ATOM      1  C   UNL d   1       0.511  -0.896  -2.658  0.00  0.00     0.020 A 
ATOM      2  C1  UNL d   1       1.489   0.090  -2.786  0.00  0.00     0.020 A 
ATOM      3  C2  UNL d   1       1.741   0.965  -1.727  0.00  0.00     0.034 A 
ATOM      4  C3  UNL d   1       1.014   0.856  -0.536  0.00  0.00     0.017 A 
ATOM      5  C4  UNL d   1       0.033  -0.133  -0.409  0.00  0.00     0.017 A 
ATOM      6  C5  UNL d   1      -0.215  -1.007  -1.472  0.00  0.00     0.034 A 
ATOM      7 Cl   UNL d   1      -0.905  -0.329   1.030  0.00  0.00    -0.070 Cl
ATOM      8 Cl1  UNL d   1       1.379   1.972   0.732  0.00  0.00    -0.070 Cl
ENDROOT
TORSDOF 0
ENDMDL
