MODEL 1
REMARK minimizedAffinity -1.16494763
REMARK minimizedRMSD -1
REMARK  0 active torsions:
REMARK  status: ('A' for Active; 'I' for Inactive)
ROOT
ATOM      1  C   UNL d   1      -0.078  -0.547  -0.514  0.00  0.00     0.020 A 
ATOM      2  C1  UNL d   1       0.492   0.371   0.368  0.00  0.00     0.020 A 
ATOM      3  C2  UNL d   1      -0.216   0.787   1.497  0.00  0.00     0.034 A 
ATOM      4  C3  UNL d   1      -1.499   0.286   1.748  0.00  0.00     0.017 A 
ATOM      5  C4  UNL d   1      -2.070  -0.636   0.863  0.00  0.00     0.017 A 
ATOM      6  C5  UNL d   1      -1.356  -1.049  -0.266  0.00  0.00     0.034 A 
ATOM      7 Cl   UNL d   1      -3.647  -1.299   1.106  0.00  0.00    -0.070 Cl
ATOM      8 Cl1  UNL d   1      -2.317   0.844   3.164  0.00  0.00    -0.070 Cl
ENDROOT
TORSDOF 0
ENDMDL
