MODEL 1
REMARK minimizedAffinity -4.61775732
REMARK minimizedRMSD -1
REMARK  0 active torsions:
REMARK  status: ('A' for Active; 'I' for Inactive)
ROOT
ATOM      1  C   UNL d   1       1.952  -1.628  -2.486  0.00  0.00     0.020 A 
ATOM      2  C1  UNL d   1       2.392  -0.360  -2.864  0.00  0.00     0.020 A 
ATOM      3  C2  UNL d   1       1.963   0.767  -2.159  0.00  0.00     0.034 A 
ATOM      4  C3  UNL d   1       1.092   0.628  -1.073  0.00  0.00     0.017 A 
ATOM      5  C4  UNL d   1       0.651  -0.645  -0.695  0.00  0.00     0.017 A 
ATOM      6  C5  UNL d   1       1.084  -1.770  -1.404  0.00  0.00     0.034 A 
ATOM      7 Cl   UNL d   1      -0.425  -0.896   0.635  0.00  0.00    -0.070 Cl
ATOM      8 Cl1  UNL d   1       0.602   2.064  -0.247  0.00  0.00    -0.070 Cl
ENDROOT
TORSDOF 0
ENDMDL
