MODEL 1
REMARK minimizedAffinity -2.48831654
REMARK minimizedRMSD -1
REMARK  0 active torsions:
REMARK  status: ('A' for Active; 'I' for Inactive)
ROOT
ATOM      1  C   UNL d   1      -0.342   0.114   1.528  0.00  0.00     0.020 A 
ATOM      2  C1  UNL d   1      -0.002   1.304   0.885  0.00  0.00     0.020 A 
ATOM      3  C2  UNL d   1       0.486   1.276  -0.423  0.00  0.00     0.034 A 
ATOM      4  C3  UNL d   1       0.636   0.056  -1.092  0.00  0.00     0.017 A 
ATOM      5  C4  UNL d   1       0.295  -1.137  -0.446  0.00  0.00     0.017 A 
ATOM      6  C5  UNL d   1      -0.194  -1.104   0.864  0.00  0.00     0.034 A 
ATOM      7 Cl   UNL d   1       0.452  -2.681  -1.207  0.00  0.00    -0.070 Cl
ATOM      8 Cl1  UNL d   1       1.246   0.097  -2.708  0.00  0.00    -0.070 Cl
ENDROOT
TORSDOF 0
ENDMDL
