MODEL 1
REMARK minimizedAffinity -4.58500004
REMARK minimizedRMSD -1
REMARK  0 active torsions:
REMARK  status: ('A' for Active; 'I' for Inactive)
ROOT
ATOM      1  C   UNL d   1       1.937  -1.417  -2.661  0.00  0.00     0.020 A 
ATOM      2  C1  UNL d   1       1.411  -2.427  -1.856  0.00  0.00     0.020 A 
ATOM      3  C2  UNL d   1       0.633  -2.098  -0.744  0.00  0.00     0.034 A 
ATOM      4  C3  UNL d   1       0.379  -0.757  -0.433  0.00  0.00     0.017 A 
ATOM      5  C4  UNL d   1       0.908   0.255  -1.242  0.00  0.00     0.017 A 
ATOM      6  C5  UNL d   1       1.686  -0.079  -2.354  0.00  0.00     0.034 A 
ATOM      7 Cl   UNL d   1       0.639   1.932  -0.922  0.00  0.00    -0.070 Cl
ATOM      8 Cl1  UNL d   1      -0.591  -0.424   0.957  0.00  0.00    -0.070 Cl
ENDROOT
TORSDOF 0
ENDMDL
