MODEL 1
REMARK minimizedAffinity -4.16571236
REMARK minimizedRMSD -1
REMARK  0 active torsions:
REMARK  status: ('A' for Active; 'I' for Inactive)
ROOT
ATOM      1  C   UNL d   1       0.398  -0.856  -2.373  0.00  0.00     0.020 A 
ATOM      2  C1  UNL d   1       1.116   0.295  -2.693  0.00  0.00     0.020 A 
ATOM      3  C2  UNL d   1       1.351   1.266  -1.717  0.00  0.00     0.034 A 
ATOM      4  C3  UNL d   1       0.867   1.087  -0.416  0.00  0.00     0.017 A 
ATOM      5  C4  UNL d   1       0.146  -0.069  -0.095  0.00  0.00     0.017 A 
ATOM      6  C5  UNL d   1      -0.086  -1.038  -1.077  0.00  0.00     0.034 A 
ATOM      7 Cl   UNL d   1      -0.484  -0.360   1.488  0.00  0.00    -0.070 Cl
ATOM      8 Cl1  UNL d   1       1.194   2.328   0.741  0.00  0.00    -0.070 Cl
ENDROOT
TORSDOF 0
ENDMDL
