MODEL 1
REMARK minimizedAffinity 6.16497946
REMARK minimizedRMSD -1
REMARK  0 active torsions:
REMARK  status: ('A' for Active; 'I' for Inactive)
ROOT
ATOM      1  C   UNL d   1       0.807  -3.435   2.723  0.00  0.00     0.077 C 
ATOM      2  C1  UNL d   1       1.850  -2.528   2.141  0.00  0.00    -0.074 A 
ATOM      3  C2  UNL d   1       3.172  -2.957   1.987  0.00  0.00    -0.005 A 
ATOM      4  C3  UNL d   1       4.128  -2.105   1.435  0.00  0.00     0.006 A 
ATOM      5  C4  UNL d   1       3.773  -0.817   1.033  0.00  0.00    -0.005 A 
ATOM      6  C5  UNL d   1       2.456  -0.370   1.178  0.00  0.00    -0.074 A 
ATOM      7  C6  UNL d   1       2.055   1.008   0.742  0.00  0.00     0.077 C 
ATOM      8  C7  UNL d   1       1.499  -1.235   1.727  0.00  0.00    -0.001 A 
ENDROOT
TORSDOF 0
ENDMDL
