MODEL 1
REMARK minimizedAffinity 1.77523196
REMARK minimizedRMSD -1
REMARK  0 active torsions:
REMARK  status: ('A' for Active; 'I' for Inactive)
ROOT
ATOM      1  C   UNL d   1       2.574   1.811   0.532  0.00  0.00     0.077 C 
ATOM      2  C1  UNL d   1       2.279   0.443   1.071  0.00  0.00    -0.074 A 
ATOM      3  C2  UNL d   1       0.977  -0.067   1.063  0.00  0.00    -0.005 A 
ATOM      4  C3  UNL d   1       0.719  -1.345   1.559  0.00  0.00     0.006 A 
ATOM      5  C4  UNL d   1       1.760  -2.125   2.067  0.00  0.00    -0.005 A 
ATOM      6  C5  UNL d   1       3.068  -1.631   2.083  0.00  0.00    -0.074 A 
ATOM      7  C6  UNL d   1       4.199  -2.459   2.616  0.00  0.00     0.077 C 
ATOM      8  C7  UNL d   1       3.320  -0.349   1.576  0.00  0.00    -0.001 A 
ENDROOT
TORSDOF 0
ENDMDL
