MODEL 1
REMARK minimizedAffinity 2.4584341
REMARK minimizedRMSD -1
REMARK  0 active torsions:
REMARK  status: ('A' for Active; 'I' for Inactive)
ROOT
ATOM      1  C   UNL d   1      -1.290  -2.113   1.816  0.00  0.00     0.077 C 
ATOM      2  C1  UNL d   1       0.195  -1.909   1.859  0.00  0.00    -0.074 A 
ATOM      3  C2  UNL d   1       1.073  -2.995   1.784  0.00  0.00    -0.005 A 
ATOM      4  C3  UNL d   1       2.452  -2.789   1.816  0.00  0.00     0.006 A 
ATOM      5  C4  UNL d   1       2.967  -1.496   1.922  0.00  0.00    -0.005 A 
ATOM      6  C5  UNL d   1       2.105  -0.398   1.997  0.00  0.00    -0.074 A 
ATOM      7  C6  UNL d   1       2.642   0.999   2.102  0.00  0.00     0.077 C 
ATOM      8  C7  UNL d   1       0.720  -0.612   1.958  0.00  0.00    -0.001 A 
ENDROOT
TORSDOF 0
ENDMDL
