MODEL 1
REMARK minimizedAffinity 0.770030916
REMARK minimizedRMSD -1
REMARK  0 active torsions:
REMARK  status: ('A' for Active; 'I' for Inactive)
ROOT
ATOM      1  C   UNL d   1      -2.293  -0.162   0.050  0.00  0.00     0.077 C 
ATOM      2  C1  UNL d   1      -1.047  -0.934  -0.266  0.00  0.00    -0.074 A 
ATOM      3  C2  UNL d   1      -0.743  -1.302  -1.580  0.00  0.00    -0.005 A 
ATOM      4  C3  UNL d   1       0.425  -2.013  -1.859  0.00  0.00     0.006 A 
ATOM      5  C4  UNL d   1       1.298  -2.361  -0.829  0.00  0.00    -0.005 A 
ATOM      6  C5  UNL d   1       1.011  -2.001   0.492  0.00  0.00    -0.074 A 
ATOM      7  C6  UNL d   1       1.945  -2.359   1.610  0.00  0.00     0.077 C 
ATOM      8  C7  UNL d   1      -0.160  -1.281   0.763  0.00  0.00    -0.001 A 
ENDROOT
TORSDOF 0
ENDMDL
