MODEL 1
REMARK minimizedAffinity 3.095716
REMARK minimizedRMSD -1
REMARK  0 active torsions:
REMARK  status: ('A' for Active; 'I' for Inactive)
ROOT
ATOM      1  C   UNL d   1       0.184  -2.243  -1.376  0.00  0.00     0.077 C 
ATOM      2  C1  UNL d   1       0.790  -2.085  -0.013  0.00  0.00    -0.074 A 
ATOM      3  C2  UNL d   1      -0.017  -1.985   1.125  0.00  0.00    -0.005 A 
ATOM      4  C3  UNL d   1       0.560  -1.848   2.387  0.00  0.00     0.006 A 
ATOM      5  C4  UNL d   1       1.948  -1.810   2.524  0.00  0.00    -0.005 A 
ATOM      6  C5  UNL d   1       2.772  -1.910   1.398  0.00  0.00    -0.074 A 
ATOM      7  C6  UNL d   1       4.265  -1.881   1.528  0.00  0.00     0.077 C 
ATOM      8  C7  UNL d   1       2.184  -2.054   0.133  0.00  0.00    -0.001 A 
ENDROOT
TORSDOF 0
ENDMDL
