MODEL 1
REMARK minimizedAffinity 0.635518849
REMARK minimizedRMSD -1
REMARK  0 active torsions:
REMARK  status: ('A' for Active; 'I' for Inactive)
ROOT
ATOM      1  C   UNL d   1       0.415  -3.534   4.087  0.00  0.00     0.077 C 
ATOM      2  C1  UNL d   1       0.833  -2.645   2.954  0.00  0.00    -0.074 A 
ATOM      3  C2  UNL d   1       2.180  -2.516   2.601  0.00  0.00    -0.005 A 
ATOM      4  C3  UNL d   1       2.553  -1.693   1.539  0.00  0.00     0.006 A 
ATOM      5  C4  UNL d   1       1.585  -0.991   0.820  0.00  0.00    -0.005 A 
ATOM      6  C5  UNL d   1       0.233  -1.108   1.158  0.00  0.00    -0.074 A 
ATOM      7  C6  UNL d   1      -0.822  -0.368   0.390  0.00  0.00     0.077 C 
ATOM      8  C7  UNL d   1      -0.135  -1.943   2.222  0.00  0.00    -0.001 A 
ENDROOT
TORSDOF 0
ENDMDL
