MODEL 1
REMARK minimizedAffinity -3.63772225
REMARK minimizedRMSD -1
REMARK  2 active torsions:
REMARK  status: ('A' for Active; 'I' for Inactive)
REMARK    1  A    between atoms: C1_2  and  C2_3 
REMARK    2  A    between atoms: C2_3  and  C3_4 
ROOT
ATOM      1  C3  UNL d   1       0.189  -0.195   0.127  0.00  0.00    -0.075 A 
ATOM      2  C4  UNL d   1       1.129   0.314   1.036  0.00  0.00     0.002 A 
ATOM      3  C5  UNL d   1       2.363  -0.315   1.205  0.00  0.00     0.002 A 
ATOM      4  C6  UNL d   1       2.669  -1.463   0.478  0.00  0.00    -0.004 A 
ATOM      5  C7  UNL d   1       1.736  -1.987  -0.415  0.00  0.00     0.002 A 
ATOM      6  C8  UNL d   1       0.503  -1.358  -0.590  0.00  0.00     0.002 A 
ENDROOT
BRANCH   1   7
ATOM      7  C2  UNL d   1      -1.136   0.497  -0.082  0.00  0.00     0.056 C 
BRANCH   7   8
ATOM      8  C1  UNL d   1      -2.118   0.329   1.082  0.00  0.00     0.007 C 
ATOM      9  C   UNL d   1      -3.577   0.425   0.656  0.00  0.00     0.009 C 
ENDBRANCH   7   8
ENDBRANCH   1   7
TORSDOF 2
ENDMDL
