MODEL 1
REMARK minimizedAffinity -3.61587834
REMARK minimizedRMSD -1
REMARK  2 active torsions:
REMARK  status: ('A' for Active; 'I' for Inactive)
REMARK    1  A    between atoms: C1_2  and  C2_3 
REMARK    2  A    between atoms: C2_3  and  C3_4 
ROOT
ATOM      1  C3  UNL d   1      -0.225  -0.119   0.088  0.00  0.00    -0.075 A 
ATOM      2  C4  UNL d   1       0.269  -1.335  -0.406  0.00  0.00     0.002 A 
ATOM      3  C5  UNL d   1       1.548  -1.772  -0.062  0.00  0.00     0.002 A 
ATOM      4  C6  UNL d   1       2.352  -0.997   0.770  0.00  0.00    -0.004 A 
ATOM      5  C7  UNL d   1       1.878   0.221   1.253  0.00  0.00     0.002 A 
ATOM      6  C8  UNL d   1       0.597   0.659   0.914  0.00  0.00     0.002 A 
ENDROOT
BRANCH   1   7
ATOM      7  C2  UNL d   1      -1.620   0.346  -0.257  0.00  0.00     0.056 C 
BRANCH   7   8
ATOM      8  C1  UNL d   1      -2.472   0.718   0.961  0.00  0.00     0.007 C 
ATOM      9  C   UNL d   1      -3.944   0.367   0.794  0.00  0.00     0.009 C 
ENDBRANCH   7   8
ENDBRANCH   1   7
TORSDOF 2
ENDMDL
