MODEL 1
REMARK minimizedAffinity -2.38609886
REMARK minimizedRMSD -1
REMARK  2 active torsions:
REMARK  status: ('A' for Active; 'I' for Inactive)
REMARK    1  A    between atoms: C1_2  and  C2_3 
REMARK    2  A    between atoms: C2_3  and  C3_4 
ROOT
ATOM      1  C3  UNL d   1       0.286  -0.205   0.249  0.00  0.00    -0.075 A 
ATOM      2  C4  UNL d   1       0.443  -1.300  -0.614  0.00  0.00     0.002 A 
ATOM      3  C5  UNL d   1       1.594  -2.086  -0.558  0.00  0.00     0.002 A 
ATOM      4  C6  UNL d   1       2.606  -1.782   0.350  0.00  0.00    -0.004 A 
ATOM      5  C7  UNL d   1       2.468  -0.687   1.201  0.00  0.00     0.002 A 
ATOM      6  C8  UNL d   1       1.315   0.098   1.151  0.00  0.00     0.002 A 
ENDROOT
BRANCH   1   7
ATOM      7  C2  UNL d   1      -0.970   0.632   0.215  0.00  0.00     0.056 C 
BRANCH   7   8
ATOM      8  C1  UNL d   1      -1.698   0.720   1.560  0.00  0.00     0.007 C 
ATOM      9  C   UNL d   1      -3.182   1.034   1.421  0.00  0.00     0.009 C 
ENDBRANCH   7   8
ENDBRANCH   1   7
TORSDOF 2
ENDMDL
