MODEL 1
REMARK minimizedAffinity -5.63400221
REMARK minimizedRMSD -1
REMARK  2 active torsions:
REMARK  status: ('A' for Active; 'I' for Inactive)
REMARK    1  A    between atoms: C1_2  and  C2_3 
REMARK    2  A    between atoms: C2_3  and  C3_4 
ROOT
ATOM      1  C3  UNL d   1      -0.297  -0.290  -0.376  0.00  0.00    -0.075 A 
ATOM      2  C4  UNL d   1      -0.319  -1.674  -0.605  0.00  0.00     0.002 A 
ATOM      3  C5  UNL d   1       0.816  -2.449  -0.370  0.00  0.00     0.002 A 
ATOM      4  C6  UNL d   1       1.990  -1.851   0.085  0.00  0.00    -0.004 A 
ATOM      5  C7  UNL d   1       2.028  -0.475   0.299  0.00  0.00     0.002 A 
ATOM      6  C8  UNL d   1       0.892   0.302   0.070  0.00  0.00     0.002 A 
ENDROOT
BRANCH   1   7
ATOM      7  C2  UNL d   1      -1.531   0.550  -0.600  0.00  0.00     0.056 C 
BRANCH   7   8
ATOM      8  C1  UNL d   1      -2.502   0.561   0.586  0.00  0.00     0.007 C 
ATOM      9  C   UNL d   1      -3.905   1.019   0.209  0.00  0.00     0.009 C 
ENDBRANCH   7   8
ENDBRANCH   1   7
TORSDOF 2
ENDMDL
