MODEL 1
REMARK minimizedAffinity -5.61139917
REMARK minimizedRMSD -1
REMARK  2 active torsions:
REMARK  status: ('A' for Active; 'I' for Inactive)
REMARK    1  A    between atoms: C1_2  and  C2_3 
REMARK    2  A    between atoms: C2_3  and  C3_4 
ROOT
ATOM      1  C3  UNL d   1       0.269  -0.079  -0.130  0.00  0.00    -0.075 A 
ATOM      2  C4  UNL d   1       0.662  -1.245  -0.801  0.00  0.00     0.002 A 
ATOM      3  C5  UNL d   1       1.830  -1.914  -0.433  0.00  0.00     0.002 A 
ATOM      4  C6  UNL d   1       2.623  -1.421   0.600  0.00  0.00    -0.004 A 
ATOM      5  C7  UNL d   1       2.251  -0.253   1.262  0.00  0.00     0.002 A 
ATOM      6  C8  UNL d   1       1.080   0.416   0.900  0.00  0.00     0.002 A 
ENDROOT
BRANCH   1   7
ATOM      7  C2  UNL d   1      -1.010   0.634  -0.503  0.00  0.00     0.056 C 
BRANCH   7   8
ATOM      8  C1  UNL d   1      -2.279  -0.053   0.011  0.00  0.00     0.007 C 
ATOM      9  C   UNL d   1      -3.198   0.884   0.783  0.00  0.00     0.009 C 
ENDBRANCH   7   8
ENDBRANCH   1   7
TORSDOF 2
ENDMDL
