MODEL 1
REMARK minimizedAffinity -4.08932447
REMARK minimizedRMSD -1
REMARK  2 active torsions:
REMARK  status: ('A' for Active; 'I' for Inactive)
REMARK    1  A    between atoms: C1_2  and  C2_3 
REMARK    2  A    between atoms: C2_3  and  C3_4 
ROOT
ATOM      1  C3  UNL d   1       1.219   0.917   0.281  0.00  0.00    -0.075 A 
ATOM      2  C4  UNL d   1       2.273   1.842   0.268  0.00  0.00     0.002 A 
ATOM      3  C5  UNL d   1       3.593   1.411   0.130  0.00  0.00     0.002 A 
ATOM      4  C6  UNL d   1       3.876   0.052   0.013  0.00  0.00    -0.004 A 
ATOM      5  C7  UNL d   1       2.839  -0.877   0.042  0.00  0.00     0.002 A 
ATOM      6  C8  UNL d   1       1.517  -0.448   0.176  0.00  0.00     0.002 A 
ENDROOT
BRANCH   1   7
ATOM      7  C2  UNL d   1      -0.213   1.379   0.401  0.00  0.00     0.056 C 
BRANCH   7   8
ATOM      8  C1  UNL d   1      -1.213   0.523  -0.384  0.00  0.00     0.007 C 
ATOM      9  C   UNL d   1      -2.665   0.847  -0.061  0.00  0.00     0.009 C 
ENDBRANCH   7   8
ENDBRANCH   1   7
TORSDOF 2
ENDMDL
