MODEL 1
REMARK minimizedAffinity -5.05664587
REMARK minimizedRMSD -1
REMARK  2 active torsions:
REMARK  status: ('A' for Active; 'I' for Inactive)
REMARK    1  A    between atoms: C1_2  and  C2_3 
REMARK    2  A    between atoms: C2_3  and  C3_4 
ROOT
ATOM      1  C3  UNL d   1       0.729   0.011  -0.546  0.00  0.00    -0.075 A 
ATOM      2  C4  UNL d   1       1.410   1.218  -0.337  0.00  0.00     0.002 A 
ATOM      3  C5  UNL d   1       2.804   1.246  -0.283  0.00  0.00     0.002 A 
ATOM      4  C6  UNL d   1       3.533   0.067  -0.427  0.00  0.00    -0.004 A 
ATOM      5  C7  UNL d   1       2.866  -1.141  -0.619  0.00  0.00     0.002 A 
ATOM      6  C8  UNL d   1       1.472  -1.171  -0.677  0.00  0.00     0.002 A 
ENDROOT
BRANCH   1   7
ATOM      7  C2  UNL d   1      -0.778  -0.021  -0.634  0.00  0.00     0.056 C 
BRANCH   7   8
ATOM      8  C1  UNL d   1      -1.487   0.309   0.684  0.00  0.00     0.007 C 
ATOM      9  C   UNL d   1      -2.938   0.732   0.495  0.00  0.00     0.009 C 
ENDBRANCH   7   8
ENDBRANCH   1   7
TORSDOF 2
ENDMDL
