MODEL 1
REMARK minimizedAffinity -4.55758619
REMARK minimizedRMSD -1
REMARK  2 active torsions:
REMARK  status: ('A' for Active; 'I' for Inactive)
REMARK    1  A    between atoms: C1_2  and  C2_3 
REMARK    2  A    between atoms: C2_3  and  C3_4 
ROOT
ATOM      1  C3  UNL d   1      -0.267   0.836   0.171  0.00  0.00    -0.075 A 
ATOM      2  C4  UNL d   1       0.090  -0.475   0.519  0.00  0.00     0.002 A 
ATOM      3  C5  UNL d   1       1.376  -0.760   0.980  0.00  0.00     0.002 A 
ATOM      4  C6  UNL d   1       2.322   0.257   1.088  0.00  0.00    -0.004 A 
ATOM      5  C7  UNL d   1       1.983   1.560   0.729  0.00  0.00     0.002 A 
ATOM      6  C8  UNL d   1       0.696   1.849   0.272  0.00  0.00     0.002 A 
ENDROOT
BRANCH   1   7
ATOM      7  C2  UNL d   1      -1.666   1.156  -0.300  0.00  0.00     0.056 C 
BRANCH   7   8
ATOM      8  C1  UNL d   1      -2.640   1.505   0.830  0.00  0.00     0.007 C 
ATOM      9  C   UNL d   1      -4.006   0.851   0.668  0.00  0.00     0.009 C 
ENDBRANCH   7   8
ENDBRANCH   1   7
TORSDOF 2
ENDMDL
