MODEL 1
REMARK minimizedAffinity 0.661832631
REMARK minimizedRMSD -1
REMARK  0 active torsions:
REMARK  status: ('A' for Active; 'I' for Inactive)
ROOT
ATOM      1  N1  IND d   1      -2.223  -0.030   0.788  0.00  0.00    -0.196 N 
ATOM      2  C2  IND d   1      -1.755  -1.159   1.401  0.00  0.00     0.054 A 
ATOM      3  C3  IND d   1      -1.775  -2.203   0.542  0.00  0.00    -0.031 A 
ATOM      4  C4  IND d   1      -2.440  -2.263  -1.944  0.00  0.00     0.051 A 
ATOM      5  C5  IND d   1      -2.967  -1.487  -2.937  0.00  0.00    -0.031 A 
ATOM      6  C6  IND d   1      -3.277  -0.157  -2.736  0.00  0.00     0.015 A 
ATOM      7  C7  IND d   1      -3.060   0.451  -1.532  0.00  0.00    -0.016 A 
ATOM      8  C8  IND d   1      -2.531  -0.337  -0.519  0.00  0.00    -0.047 A 
ATOM      9  C9  IND d   1      -2.254  -1.697  -0.705  0.00  0.00    -0.096 A 
ATOM     10  HN1 IND d   1      -2.310   0.741   1.157  0.00  0.00     0.298 HD
ENDROOT
TORSDOF 0
ENDMDL
