MODEL 1
REMARK minimizedAffinity 9.37310219
REMARK minimizedRMSD -1
REMARK  0 active torsions:
REMARK  status: ('A' for Active; 'I' for Inactive)
ROOT
ATOM      1  N1  IND d   1       0.609  -1.121   5.255  0.00  0.00    -0.196 N 
ATOM      2  C2  IND d   1       1.123  -2.146   5.999  0.00  0.00     0.054 A 
ATOM      3  C3  IND d   1       2.106  -2.776   5.318  0.00  0.00    -0.031 A 
ATOM      4  C4  IND d   1       3.105  -2.228   3.009  0.00  0.00     0.051 A 
ATOM      5  C5  IND d   1       2.939  -1.403   1.932  0.00  0.00    -0.031 A 
ATOM      6  C6  IND d   1       1.971  -0.420   1.909  0.00  0.00     0.015 A 
ATOM      7  C7  IND d   1       1.136  -0.217   2.971  0.00  0.00    -0.016 A 
ATOM      8  C8  IND d   1       1.296  -1.058   4.063  0.00  0.00    -0.047 A 
ATOM      9  C9  IND d   1       2.249  -2.084   4.076  0.00  0.00    -0.096 A 
ATOM     10  HN1 IND d   1      -0.035  -0.603   5.492  0.00  0.00     0.298 HD
ENDROOT
TORSDOF 0
ENDMDL
