MODEL 1
REMARK minimizedAffinity 10.019186
REMARK minimizedRMSD -1
REMARK  0 active torsions:
REMARK  status: ('A' for Active; 'I' for Inactive)
ROOT
ATOM      1  N1  IND d   1       0.945  -0.267   2.558  0.00  0.00    -0.196 N 
ATOM      2  C2  IND d   1       1.355  -0.747   1.346  0.00  0.00     0.054 A 
ATOM      3  C3  IND d   1       2.046  -1.899   1.505  0.00  0.00    -0.031 A 
ATOM      4  C4  IND d   1       2.533  -3.229   3.655  0.00  0.00     0.051 A 
ATOM      5  C5  IND d   1       2.393  -3.170   5.013  0.00  0.00    -0.031 A 
ATOM      6  C6  IND d   1       1.747  -2.121   5.635  0.00  0.00     0.015 A 
ATOM      7  C7  IND d   1       1.205  -1.092   4.917  0.00  0.00    -0.016 A 
ATOM      8  C8  IND d   1       1.352  -1.145   3.538  0.00  0.00    -0.047 A 
ATOM      9  C9  IND d   1       2.044  -2.186   2.905  0.00  0.00    -0.096 A 
ATOM     10  HN1 IND d   1       0.506   0.461   2.686  0.00  0.00     0.298 HD
ENDROOT
TORSDOF 0
ENDMDL
