MODEL 1
REMARK minimizedAffinity 2.84368467
REMARK minimizedRMSD -1
REMARK  0 active torsions:
REMARK  status: ('A' for Active; 'I' for Inactive)
ROOT
ATOM      1  C   UNL d   1       1.489   3.750  -5.974  0.00  0.00     0.023 A 
ATOM      2  C1  UNL d   1       1.572   5.142  -5.985  0.00  0.00     0.003 A 
ATOM      3  C2  UNL d   1       2.820   5.769  -5.992  0.00  0.00     0.048 A 
ATOM      4  C3  UNL d   1       3.982   4.997  -5.989  0.00  0.00     0.023 A 
ATOM      5  C4  UNL d   1       3.903   3.603  -5.979  0.00  0.00     0.048 A 
ATOM      6  C5  UNL d   1       2.653   2.981  -5.971  0.00  0.00     0.003 A 
ATOM      7  I   UNL d   1       5.840   5.926  -5.999  0.00  0.00    -0.146 I 
ENDROOT
TORSDOF 0
ENDMDL
