MODEL 1
REMARK minimizedAffinity 2.1682806
REMARK minimizedRMSD -1
REMARK  0 active torsions:
REMARK  status: ('A' for Active; 'I' for Inactive)
ROOT
ATOM      1  C   UNL d   1       4.782  -4.677   1.037  0.00  0.00     0.023 A 
ATOM      2  C1  UNL d   1       4.063  -4.274  -0.088  0.00  0.00     0.003 A 
ATOM      3  C2  UNL d   1       2.892  -3.528   0.060  0.00  0.00     0.048 A 
ATOM      4  C3  UNL d   1       2.446  -3.188   1.336  0.00  0.00     0.023 A 
ATOM      5  C4  UNL d   1       3.163  -3.588   2.465  0.00  0.00     0.048 A 
ATOM      6  C5  UNL d   1       4.333  -4.334   2.312  0.00  0.00     0.003 A 
ATOM      7  I   UNL d   1       0.703  -2.077   1.560  0.00  0.00    -0.146 I 
ENDROOT
TORSDOF 0
ENDMDL
