MODEL 1
REMARK minimizedAffinity 2.35229969
REMARK minimizedRMSD -1
REMARK  0 active torsions:
REMARK  status: ('A' for Active; 'I' for Inactive)
ROOT
ATOM      1  C   UNL d   1       5.826  -5.708  -2.544  0.00  0.00     0.023 A 
ATOM      2  C1  UNL d   1       5.996  -5.999  -1.190  0.00  0.00     0.003 A 
ATOM      3  C2  UNL d   1       5.168  -5.403  -0.237  0.00  0.00     0.048 A 
ATOM      4  C3  UNL d   1       4.172  -4.517  -0.645  0.00  0.00     0.023 A 
ATOM      5  C4  UNL d   1       3.997  -4.223  -1.998  0.00  0.00     0.048 A 
ATOM      6  C5  UNL d   1       4.828  -4.821  -2.947  0.00  0.00     0.003 A 
ATOM      7  I   UNL d   1       2.938  -3.628   0.772  0.00  0.00    -0.146 I 
ENDROOT
TORSDOF 0
ENDMDL
