MODEL 1
REMARK minimizedAffinity 0.0983541608
REMARK minimizedRMSD -1
REMARK  0 active torsions:
REMARK  status: ('A' for Active; 'I' for Inactive)
ROOT
ATOM      1  C   UNL d   1       5.770   2.665  -5.989  0.00  0.00     0.023 A 
ATOM      2  C1  UNL d   1       4.722   1.745  -5.987  0.00  0.00     0.003 A 
ATOM      3  C2  UNL d   1       3.399   2.193  -5.989  0.00  0.00     0.048 A 
ATOM      4  C3  UNL d   1       3.132   3.561  -5.994  0.00  0.00     0.023 A 
ATOM      5  C4  UNL d   1       4.178   4.485  -5.996  0.00  0.00     0.048 A 
ATOM      6  C5  UNL d   1       5.499   4.033  -5.993  0.00  0.00     0.003 A 
ATOM      7  I   UNL d   1       1.164   4.230  -5.997  0.00  0.00    -0.146 I 
ENDROOT
TORSDOF 0
ENDMDL
