MODEL 1
REMARK minimizedAffinity 11.040761
REMARK minimizedRMSD -1
REMARK  0 active torsions:
REMARK  status: ('A' for Active; 'I' for Inactive)
ROOT
ATOM      1  C   UNL d   1       5.658  -3.231   5.993  0.00  0.00     0.023 A 
ATOM      2  C1  UNL d   1       5.926  -2.590   4.783  0.00  0.00     0.003 A 
ATOM      3  C2  UNL d   1       5.604  -3.213   3.576  0.00  0.00     0.048 A 
ATOM      4  C3  UNL d   1       5.013  -4.476   3.585  0.00  0.00     0.023 A 
ATOM      5  C4  UNL d   1       4.743  -5.121   4.793  0.00  0.00     0.048 A 
ATOM      6  C5  UNL d   1       5.067  -4.495   5.998  0.00  0.00     0.003 A 
ATOM      7  I   UNL d   1       4.532  -5.405   1.789  0.00  0.00    -0.146 I 
ENDROOT
TORSDOF 0
ENDMDL
