MODEL 1
REMARK minimizedAffinity 8.61155605
REMARK minimizedRMSD -1
REMARK  0 active torsions:
REMARK  status: ('A' for Active; 'I' for Inactive)
ROOT
ATOM      1  C   UNL d   1       3.053   2.480  -5.999  0.00  0.00     0.023 A 
ATOM      2  C1  UNL d   1       2.754   1.331  -5.267  0.00  0.00     0.003 A 
ATOM      3  C2  UNL d   1       1.569   1.259  -4.532  0.00  0.00     0.048 A 
ATOM      4  C3  UNL d   1       0.687   2.339  -4.534  0.00  0.00     0.023 A 
ATOM      5  C4  UNL d   1       0.982   3.491  -5.266  0.00  0.00     0.048 A 
ATOM      6  C5  UNL d   1       2.168   3.559  -5.999  0.00  0.00     0.003 A 
ATOM      7  I   UNL d   1      -1.078   2.234  -3.441  0.00  0.00    -0.146 I 
ENDROOT
TORSDOF 0
ENDMDL
