MODEL 1
REMARK minimizedAffinity 7.21835899
REMARK minimizedRMSD -1
REMARK  0 active torsions:
REMARK  status: ('A' for Active; 'I' for Inactive)
ROOT
ATOM      1  C   UNL d   1       2.222  -3.852   0.434  0.00  0.00     0.023 A 
ATOM      2  C1  UNL d   1       3.606  -4.021   0.389  0.00  0.00     0.003 A 
ATOM      3  C2  UNL d   1       4.434  -2.940   0.078  0.00  0.00     0.048 A 
ATOM      4  C3  UNL d   1       3.871  -1.692  -0.187  0.00  0.00     0.023 A 
ATOM      5  C4  UNL d   1       2.487  -1.518  -0.143  0.00  0.00     0.048 A 
ATOM      6  C5  UNL d   1       1.663  -2.602   0.168  0.00  0.00     0.003 A 
ATOM      7  I   UNL d   1       5.100  -0.082  -0.650  0.00  0.00    -0.146 I 
ENDROOT
TORSDOF 0
ENDMDL
