MODEL 1
REMARK minimizedAffinity 5.3072958
REMARK minimizedRMSD -1
REMARK  0 active torsions:
REMARK  status: ('A' for Active; 'I' for Inactive)
ROOT
ATOM      1  C   UNL d   1       1.661  -2.521   1.470  0.00  0.00     0.023 A 
ATOM      2  C1  UNL d   1       0.942  -1.707   2.346  0.00  0.00     0.003 A 
ATOM      3  C2  UNL d   1       1.051  -0.318   2.259  0.00  0.00     0.048 A 
ATOM      4  C3  UNL d   1       1.881   0.251   1.294  0.00  0.00     0.023 A 
ATOM      5  C4  UNL d   1       2.602  -0.559   0.415  0.00  0.00     0.048 A 
ATOM      6  C5  UNL d   1       2.490  -1.947   0.506  0.00  0.00     0.003 A 
ATOM      7  I   UNL d   1       2.045   2.319   1.163  0.00  0.00    -0.146 I 
ENDROOT
TORSDOF 0
ENDMDL
