MODEL 1
REMARK minimizedAffinity 3.99044752
REMARK minimizedRMSD -1
REMARK  0 active torsions:
REMARK  status: ('A' for Active; 'I' for Inactive)
ROOT
ATOM      1  C   UNL d   1       2.984  -3.492   0.142  0.00  0.00     0.023 A 
ATOM      2  C1  UNL d   1       4.270  -3.962   0.410  0.00  0.00     0.003 A 
ATOM      3  C2  UNL d   1       4.778  -3.905   1.709  0.00  0.00     0.048 A 
ATOM      4  C3  UNL d   1       3.995  -3.378   2.736  0.00  0.00     0.023 A 
ATOM      5  C4  UNL d   1       2.708  -2.907   2.472  0.00  0.00     0.048 A 
ATOM      6  C5  UNL d   1       2.204  -2.966   1.171  0.00  0.00     0.003 A 
ATOM      7  I   UNL d   1       4.750  -3.291   4.670  0.00  0.00    -0.146 I 
ENDROOT
TORSDOF 0
ENDMDL
