MODEL 1
REMARK minimizedAffinity 7.86874056
REMARK minimizedRMSD -1
REMARK  1 active torsions:
REMARK  status: ('A' for Active; 'I' for Inactive)
REMARK    1  A    between atoms: C1_2  and  C2_3 
ROOT
ATOM      1  C2  UNL d   1       0.149   3.532   0.336  0.00  0.00    -0.073 A 
ATOM      2  C3  UNL d   1       0.389   3.437   1.712  0.00  0.00    -0.002 A 
ATOM      3  C4  UNL d   1      -0.121   2.363   2.443  0.00  0.00     0.004 A 
ATOM      4  C5  UNL d   1      -0.868   1.372   1.808  0.00  0.00    -0.004 A 
ATOM      5  C6  UNL d   1      -1.109   1.443   0.432  0.00  0.00    -0.075 A 
ATOM      6  C7  UNL d   1      -1.913   0.387  -0.267  0.00  0.00     0.076 C 
ATOM      7  C8  UNL d   1      -0.596   2.526  -0.296  0.00  0.00     0.001 A 
ENDROOT
BRANCH   1   8
ATOM      8  C1  UNL d   1       0.702   4.686  -0.459  0.00  0.00     0.053 C 
ATOM      9  C   UNL d   1       0.024   6.000  -0.105  0.00  0.00     0.018 C 
ENDBRANCH   1   8
TORSDOF 1
ENDMDL
