MODEL 1
REMARK minimizedAffinity 11.4316664
REMARK minimizedRMSD -1
REMARK  1 active torsions:
REMARK  status: ('A' for Active; 'I' for Inactive)
REMARK    1  A    between atoms: C1_2  and  C2_3 
ROOT
ATOM      1  C2  UNL d   1       0.255   3.108   1.302  0.00  0.00    -0.073 A 
ATOM      2  C3  UNL d   1      -0.768   2.662   2.147  0.00  0.00    -0.002 A 
ATOM      3  C4  UNL d   1      -0.461   2.050   3.363  0.00  0.00     0.004 A 
ATOM      4  C5  UNL d   1       0.869   1.883   3.749  0.00  0.00    -0.004 A 
ATOM      5  C6  UNL d   1       1.905   2.333   2.923  0.00  0.00    -0.075 A 
ATOM      6  C7  UNL d   1       3.341   2.159   3.323  0.00  0.00     0.076 C 
ATOM      7  C8  UNL d   1       1.588   2.944   1.703  0.00  0.00     0.001 A 
ENDROOT
BRANCH   1   8
ATOM      8  C1  UNL d   1      -0.072   3.775  -0.009  0.00  0.00     0.053 C 
ATOM      9  C   UNL d   1       0.909   4.888  -0.342  0.00  0.00     0.018 C 
ENDBRANCH   1   8
TORSDOF 1
ENDMDL
