MODEL 1
REMARK minimizedAffinity 3.50667953
REMARK minimizedRMSD -1
REMARK  1 active torsions:
REMARK  status: ('A' for Active; 'I' for Inactive)
REMARK    1  A    between atoms: C1_2  and  C2_3 
ROOT
ATOM      1  C2  UNL d   1       4.247  -3.983  -1.219  0.00  0.00    -0.073 A 
ATOM      2  C3  UNL d   1       4.393  -4.170  -2.598  0.00  0.00    -0.002 A 
ATOM      3  C4  UNL d   1       3.473  -4.946  -3.305  0.00  0.00     0.004 A 
ATOM      4  C5  UNL d   1       2.397  -5.536  -2.644  0.00  0.00    -0.004 A 
ATOM      5  C6  UNL d   1       2.227  -5.351  -1.268  0.00  0.00    -0.075 A 
ATOM      6  C7  UNL d   1       1.076  -5.981  -0.540  0.00  0.00     0.076 C 
ATOM      7  C8  UNL d   1       3.157  -4.573  -0.564  0.00  0.00     0.001 A 
ENDROOT
BRANCH   1   8
ATOM      8  C1  UNL d   1       5.234  -3.141  -0.452  0.00  0.00     0.053 C 
ATOM      9  C   UNL d   1       4.583  -1.905   0.149  0.00  0.00     0.018 C 
ENDBRANCH   1   8
TORSDOF 1
ENDMDL
