MODEL 1
REMARK minimizedAffinity 9.52332973
REMARK minimizedRMSD -1
REMARK  1 active torsions:
REMARK  status: ('A' for Active; 'I' for Inactive)
REMARK    1  A    between atoms: C1_2  and  C2_3 
ROOT
ATOM      1  C2  UNL d   1       0.002   3.623   1.324  0.00  0.00    -0.073 A 
ATOM      2  C3  UNL d   1      -0.768   4.615   1.942  0.00  0.00    -0.002 A 
ATOM      3  C4  UNL d   1      -1.066   5.799   1.266  0.00  0.00     0.004 A 
ATOM      4  C5  UNL d   1      -0.606   6.000  -0.035  0.00  0.00    -0.004 A 
ATOM      5  C6  UNL d   1       0.155   5.015  -0.674  0.00  0.00    -0.075 A 
ATOM      6  C7  UNL d   1       0.660   5.216  -2.072  0.00  0.00     0.076 C 
ATOM      7  C8  UNL d   1       0.453   3.830   0.013  0.00  0.00     0.001 A 
ENDROOT
BRANCH   1   8
ATOM      8  C1  UNL d   1       0.322   2.341   2.048  0.00  0.00     0.053 C 
ATOM      9  C   UNL d   1      -0.492   2.188   3.323  0.00  0.00     0.018 C 
ENDBRANCH   1   8
TORSDOF 1
ENDMDL
