MODEL 1
REMARK minimizedAffinity 14.2341137
REMARK minimizedRMSD -1
REMARK  1 active torsions:
REMARK  status: ('A' for Active; 'I' for Inactive)
REMARK    1  A    between atoms: C1_2  and  C2_3 
ROOT
ATOM      1  C2  UNL d   1      -0.617   5.307  -1.090  0.00  0.00    -0.073 A 
ATOM      2  C3  UNL d   1      -1.119   6.000   0.017  0.00  0.00    -0.002 A 
ATOM      3  C4  UNL d   1      -1.030   5.446   1.295  0.00  0.00     0.004 A 
ATOM      4  C5  UNL d   1      -0.432   4.200   1.480  0.00  0.00    -0.004 A 
ATOM      5  C6  UNL d   1       0.087   3.497   0.387  0.00  0.00    -0.075 A 
ATOM      6  C7  UNL d   1       0.731   2.154   0.569  0.00  0.00     0.076 C 
ATOM      7  C8  UNL d   1      -0.010   4.059  -0.893  0.00  0.00     0.001 A 
ENDROOT
BRANCH   1   8
ATOM      8  C1  UNL d   1      -0.706   5.904  -2.471  0.00  0.00     0.053 C 
ATOM      9  C   UNL d   1      -2.143   6.000  -2.959  0.00  0.00     0.018 C 
ENDBRANCH   1   8
TORSDOF 1
ENDMDL
