MODEL 1
REMARK minimizedAffinity 7.74635077
REMARK minimizedRMSD -1
REMARK  1 active torsions:
REMARK  status: ('A' for Active; 'I' for Inactive)
REMARK    1  A    between atoms: C1_2  and  C2_3 
ROOT
ATOM      1  C2  UNL d   1       3.349  -1.571  -0.398  0.00  0.00    -0.073 A 
ATOM      2  C3  UNL d   1       4.521  -1.356   0.336  0.00  0.00    -0.002 A 
ATOM      3  C4  UNL d   1       5.760  -1.719  -0.193  0.00  0.00     0.004 A 
ATOM      4  C5  UNL d   1       5.841  -2.293  -1.462  0.00  0.00    -0.004 A 
ATOM      5  C6  UNL d   1       4.682  -2.504  -2.216  0.00  0.00    -0.075 A 
ATOM      6  C7  UNL d   1       4.752  -3.121  -3.582  0.00  0.00     0.076 C 
ATOM      7  C8  UNL d   1       3.441  -2.139  -1.677  0.00  0.00     0.001 A 
ENDROOT
BRANCH   1   8
ATOM      8  C1  UNL d   1       2.009  -1.174   0.166  0.00  0.00     0.053 C 
ATOM      9  C   UNL d   1       1.124  -0.511  -0.877  0.00  0.00     0.018 C 
ENDBRANCH   1   8
TORSDOF 1
ENDMDL
