MODEL 1
REMARK minimizedAffinity 3.14697647
REMARK minimizedRMSD -1
REMARK  1 active torsions:
REMARK  status: ('A' for Active; 'I' for Inactive)
REMARK    1  A    between atoms: C1_2  and  C2_3 
ROOT
ATOM      1  C2  UNL d   1       0.804   1.432   2.443  0.00  0.00    -0.073 A 
ATOM      2  C3  UNL d   1      -0.525   1.419   2.883  0.00  0.00    -0.002 A 
ATOM      3  C4  UNL d   1      -1.459   2.294   2.328  0.00  0.00     0.004 A 
ATOM      4  C5  UNL d   1      -1.078   3.184   1.324  0.00  0.00    -0.004 A 
ATOM      5  C6  UNL d   1       0.242   3.203   0.862  0.00  0.00    -0.075 A 
ATOM      6  C7  UNL d   1       0.668   4.155  -0.216  0.00  0.00     0.076 C 
ATOM      7  C8  UNL d   1       1.175   2.323   1.426  0.00  0.00     0.001 A 
ENDROOT
BRANCH   1   8
ATOM      8  C1  UNL d   1       1.815   0.484   3.034  0.00  0.00     0.053 C 
ATOM      9  C   UNL d   1       1.175  -0.508   3.993  0.00  0.00     0.018 C 
ENDBRANCH   1   8
TORSDOF 1
ENDMDL
