MODEL 1
REMARK minimizedAffinity 4.96439886
REMARK minimizedRMSD -1
REMARK  1 active torsions:
REMARK  status: ('A' for Active; 'I' for Inactive)
REMARK    1  A    between atoms: C1_2  and  C2_3 
ROOT
ATOM      1  C2  UNL d   1       0.086   4.858  -0.984  0.00  0.00    -0.073 A 
ATOM      2  C3  UNL d   1      -1.229   5.149  -0.602  0.00  0.00    -0.002 A 
ATOM      3  C4  UNL d   1      -2.117   5.721  -1.514  0.00  0.00     0.004 A 
ATOM      4  C5  UNL d   1      -1.704   5.999  -2.816  0.00  0.00    -0.004 A 
ATOM      5  C6  UNL d   1      -0.397   5.704  -3.220  0.00  0.00    -0.075 A 
ATOM      6  C7  UNL d   1       0.064   5.999  -4.617  0.00  0.00     0.076 C 
ATOM      7  C8  UNL d   1       0.490   5.133  -2.298  0.00  0.00     0.001 A 
ENDROOT
BRANCH   1   8
ATOM      8  C1  UNL d   1       1.047   4.235  -0.004  0.00  0.00     0.053 C 
ATOM      9  C   UNL d   1       0.439   3.036   0.707  0.00  0.00     0.018 C 
ENDBRANCH   1   8
TORSDOF 1
ENDMDL
