MODEL 1
REMARK minimizedAffinity 8.73004913
REMARK minimizedRMSD -1
REMARK  1 active torsions:
REMARK  status: ('A' for Active; 'I' for Inactive)
REMARK    1  A    between atoms: C1_2  and  C2_3 
ROOT
ATOM      1  C2  UNL d   1      -1.171   4.729   1.435  0.00  0.00    -0.073 A 
ATOM      2  C3  UNL d   1      -0.545   4.533   0.199  0.00  0.00    -0.002 A 
ATOM      3  C4  UNL d   1       0.162   3.357  -0.055  0.00  0.00     0.004 A 
ATOM      4  C5  UNL d   1       0.244   2.364   0.921  0.00  0.00    -0.004 A 
ATOM      5  C6  UNL d   1      -0.385   2.536   2.158  0.00  0.00    -0.075 A 
ATOM      6  C7  UNL d   1      -0.303   1.478   3.218  0.00  0.00     0.076 C 
ATOM      7  C8  UNL d   1      -1.091   3.721   2.406  0.00  0.00     0.001 A 
ENDROOT
BRANCH   1   8
ATOM      8  C1  UNL d   1      -1.941   5.995   1.711  0.00  0.00     0.053 C 
ATOM      9  C   UNL d   1      -2.553   5.998   3.103  0.00  0.00     0.018 C 
ENDBRANCH   1   8
TORSDOF 1
ENDMDL
