MODEL 1
REMARK minimizedAffinity -1.78204989
REMARK minimizedRMSD -1
REMARK  0 active torsions:
REMARK  status: ('A' for Active; 'I' for Inactive)
ROOT
ATOM      1  C   UNL d   1       0.649   0.944  -1.036  0.00  0.00     0.124 A 
ATOM      2  C1  UNL d   1       0.244   1.968  -0.191  0.00  0.00     0.062 A 
ATOM      3  C2  UNL d   1      -0.543   1.687   0.922  0.00  0.00     0.162 A 
ATOM      4  C3  UNL d   1      -0.930   0.376   1.197  0.00  0.00    -0.034 A 
ATOM      5  C4  UNL d   1      -0.520  -0.649   0.342  0.00  0.00     0.162 A 
ATOM      6  C5  UNL d   1       0.267  -0.363  -0.769  0.00  0.00     0.062 A 
ATOM      7  F   UNL d   1       0.657  -1.353  -1.585  0.00  0.00    -0.097 F 
ATOM      8  F1  UNL d   1      -0.874  -1.921   0.576  0.00  0.00    -0.096 F 
ATOM      9  I   UNL d   1      -2.108  -0.049   2.860  0.00  0.00    -0.060 I 
ATOM     10  F2  UNL d   1      -0.919   2.696   1.721  0.00  0.00    -0.096 F 
ATOM     11  F3  UNL d   1       0.612   3.232  -0.448  0.00  0.00    -0.097 F 
ATOM     12  F4  UNL d   1       1.406   1.218  -2.107  0.00  0.00    -0.092 F 
ENDROOT
TORSDOF 0
ENDMDL
