MODEL 1
REMARK minimizedAffinity -3.32983947
REMARK minimizedRMSD -1
REMARK  0 active torsions:
REMARK  status: ('A' for Active; 'I' for Inactive)
ROOT
ATOM      1  C   UNL d   1       1.398   2.235   0.005  0.00  0.00     0.124 A 
ATOM      2  C1  UNL d   1       0.250   2.039  -0.750  0.00  0.00     0.062 A 
ATOM      3  C2  UNL d   1      -0.213   0.750  -0.996  0.00  0.00     0.162 A 
ATOM      4  C3  UNL d   1       0.470  -0.353  -0.486  0.00  0.00    -0.034 A 
ATOM      5  C4  UNL d   1       1.625  -0.148   0.272  0.00  0.00     0.162 A 
ATOM      6  C5  UNL d   1       2.084   1.142   0.515  0.00  0.00     0.062 A 
ATOM      7  F   UNL d   1       3.194   1.330   1.245  0.00  0.00    -0.097 F 
ATOM      8  F1  UNL d   1       2.306  -1.187   0.778  0.00  0.00    -0.096 F 
ATOM      9  I   UNL d   1      -0.220  -2.282  -0.852  0.00  0.00    -0.060 I 
ATOM     10  F2  UNL d   1      -1.325   0.590  -1.729  0.00  0.00    -0.096 F 
ATOM     11  F3  UNL d   1      -0.413   3.094  -1.245  0.00  0.00    -0.097 F 
ATOM     12  F4  UNL d   1       1.843   3.477   0.240  0.00  0.00    -0.092 F 
ENDROOT
TORSDOF 0
ENDMDL
