MODEL 1
REMARK minimizedAffinity 0.95085001
REMARK minimizedRMSD -1
REMARK  0 active torsions:
REMARK  status: ('A' for Active; 'I' for Inactive)
ROOT
ATOM      1  C   UNL d   1      -0.052   1.364   0.250  0.00  0.00     0.124 A 
ATOM      2  C1  UNL d   1       0.901   0.361   0.130  0.00  0.00     0.062 A 
ATOM      3  C2  UNL d   1       0.587  -0.827  -0.523  0.00  0.00     0.162 A 
ATOM      4  C3  UNL d   1      -0.685  -1.020  -1.062  0.00  0.00    -0.034 A 
ATOM      5  C4  UNL d   1      -1.638  -0.008  -0.935  0.00  0.00     0.162 A 
ATOM      6  C5  UNL d   1      -1.320   1.178  -0.282  0.00  0.00     0.062 A 
ATOM      7  F   UNL d   1      -2.241   2.146  -0.166  0.00  0.00    -0.097 F 
ATOM      8  F1  UNL d   1      -2.871  -0.160  -1.441  0.00  0.00    -0.096 F 
ATOM      9  I   UNL d   1      -1.158  -2.796  -2.039  0.00  0.00    -0.060 I 
ATOM     10  F2  UNL d   1       1.527  -1.779  -0.625  0.00  0.00    -0.096 F 
ATOM     11  F3  UNL d   1       2.126   0.537   0.644  0.00  0.00    -0.097 F 
ATOM     12  F4  UNL d   1       0.252   2.506   0.880  0.00  0.00    -0.092 F 
ENDROOT
TORSDOF 0
ENDMDL
