MODEL 1
REMARK minimizedAffinity -0.750682712
REMARK minimizedRMSD -1
REMARK  0 active torsions:
REMARK  status: ('A' for Active; 'I' for Inactive)
ROOT
ATOM      1  C   UNL d   1      -0.328   1.521   0.758  0.00  0.00     0.124 A 
ATOM      2  C1  UNL d   1      -0.815   0.296   1.195  0.00  0.00     0.062 A 
ATOM      3  C2  UNL d   1      -0.693  -0.833   0.391  0.00  0.00     0.162 A 
ATOM      4  C3  UNL d   1      -0.080  -0.744  -0.859  0.00  0.00    -0.034 A 
ATOM      5  C4  UNL d   1       0.406   0.490  -1.292  0.00  0.00     0.162 A 
ATOM      6  C5  UNL d   1       0.282   1.616  -0.485  0.00  0.00     0.062 A 
ATOM      7  F   UNL d   1       0.752   2.798  -0.909  0.00  0.00    -0.097 F 
ATOM      8  F1  UNL d   1       1.001   0.611  -2.488  0.00  0.00    -0.096 F 
ATOM      9  I   UNL d   1       0.105  -2.431  -2.064  0.00  0.00    -0.060 I 
ATOM     10  F2  UNL d   1      -1.172  -2.003   0.839  0.00  0.00    -0.096 F 
ATOM     11  F3  UNL d   1      -1.406   0.201   2.395  0.00  0.00    -0.097 F 
ATOM     12  F4  UNL d   1      -0.448   2.606   1.533  0.00  0.00    -0.092 F 
ENDROOT
TORSDOF 0
ENDMDL
