MODEL 1
REMARK minimizedAffinity -2.36990857
REMARK minimizedRMSD -1
REMARK  0 active torsions:
REMARK  status: ('A' for Active; 'I' for Inactive)
ROOT
ATOM      1  C   UNL d   1       1.143   2.067  -0.183  0.00  0.00     0.124 A 
ATOM      2  C1  UNL d   1      -0.104   1.874  -0.762  0.00  0.00     0.062 A 
ATOM      3  C2  UNL d   1      -0.598   0.586  -0.944  0.00  0.00     0.162 A 
ATOM      4  C3  UNL d   1       0.153  -0.520  -0.546  0.00  0.00    -0.034 A 
ATOM      5  C4  UNL d   1       1.406  -0.318   0.035  0.00  0.00     0.162 A 
ATOM      6  C5  UNL d   1       1.896   0.972   0.215  0.00  0.00     0.062 A 
ATOM      7  F   UNL d   1       3.101   1.157   0.775  0.00  0.00    -0.097 F 
ATOM      8  F1  UNL d   1       2.155  -1.358   0.430  0.00  0.00    -0.096 F 
ATOM      9  I   UNL d   1      -0.584  -2.448  -0.816  0.00  0.00    -0.060 I 
ATOM     10  F2  UNL d   1      -1.806   0.429  -1.506  0.00  0.00    -0.096 F 
ATOM     11  F3  UNL d   1      -0.833   2.930  -1.148  0.00  0.00    -0.097 F 
ATOM     12  F4  UNL d   1       1.617   3.307  -0.009  0.00  0.00    -0.092 F 
ENDROOT
TORSDOF 0
ENDMDL
