MODEL 1
REMARK minimizedAffinity -0.727439284
REMARK minimizedRMSD -1
REMARK  0 active torsions:
REMARK  status: ('A' for Active; 'I' for Inactive)
ROOT
ATOM      1  C   UNL d   1       0.830   2.535   0.474  0.00  0.00     0.124 A 
ATOM      2  C1  UNL d   1       1.869   1.619   0.390  0.00  0.00     0.062 A 
ATOM      3  C2  UNL d   1       1.596   0.255   0.328  0.00  0.00     0.162 A 
ATOM      4  C3  UNL d   1       0.278  -0.201   0.349  0.00  0.00    -0.034 A 
ATOM      5  C4  UNL d   1      -0.761   0.727   0.435  0.00  0.00     0.162 A 
ATOM      6  C5  UNL d   1      -0.484   2.089   0.497  0.00  0.00     0.062 A 
ATOM      7  F   UNL d   1      -1.489   2.972   0.578  0.00  0.00    -0.097 F 
ATOM      8  F1  UNL d   1      -2.040   0.323   0.458  0.00  0.00    -0.096 F 
ATOM      9  I   UNL d   1      -0.133  -2.239   0.257  0.00  0.00    -0.060 I 
ATOM     10  F2  UNL d   1       2.620  -0.608   0.247  0.00  0.00    -0.096 F 
ATOM     11  F3  UNL d   1       3.139   2.048   0.369  0.00  0.00    -0.097 F 
ATOM     12  F4  UNL d   1       1.095   3.846   0.535  0.00  0.00    -0.092 F 
ENDROOT
TORSDOF 0
ENDMDL
