MODEL 1
REMARK minimizedAffinity 0.0265348554
REMARK minimizedRMSD -1
REMARK  0 active torsions:
REMARK  status: ('A' for Active; 'I' for Inactive)
ROOT
ATOM      1  C   UNL d   1       0.431   2.206   0.383  0.00  0.00     0.124 A 
ATOM      2  C1  UNL d   1       1.356   1.284  -0.087  0.00  0.00     0.062 A 
ATOM      3  C2  UNL d   1       0.975  -0.035  -0.317  0.00  0.00     0.162 A 
ATOM      4  C3  UNL d   1      -0.338  -0.440  -0.080  0.00  0.00    -0.034 A 
ATOM      5  C4  UNL d   1      -1.263   0.493   0.394  0.00  0.00     0.162 A 
ATOM      6  C5  UNL d   1      -0.877   1.810   0.623  0.00  0.00     0.062 A 
ATOM      7  F   UNL d   1      -1.772   2.699   1.077  0.00  0.00    -0.097 F 
ATOM      8  F1  UNL d   1      -2.534   0.137   0.633  0.00  0.00    -0.096 F 
ATOM      9  I   UNL d   1      -0.912  -2.411  -0.423  0.00  0.00    -0.060 I 
ATOM     10  F2  UNL d   1       1.890  -0.904  -0.771  0.00  0.00    -0.096 F 
ATOM     11  F3  UNL d   1       2.621   1.664  -0.318  0.00  0.00    -0.097 F 
ATOM     12  F4  UNL d   1       0.801   3.474   0.605  0.00  0.00    -0.092 F 
ENDROOT
TORSDOF 0
ENDMDL
