MODEL 1
REMARK minimizedAffinity 0.254105806
REMARK minimizedRMSD -1
REMARK  0 active torsions:
REMARK  status: ('A' for Active; 'I' for Inactive)
ROOT
ATOM      1  C   UNL d   1       0.046   2.436   0.284  0.00  0.00     0.124 A 
ATOM      2  C1  UNL d   1      -1.109   1.936   0.870  0.00  0.00     0.062 A 
ATOM      3  C2  UNL d   1      -1.453   0.597   0.707  0.00  0.00     0.162 A 
ATOM      4  C3  UNL d   1      -0.640  -0.252  -0.044  0.00  0.00    -0.034 A 
ATOM      5  C4  UNL d   1       0.519   0.259  -0.632  0.00  0.00     0.162 A 
ATOM      6  C5  UNL d   1       0.858   1.598  -0.466  0.00  0.00     0.062 A 
ATOM      7  F   UNL d   1       1.974   2.079  -1.033  0.00  0.00    -0.097 F 
ATOM      8  F1  UNL d   1       1.322  -0.529  -1.361  0.00  0.00    -0.096 F 
ATOM      9  I   UNL d   1      -1.151  -2.254  -0.290  0.00  0.00    -0.060 I 
ATOM     10  F2  UNL d   1      -2.574   0.141   1.285  0.00  0.00    -0.096 F 
ATOM     11  F3  UNL d   1      -1.896   2.744   1.594  0.00  0.00    -0.097 F 
ATOM     12  F4  UNL d   1       0.374   3.725   0.441  0.00  0.00    -0.092 F 
ENDROOT
TORSDOF 0
ENDMDL
