MODEL 1
REMARK minimizedAffinity -0.614325702
REMARK minimizedRMSD -1
REMARK  0 active torsions:
REMARK  status: ('A' for Active; 'I' for Inactive)
ROOT
ATOM      1  C   UNL d   1       0.277  -0.005  -0.525  0.00  0.00     0.124 A 
ATOM      2  C1  UNL d   1       0.742   1.302  -0.573  0.00  0.00     0.062 A 
ATOM      3  C2  UNL d   1       0.361   2.218   0.403  0.00  0.00     0.162 A 
ATOM      4  C3  UNL d   1      -0.491   1.829   1.438  0.00  0.00    -0.034 A 
ATOM      5  C4  UNL d   1      -0.955   0.514   1.479  0.00  0.00     0.162 A 
ATOM      6  C5  UNL d   1      -0.571  -0.398   0.501  0.00  0.00     0.062 A 
ATOM      7  F   UNL d   1      -1.022  -1.660   0.550  0.00  0.00    -0.097 F 
ATOM      8  F1  UNL d   1      -1.775   0.107   2.460  0.00  0.00    -0.096 F 
ATOM      9  I   UNL d   1      -1.064   3.195   2.900  0.00  0.00    -0.060 I 
ATOM     10  F2  UNL d   1       0.825   3.474   0.331  0.00  0.00    -0.096 F 
ATOM     11  F3  UNL d   1       1.561   1.684  -1.564  0.00  0.00    -0.097 F 
ATOM     12  F4  UNL d   1       0.645  -0.883  -1.466  0.00  0.00    -0.092 F 
ENDROOT
TORSDOF 0
ENDMDL
