MODEL 1
REMARK minimizedAffinity 5.78105307
REMARK minimizedRMSD -1
REMARK  0 active torsions:
REMARK  status: ('A' for Active; 'I' for Inactive)
ROOT
ATOM      1  C   UNL d   1       0.396   1.913   0.953  0.00  0.00     0.124 A 
ATOM      2  C1  UNL d   1       1.488   1.082   0.741  0.00  0.00     0.062 A 
ATOM      3  C2  UNL d   1       1.367  -0.037  -0.077  0.00  0.00     0.162 A 
ATOM      4  C3  UNL d   1       0.149  -0.333  -0.690  0.00  0.00    -0.034 A 
ATOM      5  C4  UNL d   1      -0.944   0.507  -0.471  0.00  0.00     0.162 A 
ATOM      6  C5  UNL d   1      -0.818   1.625   0.347  0.00  0.00     0.062 A 
ATOM      7  F   UNL d   1      -1.874   2.426   0.550  0.00  0.00    -0.097 F 
ATOM      8  F1  UNL d   1      -2.129   0.252  -1.046  0.00  0.00    -0.096 F 
ATOM      9  I   UNL d   1      -0.035  -2.006  -1.913  0.00  0.00    -0.060 I 
ATOM     10  F2  UNL d   1       2.438  -0.822  -0.264  0.00  0.00    -0.096 F 
ATOM     11  F3  UNL d   1       2.662   1.359   1.326  0.00  0.00    -0.097 F 
ATOM     12  F4  UNL d   1       0.515   2.989   1.741  0.00  0.00    -0.092 F 
ENDROOT
TORSDOF 0
ENDMDL
