MODEL 1
REMARK minimizedAffinity 0.0843348503
REMARK minimizedRMSD -1
REMARK  0 active torsions:
REMARK  status: ('A' for Active; 'I' for Inactive)
ROOT
ATOM      1  C   UNL d   1       1.003   1.985   0.267  0.00  0.00     0.124 A 
ATOM      2  C1  UNL d   1      -0.363   1.784   0.120  0.00  0.00     0.062 A 
ATOM      3  C2  UNL d   1      -0.878   0.493   0.052  0.00  0.00     0.162 A 
ATOM      4  C3  UNL d   1      -0.027  -0.609   0.132  0.00  0.00    -0.034 A 
ATOM      5  C4  UNL d   1       1.346  -0.400   0.279  0.00  0.00     0.162 A 
ATOM      6  C5  UNL d   1       1.855   0.893   0.346  0.00  0.00     0.062 A 
ATOM      7  F   UNL d   1       3.175   1.085   0.488  0.00  0.00    -0.097 F 
ATOM      8  F1  UNL d   1       2.193  -1.437   0.359  0.00  0.00    -0.096 F 
ATOM      9  I   UNL d   1      -0.792  -2.542   0.031  0.00  0.00    -0.060 I 
ATOM     10  F2  UNL d   1      -2.202   0.329  -0.090  0.00  0.00    -0.096 F 
ATOM     11  F3  UNL d   1      -1.189   2.838   0.043  0.00  0.00    -0.097 F 
ATOM     12  F4  UNL d   1       1.495   3.228   0.331  0.00  0.00    -0.092 F 
ENDROOT
TORSDOF 0
ENDMDL
