MODEL 1
REMARK minimizedAffinity -1.9634521
REMARK minimizedRMSD -1
REMARK  0 active torsions:
REMARK  status: ('A' for Active; 'I' for Inactive)
ROOT
ATOM      1  C   UNL d   1       0.150  -0.753   0.806  0.00  0.00     0.124 A 
ATOM      2  C1  UNL d   1      -0.956   0.085   0.780  0.00  0.00     0.062 A 
ATOM      3  C2  UNL d   1      -0.812   1.424   0.431  0.00  0.00     0.162 A 
ATOM      4  C3  UNL d   1       0.444   1.935   0.105  0.00  0.00    -0.034 A 
ATOM      5  C4  UNL d   1       1.553   1.087   0.134  0.00  0.00     0.162 A 
ATOM      6  C5  UNL d   1       1.403  -0.251   0.483  0.00  0.00     0.062 A 
ATOM      7  F   UNL d   1       2.473  -1.059   0.507  0.00  0.00    -0.097 F 
ATOM      8  F1  UNL d   1       2.775   1.545  -0.175  0.00  0.00    -0.096 F 
ATOM      9  I   UNL d   1       0.665   3.938  -0.417  0.00  0.00    -0.060 I 
ATOM     10  F2  UNL d   1      -1.898   2.211   0.415  0.00  0.00    -0.096 F 
ATOM     11  F3  UNL d   1      -2.168  -0.397   1.092  0.00  0.00    -0.097 F 
ATOM     12  F4  UNL d   1       0.009  -2.041   1.142  0.00  0.00    -0.092 F 
ENDROOT
TORSDOF 0
ENDMDL
