MODEL 1
REMARK minimizedAffinity -1.8139236
REMARK minimizedRMSD -1
REMARK  0 active torsions:
REMARK  status: ('A' for Active; 'I' for Inactive)
ROOT
ATOM      1  C   UNL d   1       1.107  -1.666   0.045  0.00  0.00     0.124 A 
ATOM      2  C1  UNL d   1       2.075  -0.762   0.462  0.00  0.00     0.062 A 
ATOM      3  C2  UNL d   1       1.798   0.602   0.477  0.00  0.00     0.162 A 
ATOM      4  C3  UNL d   1       0.547   1.071   0.075  0.00  0.00    -0.034 A 
ATOM      5  C4  UNL d   1      -0.421   0.156  -0.343  0.00  0.00     0.162 A 
ATOM      6  C5  UNL d   1      -0.139  -1.207  -0.357  0.00  0.00     0.062 A 
ATOM      7  F   UNL d   1      -1.075  -2.079  -0.759  0.00  0.00    -0.097 F 
ATOM      8  F1  UNL d   1      -1.634   0.572  -0.736  0.00  0.00    -0.096 F 
ATOM      9  I   UNL d   1       0.129   3.109   0.096  0.00  0.00    -0.060 I 
ATOM     10  F2  UNL d   1       2.752   1.453   0.884  0.00  0.00    -0.096 F 
ATOM     11  F3  UNL d   1       3.280  -1.203   0.849  0.00  0.00    -0.097 F 
ATOM     12  F4  UNL d   1       1.377  -2.978   0.031  0.00  0.00    -0.092 F 
ENDROOT
TORSDOF 0
ENDMDL
