MODEL 1
REMARK minimizedAffinity 11.0988188
REMARK minimizedRMSD -1
REMARK  0 active torsions:
REMARK  status: ('A' for Active; 'I' for Inactive)
ROOT
ATOM      1  C   UNL d   1       2.544   1.249  -0.795  0.00  0.00     0.124 A 
ATOM      2  C1  UNL d   1       2.652   0.119   0.003  0.00  0.00     0.062 A 
ATOM      3  C2  UNL d   1       1.547  -0.702   0.207  0.00  0.00     0.162 A 
ATOM      4  C3  UNL d   1       0.323  -0.397  -0.390  0.00  0.00    -0.034 A 
ATOM      5  C4  UNL d   1       0.222   0.742  -1.191  0.00  0.00     0.162 A 
ATOM      6  C5  UNL d   1       1.330   1.560  -1.391  0.00  0.00     0.062 A 
ATOM      7  F   UNL d   1       1.224   2.651  -2.162  0.00  0.00    -0.097 F 
ATOM      8  F1  UNL d   1      -0.939   1.065  -1.779  0.00  0.00    -0.096 F 
ATOM      9  I   UNL d   1      -1.332  -1.622  -0.088  0.00  0.00    -0.060 I 
ATOM     10  F2  UNL d   1       1.680  -1.788   0.983  0.00  0.00    -0.096 F 
ATOM     11  F3  UNL d   1       3.823  -0.183   0.581  0.00  0.00    -0.097 F 
ATOM     12  F4  UNL d   1       3.609   2.038  -0.988  0.00  0.00    -0.092 F 
ENDROOT
TORSDOF 0
ENDMDL
