MODEL 1
REMARK minimizedAffinity -1.57572091
REMARK minimizedRMSD -1
REMARK  0 active torsions:
REMARK  status: ('A' for Active; 'I' for Inactive)
ROOT
ATOM      1  C   UNL d   1       0.312   2.553   0.112  0.00  0.00     0.124 A 
ATOM      2  C1  UNL d   1      -0.907   2.149   0.639  0.00  0.00     0.062 A 
ATOM      3  C2  UNL d   1      -1.238   0.798   0.681  0.00  0.00     0.162 A 
ATOM      4  C3  UNL d   1      -0.348  -0.160   0.195  0.00  0.00    -0.034 A 
ATOM      5  C4  UNL d   1       0.875   0.254  -0.335  0.00  0.00     0.162 A 
ATOM      6  C5  UNL d   1       1.201   1.606  -0.374  0.00  0.00     0.062 A 
ATOM      7  F   UNL d   1       2.379   1.994  -0.884  0.00  0.00    -0.097 F 
ATOM      8  F1  UNL d   1       1.754  -0.641  -0.810  0.00  0.00    -0.096 F 
ATOM      9  I   UNL d   1      -0.840  -2.181   0.256  0.00  0.00    -0.060 I 
ATOM     10  F2  UNL d   1      -2.423   0.436   1.196  0.00  0.00    -0.096 F 
ATOM     11  F3  UNL d   1      -1.769   3.063   1.108  0.00  0.00    -0.097 F 
ATOM     12  F4  UNL d   1       0.627   3.854   0.072  0.00  0.00    -0.092 F 
ENDROOT
TORSDOF 0
ENDMDL
