MODEL 1
REMARK minimizedAffinity 1.830827
REMARK minimizedRMSD -1
REMARK  0 active torsions:
REMARK  status: ('A' for Active; 'I' for Inactive)
ROOT
ATOM      1  C   UNL d   1       1.382   2.208   0.917  0.00  0.00     0.124 A 
ATOM      2  C1  UNL d   1       0.014   2.012   0.788  0.00  0.00     0.062 A 
ATOM      3  C2  UNL d   1      -0.492   0.735   0.567  0.00  0.00     0.162 A 
ATOM      4  C3  UNL d   1       0.370  -0.358   0.473  0.00  0.00    -0.034 A 
ATOM      5  C4  UNL d   1       1.745  -0.153   0.602  0.00  0.00     0.162 A 
ATOM      6  C5  UNL d   1       2.246   1.126   0.823  0.00  0.00     0.062 A 
ATOM      7  F   UNL d   1       3.568   1.313   0.947  0.00  0.00    -0.097 F 
ATOM      8  F1  UNL d   1       2.602  -1.181   0.517  0.00  0.00    -0.096 F 
ATOM      9  I   UNL d   1      -0.383  -2.270   0.142  0.00  0.00    -0.060 I 
ATOM     10  F2  UNL d   1      -1.818   0.575   0.447  0.00  0.00    -0.096 F 
ATOM     11  F3  UNL d   1      -0.822   3.056   0.877  0.00  0.00    -0.097 F 
ATOM     12  F4  UNL d   1       1.867   3.438   1.129  0.00  0.00    -0.092 F 
ENDROOT
TORSDOF 0
ENDMDL
