MODEL 1
REMARK minimizedAffinity -4.01889992
REMARK minimizedRMSD -1
REMARK  1 active torsions:
REMARK  status: ('A' for Active; 'I' for Inactive)
REMARK    1  A    between atoms: C1_2  and  C2_3 
ROOT
ATOM      1  C2  UNL d   1      -0.791   0.355  -0.340  0.00  0.00    -0.081 A 
ATOM      2  C3  UNL d   1       0.102   1.433  -0.298  0.00  0.00     0.006 A 
ATOM      3  C4  UNL d   1       1.432   1.236   0.083  0.00  0.00     0.002 A 
ATOM      4  C5  UNL d   1       1.892  -0.041   0.420  0.00  0.00    -0.080 A 
ATOM      5  C6  UNL d   1       3.324  -0.271   0.802  0.00  0.00     0.076 C 
ATOM      6  C7  UNL d   1       0.995  -1.115   0.395  0.00  0.00     0.002 A 
ATOM      7  C8  UNL d   1      -0.334  -0.919   0.015  0.00  0.00     0.006 A 
ENDROOT
BRANCH   1   8
ATOM      8  C1  UNL d   1      -2.209   0.553  -0.813  0.00  0.00     0.054 C 
ATOM      9  C   UNL d   1      -2.494  -0.264  -2.065  0.00  0.00     0.018 C 
ENDBRANCH   1   8
TORSDOF 1
ENDMDL
