MODEL 1
REMARK minimizedAffinity -0.297124863
REMARK minimizedRMSD -1
REMARK  1 active torsions:
REMARK  status: ('A' for Active; 'I' for Inactive)
REMARK    1  A    between atoms: C1_2  and  C2_3 
ROOT
ATOM      1  C2  UNL d   1      -1.057  -0.144  -1.166  0.00  0.00    -0.081 A 
ATOM      2  C3  UNL d   1      -1.143   0.192   0.191  0.00  0.00     0.006 A 
ATOM      3  C4  UNL d   1       0.006   0.528   0.911  0.00  0.00     0.002 A 
ATOM      4  C5  UNL d   1       1.257   0.541   0.287  0.00  0.00    -0.080 A 
ATOM      5  C6  UNL d   1       2.494   0.928   1.041  0.00  0.00     0.076 C 
ATOM      6  C7  UNL d   1       1.346   0.188  -1.064  0.00  0.00     0.002 A 
ATOM      7  C8  UNL d   1       0.198  -0.148  -1.785  0.00  0.00     0.006 A 
ENDROOT
BRANCH   1   8
ATOM      8  C1  UNL d   1      -2.302  -0.443  -1.962  0.00  0.00     0.054 C 
ATOM      9  C   UNL d   1      -2.800   0.794  -2.696  0.00  0.00     0.018 C 
ENDBRANCH   1   8
TORSDOF 1
ENDMDL
