MODEL 1
REMARK minimizedAffinity -4.23801136
REMARK minimizedRMSD -1
REMARK  0 active torsions:
REMARK  status: ('A' for Active; 'I' for Inactive)
ROOT
ATOM      1  C   UNL d   1      -2.344   2.024   1.430  0.00  0.00     0.078 C 
ATOM      2  C1  UNL d   1      -1.263   1.137   0.889  0.00  0.00    -0.077 A 
ATOM      3  C2  UNL d   1      -0.651   1.413  -0.340  0.00  0.00    -0.001 A 
ATOM      4  C3  UNL d   1       0.347   0.573  -0.836  0.00  0.00     0.003 A 
ATOM      5  C4  UNL d   1       0.742  -0.550  -0.111  0.00  0.00    -0.005 A 
ATOM      6  C5  UNL d   1       0.137  -0.833   1.112  0.00  0.00     0.003 A 
ATOM      7  C6  UNL d   1      -0.861   0.005   1.610  0.00  0.00    -0.001 A 
ENDROOT
TORSDOF 0
ENDMDL
