MODEL 1
REMARK minimizedAffinity -3.86368465
REMARK minimizedRMSD -1
REMARK  0 active torsions:
REMARK  status: ('A' for Active; 'I' for Inactive)
ROOT
ATOM      1  C   UNL d   1      -2.112   2.180   1.086  0.00  0.00     0.078 C 
ATOM      2  C1  UNL d   1      -1.091   1.202   0.587  0.00  0.00    -0.077 A 
ATOM      3  C2  UNL d   1      -0.646   0.149   1.395  0.00  0.00    -0.001 A 
ATOM      4  C3  UNL d   1       0.313  -0.748   0.920  0.00  0.00     0.003 A 
ATOM      5  C4  UNL d   1       0.835  -0.600  -0.363  0.00  0.00    -0.005 A 
ATOM      6  C5  UNL d   1       0.400   0.446  -1.173  0.00  0.00     0.003 A 
ATOM      7  C6  UNL d   1      -0.558   1.344  -0.701  0.00  0.00    -0.001 A 
ENDROOT
TORSDOF 0
ENDMDL
