MODEL 1
REMARK minimizedAffinity -3.80480814
REMARK minimizedRMSD -1
REMARK  0 active torsions:
REMARK  status: ('A' for Active; 'I' for Inactive)
ROOT
ATOM      1  C   UNL d   1      -2.190   1.891   1.146  0.00  0.00     0.078 C 
ATOM      2  C1  UNL d   1      -1.090   1.131   0.467  0.00  0.00    -0.077 A 
ATOM      3  C2  UNL d   1      -0.513   1.602  -0.719  0.00  0.00    -0.001 A 
ATOM      4  C3  UNL d   1       0.504   0.879  -1.346  0.00  0.00     0.003 A 
ATOM      5  C4  UNL d   1       0.952  -0.320  -0.794  0.00  0.00    -0.005 A 
ATOM      6  C5  UNL d   1       0.382  -0.797   0.385  0.00  0.00     0.003 A 
ATOM      7  C6  UNL d   1      -0.634  -0.076   1.012  0.00  0.00    -0.001 A 
ENDROOT
TORSDOF 0
ENDMDL
