MODEL 1
REMARK minimizedAffinity -1.10454285
REMARK minimizedRMSD -1
REMARK  0 active torsions:
REMARK  status: ('A' for Active; 'I' for Inactive)
ROOT
ATOM      1  C   UNL d   1       1.387  -1.757  -1.174  0.00  0.00     0.078 C 
ATOM      2  C1  UNL d   1       0.648  -0.724  -0.377  0.00  0.00    -0.077 A 
ATOM      3  C2  UNL d   1      -0.022  -1.067   0.803  0.00  0.00    -0.001 A 
ATOM      4  C3  UNL d   1      -0.715  -0.097   1.529  0.00  0.00     0.003 A 
ATOM      5  C4  UNL d   1      -0.745   1.223   1.082  0.00  0.00    -0.005 A 
ATOM      6  C5  UNL d   1      -0.083   1.573  -0.092  0.00  0.00     0.003 A 
ATOM      7  C6  UNL d   1       0.610   0.604  -0.820  0.00  0.00    -0.001 A 
ENDROOT
TORSDOF 0
ENDMDL
