MODEL 1
REMARK minimizedAffinity -5.55086088
REMARK minimizedRMSD -1
REMARK  0 active torsions:
REMARK  status: ('A' for Active; 'I' for Inactive)
ROOT
ATOM      1  C   UNL d   1      -2.471   2.156   1.096  0.00  0.00     0.078 C 
ATOM      2  C1  UNL d   1      -1.407   1.190   0.666  0.00  0.00    -0.077 A 
ATOM      3  C2  UNL d   1      -1.007   0.140   1.502  0.00  0.00    -0.001 A 
ATOM      4  C3  UNL d   1      -0.009  -0.746   1.093  0.00  0.00     0.003 A 
ATOM      5  C4  UNL d   1       0.599  -0.590  -0.151  0.00  0.00    -0.005 A 
ATOM      6  C5  UNL d   1       0.209   0.454  -0.988  0.00  0.00     0.003 A 
ATOM      7  C6  UNL d   1      -0.790   1.340  -0.582  0.00  0.00    -0.001 A 
ENDROOT
TORSDOF 0
ENDMDL
