MODEL 1
REMARK minimizedAffinity -2.8768084
REMARK minimizedRMSD -1
REMARK  0 active torsions:
REMARK  status: ('A' for Active; 'I' for Inactive)
ROOT
ATOM      1  C   UNL d   1       0.316  -0.346  -1.065  0.00  0.00     0.078 C 
ATOM      2  C1  UNL d   1      -0.528   0.515  -0.174  0.00  0.00    -0.077 A 
ATOM      3  C2  UNL d   1      -1.050   1.731  -0.631  0.00  0.00    -0.001 A 
ATOM      4  C3  UNL d   1      -1.827   2.527   0.212  0.00  0.00     0.003 A 
ATOM      5  C4  UNL d   1      -2.088   2.116   1.518  0.00  0.00    -0.005 A 
ATOM      6  C5  UNL d   1      -1.572   0.908   1.982  0.00  0.00     0.003 A 
ATOM      7  C6  UNL d   1      -0.795   0.111   1.140  0.00  0.00    -0.001 A 
ENDROOT
TORSDOF 0
ENDMDL
