MODEL 1
REMARK minimizedAffinity -5.33908319
REMARK minimizedRMSD -1
REMARK  0 active torsions:
REMARK  status: ('A' for Active; 'I' for Inactive)
ROOT
ATOM      1  C   UNL d   1       0.503  -0.942  -0.349  0.00  0.00     0.078 C 
ATOM      2  C1  UNL d   1      -0.259   0.126   0.376  0.00  0.00    -0.077 A 
ATOM      3  C2  UNL d   1      -0.950   1.122  -0.325  0.00  0.00    -0.001 A 
ATOM      4  C3  UNL d   1      -1.647   2.116   0.363  0.00  0.00     0.003 A 
ATOM      5  C4  UNL d   1      -1.659   2.125   1.757  0.00  0.00    -0.005 A 
ATOM      6  C5  UNL d   1      -0.973   1.139   2.463  0.00  0.00     0.003 A 
ATOM      7  C6  UNL d   1      -0.275   0.145   1.776  0.00  0.00    -0.001 A 
ENDROOT
TORSDOF 0
ENDMDL
