MODEL 1
REMARK minimizedAffinity -5.37421751
REMARK minimizedRMSD -1
REMARK  0 active torsions:
REMARK  status: ('A' for Active; 'I' for Inactive)
ROOT
ATOM      1  C   UNL d   1       0.932  -0.611  -0.733  0.00  0.00     0.078 C 
ATOM      2  C1  UNL d   1      -0.006   0.023   0.250  0.00  0.00    -0.077 A 
ATOM      3  C2  UNL d   1      -0.694   1.201  -0.066  0.00  0.00    -0.001 A 
ATOM      4  C3  UNL d   1      -1.557   1.785   0.862  0.00  0.00     0.003 A 
ATOM      5  C4  UNL d   1      -1.740   1.199   2.113  0.00  0.00    -0.005 A 
ATOM      6  C5  UNL d   1      -1.058   0.028   2.438  0.00  0.00     0.003 A 
ATOM      7  C6  UNL d   1      -0.194  -0.558   1.511  0.00  0.00    -0.001 A 
ENDROOT
TORSDOF 0
ENDMDL
