MODEL 1
REMARK minimizedAffinity -3.53194046
REMARK minimizedRMSD -1
REMARK  0 active torsions:
REMARK  status: ('A' for Active; 'I' for Inactive)
ROOT
ATOM      1  C   UNL d   1      -2.512   2.021   1.446  0.00  0.00     0.078 C 
ATOM      2  C1  UNL d   1      -1.443   1.286   0.694  0.00  0.00    -0.077 A 
ATOM      3  C2  UNL d   1      -0.859   0.127   1.220  0.00  0.00    -0.001 A 
ATOM      4  C3  UNL d   1       0.142  -0.541   0.513  0.00  0.00     0.003 A 
ATOM      5  C4  UNL d   1       0.569  -0.058  -0.723  0.00  0.00    -0.005 A 
ATOM      6  C5  UNL d   1      -0.005   1.095  -1.253  0.00  0.00     0.003 A 
ATOM      7  C6  UNL d   1      -1.007   1.765  -0.547  0.00  0.00    -0.001 A 
ENDROOT
TORSDOF 0
ENDMDL
