MODEL 1
REMARK minimizedAffinity -3.9909122
REMARK minimizedRMSD -1
REMARK  0 active torsions:
REMARK  status: ('A' for Active; 'I' for Inactive)
ROOT
ATOM      1  C   UNL d   1      -2.161   1.904   1.420  0.00  0.00     0.078 C 
ATOM      2  C1  UNL d   1      -1.043   1.127   0.792  0.00  0.00    -0.077 A 
ATOM      3  C2  UNL d   1      -0.705  -0.151   1.252  0.00  0.00    -0.001 A 
ATOM      4  C3  UNL d   1       0.345  -0.858   0.664  0.00  0.00     0.003 A 
ATOM      5  C4  UNL d   1       1.065  -0.295  -0.388  0.00  0.00    -0.005 A 
ATOM      6  C5  UNL d   1       0.738   0.977  -0.851  0.00  0.00     0.003 A 
ATOM      7  C6  UNL d   1      -0.312   1.686  -0.264  0.00  0.00    -0.001 A 
ENDROOT
TORSDOF 0
ENDMDL
