MODEL 1
REMARK minimizedAffinity -3.80433178
REMARK minimizedRMSD -1
REMARK  0 active torsions:
REMARK  status: ('A' for Active; 'I' for Inactive)
ROOT
ATOM      1  C   UNL d   1      -2.479   2.094   1.472  0.00  0.00     0.078 C 
ATOM      2  C1  UNL d   1      -1.493   1.073   0.989  0.00  0.00    -0.077 A 
ATOM      3  C2  UNL d   1      -1.201  -0.065   1.752  0.00  0.00    -0.001 A 
ATOM      4  C3  UNL d   1      -0.274  -1.002   1.294  0.00  0.00     0.003 A 
ATOM      5  C4  UNL d   1       0.369  -0.812   0.073  0.00  0.00    -0.005 A 
ATOM      6  C5  UNL d   1       0.086   0.317  -0.692  0.00  0.00     0.003 A 
ATOM      7  C6  UNL d   1      -0.840   1.256  -0.237  0.00  0.00    -0.001 A 
ENDROOT
TORSDOF 0
ENDMDL
