MODEL 1
REMARK minimizedAffinity -3.9059453
REMARK minimizedRMSD -1
REMARK  0 active torsions:
REMARK  status: ('A' for Active; 'I' for Inactive)
ROOT
ATOM      1  C   UNL d   1       0.251   3.785  -1.079  0.00  0.00     0.078 C 
ATOM      2  C1  UNL d   1      -0.495   2.887  -0.138  0.00  0.00    -0.077 A 
ATOM      3  C2  UNL d   1      -1.261   3.416   0.908  0.00  0.00    -0.001 A 
ATOM      4  C3  UNL d   1      -1.943   2.569   1.783  0.00  0.00     0.003 A 
ATOM      5  C4  UNL d   1      -1.865   1.187   1.621  0.00  0.00    -0.005 A 
ATOM      6  C5  UNL d   1      -1.104   0.651   0.585  0.00  0.00     0.003 A 
ATOM      7  C6  UNL d   1      -0.421   1.497  -0.291  0.00  0.00    -0.001 A 
ENDROOT
TORSDOF 0
ENDMDL
