MODEL 1
REMARK minimizedAffinity -5.24390602
REMARK minimizedRMSD -1
REMARK  0 active torsions:
REMARK  status: ('A' for Active; 'I' for Inactive)
ROOT
ATOM      1  C   UNL d   1      -1.557   2.246   1.101  0.00  0.00     0.078 C 
ATOM      2  C1  UNL d   1      -0.541   1.444   0.344  0.00  0.00    -0.077 A 
ATOM      3  C2  UNL d   1      -0.143   1.818  -0.946  0.00  0.00    -0.001 A 
ATOM      4  C3  UNL d   1       0.796   1.057  -1.643  0.00  0.00     0.003 A 
ATOM      5  C4  UNL d   1       1.346  -0.083  -1.060  0.00  0.00    -0.005 A 
ATOM      6  C5  UNL d   1       0.954  -0.464   0.222  0.00  0.00     0.003 A 
ATOM      7  C6  UNL d   1       0.015   0.296   0.921  0.00  0.00    -0.001 A 
ENDROOT
TORSDOF 0
ENDMDL
