MODEL 1
REMARK minimizedAffinity -4.54938936
REMARK minimizedRMSD -1
REMARK  0 active torsions:
REMARK  status: ('A' for Active; 'I' for Inactive)
ROOT
ATOM      1  C   UNL d   1       0.669  -0.414  -0.543  0.00  0.00     0.078 C 
ATOM      2  C1  UNL d   1      -0.229   0.500   0.235  0.00  0.00    -0.077 A 
ATOM      3  C2  UNL d   1      -0.048   0.690   1.611  0.00  0.00    -0.001 A 
ATOM      4  C3  UNL d   1      -0.898   1.536   2.324  0.00  0.00     0.003 A 
ATOM      5  C4  UNL d   1      -1.936   2.199   1.671  0.00  0.00    -0.005 A 
ATOM      6  C5  UNL d   1      -2.125   2.014   0.303  0.00  0.00     0.003 A 
ATOM      7  C6  UNL d   1      -1.276   1.168  -0.412  0.00  0.00    -0.001 A 
ENDROOT
TORSDOF 0
ENDMDL
