MODEL 1
REMARK minimizedAffinity -3.68396926
REMARK minimizedRMSD -1
REMARK  1 active torsions:
REMARK  status: ('A' for Active; 'I' for Inactive)
REMARK    1  A    between atoms: C1_2  and  C2_3 
ROOT
ATOM      1  C2  UNL d   1       1.494  -1.104   0.069  0.00  0.00    -0.077 A 
ATOM      2  C3  UNL d   1       0.253  -1.465  -0.475  0.00  0.00     0.002 A 
ATOM      3  C4  UNL d   1      -0.789  -0.537  -0.532  0.00  0.00     0.002 A 
ATOM      4  C5  UNL d   1      -0.599   0.757  -0.051  0.00  0.00    -0.004 A 
ATOM      5  C6  UNL d   1       0.630   1.124   0.493  0.00  0.00     0.002 A 
ATOM      6  C7  UNL d   1       1.673   0.198   0.552  0.00  0.00     0.002 A 
ENDROOT
BRANCH   1   7
ATOM      7  C1  UNL d   1       2.635  -2.088   0.087  0.00  0.00     0.055 C 
ATOM      8  C   UNL d   1       3.787  -1.585   0.944  0.00  0.00     0.019 C 
ENDBRANCH   1   7
TORSDOF 1
ENDMDL
