MODEL 1
REMARK minimizedAffinity -5.58887863
REMARK minimizedRMSD -1
REMARK  1 active torsions:
REMARK  status: ('A' for Active; 'I' for Inactive)
REMARK    1  A    between atoms: C1_2  and  C2_3 
ROOT
ATOM      1  C2  UNL d   1       0.780  -0.346   0.610  0.00  0.00    -0.077 A 
ATOM      2  C3  UNL d   1       1.254   0.930   0.277  0.00  0.00     0.002 A 
ATOM      3  C4  UNL d   1       2.627   1.175   0.196  0.00  0.00     0.002 A 
ATOM      4  C5  UNL d   1       3.535   0.148   0.444  0.00  0.00    -0.004 A 
ATOM      5  C6  UNL d   1       3.073  -1.125   0.778  0.00  0.00     0.002 A 
ATOM      6  C7  UNL d   1       1.701  -1.371   0.860  0.00  0.00     0.002 A 
ENDROOT
BRANCH   1   7
ATOM      7  C1  UNL d   1      -0.700  -0.624   0.649  0.00  0.00     0.055 C 
ATOM      8  C   UNL d   1      -1.498   0.545   0.090  0.00  0.00     0.019 C 
ENDBRANCH   1   7
TORSDOF 1
ENDMDL
