MODEL 1
REMARK minimizedAffinity -4.96032095
REMARK minimizedRMSD -1
REMARK  1 active torsions:
REMARK  status: ('A' for Active; 'I' for Inactive)
REMARK    1  A    between atoms: C1_2  and  C2_3 
ROOT
ATOM      1  C2  UNL d   1       0.870   0.486   0.264  0.00  0.00    -0.077 A 
ATOM      2  C3  UNL d   1       1.982   1.336   0.333  0.00  0.00     0.002 A 
ATOM      3  C4  UNL d   1       3.274   0.808   0.367  0.00  0.00     0.002 A 
ATOM      4  C5  UNL d   1       3.466  -0.571   0.330  0.00  0.00    -0.004 A 
ATOM      5  C6  UNL d   1       2.366  -1.426   0.263  0.00  0.00     0.002 A 
ATOM      6  C7  UNL d   1       1.074  -0.900   0.229  0.00  0.00     0.002 A 
ENDROOT
BRANCH   1   7
ATOM      7  C1  UNL d   1      -0.522   1.054   0.176  0.00  0.00     0.055 C 
ATOM      8  C   UNL d   1      -1.412   0.206  -0.721  0.00  0.00     0.019 C 
ENDBRANCH   1   7
TORSDOF 1
ENDMDL
