MODEL 1
REMARK minimizedAffinity -3.59359097
REMARK minimizedRMSD -1
REMARK  1 active torsions:
REMARK  status: ('A' for Active; 'I' for Inactive)
REMARK    1  A    between atoms: C1_2  and  C2_3 
ROOT
ATOM      1  C2  UNL d   1       0.257  -0.317  -0.284  0.00  0.00    -0.077 A 
ATOM      2  C3  UNL d   1       0.977   0.531   0.569  0.00  0.00     0.002 A 
ATOM      3  C4  UNL d   1       2.294   0.229   0.917  0.00  0.00     0.002 A 
ATOM      4  C5  UNL d   1       2.905  -0.918   0.414  0.00  0.00    -0.004 A 
ATOM      5  C6  UNL d   1       2.196  -1.769  -0.433  0.00  0.00     0.002 A 
ATOM      6  C7  UNL d   1       0.879  -1.469  -0.782  0.00  0.00     0.002 A 
ENDROOT
BRANCH   1   7
ATOM      7  C1  UNL d   1      -1.148   0.032  -0.700  0.00  0.00     0.055 C 
ATOM      8  C   UNL d   1      -1.874   0.802   0.393  0.00  0.00     0.019 C 
ENDBRANCH   1   7
TORSDOF 1
ENDMDL
