MODEL 1
REMARK minimizedAffinity -5.55158472
REMARK minimizedRMSD -1
REMARK  1 active torsions:
REMARK  status: ('A' for Active; 'I' for Inactive)
REMARK    1  A    between atoms: C1_2  and  C2_3 
ROOT
ATOM      1  C2  UNL d   1       0.029  -0.070   0.265  0.00  0.00    -0.077 A 
ATOM      2  C3  UNL d   1       1.148   0.641   0.720  0.00  0.00     0.002 A 
ATOM      3  C4  UNL d   1       2.337  -0.029   1.018  0.00  0.00     0.002 A 
ATOM      4  C5  UNL d   1       2.418  -1.411   0.860  0.00  0.00    -0.004 A 
ATOM      5  C6  UNL d   1       1.310  -2.127   0.410  0.00  0.00     0.002 A 
ATOM      6  C7  UNL d   1       0.121  -1.459   0.112  0.00  0.00     0.002 A 
ENDROOT
BRANCH   1   7
ATOM      7  C1  UNL d   1      -1.238   0.656  -0.104  0.00  0.00     0.055 C 
ATOM      8  C   UNL d   1      -2.382   0.281   0.827  0.00  0.00     0.019 C 
ENDBRANCH   1   7
TORSDOF 1
ENDMDL
