MODEL 1
REMARK minimizedAffinity 4.48052597
REMARK minimizedRMSD -1
REMARK  0 active torsions:
REMARK  status: ('A' for Active; 'I' for Inactive)
ROOT
ATOM      1  C4' PXY d   1       0.001   4.253   0.753  0.00  0.00     0.077 C 
ATOM      2  C1' PXY d   1       4.627   5.247   4.073  0.00  0.00     0.077 C 
ATOM      3  C1  PXY d   1       3.407   4.996   3.209  0.00  0.00    -0.082 A 
ATOM      4  C2  PXY d   1       3.217   3.800   2.677  0.00  0.00     0.003 A 
ATOM      5  C3  PXY d   1       2.137   3.564   1.867  0.00  0.00     0.003 A 
ATOM      6  C4  PXY d   1       1.213   4.549   1.640  0.00  0.00    -0.082 A 
ATOM      7  C5  PXY d   1       1.394   5.769   2.188  0.00  0.00     0.003 A 
ATOM      8  C6  PXY d   1       2.519   6.000   2.974  0.00  0.00     0.003 A 
ENDROOT
TORSDOF 0
ENDMDL
