MODEL 1
REMARK minimizedAffinity 7.75118351
REMARK minimizedRMSD -1
REMARK  0 active torsions:
REMARK  status: ('A' for Active; 'I' for Inactive)
ROOT
ATOM      1  C4' PXY d   1      -5.975   5.024   5.280  0.00  0.00     0.077 C 
ATOM      2  C1' PXY d   1      -4.272   5.075  -0.244  0.00  0.00     0.077 C 
ATOM      3  C1  PXY d   1      -4.708   5.068   1.208  0.00  0.00    -0.082 A 
ATOM      4  C2  PXY d   1      -5.571   4.157   1.628  0.00  0.00     0.003 A 
ATOM      5  C3  PXY d   1      -6.000   4.156   2.930  0.00  0.00     0.003 A 
ATOM      6  C4  PXY d   1      -5.500   5.063   3.825  0.00  0.00    -0.082 A 
ATOM      7  C5  PXY d   1      -4.611   5.989   3.407  0.00  0.00     0.003 A 
ATOM      8  C6  PXY d   1      -4.219   5.999   2.072  0.00  0.00     0.003 A 
ENDROOT
TORSDOF 0
ENDMDL
