MODEL 1
REMARK minimizedAffinity 9.13129616
REMARK minimizedRMSD -1
REMARK  0 active torsions:
REMARK  status: ('A' for Active; 'I' for Inactive)
ROOT
ATOM      1  C4' PXY d   1       6.000   2.538  -3.367  0.00  0.00     0.077 C 
ATOM      2  C1' PXY d   1       2.206  -0.105   0.102  0.00  0.00     0.077 C 
ATOM      3  C1  PXY d   1       3.202   0.598  -0.799  0.00  0.00    -0.082 A 
ATOM      4  C2  PXY d   1       3.171   0.381  -2.104  0.00  0.00     0.003 A 
ATOM      5  C3  PXY d   1       4.085   0.984  -2.929  0.00  0.00     0.003 A 
ATOM      6  C4  PXY d   1       5.007   1.858  -2.421  0.00  0.00    -0.082 A 
ATOM      7  C5  PXY d   1       5.039   2.092  -1.092  0.00  0.00     0.003 A 
ATOM      8  C6  PXY d   1       4.129   1.439  -0.266  0.00  0.00     0.003 A 
ENDROOT
TORSDOF 0
ENDMDL
