MODEL 1
REMARK minimizedAffinity 5.624722
REMARK minimizedRMSD -1
REMARK  0 active torsions:
REMARK  status: ('A' for Active; 'I' for Inactive)
ROOT
ATOM      1  C4' PXY d   1       2.626  -0.677   0.810  0.00  0.00     0.077 C 
ATOM      2  C1' PXY d   1       6.000   2.444  -2.695  0.00  0.00     0.077 C 
ATOM      3  C1  PXY d   1       5.106   1.624  -1.785  0.00  0.00    -0.082 A 
ATOM      4  C2  PXY d   1       5.243   1.722  -0.473  0.00  0.00     0.003 A 
ATOM      5  C3  PXY d   1       4.464   0.965   0.364  0.00  0.00     0.003 A 
ATOM      6  C4  PXY d   1       3.500   0.138  -0.147  0.00  0.00    -0.082 A 
ATOM      7  C5  PXY d   1       3.347   0.040  -1.484  0.00  0.00     0.003 A 
ATOM      8  C6  PXY d   1       4.175   0.787  -2.317  0.00  0.00     0.003 A 
ENDROOT
TORSDOF 0
ENDMDL
