MODEL 1
REMARK minimizedAffinity 14.4577513
REMARK minimizedRMSD -1
REMARK  0 active torsions:
REMARK  status: ('A' for Active; 'I' for Inactive)
ROOT
ATOM      1  C4' PXY d   1       1.886  -0.352  -0.360  0.00  0.00     0.077 C 
ATOM      2  C1' PXY d   1       5.999   2.413  -3.334  0.00  0.00     0.077 C 
ATOM      3  C1  PXY d   1       4.927   1.690  -2.543  0.00  0.00    -0.082 A 
ATOM      4  C2  PXY d   1       4.202   0.751  -3.129  0.00  0.00     0.003 A 
ATOM      5  C3  PXY d   1       3.207   0.110  -2.438  0.00  0.00     0.003 A 
ATOM      6  C4  PXY d   1       2.986   0.396  -1.117  0.00  0.00    -0.082 A 
ATOM      7  C5  PXY d   1       3.728   1.346  -0.509  0.00  0.00     0.003 A 
ATOM      8  C6  PXY d   1       4.706   2.014  -1.240  0.00  0.00     0.003 A 
ENDROOT
TORSDOF 0
ENDMDL
