MODEL 1
REMARK minimizedAffinity 5.35343504
REMARK minimizedRMSD -1
REMARK  0 active torsions:
REMARK  status: ('A' for Active; 'I' for Inactive)
ROOT
ATOM      1  C4' PXY d   1      -4.296   5.101  -0.038  0.00  0.00     0.077 C 
ATOM      2  C1' PXY d   1      -5.895   5.076   5.518  0.00  0.00     0.077 C 
ATOM      3  C1  PXY d   1      -5.479   5.070   4.060  0.00  0.00    -0.082 A 
ATOM      4  C2  PXY d   1      -4.614   5.971   3.623  0.00  0.00     0.003 A 
ATOM      5  C3  PXY d   1      -4.251   6.000   2.301  0.00  0.00     0.003 A 
ATOM      6  C4  PXY d   1      -4.738   5.063   1.428  0.00  0.00    -0.082 A 
ATOM      7  C5  PXY d   1      -5.612   4.134   1.869  0.00  0.00     0.003 A 
ATOM      8  C6  PXY d   1      -5.999   4.147   3.206  0.00  0.00     0.003 A 
ENDROOT
TORSDOF 0
ENDMDL
