MODEL 1
REMARK minimizedAffinity 10.5691404
REMARK minimizedRMSD -1
REMARK  0 active torsions:
REMARK  status: ('A' for Active; 'I' for Inactive)
ROOT
ATOM      1  C4' PXY d   1       6.000   3.171  -3.220  0.00  0.00     0.077 C 
ATOM      2  C1' PXY d   1       3.139  -0.431   0.280  0.00  0.00     0.077 C 
ATOM      3  C1  PXY d   1       3.892   0.521  -0.628  0.00  0.00    -0.082 A 
ATOM      4  C2  PXY d   1       3.604   0.560  -1.918  0.00  0.00     0.003 A 
ATOM      5  C3  PXY d   1       4.297   1.392  -2.759  0.00  0.00     0.003 A 
ATOM      6  C4  PXY d   1       5.259   2.232  -2.265  0.00  0.00    -0.082 A 
ATOM      7  C5  PXY d   1       5.551   2.206  -0.947  0.00  0.00     0.003 A 
ATOM      8  C6  PXY d   1       4.865   1.325  -0.117  0.00  0.00     0.003 A 
ENDROOT
TORSDOF 0
ENDMDL
