MODEL 1
REMARK minimizedAffinity 9.35397053
REMARK minimizedRMSD -1
REMARK  0 active torsions:
REMARK  status: ('A' for Active; 'I' for Inactive)
ROOT
ATOM      1  C4' PXY d   1       2.961  -0.378   0.008  0.00  0.00     0.077 C 
ATOM      2  C1' PXY d   1       5.385  -1.448   5.145  0.00  0.00     0.077 C 
ATOM      3  C1  PXY d   1       4.738  -1.165   3.804  0.00  0.00    -0.082 A 
ATOM      4  C2  PXY d   1       5.217  -1.739   2.712  0.00  0.00     0.003 A 
ATOM      5  C3  PXY d   1       4.664  -1.468   1.487  0.00  0.00     0.003 A 
ATOM      6  C4  PXY d   1       3.577  -0.643   1.384  0.00  0.00    -0.082 A 
ATOM      7  C5  PXY d   1       3.075  -0.062   2.495  0.00  0.00     0.003 A 
ATOM      8  C6  PXY d   1       3.677  -0.317   3.724  0.00  0.00     0.003 A 
ENDROOT
TORSDOF 0
ENDMDL
