MODEL 1
REMARK minimizedAffinity 12.4331846
REMARK minimizedRMSD -1
REMARK  0 active torsions:
REMARK  status: ('A' for Active; 'I' for Inactive)
ROOT
ATOM      1  C4' PXY d   1       1.360   1.566   4.891  0.00  0.00     0.077 C 
ATOM      2  C1' PXY d   1       6.000  -1.882   4.846  0.00  0.00     0.077 C 
ATOM      3  C1  PXY d   1       4.785  -0.975   4.845  0.00  0.00    -0.082 A 
ATOM      4  C2  PXY d   1       4.382  -0.420   5.976  0.00  0.00     0.003 A 
ATOM      5  C3  PXY d   1       3.266   0.377   5.999  0.00  0.00     0.003 A 
ATOM      6  C4  PXY d   1       2.587   0.651   4.843  0.00  0.00    -0.082 A 
ATOM      7  C5  PXY d   1       2.998   0.097   3.682  0.00  0.00     0.003 A 
ATOM      8  C6  PXY d   1       4.108  -0.742   3.688  0.00  0.00     0.003 A 
ENDROOT
TORSDOF 0
ENDMDL
