MODEL 1
REMARK minimizedAffinity 9.55579662
REMARK minimizedRMSD -1
REMARK  0 active torsions:
REMARK  status: ('A' for Active; 'I' for Inactive)
ROOT
ATOM      1  C4' PXY d   1       3.378   1.114  -0.052  0.00  0.00     0.077 C 
ATOM      2  C1' PXY d   1       1.579   2.463   5.274  0.00  0.00     0.077 C 
ATOM      3  C1  PXY d   1       2.059   2.100   3.882  0.00  0.00    -0.082 A 
ATOM      4  C2  PXY d   1       1.932   2.975   2.898  0.00  0.00     0.003 A 
ATOM      5  C3  PXY d   1       2.332   2.652   1.626  0.00  0.00     0.003 A 
ATOM      6  C4  PXY d   1       2.916   1.440   1.371  0.00  0.00    -0.082 A 
ATOM      7  C5  PXY d   1       3.060   0.546   2.372  0.00  0.00     0.003 A 
ATOM      8  C6  PXY d   1       2.610   0.878   3.647  0.00  0.00     0.003 A 
ENDROOT
TORSDOF 0
ENDMDL
