MODEL 1
REMARK minimizedAffinity 7.3534379
REMARK minimizedRMSD -1
REMARK  0 active torsions:
REMARK  status: ('A' for Active; 'I' for Inactive)
ROOT
ATOM      1  C4' PXY d   1       2.626  -0.050   1.499  0.00  0.00     0.077 C 
ATOM      2  C1' PXY d   1       5.999   2.969  -2.096  0.00  0.00     0.077 C 
ATOM      3  C1  PXY d   1       5.105   2.177  -1.162  0.00  0.00    -0.082 A 
ATOM      4  C2  PXY d   1       5.301   2.244   0.145  0.00  0.00     0.003 A 
ATOM      5  C3  PXY d   1       4.523   1.509   1.001  0.00  0.00     0.003 A 
ATOM      6  C4  PXY d   1       3.498   0.740   0.519  0.00  0.00    -0.082 A 
ATOM      7  C5  PXY d   1       3.284   0.675  -0.812  0.00  0.00     0.003 A 
ATOM      8  C6  PXY d   1       4.112   1.397  -1.668  0.00  0.00     0.003 A 
ENDROOT
TORSDOF 0
ENDMDL
