MODEL 1
REMARK minimizedAffinity 9.54795742
REMARK minimizedRMSD -1
REMARK  0 active torsions:
REMARK  status: ('A' for Active; 'I' for Inactive)
ROOT
ATOM      1  C4' PXY d   1       2.280  -0.261   0.627  0.00  0.00     0.077 C 
ATOM      2  C1' PXY d   1       5.999   3.049  -2.309  0.00  0.00     0.077 C 
ATOM      3  C1  PXY d   1       5.032   2.181  -1.529  0.00  0.00    -0.082 A 
ATOM      4  C2  PXY d   1       4.198   1.384  -2.177  0.00  0.00     0.003 A 
ATOM      5  C3  PXY d   1       3.295   0.617  -1.488  0.00  0.00     0.003 A 
ATOM      6  C4  PXY d   1       3.281   0.625  -0.119  0.00  0.00    -0.082 A 
ATOM      7  C5  PXY d   1       4.135   1.427   0.550  0.00  0.00     0.003 A 
ATOM      8  C6  PXY d   1       5.017   2.230  -0.169  0.00  0.00     0.003 A 
ENDROOT
TORSDOF 0
ENDMDL
