MODEL 1
REMARK minimizedAffinity -3.35377645
REMARK minimizedRMSD -1
REMARK  2 active torsions:
REMARK  status: ('A' for Active; 'I' for Inactive)
REMARK    1  A    between atoms: C1_2  and  C2_3 
REMARK    2  A    between atoms: C2_3  and  C3_4 
ROOT
ATOM      1  C3  UNL d   1       3.152   4.797  -5.139  0.00  0.00    -0.075 A 
ATOM      2  C4  UNL d   1       3.792   3.789  -4.403  0.00  0.00     0.002 A 
ATOM      3  C5  UNL d   1       5.146   3.894  -4.087  0.00  0.00     0.002 A 
ATOM      4  C6  UNL d   1       5.879   5.001  -4.510  0.00  0.00    -0.004 A 
ATOM      5  C7  UNL d   1       5.258   6.000  -5.255  0.00  0.00     0.002 A 
ATOM      6  C8  UNL d   1       3.902   5.899  -5.570  0.00  0.00     0.002 A 
ENDROOT
BRANCH   1   7
ATOM      7  C2  UNL d   1       1.679   4.703  -5.460  0.00  0.00     0.056 C 
BRANCH   7   8
ATOM      8  C1  UNL d   1       0.887   5.972  -5.131  0.00  0.00     0.007 C 
ATOM      9  C   UNL d   1       0.363   6.000  -3.701  0.00  0.00     0.009 C 
ENDBRANCH   7   8
ENDBRANCH   1   7
TORSDOF 2
ENDMDL
