MODEL 1
REMARK minimizedAffinity 1.46781778
REMARK minimizedRMSD -1
REMARK  2 active torsions:
REMARK  status: ('A' for Active; 'I' for Inactive)
REMARK    1  A    between atoms: C1_2  and  C2_3 
REMARK    2  A    between atoms: C2_3  and  C3_4 
ROOT
ATOM      1  C3  UNL d   1       0.472   5.934  -4.144  0.00  0.00    -0.075 A 
ATOM      2  C4  UNL d   1      -0.396   5.932  -5.246  0.00  0.00     0.002 A 
ATOM      3  C5  UNL d   1      -1.778   5.963  -5.059  0.00  0.00     0.002 A 
ATOM      4  C6  UNL d   1      -2.310   5.986  -3.771  0.00  0.00    -0.004 A 
ATOM      5  C7  UNL d   1      -1.458   5.972  -2.669  0.00  0.00     0.002 A 
ATOM      6  C8  UNL d   1      -0.074   5.945  -2.853  0.00  0.00     0.002 A 
ENDROOT
BRANCH   1   7
ATOM      7  C2  UNL d   1       1.969   5.931  -4.340  0.00  0.00     0.056 C 
BRANCH   7   8
ATOM      8  C1  UNL d   1       2.406   5.803  -5.803  0.00  0.00     0.007 C 
ATOM      9  C   UNL d   1       3.905   5.986  -6.000  0.00  0.00     0.009 C 
ENDBRANCH   7   8
ENDBRANCH   1   7
TORSDOF 2
ENDMDL
