MODEL 1
REMARK minimizedAffinity 0.654970646
REMARK minimizedRMSD -1
REMARK  2 active torsions:
REMARK  status: ('A' for Active; 'I' for Inactive)
REMARK    1  A    between atoms: C1_2  and  C2_3 
REMARK    2  A    between atoms: C2_3  and  C3_4 
ROOT
ATOM      1  C3  UNL d   1      -1.749   6.000  -3.902  0.00  0.00    -0.075 A 
ATOM      2  C4  UNL d   1      -1.688   5.998  -2.501  0.00  0.00     0.002 A 
ATOM      3  C5  UNL d   1      -2.858   5.972  -1.741  0.00  0.00     0.002 A 
ATOM      4  C6  UNL d   1      -4.101   5.956  -2.370  0.00  0.00    -0.004 A 
ATOM      5  C7  UNL d   1      -4.174   5.974  -3.761  0.00  0.00     0.002 A 
ATOM      6  C8  UNL d   1      -3.005   5.997  -4.524  0.00  0.00     0.002 A 
ENDROOT
BRANCH   1   7
ATOM      7  C2  UNL d   1      -0.487   5.999  -4.730  0.00  0.00     0.056 C 
BRANCH   7   8
ATOM      8  C1  UNL d   1       0.802   5.991  -3.902  0.00  0.00     0.007 C 
ATOM      9  C   UNL d   1       2.062   5.894  -4.753  0.00  0.00     0.009 C 
ENDBRANCH   7   8
ENDBRANCH   1   7
TORSDOF 2
ENDMDL
