MODEL 1
REMARK minimizedAffinity 10.914073
REMARK minimizedRMSD -1
REMARK  2 active torsions:
REMARK  status: ('A' for Active; 'I' for Inactive)
REMARK    1  A    between atoms: C1_2  and  C2_3 
REMARK    2  A    between atoms: C2_3  and  C3_4 
ROOT
ATOM      1  C3  UNL d   1      -2.689  -3.204   4.184  0.00  0.00    -0.075 A 
ATOM      2  C4  UNL d   1      -3.404  -3.704   5.282  0.00  0.00     0.002 A 
ATOM      3  C5  UNL d   1      -4.269  -2.878   5.999  0.00  0.00     0.002 A 
ATOM      4  C6  UNL d   1      -4.423  -1.542   5.635  0.00  0.00    -0.004 A 
ATOM      5  C7  UNL d   1      -3.706  -1.030   4.556  0.00  0.00     0.002 A 
ATOM      6  C8  UNL d   1      -2.843  -1.856   3.834  0.00  0.00     0.002 A 
ENDROOT
BRANCH   1   7
ATOM      7  C2  UNL d   1      -1.774  -4.101   3.385  0.00  0.00     0.056 C 
BRANCH   7   8
ATOM      8  C1  UNL d   1      -1.781  -3.818   1.879  0.00  0.00     0.007 C 
ATOM      9  C   UNL d   1      -0.979  -4.831   1.074  0.00  0.00     0.009 C 
ENDBRANCH   7   8
ENDBRANCH   1   7
TORSDOF 2
ENDMDL
