MODEL 1
REMARK minimizedAffinity 2.96606946
REMARK minimizedRMSD -1
REMARK  2 active torsions:
REMARK  status: ('A' for Active; 'I' for Inactive)
REMARK    1  A    between atoms: C1_2  and  C2_3 
REMARK    2  A    between atoms: C2_3  and  C3_4 
ROOT
ATOM      1  C3  UNL d   1       1.447   4.891  -4.793  0.00  0.00    -0.075 A 
ATOM      2  C4  UNL d   1       2.393   4.038  -4.205  0.00  0.00     0.002 A 
ATOM      3  C5  UNL d   1       3.749   4.174  -4.502  0.00  0.00     0.002 A 
ATOM      4  C6  UNL d   1       4.176   5.154  -5.395  0.00  0.00    -0.004 A 
ATOM      5  C7  UNL d   1       3.243   5.997  -5.996  0.00  0.00     0.002 A 
ATOM      6  C8  UNL d   1       1.886   5.866  -5.698  0.00  0.00     0.002 A 
ENDROOT
BRANCH   1   7
ATOM      7  C2  UNL d   1      -0.019   4.769  -4.453  0.00  0.00     0.056 C 
BRANCH   7   8
ATOM      8  C1  UNL d   1      -0.601   5.999  -3.748  0.00  0.00     0.007 C 
ATOM      9  C   UNL d   1      -0.399   5.976  -2.238  0.00  0.00     0.009 C 
ENDBRANCH   7   8
ENDBRANCH   1   7
TORSDOF 2
ENDMDL
