MODEL 1
REMARK minimizedAffinity 2.8029089
REMARK minimizedRMSD -1
REMARK  2 active torsions:
REMARK  status: ('A' for Active; 'I' for Inactive)
REMARK    1  A    between atoms: C1_2  and  C2_3 
REMARK    2  A    between atoms: C2_3  and  C3_4 
ROOT
ATOM      1  C3  UNL d   1       1.174   0.345  -1.431  0.00  0.00    -0.075 A 
ATOM      2  C4  UNL d   1       1.006   0.019  -0.077  0.00  0.00     0.002 A 
ATOM      3  C5  UNL d   1       1.070   1.010   0.903  0.00  0.00     0.002 A 
ATOM      4  C6  UNL d   1       1.313   2.334   0.544  0.00  0.00    -0.004 A 
ATOM      5  C7  UNL d   1       1.499   2.666  -0.796  0.00  0.00     0.002 A 
ATOM      6  C8  UNL d   1       1.430   1.678  -1.779  0.00  0.00     0.002 A 
ENDROOT
BRANCH   1   7
ATOM      7  C2  UNL d   1       1.077  -0.718  -2.499  0.00  0.00     0.056 C 
BRANCH   7   8
ATOM      8  C1  UNL d   1      -0.343  -0.936  -3.034  0.00  0.00     0.007 C 
ATOM      9  C   UNL d   1      -0.371  -1.505  -4.447  0.00  0.00     0.009 C 
ENDBRANCH   7   8
ENDBRANCH   1   7
TORSDOF 2
ENDMDL
