MODEL 1
REMARK minimizedAffinity 1.94277084
REMARK minimizedRMSD -1
REMARK  2 active torsions:
REMARK  status: ('A' for Active; 'I' for Inactive)
REMARK    1  A    between atoms: C1_2  and  C2_3 
REMARK    2  A    between atoms: C2_3  and  C3_4 
ROOT
ATOM      1  C3  UNL d   1       0.443   1.036   1.347  0.00  0.00    -0.075 A 
ATOM      2  C4  UNL d   1       1.054   2.254   1.013  0.00  0.00     0.002 A 
ATOM      3  C5  UNL d   1       1.471   2.502  -0.295  0.00  0.00     0.002 A 
ATOM      4  C6  UNL d   1       1.293   1.535  -1.282  0.00  0.00    -0.004 A 
ATOM      5  C7  UNL d   1       0.703   0.315  -0.958  0.00  0.00     0.002 A 
ATOM      6  C8  UNL d   1       0.280   0.065   0.349  0.00  0.00     0.002 A 
ENDROOT
BRANCH   1   7
ATOM      7  C2  UNL d   1      -0.037   0.772   2.754  0.00  0.00     0.056 C 
BRANCH   7   8
ATOM      8  C1  UNL d   1       1.080   0.762   3.802  0.00  0.00     0.007 C 
ATOM      9  C   UNL d   1       0.581   0.456   5.208  0.00  0.00     0.009 C 
ENDBRANCH   7   8
ENDBRANCH   1   7
TORSDOF 2
ENDMDL
