MODEL 1
REMARK minimizedAffinity -3.7913456
REMARK minimizedRMSD -1
REMARK  2 active torsions:
REMARK  status: ('A' for Active; 'I' for Inactive)
REMARK    1  A    between atoms: C1_2  and  C2_3 
REMARK    2  A    between atoms: C2_3  and  C3_4 
ROOT
ATOM      1  C3  UNL d   1       0.178   5.992  -4.821  0.00  0.00    -0.075 A 
ATOM      2  C4  UNL d   1       0.096   5.975  -3.421  0.00  0.00     0.002 A 
ATOM      3  C5  UNL d   1      -1.145   5.944  -2.784  0.00  0.00     0.002 A 
ATOM      4  C6  UNL d   1      -2.318   5.939  -3.537  0.00  0.00    -0.004 A 
ATOM      5  C7  UNL d   1      -2.248   5.973  -4.928  0.00  0.00     0.002 A 
ATOM      6  C8  UNL d   1      -1.007   6.000  -5.568  0.00  0.00     0.002 A 
ENDROOT
BRANCH   1   7
ATOM      7  C2  UNL d   1       1.519   5.997  -5.515  0.00  0.00     0.056 C 
BRANCH   7   8
ATOM      8  C1  UNL d   1       2.717   6.000  -4.560  0.00  0.00     0.007 C 
ATOM      9  C   UNL d   1       3.445   4.664  -4.506  0.00  0.00     0.009 C 
ENDBRANCH   7   8
ENDBRANCH   1   7
TORSDOF 2
ENDMDL
