MODEL 1
REMARK minimizedAffinity 3.07179546
REMARK minimizedRMSD -1
REMARK  2 active torsions:
REMARK  status: ('A' for Active; 'I' for Inactive)
REMARK    1  A    between atoms: C1_2  and  C2_3 
REMARK    2  A    between atoms: C2_3  and  C3_4 
ROOT
ATOM      1  C3  UNL d   1       1.079   1.856   1.180  0.00  0.00    -0.075 A 
ATOM      2  C4  UNL d   1       0.552   0.919   0.279  0.00  0.00     0.002 A 
ATOM      3  C5  UNL d   1      -0.435   0.022   0.688  0.00  0.00     0.002 A 
ATOM      4  C6  UNL d   1      -0.900   0.043   2.001  0.00  0.00    -0.004 A 
ATOM      5  C7  UNL d   1      -0.372   0.958   2.908  0.00  0.00     0.002 A 
ATOM      6  C8  UNL d   1       0.613   1.860   2.501  0.00  0.00     0.002 A 
ENDROOT
BRANCH   1   7
ATOM      7  C2  UNL d   1       2.126   2.849   0.736  0.00  0.00     0.056 C 
BRANCH   7   8
ATOM      8  C1  UNL d   1       3.478   2.217   0.389  0.00  0.00     0.007 C 
ATOM      9  C   UNL d   1       3.934   1.178   1.405  0.00  0.00     0.009 C 
ENDBRANCH   7   8
ENDBRANCH   1   7
TORSDOF 2
ENDMDL
