MODEL 1
REMARK minimizedAffinity 4.18823862
REMARK minimizedRMSD -1
REMARK  2 active torsions:
REMARK  status: ('A' for Active; 'I' for Inactive)
REMARK    1  A    between atoms: C1_2  and  C2_3 
REMARK    2  A    between atoms: C2_3  and  C3_4 
ROOT
ATOM      1  C3  UNL d   1       0.514   0.874   1.431  0.00  0.00    -0.075 A 
ATOM      2  C4  UNL d   1       1.070   2.158   1.335  0.00  0.00     0.002 A 
ATOM      3  C5  UNL d   1       1.412   2.691   0.092  0.00  0.00     0.002 A 
ATOM      4  C6  UNL d   1       1.214   1.945  -1.068  0.00  0.00    -0.004 A 
ATOM      5  C7  UNL d   1       0.677   0.662  -0.983  0.00  0.00     0.002 A 
ATOM      6  C8  UNL d   1       0.330   0.128   0.259  0.00  0.00     0.002 A 
ENDROOT
BRANCH   1   7
ATOM      7  C2  UNL d   1       0.113   0.303   2.770  0.00  0.00     0.056 C 
BRANCH   7   8
ATOM      8  C1  UNL d   1       1.134   0.553   3.885  0.00  0.00     0.007 C 
ATOM      9  C   UNL d   1       0.510   1.110   5.158  0.00  0.00     0.009 C 
ENDBRANCH   7   8
ENDBRANCH   1   7
TORSDOF 2
ENDMDL
