MODEL 1
REMARK minimizedAffinity 1.4347868
REMARK minimizedRMSD -1
REMARK  2 active torsions:
REMARK  status: ('A' for Active; 'I' for Inactive)
REMARK    1  A    between atoms: C1_2  and  C2_3 
REMARK    2  A    between atoms: C2_3  and  C3_4 
ROOT
ATOM      1  C3  UNL d   1       2.830   4.710  -5.594  0.00  0.00    -0.075 A 
ATOM      2  C4  UNL d   1       3.548   5.845  -6.000  0.00  0.00     0.002 A 
ATOM      3  C5  UNL d   1       4.888   6.000  -5.645  0.00  0.00     0.002 A 
ATOM      4  C6  UNL d   1       5.524   5.030  -4.873  0.00  0.00    -0.004 A 
ATOM      5  C7  UNL d   1       4.817   3.907  -4.451  0.00  0.00     0.002 A 
ATOM      6  C8  UNL d   1       3.477   3.747  -4.808  0.00  0.00     0.002 A 
ENDROOT
BRANCH   1   7
ATOM      7  C2  UNL d   1       1.388   4.522  -5.999  0.00  0.00     0.056 C 
BRANCH   7   8
ATOM      8  C1  UNL d   1       0.509   5.755  -5.765  0.00  0.00     0.007 C 
ATOM      9  C   UNL d   1      -0.258   5.705  -4.451  0.00  0.00     0.009 C 
ENDBRANCH   7   8
ENDBRANCH   1   7
TORSDOF 2
ENDMDL
