MODEL 1
REMARK minimizedAffinity 0.577582181
REMARK minimizedRMSD -1
REMARK  2 active torsions:
REMARK  status: ('A' for Active; 'I' for Inactive)
REMARK    1  A    between atoms: C1_2  and  C2_3 
REMARK    2  A    between atoms: C2_3  and  C3_4 
ROOT
ATOM      1  C3  UNL d   1       2.186   5.813  -5.203  0.00  0.00    -0.075 A 
ATOM      2  C4  UNL d   1       2.196   5.923  -3.805  0.00  0.00     0.002 A 
ATOM      3  C5  UNL d   1       0.999   5.999  -3.092  0.00  0.00     0.002 A 
ATOM      4  C6  UNL d   1      -0.220   5.976  -3.766  0.00  0.00    -0.004 A 
ATOM      5  C7  UNL d   1      -0.241   5.884  -5.156  0.00  0.00     0.002 A 
ATOM      6  C8  UNL d   1       0.954   5.804  -5.872  0.00  0.00     0.002 A 
ENDROOT
BRANCH   1   7
ATOM      7  C2  UNL d   1       3.477   5.702  -5.978  0.00  0.00     0.056 C 
BRANCH   7   8
ATOM      8  C1  UNL d   1       4.619   5.044  -5.196  0.00  0.00     0.007 C 
ATOM      9  C   UNL d   1       5.260   5.973  -4.174  0.00  0.00     0.009 C 
ENDBRANCH   7   8
ENDBRANCH   1   7
TORSDOF 2
ENDMDL
