MODEL 1
REMARK minimizedAffinity 3.1452105
REMARK minimizedRMSD -1
REMARK  2 active torsions:
REMARK  status: ('A' for Active; 'I' for Inactive)
REMARK    1  A    between atoms: C1_2  and  C2_3 
REMARK    2  A    between atoms: C2_3  and  C3_4 
ROOT
ATOM      1  C3  UNL d   1       3.362   5.345  -5.229  0.00  0.00    -0.075 A 
ATOM      2  C4  UNL d   1       4.602   6.000  -5.188  0.00  0.00     0.002 A 
ATOM      3  C5  UNL d   1       5.706   5.388  -4.595  0.00  0.00     0.002 A 
ATOM      4  C6  UNL d   1       5.583   4.122  -4.027  0.00  0.00    -0.004 A 
ATOM      5  C7  UNL d   1       4.353   3.469  -4.047  0.00  0.00     0.002 A 
ATOM      6  C8  UNL d   1       3.247   4.077  -4.644  0.00  0.00     0.002 A 
ENDROOT
BRANCH   1   7
ATOM      7  C2  UNL d   1       2.170   5.990  -5.896  0.00  0.00     0.056 C 
BRANCH   7   8
ATOM      8  C1  UNL d   1       0.892   5.146  -5.840  0.00  0.00     0.007 C 
ATOM      9  C   UNL d   1      -0.379   5.983  -5.789  0.00  0.00     0.009 C 
ENDBRANCH   7   8
ENDBRANCH   1   7
TORSDOF 2
ENDMDL
