MODEL 1
REMARK minimizedAffinity -0.630416214
REMARK minimizedRMSD -1
REMARK  2 active torsions:
REMARK  status: ('A' for Active; 'I' for Inactive)
REMARK    1  A    between atoms: C1_2  and  C2_3 
REMARK    2  A    between atoms: C2_3  and  C3_4 
ROOT
ATOM      1  C3  UNL d   1       3.096   5.086  -4.645  0.00  0.00    -0.075 A 
ATOM      2  C4  UNL d   1       2.396   5.599  -3.543  0.00  0.00     0.002 A 
ATOM      3  C5  UNL d   1       1.060   5.979  -3.667  0.00  0.00     0.002 A 
ATOM      4  C6  UNL d   1       0.410   5.862  -4.894  0.00  0.00    -0.004 A 
ATOM      5  C7  UNL d   1       1.100   5.369  -5.999  0.00  0.00     0.002 A 
ATOM      6  C8  UNL d   1       2.436   4.984  -5.877  0.00  0.00     0.002 A 
ENDROOT
BRANCH   1   7
ATOM      7  C2  UNL d   1       4.534   4.645  -4.510  0.00  0.00     0.056 C 
BRANCH   7   8
ATOM      8  C1  UNL d   1       4.764   3.596  -3.416  0.00  0.00     0.007 C 
ATOM      9  C   UNL d   1       4.707   2.165  -3.935  0.00  0.00     0.009 C 
ENDBRANCH   7   8
ENDBRANCH   1   7
TORSDOF 2
ENDMDL
