MODEL 1
REMARK minimizedAffinity 15.6125908
REMARK minimizedRMSD -1
REMARK  0 active torsions:
REMARK  status: ('A' for Active; 'I' for Inactive)
ROOT
ATOM      1  C   UNL d   1      -3.005  -1.490   6.000  0.00  0.00     0.078 C 
ATOM      2  C1  UNL d   1      -4.010  -1.984   5.002  0.00  0.00    -0.077 A 
ATOM      3  C2  UNL d   1      -4.262  -1.274   3.822  0.00  0.00    -0.001 A 
ATOM      4  C3  UNL d   1      -5.207  -1.740   2.906  0.00  0.00     0.003 A 
ATOM      5  C4  UNL d   1      -5.909  -2.917   3.163  0.00  0.00    -0.005 A 
ATOM      6  C5  UNL d   1      -5.667  -3.628   4.336  0.00  0.00     0.003 A 
ATOM      7  C6  UNL d   1      -4.722  -3.164   5.253  0.00  0.00    -0.001 A 
ENDROOT
TORSDOF 0
ENDMDL
