MODEL 1
REMARK minimizedAffinity 8.65247059
REMARK minimizedRMSD -1
REMARK  0 active torsions:
REMARK  status: ('A' for Active; 'I' for Inactive)
ROOT
ATOM      1  C   UNL d   1      -3.995   2.844   1.910  0.00  0.00     0.078 C 
ATOM      2  C1  UNL d   1      -2.982   1.741   1.830  0.00  0.00    -0.077 A 
ATOM      3  C2  UNL d   1      -3.380   0.402   1.725  0.00  0.00    -0.001 A 
ATOM      4  C3  UNL d   1      -2.427  -0.615   1.661  0.00  0.00     0.003 A 
ATOM      5  C4  UNL d   1      -1.069  -0.304   1.702  0.00  0.00    -0.005 A 
ATOM      6  C5  UNL d   1      -0.663   1.024   1.809  0.00  0.00     0.003 A 
ATOM      7  C6  UNL d   1      -1.615   2.043   1.873  0.00  0.00    -0.001 A 
ENDROOT
TORSDOF 0
ENDMDL
