MODEL 1
REMARK minimizedAffinity 4.45538759
REMARK minimizedRMSD -1
REMARK  0 active torsions:
REMARK  status: ('A' for Active; 'I' for Inactive)
ROOT
ATOM      1  C   UNL d   1      -6.000  -2.258   1.483  0.00  0.00     0.078 C 
ATOM      2  C1  UNL d   1      -5.277  -3.568   1.377  0.00  0.00    -0.077 A 
ATOM      3  C2  UNL d   1      -5.618  -4.648   2.201  0.00  0.00    -0.001 A 
ATOM      4  C3  UNL d   1      -4.930  -5.858   2.099  0.00  0.00     0.003 A 
ATOM      5  C4  UNL d   1      -3.897  -6.000   1.175  0.00  0.00    -0.005 A 
ATOM      6  C5  UNL d   1      -3.549  -4.930   0.352  0.00  0.00     0.003 A 
ATOM      7  C6  UNL d   1      -4.236  -3.719   0.453  0.00  0.00    -0.001 A 
ENDROOT
TORSDOF 0
ENDMDL
