MODEL 1
REMARK minimizedAffinity 13.6062546
REMARK minimizedRMSD -1
REMARK  0 active torsions:
REMARK  status: ('A' for Active; 'I' for Inactive)
ROOT
ATOM      1  C   UNL d   1      -4.866   3.228   2.738  0.00  0.00     0.078 C 
ATOM      2  C1  UNL d   1      -4.668   4.202   3.861  0.00  0.00    -0.077 A 
ATOM      3  C2  UNL d   1      -3.596   5.103   3.853  0.00  0.00    -0.001 A 
ATOM      4  C3  UNL d   1      -3.418   5.998   4.909  0.00  0.00     0.003 A 
ATOM      5  C4  UNL d   1      -4.307   5.999   5.982  0.00  0.00    -0.005 A 
ATOM      6  C5  UNL d   1      -5.375   5.105   6.000  0.00  0.00     0.003 A 
ATOM      7  C6  UNL d   1      -5.555   4.210   4.944  0.00  0.00    -0.001 A 
ENDROOT
TORSDOF 0
ENDMDL
