MODEL 1
REMARK minimizedAffinity 3.19039416
REMARK minimizedRMSD -1
REMARK  0 active torsions:
REMARK  status: ('A' for Active; 'I' for Inactive)
ROOT
ATOM      1  C   UNL d   1      -3.231   2.164   1.550  0.00  0.00     0.078 C 
ATOM      2  C1  UNL d   1      -2.886   0.707   1.463  0.00  0.00    -0.077 A 
ATOM      3  C2  UNL d   1      -1.555   0.276   1.519  0.00  0.00    -0.001 A 
ATOM      4  C3  UNL d   1      -1.248  -1.082   1.427  0.00  0.00     0.003 A 
ATOM      5  C4  UNL d   1      -2.267  -2.021   1.276  0.00  0.00    -0.005 A 
ATOM      6  C5  UNL d   1      -3.595  -1.602   1.218  0.00  0.00     0.003 A 
ATOM      7  C6  UNL d   1      -3.903  -0.244   1.310  0.00  0.00    -0.001 A 
ENDROOT
TORSDOF 0
ENDMDL
