MODEL 1
REMARK minimizedAffinity 5.84363556
REMARK minimizedRMSD -1
REMARK  0 active torsions:
REMARK  status: ('A' for Active; 'I' for Inactive)
ROOT
ATOM      1  C   UNL d   1      -3.986   3.124   1.833  0.00  0.00     0.078 C 
ATOM      2  C1  UNL d   1      -2.996   2.016   2.032  0.00  0.00    -0.077 A 
ATOM      3  C2  UNL d   1      -3.387   0.788   2.580  0.00  0.00    -0.001 A 
ATOM      4  C3  UNL d   1      -2.453  -0.231   2.769  0.00  0.00     0.003 A 
ATOM      5  C4  UNL d   1      -1.120  -0.033   2.414  0.00  0.00    -0.005 A 
ATOM      6  C5  UNL d   1      -0.720   1.186   1.870  0.00  0.00     0.003 A 
ATOM      7  C6  UNL d   1      -1.654   2.207   1.680  0.00  0.00    -0.001 A 
ENDROOT
TORSDOF 0
ENDMDL
