MODEL 1
REMARK minimizedAffinity 6.3920064
REMARK minimizedRMSD -1
REMARK  0 active torsions:
REMARK  status: ('A' for Active; 'I' for Inactive)
ROOT
ATOM      1  C   UNL d   1       1.879  -0.384  -3.617  0.00  0.00     0.078 C 
ATOM      2  C1  UNL d   1       0.730  -0.931  -4.410  0.00  0.00    -0.077 A 
ATOM      3  C2  UNL d   1       0.723  -2.262  -4.846  0.00  0.00    -0.001 A 
ATOM      4  C3  UNL d   1      -0.349  -2.755  -5.592  0.00  0.00     0.003 A 
ATOM      5  C4  UNL d   1      -1.421  -1.924  -5.909  0.00  0.00    -0.005 A 
ATOM      6  C5  UNL d   1      -1.423  -0.597  -5.482  0.00  0.00     0.003 A 
ATOM      7  C6  UNL d   1      -0.352  -0.103  -4.736  0.00  0.00    -0.001 A 
ENDROOT
TORSDOF 0
ENDMDL
