MODEL 1
REMARK minimizedAffinity 2.55754209
REMARK minimizedRMSD -1
REMARK  0 active torsions:
REMARK  status: ('A' for Active; 'I' for Inactive)
ROOT
ATOM      1  C   UNL d   1      -1.893  -2.963  -6.000  0.00  0.00     0.078 C 
ATOM      2  C1  UNL d   1      -3.327  -3.401  -5.998  0.00  0.00    -0.077 A 
ATOM      3  C2  UNL d   1      -4.367  -2.464  -5.980  0.00  0.00    -0.001 A 
ATOM      4  C3  UNL d   1      -5.697  -2.887  -5.968  0.00  0.00     0.003 A 
ATOM      5  C4  UNL d   1      -6.000  -4.247  -5.973  0.00  0.00    -0.005 A 
ATOM      6  C5  UNL d   1      -4.971  -5.187  -5.988  0.00  0.00     0.003 A 
ATOM      7  C6  UNL d   1      -3.640  -4.766  -6.000  0.00  0.00    -0.001 A 
ENDROOT
TORSDOF 0
ENDMDL
