MODEL 1
REMARK minimizedAffinity 9.62976456
REMARK minimizedRMSD -1
REMARK  0 active torsions:
REMARK  status: ('A' for Active; 'I' for Inactive)
ROOT
ATOM      1  C   UNL d   1      -2.254  -4.692  -5.999  0.00  0.00     0.078 C 
ATOM      2  C1  UNL d   1      -3.561  -4.017  -5.708  0.00  0.00    -0.077 A 
ATOM      3  C2  UNL d   1      -4.778  -4.658  -5.968  0.00  0.00    -0.001 A 
ATOM      4  C3  UNL d   1      -5.987  -4.014  -5.701  0.00  0.00     0.003 A 
ATOM      5  C4  UNL d   1      -5.990  -2.724  -5.174  0.00  0.00    -0.005 A 
ATOM      6  C5  UNL d   1      -4.784  -2.076  -4.914  0.00  0.00     0.003 A 
ATOM      7  C6  UNL d   1      -3.574  -2.719  -5.181  0.00  0.00    -0.001 A 
ENDROOT
TORSDOF 0
ENDMDL
