MODEL 1
REMARK minimizedAffinity 9.9336853
REMARK minimizedRMSD -1
REMARK  0 active torsions:
REMARK  status: ('A' for Active; 'I' for Inactive)
ROOT
ATOM      1  C   UNL d   1       5.998   3.764  -4.139  0.00  0.00     0.078 C 
ATOM      2  C1  UNL d   1       4.642   4.246  -4.559  0.00  0.00    -0.077 A 
ATOM      3  C2  UNL d   1       4.030   5.329  -3.915  0.00  0.00    -0.001 A 
ATOM      4  C3  UNL d   1       2.763   5.761  -4.311  0.00  0.00     0.003 A 
ATOM      5  C4  UNL d   1       2.097   5.116  -5.351  0.00  0.00    -0.005 A 
ATOM      6  C5  UNL d   1       2.697   4.036  -5.996  0.00  0.00     0.003 A 
ATOM      7  C6  UNL d   1       3.964   3.603  -5.602  0.00  0.00    -0.001 A 
ENDROOT
TORSDOF 0
ENDMDL
