MODEL 1
REMARK minimizedAffinity 9.52131271
REMARK minimizedRMSD -1
REMARK  0 active torsions:
REMARK  status: ('A' for Active; 'I' for Inactive)
ROOT
ATOM      1  C   UNL d   1       0.445  -0.847   2.738  0.00  0.00     0.078 C 
ATOM      2  C1  UNL d   1      -0.655  -0.057   2.095  0.00  0.00    -0.077 A 
ATOM      3  C2  UNL d   1      -1.728   0.432   2.850  0.00  0.00    -0.001 A 
ATOM      4  C3  UNL d   1      -2.750   1.158   2.236  0.00  0.00     0.003 A 
ATOM      5  C4  UNL d   1      -2.710   1.400   0.864  0.00  0.00    -0.005 A 
ATOM      6  C5  UNL d   1      -1.648   0.915   0.104  0.00  0.00     0.003 A 
ATOM      7  C6  UNL d   1      -0.625   0.189   0.716  0.00  0.00    -0.001 A 
ENDROOT
TORSDOF 0
ENDMDL
