MODEL 1
REMARK minimizedAffinity 5.30763054
REMARK minimizedRMSD -1
REMARK  0 active torsions:
REMARK  status: ('A' for Active; 'I' for Inactive)
ROOT
ATOM      1  C   UNL d   1       4.111   3.386  -5.620  0.00  0.00     0.078 C 
ATOM      2  C1  UNL d   1       3.564   2.088  -5.107  0.00  0.00    -0.077 A 
ATOM      3  C2  UNL d   1       3.331   1.893  -3.740  0.00  0.00    -0.001 A 
ATOM      4  C3  UNL d   1       2.830   0.675  -3.276  0.00  0.00     0.003 A 
ATOM      5  C4  UNL d   1       2.560  -0.357  -4.171  0.00  0.00    -0.005 A 
ATOM      6  C5  UNL d   1       2.790  -0.174  -5.533  0.00  0.00     0.003 A 
ATOM      7  C6  UNL d   1       3.291   1.043  -5.999  0.00  0.00    -0.001 A 
ENDROOT
TORSDOF 0
ENDMDL
