MODEL 1
REMARK minimizedAffinity 7.61195898
REMARK minimizedRMSD -1
REMARK  0 active torsions:
REMARK  status: ('A' for Active; 'I' for Inactive)
ROOT
ATOM      1  C   UNL d   1      -1.954   0.556   1.551  0.00  0.00     0.078 C 
ATOM      2  C1  UNL d   1      -2.171  -0.812   0.977  0.00  0.00    -0.077 A 
ATOM      3  C2  UNL d   1      -1.140  -1.759   0.958  0.00  0.00    -0.001 A 
ATOM      4  C3  UNL d   1      -1.354  -3.025   0.412  0.00  0.00     0.003 A 
ATOM      5  C4  UNL d   1      -2.598  -3.356  -0.122  0.00  0.00    -0.005 A 
ATOM      6  C5  UNL d   1      -3.630  -2.420  -0.110  0.00  0.00     0.003 A 
ATOM      7  C6  UNL d   1      -3.418  -1.153   0.436  0.00  0.00    -0.001 A 
ENDROOT
TORSDOF 0
ENDMDL
