MODEL 1
REMARK minimizedAffinity 5.57286072
REMARK minimizedRMSD -1
REMARK  0 active torsions:
REMARK  status: ('A' for Active; 'I' for Inactive)
ROOT
ATOM      1  C   UNL d   1      -4.018   2.728   1.781  0.00  0.00     0.078 C 
ATOM      2  C1  UNL d   1      -3.002   1.628   1.720  0.00  0.00    -0.077 A 
ATOM      3  C2  UNL d   1      -1.826   1.772   0.974  0.00  0.00    -0.001 A 
ATOM      4  C3  UNL d   1      -0.893   0.735   0.919  0.00  0.00     0.003 A 
ATOM      5  C4  UNL d   1      -1.127  -0.454   1.606  0.00  0.00    -0.005 A 
ATOM      6  C5  UNL d   1      -2.296  -0.608   2.350  0.00  0.00     0.003 A 
ATOM      7  C6  UNL d   1      -3.230   0.428   2.406  0.00  0.00    -0.001 A 
ENDROOT
TORSDOF 0
ENDMDL
