MODEL 1
REMARK minimizedAffinity 4.7059288
REMARK minimizedRMSD -1
REMARK  0 active torsions:
REMARK  status: ('A' for Active; 'I' for Inactive)
ROOT
ATOM      1  C   UNL d   1       1.098  -0.039   3.251  0.00  0.00     0.078 C 
ATOM      2  C1  UNL d   1      -0.228   0.319   2.652  0.00  0.00    -0.077 A 
ATOM      3  C2  UNL d   1      -0.308   0.990   1.425  0.00  0.00    -0.001 A 
ATOM      4  C3  UNL d   1      -1.550   1.326   0.884  0.00  0.00     0.003 A 
ATOM      5  C4  UNL d   1      -2.721   0.996   1.562  0.00  0.00    -0.005 A 
ATOM      6  C5  UNL d   1      -2.652   0.330   2.784  0.00  0.00     0.003 A 
ATOM      7  C6  UNL d   1      -1.411  -0.007   3.327  0.00  0.00    -0.001 A 
ENDROOT
TORSDOF 0
ENDMDL
