MODEL 1
REMARK minimizedAffinity 5.43702507
REMARK minimizedRMSD -1
REMARK  0 active torsions:
REMARK  status: ('A' for Active; 'I' for Inactive)
ROOT
ATOM      1  C   UNL d   1      -4.906   0.215  -4.537  0.00  0.00     0.078 C 
ATOM      2  C1  UNL d   1      -5.291  -1.169  -4.107  0.00  0.00    -0.077 A 
ATOM      3  C2  UNL d   1      -5.652  -1.437  -2.780  0.00  0.00    -0.001 A 
ATOM      4  C3  UNL d   1      -5.999  -2.732  -2.392  0.00  0.00     0.003 A 
ATOM      5  C4  UNL d   1      -5.988  -3.769  -3.322  0.00  0.00    -0.005 A 
ATOM      6  C5  UNL d   1      -5.629  -3.512  -4.644  0.00  0.00     0.003 A 
ATOM      7  C6  UNL d   1      -5.281  -2.218  -5.035  0.00  0.00    -0.001 A 
ENDROOT
TORSDOF 0
ENDMDL
