MODEL 1
REMARK minimizedAffinity 11.5139914
REMARK minimizedRMSD -1
REMARK  0 active torsions:
REMARK  status: ('A' for Active; 'I' for Inactive)
ROOT
ATOM      1  C   UNL d   1      -4.512  -1.202   2.435  0.00  0.00     0.078 C 
ATOM      2  C1  UNL d   1      -3.329  -0.286   2.336  0.00  0.00    -0.077 A 
ATOM      3  C2  UNL d   1      -3.477   1.100   2.473  0.00  0.00    -0.001 A 
ATOM      4  C3  UNL d   1      -2.369   1.942   2.369  0.00  0.00     0.003 A 
ATOM      5  C4  UNL d   1      -1.105   1.408   2.126  0.00  0.00    -0.005 A 
ATOM      6  C5  UNL d   1      -0.948   0.030   1.986  0.00  0.00     0.003 A 
ATOM      7  C6  UNL d   1      -2.055  -0.813   2.090  0.00  0.00    -0.001 A 
ENDROOT
TORSDOF 0
ENDMDL
