MODEL 1
REMARK minimizedAffinity 7.07533789
REMARK minimizedRMSD -1
REMARK  0 active torsions:
REMARK  status: ('A' for Active; 'I' for Inactive)
ROOT
ATOM      1  C   UNL d   1       1.801  -1.280  -3.124  0.00  0.00     0.078 C 
ATOM      2  C1  UNL d   1       2.590  -0.483  -4.119  0.00  0.00    -0.077 A 
ATOM      3  C2  UNL d   1       2.209   0.819  -4.465  0.00  0.00    -0.001 A 
ATOM      4  C3  UNL d   1       2.947   1.546  -5.400  0.00  0.00     0.003 A 
ATOM      5  C4  UNL d   1       4.070   0.978  -5.999  0.00  0.00    -0.005 A 
ATOM      6  C5  UNL d   1       4.455  -0.318  -5.663  0.00  0.00     0.003 A 
ATOM      7  C6  UNL d   1       3.718  -1.046  -4.728  0.00  0.00    -0.001 A 
ENDROOT
TORSDOF 0
ENDMDL
