MODEL 1
REMARK minimizedAffinity -0.261036128
REMARK minimizedRMSD -1
REMARK  0 active torsions:
REMARK  status: ('A' for Active; 'I' for Inactive)
ROOT
ATOM      1  C   UNL d   1      -0.109   3.401   3.050  0.00  0.00     0.078 C 
ATOM      2  C1  UNL d   1      -1.058   2.312   2.649  0.00  0.00    -0.077 A 
ATOM      3  C2  UNL d   1      -2.374   2.605   2.269  0.00  0.00    -0.001 A 
ATOM      4  C3  UNL d   1      -3.249   1.580   1.908  0.00  0.00     0.003 A 
ATOM      5  C4  UNL d   1      -2.819   0.254   1.925  0.00  0.00    -0.005 A 
ATOM      6  C5  UNL d   1      -1.513  -0.047   2.304  0.00  0.00     0.003 A 
ATOM      7  C6  UNL d   1      -0.636   0.976   2.665  0.00  0.00    -0.001 A 
ENDROOT
TORSDOF 0
ENDMDL
