MODEL 1
REMARK minimizedAffinity 2.15477371
REMARK minimizedRMSD -1
REMARK  0 active torsions:
REMARK  status: ('A' for Active; 'I' for Inactive)
ROOT
ATOM      1  C   UNL d   1       3.818   3.230  -5.266  0.00  0.00     0.078 C 
ATOM      2  C1  UNL d   1       3.822   1.730  -5.249  0.00  0.00    -0.077 A 
ATOM      3  C2  UNL d   1       4.759   1.004  -5.994  0.00  0.00    -0.001 A 
ATOM      4  C3  UNL d   1       4.745  -0.392  -5.977  0.00  0.00     0.003 A 
ATOM      5  C4  UNL d   1       3.795  -1.073  -5.217  0.00  0.00    -0.005 A 
ATOM      6  C5  UNL d   1       2.858  -0.358  -4.474  0.00  0.00     0.003 A 
ATOM      7  C6  UNL d   1       2.870   1.037  -4.490  0.00  0.00    -0.001 A 
ENDROOT
TORSDOF 0
ENDMDL
