MODEL 1
REMARK minimizedAffinity -3.12286401
REMARK minimizedRMSD -1
REMARK  0 active torsions:
REMARK  status: ('A' for Active; 'I' for Inactive)
ROOT
ATOM      1  C   UNL d   1       0.060   2.658   0.575  0.00  0.00     0.023 A 
ATOM      2  C1  UNL d   1       1.136   1.810   0.838  0.00  0.00     0.003 A 
ATOM      3  C2  UNL d   1       1.085   0.472   0.443  0.00  0.00     0.048 A 
ATOM      4  C3  UNL d   1      -0.045  -0.012  -0.216  0.00  0.00     0.023 A 
ATOM      5  C4  UNL d   1      -1.124   0.833  -0.481  0.00  0.00     0.048 A 
ATOM      6  C5  UNL d   1      -1.068   2.170  -0.083  0.00  0.00     0.003 A 
ATOM      7  I   UNL d   1      -0.123  -2.004  -0.805  0.00  0.00    -0.146 I 
ENDROOT
TORSDOF 0
ENDMDL
