MODEL 1
REMARK minimizedAffinity -2.52660894
REMARK minimizedRMSD -1
REMARK  0 active torsions:
REMARK  status: ('A' for Active; 'I' for Inactive)
ROOT
ATOM      1  C   UNL d   1       0.275   2.706   0.936  0.00  0.00     0.023 A 
ATOM      2  C1  UNL d   1      -0.985   2.208   0.604  0.00  0.00     0.003 A 
ATOM      3  C2  UNL d   1      -1.122   0.888   0.169  0.00  0.00     0.048 A 
ATOM      4  C3  UNL d   1       0.004   0.072   0.069  0.00  0.00     0.023 A 
ATOM      5  C4  UNL d   1       1.266   0.566   0.401  0.00  0.00     0.048 A 
ATOM      6  C5  UNL d   1       1.399   1.886   0.835  0.00  0.00     0.003 A 
ATOM      7  I   UNL d   1      -0.199  -1.893  -0.579  0.00  0.00    -0.146 I 
ENDROOT
TORSDOF 0
ENDMDL
