MODEL 1
REMARK minimizedAffinity -4.2123313
REMARK minimizedRMSD -1
REMARK  0 active torsions:
REMARK  status: ('A' for Active; 'I' for Inactive)
ROOT
ATOM      1  C   UNL d   1      -0.731   1.807   0.484  0.00  0.00     0.023 A 
ATOM      2  C1  UNL d   1      -1.476   1.697  -0.691  0.00  0.00     0.003 A 
ATOM      3  C2  UNL d   1      -1.351   0.561  -1.494  0.00  0.00     0.048 A 
ATOM      4  C3  UNL d   1      -0.481  -0.461  -1.116  0.00  0.00     0.023 A 
ATOM      5  C4  UNL d   1       0.265  -0.355   0.059  0.00  0.00     0.048 A 
ATOM      6  C5  UNL d   1       0.138   0.782   0.858  0.00  0.00     0.003 A 
ATOM      7  I   UNL d   1      -0.295  -2.152  -2.309  0.00  0.00    -0.146 I 
ENDROOT
TORSDOF 0
ENDMDL
