MODEL 1
REMARK minimizedAffinity -2.87962127
REMARK minimizedRMSD -1
REMARK  0 active torsions:
REMARK  status: ('A' for Active; 'I' for Inactive)
ROOT
ATOM      1  C   UNL d   1      -0.025  -3.650  -0.980  0.00  0.00     0.023 A 
ATOM      2  C1  UNL d   1       0.786  -2.989  -0.057  0.00  0.00     0.003 A 
ATOM      3  C2  UNL d   1       0.495  -1.675   0.315  0.00  0.00     0.048 A 
ATOM      4  C3  UNL d   1      -0.609  -1.028  -0.239  0.00  0.00     0.023 A 
ATOM      5  C4  UNL d   1      -1.424  -1.685  -1.162  0.00  0.00     0.048 A 
ATOM      6  C5  UNL d   1      -1.128  -2.999  -1.532  0.00  0.00     0.003 A 
ATOM      7  I   UNL d   1      -1.044   0.928   0.313  0.00  0.00    -0.146 I 
ENDROOT
TORSDOF 0
ENDMDL
