MODEL 1
REMARK minimizedAffinity -2.52918077
REMARK minimizedRMSD -1
REMARK  0 active torsions:
REMARK  status: ('A' for Active; 'I' for Inactive)
ROOT
ATOM      1  C   UNL d   1      -0.532   2.370   0.567  0.00  0.00     0.023 A 
ATOM      2  C1  UNL d   1       0.629   1.616   0.738  0.00  0.00     0.003 A 
ATOM      3  C2  UNL d   1       0.664   0.282   0.325  0.00  0.00     0.048 A 
ATOM      4  C3  UNL d   1      -0.466  -0.291  -0.258  0.00  0.00     0.023 A 
ATOM      5  C4  UNL d   1      -1.630   0.460  -0.432  0.00  0.00     0.048 A 
ATOM      6  C5  UNL d   1      -1.660   1.793  -0.017  0.00  0.00     0.003 A 
ATOM      7  I   UNL d   1      -0.417  -2.275  -0.874  0.00  0.00    -0.146 I 
ENDROOT
TORSDOF 0
ENDMDL
