MODEL 1
REMARK minimizedAffinity -1.39164114
REMARK minimizedRMSD -1
REMARK  0 active torsions:
REMARK  status: ('A' for Active; 'I' for Inactive)
ROOT
ATOM      1  C   UNL d   1      -0.820   1.122   0.380  0.00  0.00     0.023 A 
ATOM      2  C1  UNL d   1      -0.242   0.065   1.083  0.00  0.00     0.003 A 
ATOM      3  C2  UNL d   1      -0.149  -1.198   0.495  0.00  0.00     0.048 A 
ATOM      4  C3  UNL d   1      -0.635  -1.397  -0.797  0.00  0.00     0.023 A 
ATOM      5  C4  UNL d   1      -1.214  -0.343  -1.504  0.00  0.00     0.048 A 
ATOM      6  C5  UNL d   1      -1.306   0.918  -0.912  0.00  0.00     0.003 A 
ATOM      7  I   UNL d   1      -0.497  -3.277  -1.674  0.00  0.00    -0.146 I 
ENDROOT
TORSDOF 0
ENDMDL
