MODEL 1
REMARK minimizedAffinity -2.84548235
REMARK minimizedRMSD -1
REMARK  0 active torsions:
REMARK  status: ('A' for Active; 'I' for Inactive)
ROOT
ATOM      1  C   UNL d   1      -0.826   0.767   0.958  0.00  0.00     0.023 A 
ATOM      2  C1  UNL d   1      -0.943   0.879  -0.427  0.00  0.00     0.003 A 
ATOM      3  C2  UNL d   1      -0.754  -0.241  -1.238  0.00  0.00     0.048 A 
ATOM      4  C3  UNL d   1      -0.448  -1.472  -0.658  0.00  0.00     0.023 A 
ATOM      5  C4  UNL d   1      -0.331  -1.589   0.728  0.00  0.00     0.048 A 
ATOM      6  C5  UNL d   1      -0.520  -0.466   1.535  0.00  0.00     0.003 A 
ATOM      7  I   UNL d   1      -0.166  -3.141  -1.863  0.00  0.00    -0.146 I 
ENDROOT
TORSDOF 0
ENDMDL
