MODEL 1
REMARK minimizedAffinity -1.74024343
REMARK minimizedRMSD -1
REMARK  0 active torsions:
REMARK  status: ('A' for Active; 'I' for Inactive)
ROOT
ATOM      1  C   UNL d   1      -1.001  -1.887  -1.158  0.00  0.00     0.023 A 
ATOM      2  C1  UNL d   1      -1.910  -0.878  -1.476  0.00  0.00     0.003 A 
ATOM      3  C2  UNL d   1      -1.849   0.351  -0.817  0.00  0.00     0.048 A 
ATOM      4  C3  UNL d   1      -0.874   0.566   0.157  0.00  0.00     0.023 A 
ATOM      5  C4  UNL d   1       0.038  -0.440   0.478  0.00  0.00     0.048 A 
ATOM      6  C5  UNL d   1      -0.028  -1.669  -0.183  0.00  0.00     0.003 A 
ATOM      7  I   UNL d   1      -0.781   2.396   1.139  0.00  0.00    -0.146 I 
ENDROOT
TORSDOF 0
ENDMDL
