MODEL 1
REMARK minimizedAffinity -4.00973845
REMARK minimizedRMSD -1
REMARK  0 active torsions:
REMARK  status: ('A' for Active; 'I' for Inactive)
ROOT
ATOM      1  C   UNL d   1      -0.286   2.813   0.663  0.00  0.00     0.023 A 
ATOM      2  C1  UNL d   1       0.902   2.084   0.714  0.00  0.00     0.003 A 
ATOM      3  C2  UNL d   1       0.894   0.713   0.446  0.00  0.00     0.048 A 
ATOM      4  C3  UNL d   1      -0.306   0.078   0.127  0.00  0.00     0.023 A 
ATOM      5  C4  UNL d   1      -1.497   0.804   0.074  0.00  0.00     0.048 A 
ATOM      6  C5  UNL d   1      -1.484   2.174   0.343  0.00  0.00     0.003 A 
ATOM      7  I   UNL d   1      -0.321  -1.961  -0.273  0.00  0.00    -0.146 I 
ENDROOT
TORSDOF 0
ENDMDL
