MODEL 1
REMARK minimizedAffinity -3.29242396
REMARK minimizedRMSD -1
REMARK  0 active torsions:
REMARK  status: ('A' for Active; 'I' for Inactive)
ROOT
ATOM      1  C   UNL d   1      -0.862   0.878   0.214  0.00  0.00     0.023 A 
ATOM      2  C1  UNL d   1      -0.327  -0.187   0.938  0.00  0.00     0.003 A 
ATOM      3  C2  UNL d   1      -0.126  -1.423   0.320  0.00  0.00     0.048 A 
ATOM      4  C3  UNL d   1      -0.461  -1.585  -1.024  0.00  0.00     0.023 A 
ATOM      5  C4  UNL d   1      -0.996  -0.522  -1.753  0.00  0.00     0.048 A 
ATOM      6  C5  UNL d   1      -1.196   0.711  -1.130  0.00  0.00     0.003 A 
ATOM      7  I   UNL d   1      -0.163  -3.423  -1.948  0.00  0.00    -0.146 I 
ENDROOT
TORSDOF 0
ENDMDL
