MODEL 1
REMARK minimizedAffinity -3.00109339
REMARK minimizedRMSD -1
REMARK  0 active torsions:
REMARK  status: ('A' for Active; 'I' for Inactive)
ROOT
ATOM      1  C   UNL d   1      -0.545  -3.619  -2.442  0.00  0.00     0.023 A 
ATOM      2  C1  UNL d   1      -1.046  -2.394  -2.882  0.00  0.00     0.003 A 
ATOM      3  C2  UNL d   1      -1.052  -1.292  -2.025  0.00  0.00     0.048 A 
ATOM      4  C3  UNL d   1      -0.555  -1.422  -0.728  0.00  0.00     0.023 A 
ATOM      5  C4  UNL d   1      -0.051  -2.645  -0.284  0.00  0.00     0.048 A 
ATOM      6  C5  UNL d   1      -0.048  -3.745  -1.144  0.00  0.00     0.003 A 
ATOM      7  I   UNL d   1      -0.562   0.217   0.550  0.00  0.00    -0.146 I 
ENDROOT
TORSDOF 0
ENDMDL
