MODEL 1
REMARK minimizedAffinity -2.991359
REMARK minimizedRMSD -1
REMARK  0 active torsions:
REMARK  status: ('A' for Active; 'I' for Inactive)
ROOT
ATOM      1  C   UNL d   1      -0.630   1.531   0.524  0.00  0.00     0.023 A 
ATOM      2  C1  UNL d   1      -0.696   0.415   1.358  0.00  0.00     0.003 A 
ATOM      3  C2  UNL d   1      -0.649  -0.870   0.812  0.00  0.00     0.048 A 
ATOM      4  C3  UNL d   1      -0.535  -1.030  -0.569  0.00  0.00     0.023 A 
ATOM      5  C4  UNL d   1      -0.467   0.084  -1.407  0.00  0.00     0.048 A 
ATOM      6  C5  UNL d   1      -0.516   1.366  -0.856  0.00  0.00     0.003 A 
ATOM      7  I   UNL d   1      -0.464  -2.941  -1.384  0.00  0.00    -0.146 I 
ENDROOT
TORSDOF 0
ENDMDL
