MODEL 1
REMARK minimizedAffinity -0.771375239
REMARK minimizedRMSD -1
REMARK  0 active torsions:
REMARK  status: ('A' for Active; 'I' for Inactive)
ROOT
ATOM      1  C   UNL d   1      -0.390   0.780   0.568  0.00  0.00     0.023 A 
ATOM      2  C1  UNL d   1      -1.365   0.551  -0.402  0.00  0.00     0.003 A 
ATOM      3  C2  UNL d   1      -1.462  -0.700  -1.015  0.00  0.00     0.048 A 
ATOM      4  C3  UNL d   1      -0.580  -1.718  -0.652  0.00  0.00     0.023 A 
ATOM      5  C4  UNL d   1       0.397  -1.493   0.319  0.00  0.00     0.048 A 
ATOM      6  C5  UNL d   1       0.490  -0.241   0.928  0.00  0.00     0.003 A 
ATOM      7  I   UNL d   1      -0.722  -3.581  -1.563  0.00  0.00    -0.146 I 
ENDROOT
TORSDOF 0
ENDMDL
