MODEL 1
REMARK minimizedAffinity -1.18086386
REMARK minimizedRMSD -1
REMARK  0 active torsions:
REMARK  status: ('A' for Active; 'I' for Inactive)
ROOT
ATOM      1  C   UNL d   1       0.390  -0.341   0.658  0.00  0.00     0.023 A 
ATOM      2  C1  UNL d   1       0.715  -1.685   0.842  0.00  0.00     0.003 A 
ATOM      3  C2  UNL d   1       0.296  -2.640  -0.086  0.00  0.00     0.048 A 
ATOM      4  C3  UNL d   1      -0.448  -2.245  -1.197  0.00  0.00     0.023 A 
ATOM      5  C4  UNL d   1      -0.775  -0.901  -1.386  0.00  0.00     0.048 A 
ATOM      6  C5  UNL d   1      -0.354   0.050  -0.455  0.00  0.00     0.003 A 
ATOM      7  I   UNL d   1      -1.074  -3.664  -2.580  0.00  0.00    -0.146 I 
ENDROOT
TORSDOF 0
ENDMDL
