MODEL 1
REMARK minimizedAffinity -2.17206621
REMARK minimizedRMSD -1
REMARK  0 active torsions:
REMARK  status: ('A' for Active; 'I' for Inactive)
ROOT
ATOM      1  C   UNL d   1      -0.912   1.394   0.575  0.00  0.00     0.023 A 
ATOM      2  C1  UNL d   1       0.321   1.114  -0.014  0.00  0.00     0.003 A 
ATOM      3  C2  UNL d   1       0.529  -0.112  -0.651  0.00  0.00     0.048 A 
ATOM      4  C3  UNL d   1      -0.500  -1.052  -0.695  0.00  0.00     0.023 A 
ATOM      5  C4  UNL d   1      -1.735  -0.775  -0.107  0.00  0.00     0.048 A 
ATOM      6  C5  UNL d   1      -1.939   0.451   0.529  0.00  0.00     0.003 A 
ATOM      7  I   UNL d   1      -0.192  -2.876  -1.642  0.00  0.00    -0.146 I 
ENDROOT
TORSDOF 0
ENDMDL
