MODEL 1
REMARK minimizedAffinity -1.97612011
REMARK minimizedRMSD -1
REMARK  0 active torsions:
REMARK  status: ('A' for Active; 'I' for Inactive)
ROOT
ATOM      1  C   UNL d   1      -0.356   2.106   0.606  0.00  0.00     0.023 A 
ATOM      2  C1  UNL d   1       0.646   1.163   0.836  0.00  0.00     0.003 A 
ATOM      3  C2  UNL d   1       0.591  -0.084   0.211  0.00  0.00     0.048 A 
ATOM      4  C3  UNL d   1      -0.470  -0.382  -0.644  0.00  0.00     0.023 A 
ATOM      5  C4  UNL d   1      -1.474   0.558  -0.879  0.00  0.00     0.048 A 
ATOM      6  C5  UNL d   1      -1.415   1.803  -0.251  0.00  0.00     0.003 A 
ATOM      7  I   UNL d   1      -0.554  -2.238  -1.576  0.00  0.00    -0.146 I 
ENDROOT
TORSDOF 0
ENDMDL
