MODEL 1
REMARK minimizedAffinity -3.57254267
REMARK minimizedRMSD -1
REMARK  0 active torsions:
REMARK  status: ('A' for Active; 'I' for Inactive)
ROOT
ATOM      1  C1  BNZ d   1       0.028  -1.103   1.359  0.00  0.00     0.000 A 
ATOM      2  C2  BNZ d   1      -0.772  -0.062   1.750  0.00  0.00     0.000 A 
ATOM      3  C3  BNZ d   1      -1.168   0.891   0.854  0.00  0.00     0.000 A 
ATOM      4  C4  BNZ d   1      -0.732   0.825  -0.421  0.00  0.00     0.000 A 
ATOM      5  C5  BNZ d   1       0.082  -0.213  -0.828  0.00  0.00     0.000 A 
ATOM      6  C6  BNZ d   1       0.447  -1.192   0.067  0.00  0.00     0.000 A 
ENDROOT
TORSDOF 0
ENDMDL
