MODEL 1
REMARK minimizedAffinity -3.07303524
REMARK minimizedRMSD -1
REMARK  0 active torsions:
REMARK  status: ('A' for Active; 'I' for Inactive)
ROOT
ATOM      1  C1  BNZ d   1       0.994  -0.832  -0.005  0.00  0.00     0.000 A 
ATOM      2  C2  BNZ d   1       0.587  -1.047   1.285  0.00  0.00     0.000 A 
ATOM      3  C3  BNZ d   1      -0.450  -0.334   1.820  0.00  0.00     0.000 A 
ATOM      4  C4  BNZ d   1      -1.052   0.618   1.079  0.00  0.00     0.000 A 
ATOM      5  C5  BNZ d   1      -0.647   0.853  -0.220  0.00  0.00     0.000 A 
ATOM      6  C6  BNZ d   1       0.371   0.107  -0.768  0.00  0.00     0.000 A 
ENDROOT
TORSDOF 0
ENDMDL
