MODEL 1
REMARK minimizedAffinity -4.84619093
REMARK minimizedRMSD -1
REMARK  0 active torsions:
REMARK  status: ('A' for Active; 'I' for Inactive)
ROOT
ATOM      1  C1  BNZ d   1      -0.347  -0.144   1.809  0.00  0.00     0.000 A 
ATOM      2  C2  BNZ d   1      -1.213   0.889   2.054  0.00  0.00     0.000 A 
ATOM      3  C3  BNZ d   1      -1.584   1.743   1.053  0.00  0.00     0.000 A 
ATOM      4  C4  BNZ d   1      -1.058   1.589  -0.179  0.00  0.00     0.000 A 
ATOM      5  C5  BNZ d   1      -0.177   0.558  -0.440  0.00  0.00     0.000 A 
ATOM      6  C6  BNZ d   1       0.164  -0.323   0.561  0.00  0.00     0.000 A 
ENDROOT
TORSDOF 0
ENDMDL
