MODEL 1
REMARK minimizedAffinity -3.74341273
REMARK minimizedRMSD -1
REMARK  0 active torsions:
REMARK  status: ('A' for Active; 'I' for Inactive)
ROOT
ATOM      1  C1  BNZ d   1      -1.385   1.156   0.780  0.00  0.00     0.000 A 
ATOM      2  C2  BNZ d   1      -1.606   2.246   1.579  0.00  0.00     0.000 A 
ATOM      3  C3  BNZ d   1      -1.268   3.502   1.158  0.00  0.00     0.000 A 
ATOM      4  C4  BNZ d   1      -0.673   3.661  -0.042  0.00  0.00     0.000 A 
ATOM      5  C5  BNZ d   1      -0.435   2.571  -0.855  0.00  0.00     0.000 A 
ATOM      6  C6  BNZ d   1      -0.812   1.313  -0.444  0.00  0.00     0.000 A 
ENDROOT
TORSDOF 0
ENDMDL
