MODEL 1
REMARK minimizedAffinity -2.29661059
REMARK minimizedRMSD -1
REMARK  0 active torsions:
REMARK  status: ('A' for Active; 'I' for Inactive)
ROOT
ATOM      1  C1  BNZ d   1       1.412  -1.145  -1.829  0.00  0.00     0.000 A 
ATOM      2  C2  BNZ d   1       1.206  -2.106  -2.782  0.00  0.00     0.000 A 
ATOM      3  C3  BNZ d   1       0.808  -3.366  -2.432  0.00  0.00     0.000 A 
ATOM      4  C4  BNZ d   1       0.654  -3.674  -1.128  0.00  0.00     0.000 A 
ATOM      5  C5  BNZ d   1       0.867  -2.719  -0.154  0.00  0.00     0.000 A 
ATOM      6  C6  BNZ d   1       1.230  -1.441  -0.513  0.00  0.00     0.000 A 
ENDROOT
TORSDOF 0
ENDMDL
