MODEL 1
REMARK minimizedAffinity -2.33177543
REMARK minimizedRMSD -1
REMARK  0 active torsions:
REMARK  status: ('A' for Active; 'I' for Inactive)
ROOT
ATOM      1  C1  BNZ d   1       0.763   0.921  -1.040  0.00  0.00     0.000 A 
ATOM      2  C2  BNZ d   1      -0.257   1.564  -0.390  0.00  0.00     0.000 A 
ATOM      3  C3  BNZ d   1      -0.865   0.994   0.693  0.00  0.00     0.000 A 
ATOM      4  C4  BNZ d   1      -0.482  -0.234   1.099  0.00  0.00     0.000 A 
ATOM      5  C5  BNZ d   1       0.538  -0.899   0.448  0.00  0.00     0.000 A 
ATOM      6  C6  BNZ d   1       1.174  -0.306  -0.618  0.00  0.00     0.000 A 
ENDROOT
TORSDOF 0
ENDMDL
