MODEL 1
REMARK minimizedAffinity -5.16286707
REMARK minimizedRMSD -1
REMARK  0 active torsions:
REMARK  status: ('A' for Active; 'I' for Inactive)
ROOT
ATOM      1  C1  BNZ d   1      -0.425   0.922  -0.310  0.00  0.00     0.000 A 
ATOM      2  C2  BNZ d   1      -1.111   2.035   0.095  0.00  0.00     0.000 A 
ATOM      3  C3  BNZ d   1      -1.778   2.050   1.289  0.00  0.00     0.000 A 
ATOM      4  C4  BNZ d   1      -1.792   0.940   2.054  0.00  0.00     0.000 A 
ATOM      5  C5  BNZ d   1      -1.113  -0.194   1.655  0.00  0.00     0.000 A 
ATOM      6  C6  BNZ d   1      -0.410  -0.192   0.471  0.00  0.00     0.000 A 
ENDROOT
TORSDOF 0
ENDMDL
