MODEL 1
REMARK minimizedAffinity -1.84593797
REMARK minimizedRMSD -1
REMARK  0 active torsions:
REMARK  status: ('A' for Active; 'I' for Inactive)
ROOT
ATOM      1  C1  BNZ d   1       0.343  -0.803  -0.040  0.00  0.00     0.000 A 
ATOM      2  C2  BNZ d   1      -0.237  -0.993   1.186  0.00  0.00     0.000 A 
ATOM      3  C3  BNZ d   1      -0.992  -0.010   1.763  0.00  0.00     0.000 A 
ATOM      4  C4  BNZ d   1      -1.132   1.174   1.133  0.00  0.00     0.000 A 
ATOM      5  C5  BNZ d   1      -0.546   1.384  -0.099  0.00  0.00     0.000 A 
ATOM      6  C6  BNZ d   1       0.181   0.379  -0.695  0.00  0.00     0.000 A 
ENDROOT
TORSDOF 0
ENDMDL
