MODEL 1
REMARK minimizedAffinity -5.22160244
REMARK minimizedRMSD -1
REMARK  0 active torsions:
REMARK  status: ('A' for Active; 'I' for Inactive)
ROOT
ATOM      1  C1  BNZ d   1      -1.283   0.736   2.122  0.00  0.00     0.000 A 
ATOM      2  C2  BNZ d   1      -0.220  -0.044   1.754  0.00  0.00     0.000 A 
ATOM      3  C3  BNZ d   1       0.155  -0.143   0.443  0.00  0.00     0.000 A 
ATOM      4  C4  BNZ d   1      -0.558   0.505  -0.501  0.00  0.00     0.000 A 
ATOM      5  C5  BNZ d   1      -1.639   1.288  -0.146  0.00  0.00     0.000 A 
ATOM      6  C6  BNZ d   1      -1.989   1.416   1.178  0.00  0.00     0.000 A 
ENDROOT
TORSDOF 0
ENDMDL
