MODEL 1
REMARK minimizedAffinity -0.247476354
REMARK minimizedRMSD -1
REMARK  0 active torsions:
REMARK  status: ('A' for Active; 'I' for Inactive)
ROOT
ATOM      1  C1  BNZ d   1      -0.380  -2.764  -3.463  0.00  0.00     0.000 A 
ATOM      2  C2  BNZ d   1       0.459  -1.772  -3.030  0.00  0.00     0.000 A 
ATOM      3  C3  BNZ d   1       1.139  -1.896  -1.851  0.00  0.00     0.000 A 
ATOM      4  C4  BNZ d   1       0.949  -2.992  -1.088  0.00  0.00     0.000 A 
ATOM      5  C5  BNZ d   1       0.099  -3.996  -1.507  0.00  0.00     0.000 A 
ATOM      6  C6  BNZ d   1      -0.554  -3.886  -2.713  0.00  0.00     0.000 A 
ENDROOT
TORSDOF 0
ENDMDL
