MODEL 1
REMARK minimizedAffinity -4.7784276
REMARK minimizedRMSD -1
REMARK  0 active torsions:
REMARK  status: ('A' for Active; 'I' for Inactive)
ROOT
ATOM      1  C1  BNZ d   1       0.185   0.088  -0.601  0.00  0.00     0.000 A 
ATOM      2  C2  BNZ d   1       0.556  -0.961   0.197  0.00  0.00     0.000 A 
ATOM      3  C3  BNZ d   1       0.090  -1.065   1.478  0.00  0.00     0.000 A 
ATOM      4  C4  BNZ d   1      -0.712  -0.100   1.972  0.00  0.00     0.000 A 
ATOM      5  C5  BNZ d   1      -1.086   0.970   1.183  0.00  0.00     0.000 A 
ATOM      6  C6  BNZ d   1      -0.647   1.050  -0.119  0.00  0.00     0.000 A 
ENDROOT
TORSDOF 0
ENDMDL
