MODEL 1
REMARK minimizedAffinity -5.01427555
REMARK minimizedRMSD -1
REMARK  0 active torsions:
REMARK  status: ('A' for Active; 'I' for Inactive)
ROOT
ATOM      1  C1  BNZ d   1      -0.508   0.201   2.111  0.00  0.00     0.000 A 
ATOM      2  C2  BNZ d   1      -1.029   1.445   2.350  0.00  0.00     0.000 A 
ATOM      3  C3  BNZ d   1      -1.263   2.315   1.322  0.00  0.00     0.000 A 
ATOM      4  C4  BNZ d   1      -0.940   1.957   0.063  0.00  0.00     0.000 A 
ATOM      5  C5  BNZ d   1      -0.405   0.710  -0.193  0.00  0.00     0.000 A 
ATOM      6  C6  BNZ d   1      -0.207  -0.178   0.839  0.00  0.00     0.000 A 
ENDROOT
TORSDOF 0
ENDMDL
