MODEL 1
REMARK minimizedAffinity -4.83968353
REMARK minimizedRMSD -1
REMARK  0 active torsions:
REMARK  status: ('A' for Active; 'I' for Inactive)
ROOT
ATOM      1  C1  BNZ d   1      -1.203   1.723   1.557  0.00  0.00     0.000 A 
ATOM      2  C2  BNZ d   1      -1.347   2.996   1.072  0.00  0.00     0.000 A 
ATOM      3  C3  BNZ d   1      -1.072   3.281  -0.237  0.00  0.00     0.000 A 
ATOM      4  C4  BNZ d   1      -0.615   2.304  -1.047  0.00  0.00     0.000 A 
ATOM      5  C5  BNZ d   1      -0.456   1.018  -0.570  0.00  0.00     0.000 A 
ATOM      6  C6  BNZ d   1      -0.771   0.726   0.737  0.00  0.00     0.000 A 
ENDROOT
TORSDOF 0
ENDMDL
