MODEL 1
REMARK minimizedAffinity -4.63182783
REMARK minimizedRMSD -1
REMARK  0 active torsions:
REMARK  status: ('A' for Active; 'I' for Inactive)
ROOT
ATOM      1  C1  BNZ d   1       0.013   1.653  -0.786  0.00  0.00     0.000 A 
ATOM      2  C2  BNZ d   1      -0.769   1.087   0.185  0.00  0.00     0.000 A 
ATOM      3  C3  BNZ d   1      -1.650   1.844   0.904  0.00  0.00     0.000 A 
ATOM      4  C4  BNZ d   1      -1.720   3.172   0.680  0.00  0.00     0.000 A 
ATOM      5  C5  BNZ d   1      -0.931   3.760  -0.289  0.00  0.00     0.000 A 
ATOM      6  C6  BNZ d   1      -0.073   2.988  -1.038  0.00  0.00     0.000 A 
ENDROOT
TORSDOF 0
ENDMDL
