MODEL 1
REMARK minimizedAffinity -4.43017101
REMARK minimizedRMSD -1
REMARK  0 active torsions:
REMARK  status: ('A' for Active; 'I' for Inactive)
ROOT
ATOM      1  C1  BNZ d   1      -0.791   3.251  -0.004  0.00  0.00     0.000 A 
ATOM      2  C2  BNZ d   1      -1.463   3.030   1.168  0.00  0.00     0.000 A 
ATOM      3  C3  BNZ d   1      -1.583   1.768   1.679  0.00  0.00     0.000 A 
ATOM      4  C4  BNZ d   1      -1.065   0.725   0.998  0.00  0.00     0.000 A 
ATOM      5  C5  BNZ d   1      -0.392   0.931  -0.190  0.00  0.00     0.000 A 
ATOM      6  C6  BNZ d   1      -0.240   2.207  -0.681  0.00  0.00     0.000 A 
ENDROOT
TORSDOF 0
ENDMDL
