MODEL 1
REMARK minimizedAffinity -4.29901695
REMARK minimizedRMSD -1
REMARK  0 active torsions:
REMARK  status: ('A' for Active; 'I' for Inactive)
ROOT
ATOM      1  C1  BNZ d   1      -0.327  -0.290   1.294  0.00  0.00     0.000 A 
ATOM      2  C2  BNZ d   1      -1.305   0.417   1.941  0.00  0.00     0.000 A 
ATOM      3  C3  BNZ d   1      -1.920   1.477   1.335  0.00  0.00     0.000 A 
ATOM      4  C4  BNZ d   1      -1.529   1.852   0.100  0.00  0.00     0.000 A 
ATOM      5  C5  BNZ d   1      -0.538   1.155  -0.562  0.00  0.00     0.000 A 
ATOM      6  C6  BNZ d   1       0.051   0.065   0.036  0.00  0.00     0.000 A 
ENDROOT
TORSDOF 0
ENDMDL
