MODEL 1
REMARK minimizedAffinity -3.96044874
REMARK minimizedRMSD -1
REMARK  0 active torsions:
REMARK  status: ('A' for Active; 'I' for Inactive)
ROOT
ATOM      1  C1  BNZ d   1      -1.104   1.484  -0.311  0.00  0.00     0.000 A 
ATOM      2  C2  BNZ d   1      -0.092   0.687  -0.774  0.00  0.00     0.000 A 
ATOM      3  C3  BNZ d   1       0.407  -0.328  -0.005  0.00  0.00     0.000 A 
ATOM      4  C4  BNZ d   1      -0.078  -0.518   1.239  0.00  0.00     0.000 A 
ATOM      5  C5  BNZ d   1      -1.092   0.284   1.723  0.00  0.00     0.000 A 
ATOM      6  C6  BNZ d   1      -1.619   1.280   0.932  0.00  0.00     0.000 A 
ENDROOT
TORSDOF 0
ENDMDL
