MODEL 1
REMARK minimizedAffinity -3.45007133
REMARK minimizedRMSD -1
REMARK  0 active torsions:
REMARK  status: ('A' for Active; 'I' for Inactive)
ROOT
ATOM      1  C1  BNZ d   1      -0.425  -0.169   0.668  0.00  0.00     0.000 A 
ATOM      2  C2  BNZ d   1      -1.042   0.260   1.812  0.00  0.00     0.000 A 
ATOM      3  C3  BNZ d   1      -1.680   1.468   1.852  0.00  0.00     0.000 A 
ATOM      4  C4  BNZ d   1      -1.665   2.262   0.762  0.00  0.00     0.000 A 
ATOM      5  C5  BNZ d   1      -1.039   1.847  -0.397  0.00  0.00     0.000 A 
ATOM      6  C6  BNZ d   1      -0.431   0.614  -0.445  0.00  0.00     0.000 A 
ENDROOT
TORSDOF 0
ENDMDL
