MODEL 1
REMARK minimizedAffinity -4.00611639
REMARK minimizedRMSD -1
REMARK  0 active torsions:
REMARK  status: ('A' for Active; 'I' for Inactive)
ROOT
ATOM      1  C1  BNZ d   1      -0.512   0.947   2.251  0.00  0.00     0.000 A 
ATOM      2  C2  BNZ d   1       0.241  -0.075   1.738  0.00  0.00     0.000 A 
ATOM      3  C3  BNZ d   1       0.247  -0.336   0.397  0.00  0.00     0.000 A 
ATOM      4  C4  BNZ d   1      -0.529   0.399  -0.425  0.00  0.00     0.000 A 
ATOM      5  C5  BNZ d   1      -1.302   1.427   0.077  0.00  0.00     0.000 A 
ATOM      6  C6  BNZ d   1      -1.275   1.712   1.423  0.00  0.00     0.000 A 
ENDROOT
TORSDOF 0
ENDMDL
