MODEL 1
REMARK minimizedAffinity -2.92413759
REMARK minimizedRMSD -1
REMARK  0 active torsions:
REMARK  status: ('A' for Active; 'I' for Inactive)
ROOT
ATOM      1  C   UNL d   1      -2.494  -0.978  -0.397  0.00  0.00     0.023 A 
ATOM      2  C1  UNL d   1      -1.777  -0.293  -1.378  0.00  0.00     0.003 A 
ATOM      3  C2  UNL d   1      -0.537   0.271  -1.073  0.00  0.00     0.048 A 
ATOM      4  C3  UNL d   1      -0.018   0.145   0.215  0.00  0.00     0.023 A 
ATOM      5  C4  UNL d   1      -0.731  -0.541   1.200  0.00  0.00     0.048 A 
ATOM      6  C5  UNL d   1      -1.972  -1.102   0.891  0.00  0.00     0.003 A 
ATOM      7  I   UNL d   1       1.828   0.983   0.672  0.00  0.00    -0.146 I 
ENDROOT
TORSDOF 0
ENDMDL
