MODEL 1
REMARK minimizedAffinity 2.31594372
REMARK minimizedRMSD -1
REMARK  0 active torsions:
REMARK  status: ('A' for Active; 'I' for Inactive)
ROOT
ATOM      1  C   UNL d   1      -1.902  -0.004  -2.103  0.00  0.00     0.023 A 
ATOM      2  C1  UNL d   1      -2.153  -1.193  -1.417  0.00  0.00     0.003 A 
ATOM      3  C2  UNL d   1      -1.523  -1.442  -0.196  0.00  0.00     0.048 A 
ATOM      4  C3  UNL d   1      -0.644  -0.498   0.334  0.00  0.00     0.023 A 
ATOM      5  C4  UNL d   1      -0.391   0.693  -0.348  0.00  0.00     0.048 A 
ATOM      6  C5  UNL d   1      -1.022   0.938  -1.569  0.00  0.00     0.003 A 
ATOM      7  I   UNL d   1       0.294  -0.866   2.151  0.00  0.00    -0.146 I 
ENDROOT
TORSDOF 0
ENDMDL
