MODEL 1
REMARK minimizedAffinity 1.87644219
REMARK minimizedRMSD -1
REMARK  0 active torsions:
REMARK  status: ('A' for Active; 'I' for Inactive)
ROOT
ATOM      1  C   UNL d   1      -0.887  -0.968  -0.553  0.00  0.00     0.023 A 
ATOM      2  C1  UNL d   1      -0.790   0.114  -1.428  0.00  0.00     0.003 A 
ATOM      3  C2  UNL d   1       0.243   1.042  -1.282  0.00  0.00     0.048 A 
ATOM      4  C3  UNL d   1       1.176   0.882  -0.258  0.00  0.00     0.023 A 
ATOM      5  C4  UNL d   1       1.083  -0.199   0.620  0.00  0.00     0.048 A 
ATOM      6  C5  UNL d   1       0.049  -1.124   0.470  0.00  0.00     0.003 A 
ATOM      7  I   UNL d   1       2.714   2.262  -0.038  0.00  0.00    -0.146 I 
ENDROOT
TORSDOF 0
ENDMDL
