MODEL 1
REMARK minimizedAffinity -1.56384385
REMARK minimizedRMSD -1
REMARK  0 active torsions:
REMARK  status: ('A' for Active; 'I' for Inactive)
ROOT
ATOM      1  C   UNL d   1      -0.568  -1.230  -0.521  0.00  0.00     0.023 A 
ATOM      2  C1  UNL d   1      -0.426   0.033  -1.095  0.00  0.00     0.003 A 
ATOM      3  C2  UNL d   1       0.278   1.033  -0.420  0.00  0.00     0.048 A 
ATOM      4  C3  UNL d   1       0.838   0.762   0.827  0.00  0.00     0.023 A 
ATOM      5  C4  UNL d   1       0.699  -0.501   1.405  0.00  0.00     0.048 A 
ATOM      6  C5  UNL d   1      -0.007  -1.497   0.728  0.00  0.00     0.003 A 
ATOM      7  I   UNL d   1       1.887   2.248   1.833  0.00  0.00    -0.146 I 
ENDROOT
TORSDOF 0
ENDMDL
