MODEL 1
REMARK minimizedAffinity -3.17078233
REMARK minimizedRMSD -1
REMARK  0 active torsions:
REMARK  status: ('A' for Active; 'I' for Inactive)
ROOT
ATOM      1  C   UNL d   1      -4.942   5.481   1.396  0.00  0.00     0.023 A 
ATOM      2  C1  UNL d   1      -5.892   4.522   1.747  0.00  0.00     0.003 A 
ATOM      3  C2  UNL d   1      -5.983   4.079   3.068  0.00  0.00     0.048 A 
ATOM      4  C3  UNL d   1      -5.122   4.600   4.033  0.00  0.00     0.023 A 
ATOM      5  C4  UNL d   1      -4.171   5.560   3.686  0.00  0.00     0.048 A 
ATOM      6  C5  UNL d   1      -4.083   5.999   2.364  0.00  0.00     0.003 A 
ATOM      7  I   UNL d   1      -5.257   3.942   6.000  0.00  0.00    -0.146 I 
ENDROOT
TORSDOF 0
ENDMDL
