MODEL 1
REMARK minimizedAffinity 2.73102045
REMARK minimizedRMSD -1
REMARK  0 active torsions:
REMARK  status: ('A' for Active; 'I' for Inactive)
ROOT
ATOM      1  C   UNL d   1      -0.257  -0.715   2.079  0.00  0.00     0.023 A 
ATOM      2  C1  UNL d   1       0.656  -0.926   1.045  0.00  0.00     0.003 A 
ATOM      3  C2  UNL d   1       1.526   0.096   0.661  0.00  0.00     0.048 A 
ATOM      4  C3  UNL d   1       1.480   1.326   1.316  0.00  0.00     0.023 A 
ATOM      5  C4  UNL d   1       0.570   1.541   2.352  0.00  0.00     0.048 A 
ATOM      6  C5  UNL d   1      -0.300   0.517   2.731  0.00  0.00     0.003 A 
ATOM      7  I   UNL d   1       2.776   2.848   0.747  0.00  0.00    -0.146 I 
ENDROOT
TORSDOF 0
ENDMDL
