MODEL 1
REMARK minimizedAffinity 5.91987753
REMARK minimizedRMSD -1
REMARK  0 active torsions:
REMARK  status: ('A' for Active; 'I' for Inactive)
ROOT
ATOM      1  C   UNL d   1      -3.433  -1.022  -0.282  0.00  0.00     0.023 A 
ATOM      2  C1  UNL d   1      -2.317  -1.305  -1.069  0.00  0.00     0.003 A 
ATOM      3  C2  UNL d   1      -1.069  -1.494  -0.472  0.00  0.00     0.048 A 
ATOM      4  C3  UNL d   1      -0.945  -1.400   0.914  0.00  0.00     0.023 A 
ATOM      5  C4  UNL d   1      -2.059  -1.118   1.706  0.00  0.00     0.048 A 
ATOM      6  C5  UNL d   1      -3.304  -0.929   1.104  0.00  0.00     0.003 A 
ATOM      7  I   UNL d   1       0.912  -1.682   1.805  0.00  0.00    -0.146 I 
ENDROOT
TORSDOF 0
ENDMDL
