MODEL 1
REMARK minimizedAffinity 0.515025377
REMARK minimizedRMSD -1
REMARK  0 active torsions:
REMARK  status: ('A' for Active; 'I' for Inactive)
ROOT
ATOM      1  C   UNL d   1      -1.884  -0.135  -1.415  0.00  0.00     0.023 A 
ATOM      2  C1  UNL d   1      -1.759  -1.456  -0.984  0.00  0.00     0.003 A 
ATOM      3  C2  UNL d   1      -2.789  -2.054  -0.254  0.00  0.00     0.048 A 
ATOM      4  C3  UNL d   1      -3.941  -1.326   0.040  0.00  0.00     0.023 A 
ATOM      5  C4  UNL d   1      -4.070  -0.004  -0.390  0.00  0.00     0.048 A 
ATOM      6  C5  UNL d   1      -3.038   0.590  -1.118  0.00  0.00     0.003 A 
ATOM      7  I   UNL d   1      -5.475  -2.214   1.125  0.00  0.00    -0.146 I 
ENDROOT
TORSDOF 0
ENDMDL
