MODEL 1
REMARK minimizedAffinity 3.17033648
REMARK minimizedRMSD -1
REMARK  0 active torsions:
REMARK  status: ('A' for Active; 'I' for Inactive)
ROOT
ATOM      1  C   UNL d   1       2.640   3.238   1.705  0.00  0.00     0.023 A 
ATOM      2  C1  UNL d   1       3.872   2.869   2.246  0.00  0.00     0.003 A 
ATOM      3  C2  UNL d   1       4.837   2.263   1.439  0.00  0.00     0.048 A 
ATOM      4  C3  UNL d   1       4.565   2.030   0.091  0.00  0.00     0.023 A 
ATOM      5  C4  UNL d   1       3.334   2.398  -0.455  0.00  0.00     0.048 A 
ATOM      6  C5  UNL d   1       2.372   3.002   0.356  0.00  0.00     0.003 A 
ATOM      7  I   UNL d   1       6.000   1.128  -1.112  0.00  0.00    -0.146 I 
ENDROOT
TORSDOF 0
ENDMDL
