MODEL 1
REMARK minimizedAffinity 3.58511305
REMARK minimizedRMSD -1
REMARK  0 active torsions:
REMARK  status: ('A' for Active; 'I' for Inactive)
ROOT
ATOM      1  C   UNL d   1      -2.086  -0.683  -1.389  0.00  0.00     0.023 A 
ATOM      2  C1  UNL d   1      -0.753  -0.416  -1.705  0.00  0.00     0.003 A 
ATOM      3  C2  UNL d   1       0.243  -0.600  -0.744  0.00  0.00     0.048 A 
ATOM      4  C3  UNL d   1      -0.099  -1.052   0.530  0.00  0.00     0.023 A 
ATOM      5  C4  UNL d   1      -1.431  -1.322   0.850  0.00  0.00     0.048 A 
ATOM      6  C5  UNL d   1      -2.424  -1.135  -0.114  0.00  0.00     0.003 A 
ATOM      7  I   UNL d   1       1.382  -1.328   1.961  0.00  0.00    -0.146 I 
ENDROOT
TORSDOF 0
ENDMDL
