MODEL 1
REMARK minimizedAffinity 6.56837034
REMARK minimizedRMSD -1
REMARK  0 active torsions:
REMARK  status: ('A' for Active; 'I' for Inactive)
ROOT
ATOM      1  C   UNL d   1      -2.771  -1.197  -0.423  0.00  0.00     0.023 A 
ATOM      2  C1  UNL d   1      -1.500  -1.487  -0.919  0.00  0.00     0.003 A 
ATOM      3  C2  UNL d   1      -0.902  -0.636  -1.851  0.00  0.00     0.048 A 
ATOM      4  C3  UNL d   1      -1.580   0.503  -2.282  0.00  0.00     0.023 A 
ATOM      5  C4  UNL d   1      -2.852   0.798  -1.788  0.00  0.00     0.048 A 
ATOM      6  C5  UNL d   1      -3.446  -0.056  -0.857  0.00  0.00     0.003 A 
ATOM      7  I   UNL d   1      -0.693   1.771  -3.670  0.00  0.00    -0.146 I 
ENDROOT
TORSDOF 0
ENDMDL
