MODEL 1
REMARK minimizedAffinity 7.64895391
REMARK minimizedRMSD -1
REMARK  0 active torsions:
REMARK  status: ('A' for Active; 'I' for Inactive)
ROOT
ATOM      1  C   UNL d   1      -1.145  -1.934  -3.515  0.00  0.00     0.023 A 
ATOM      2  C1  UNL d   1      -2.183  -2.549  -2.815  0.00  0.00     0.003 A 
ATOM      3  C2  UNL d   1      -2.713  -1.942  -1.674  0.00  0.00     0.048 A 
ATOM      4  C3  UNL d   1      -2.200  -0.721  -1.239  0.00  0.00     0.023 A 
ATOM      5  C4  UNL d   1      -1.161  -0.102  -1.936  0.00  0.00     0.048 A 
ATOM      6  C5  UNL d   1      -0.634  -0.713  -3.076  0.00  0.00     0.003 A 
ATOM      7  I   UNL d   1      -2.986   0.183   0.459  0.00  0.00    -0.146 I 
ENDROOT
TORSDOF 0
ENDMDL
