MODEL 1
REMARK minimizedAffinity 4.75771475
REMARK minimizedRMSD -1
REMARK  0 active torsions:
REMARK  status: ('A' for Active; 'I' for Inactive)
ROOT
ATOM      1  C   UNL d   1      -2.502  -0.730  -0.727  0.00  0.00     0.023 A 
ATOM      2  C1  UNL d   1      -1.254  -1.268  -1.040  0.00  0.00     0.003 A 
ATOM      3  C2  UNL d   1      -0.401  -0.593  -1.916  0.00  0.00     0.048 A 
ATOM      4  C3  UNL d   1      -0.802   0.621  -2.473  0.00  0.00     0.023 A 
ATOM      5  C4  UNL d   1      -2.050   1.163  -2.161  0.00  0.00     0.048 A 
ATOM      6  C5  UNL d   1      -2.899   0.484  -1.286  0.00  0.00     0.003 A 
ATOM      7  I   UNL d   1       0.466   1.628  -3.776  0.00  0.00    -0.146 I 
ENDROOT
TORSDOF 0
ENDMDL
