MODEL 1
REMARK minimizedAffinity -1.46346474
REMARK minimizedRMSD -1
REMARK  0 active torsions:
REMARK  status: ('A' for Active; 'I' for Inactive)
ROOT
ATOM      1  C   UNL d   1       4.097   2.823  -0.703  0.00  0.00     0.023 A 
ATOM      2  C1  UNL d   1       3.376   3.748  -1.458  0.00  0.00     0.003 A 
ATOM      3  C2  UNL d   1       3.921   4.266  -2.635  0.00  0.00     0.048 A 
ATOM      4  C3  UNL d   1       5.186   3.853  -3.052  0.00  0.00     0.023 A 
ATOM      5  C4  UNL d   1       5.910   2.927  -2.300  0.00  0.00     0.048 A 
ATOM      6  C5  UNL d   1       5.362   2.413  -1.124  0.00  0.00     0.003 A 
ATOM      7  I   UNL d   1       5.998   4.622  -4.804  0.00  0.00    -0.146 I 
ENDROOT
TORSDOF 0
ENDMDL
