MODEL 1
REMARK minimizedAffinity 4.22246408
REMARK minimizedRMSD -1
REMARK  0 active torsions:
REMARK  status: ('A' for Active; 'I' for Inactive)
ROOT
ATOM      1  C   UNL d   1      -2.808  -0.113  -1.477  0.00  0.00     0.023 A 
ATOM      2  C1  UNL d   1      -1.542  -0.663  -1.677  0.00  0.00     0.003 A 
ATOM      3  C2  UNL d   1      -0.624  -0.022  -2.512  0.00  0.00     0.048 A 
ATOM      4  C3  UNL d   1      -0.979   1.170  -3.143  0.00  0.00     0.023 A 
ATOM      5  C4  UNL d   1      -2.245   1.725  -2.945  0.00  0.00     0.048 A 
ATOM      6  C5  UNL d   1      -3.159   1.080  -2.110  0.00  0.00     0.003 A 
ATOM      7  I   UNL d   1       0.384   2.126  -4.386  0.00  0.00    -0.146 I 
ENDROOT
TORSDOF 0
ENDMDL
