MODEL 1
REMARK minimizedAffinity 3.79827857
REMARK minimizedRMSD -1
REMARK  0 active torsions:
REMARK  status: ('A' for Active; 'I' for Inactive)
ROOT
ATOM      1  C   UNL d   1       0.612   1.920  -0.627  0.00  0.00     0.020 A 
ATOM      2  C1  UNL d   1       0.682   2.008   0.762  0.00  0.00     0.020 A 
ATOM      3  C2  UNL d   1       0.082   1.028   1.555  0.00  0.00     0.034 A 
ATOM      4  C3  UNL d   1      -0.592  -0.044   0.959  0.00  0.00     0.017 A 
ATOM      5  C4  UNL d   1      -0.662  -0.132  -0.436  0.00  0.00     0.017 A 
ATOM      6  C5  UNL d   1      -0.059   0.853  -1.225  0.00  0.00     0.034 A 
ATOM      7 Cl   UNL d   1      -1.475  -1.425  -1.244  0.00  0.00    -0.070 Cl
ATOM      8 Cl1  UNL d   1      -1.311  -1.220   2.001  0.00  0.00    -0.070 Cl
ENDROOT
TORSDOF 0
ENDMDL
