MODEL 1
REMARK minimizedAffinity 8.44389057
REMARK minimizedRMSD -1
REMARK  0 active torsions:
REMARK  status: ('A' for Active; 'I' for Inactive)
ROOT
ATOM      1  C   UNL d   1      -2.880   5.365  -5.991  0.00  0.00     0.020 A 
ATOM      2  C1  UNL d   1      -1.639   6.000  -5.992  0.00  0.00     0.020 A 
ATOM      3  C2  UNL d   1      -0.466   5.241  -5.995  0.00  0.00     0.034 A 
ATOM      4  C3  UNL d   1      -0.533   3.843  -5.996  0.00  0.00     0.017 A 
ATOM      5  C4  UNL d   1      -1.779   3.207  -5.995  0.00  0.00     0.017 A 
ATOM      6  C5  UNL d   1      -2.950   3.971  -5.992  0.00  0.00     0.034 A 
ATOM      7 Cl   UNL d   1      -1.942   1.486  -5.996  0.00  0.00    -0.070 Cl
ATOM      8 Cl1  UNL d   1       0.957   2.968  -6.000  0.00  0.00    -0.070 Cl
ENDROOT
TORSDOF 0
ENDMDL
