MODEL 1
REMARK minimizedAffinity 1.23688936
REMARK minimizedRMSD -1
REMARK  0 active torsions:
REMARK  status: ('A' for Active; 'I' for Inactive)
ROOT
ATOM      1  C   UNL d   1      -2.090   3.375  -5.995  0.00  0.00     0.020 A 
ATOM      2  C1  UNL d   1      -2.048   4.768  -5.994  0.00  0.00     0.020 A 
ATOM      3  C2  UNL d   1      -0.819   5.430  -5.995  0.00  0.00     0.034 A 
ATOM      4  C3  UNL d   1       0.374   4.699  -5.996  0.00  0.00     0.017 A 
ATOM      5  C4  UNL d   1       0.332   3.300  -5.998  0.00  0.00     0.017 A 
ATOM      6  C5  UNL d   1      -0.902   2.642  -5.997  0.00  0.00     0.034 A 
ATOM      7 Cl   UNL d   1       1.762   2.329  -6.000  0.00  0.00    -0.070 Cl
ATOM      8 Cl1  UNL d   1       1.859   5.583  -5.997  0.00  0.00    -0.070 Cl
ENDROOT
TORSDOF 0
ENDMDL
