MODEL 1
REMARK minimizedAffinity -0.610414624
REMARK minimizedRMSD -1
REMARK  0 active torsions:
REMARK  status: ('A' for Active; 'I' for Inactive)
ROOT
ATOM      1  C   UNL d   1       1.778   3.652  -5.999  0.00  0.00     0.020 A 
ATOM      2  C1  UNL d   1       1.795   5.046  -5.999  0.00  0.00     0.020 A 
ATOM      3  C2  UNL d   1       3.013   5.729  -5.999  0.00  0.00     0.034 A 
ATOM      4  C3  UNL d   1       4.219   5.018  -5.998  0.00  0.00     0.017 A 
ATOM      5  C4  UNL d   1       4.200   3.619  -5.997  0.00  0.00     0.017 A 
ATOM      6  C5  UNL d   1       2.978   2.940  -5.998  0.00  0.00     0.034 A 
ATOM      7 Cl   UNL d   1       5.647   2.673  -5.996  0.00  0.00    -0.070 Cl
ATOM      8 Cl1  UNL d   1       5.688   5.928  -5.997  0.00  0.00    -0.070 Cl
ENDROOT
TORSDOF 0
ENDMDL
