MODEL 1
REMARK minimizedAffinity 1.55889356
REMARK minimizedRMSD -1
REMARK  0 active torsions:
REMARK  status: ('A' for Active; 'I' for Inactive)
ROOT
ATOM      1  C   UNL d   1      -0.855   5.121  -5.986  0.00  0.00     0.020 A 
ATOM      2  C1  UNL d   1      -0.892   3.727  -5.984  0.00  0.00     0.020 A 
ATOM      3  C2  UNL d   1       0.298   2.997  -5.987  0.00  0.00     0.034 A 
ATOM      4  C3  UNL d   1       1.531   3.660  -5.992  0.00  0.00     0.017 A 
ATOM      5  C4  UNL d   1       1.567   5.059  -5.994  0.00  0.00     0.017 A 
ATOM      6  C5  UNL d   1       0.373   5.785  -5.991  0.00  0.00     0.034 A 
ATOM      7 Cl   UNL d   1       3.050   5.947  -6.000  0.00  0.00    -0.070 Cl
ATOM      8 Cl1  UNL d   1       2.963   2.693  -5.994  0.00  0.00    -0.070 Cl
ENDROOT
TORSDOF 0
ENDMDL
