MODEL 1
REMARK minimizedAffinity 5.70346689
REMARK minimizedRMSD -1
REMARK  0 active torsions:
REMARK  status: ('A' for Active; 'I' for Inactive)
ROOT
ATOM      1  C   UNL d   1       2.338   5.565  -0.415  0.00  0.00     0.020 A 
ATOM      2  C1  UNL d   1       3.732   5.575  -0.405  0.00  0.00     0.020 A 
ATOM      3  C2  UNL d   1       4.441   4.477  -0.897  0.00  0.00     0.034 A 
ATOM      4  C3  UNL d   1       3.757   3.365  -1.401  0.00  0.00     0.017 A 
ATOM      5  C4  UNL d   1       2.357   3.356  -1.410  0.00  0.00     0.017 A 
ATOM      6  C5  UNL d   1       1.652   4.458  -0.917  0.00  0.00     0.034 A 
ATOM      7 Cl   UNL d   1       1.443   2.021  -2.016  0.00  0.00    -0.070 Cl
ATOM      8 Cl1  UNL d   1       4.698   2.043  -1.993  0.00  0.00    -0.070 Cl
ENDROOT
TORSDOF 0
ENDMDL
