MODEL 1
REMARK minimizedAffinity -0.616764903
REMARK minimizedRMSD -1
REMARK  0 active torsions:
REMARK  status: ('A' for Active; 'I' for Inactive)
ROOT
ATOM      1  C   UNL d   1      -2.955   4.417  -6.000  0.00  0.00     0.020 A 
ATOM      2  C1  UNL d   1      -2.904   3.024  -6.000  0.00  0.00     0.020 A 
ATOM      3  C2  UNL d   1      -1.669   2.371  -6.000  0.00  0.00     0.034 A 
ATOM      4  C3  UNL d   1      -0.481   3.110  -6.000  0.00  0.00     0.017 A 
ATOM      5  C4  UNL d   1      -0.534   4.509  -6.000  0.00  0.00     0.017 A 
ATOM      6  C5  UNL d   1      -1.772   5.158  -6.000  0.00  0.00     0.034 A 
ATOM      7 Cl   UNL d   1       0.889   5.490  -6.000  0.00  0.00    -0.070 Cl
ATOM      8 Cl1  UNL d   1       1.009   2.237  -6.000  0.00  0.00    -0.070 Cl
ENDROOT
TORSDOF 0
ENDMDL
