MODEL 1
REMARK minimizedAffinity 2.28051639
REMARK minimizedRMSD -1
REMARK  0 active torsions:
REMARK  status: ('A' for Active; 'I' for Inactive)
ROOT
ATOM      1  C   UNL d   1       1.742   3.797  -5.991  0.00  0.00     0.020 A 
ATOM      2  C1  UNL d   1       1.795   5.190  -6.000  0.00  0.00     0.020 A 
ATOM      3  C2  UNL d   1       3.030   5.842  -5.996  0.00  0.00     0.034 A 
ATOM      4  C3  UNL d   1       4.217   5.100  -5.984  0.00  0.00     0.017 A 
ATOM      5  C4  UNL d   1       4.163   3.702  -5.976  0.00  0.00     0.017 A 
ATOM      6  C5  UNL d   1       2.923   3.054  -5.980  0.00  0.00     0.034 A 
ATOM      7 Cl   UNL d   1       5.584   2.719  -5.961  0.00  0.00    -0.070 Cl
ATOM      8 Cl1  UNL d   1       5.709   5.972  -5.981  0.00  0.00    -0.070 Cl
ENDROOT
TORSDOF 0
ENDMDL
