MODEL 1
REMARK minimizedAffinity -2.47212553
REMARK minimizedRMSD -1
REMARK  0 active torsions:
REMARK  status: ('A' for Active; 'I' for Inactive)
ROOT
ATOM      1  C   UNL d   1       0.173   1.950  -5.984  0.00  0.00     0.020 A 
ATOM      2  C1  UNL d   1       0.789   3.201  -5.988  0.00  0.00     0.020 A 
ATOM      3  C2  UNL d   1       0.012   4.361  -5.992  0.00  0.00     0.034 A 
ATOM      4  C3  UNL d   1      -1.385   4.274  -5.992  0.00  0.00     0.017 A 
ATOM      5  C4  UNL d   1      -2.002   3.018  -5.988  0.00  0.00     0.017 A 
ATOM      6  C5  UNL d   1      -1.220   1.859  -5.984  0.00  0.00     0.034 A 
ATOM      7 Cl   UNL d   1      -3.720   2.830  -5.988  0.00  0.00    -0.070 Cl
ATOM      8 Cl1  UNL d   1      -2.282   5.750  -5.997  0.00  0.00    -0.070 Cl
ENDROOT
TORSDOF 0
ENDMDL
