MODEL 1
REMARK minimizedAffinity 1.16404033
REMARK minimizedRMSD -1
REMARK  0 active torsions:
REMARK  status: ('A' for Active; 'I' for Inactive)
ROOT
ATOM      1  C   UNL d   1       2.242   3.755  -5.999  0.00  0.00     0.020 A 
ATOM      2  C1  UNL d   1       2.188   5.149  -5.998  0.00  0.00     0.020 A 
ATOM      3  C2  UNL d   1       0.952   5.800  -5.997  0.00  0.00     0.034 A 
ATOM      4  C3  UNL d   1      -0.234   5.058  -5.997  0.00  0.00     0.017 A 
ATOM      5  C4  UNL d   1      -0.179   3.659  -5.998  0.00  0.00     0.017 A 
ATOM      6  C5  UNL d   1       1.060   3.012  -5.999  0.00  0.00     0.034 A 
ATOM      7 Cl   UNL d   1      -1.601   2.676  -5.999  0.00  0.00    -0.070 Cl
ATOM      8 Cl1  UNL d   1      -1.727   5.929  -5.996  0.00  0.00    -0.070 Cl
ENDROOT
TORSDOF 0
ENDMDL
