MODEL 1
REMARK minimizedAffinity 6.13007259
REMARK minimizedRMSD -1
REMARK  0 active torsions:
REMARK  status: ('A' for Active; 'I' for Inactive)
ROOT
ATOM      1  C   UNL d   1      -1.413   3.544  -5.735  0.00  0.00     0.020 A 
ATOM      2  C1  UNL d   1      -1.187   4.900  -5.970  0.00  0.00     0.020 A 
ATOM      3  C2  UNL d   1       0.112   5.409  -5.927  0.00  0.00     0.034 A 
ATOM      4  C3  UNL d   1       1.191   4.562  -5.648  0.00  0.00     0.017 A 
ATOM      5  C4  UNL d   1       0.964   3.202  -5.413  0.00  0.00     0.017 A 
ATOM      6  C5  UNL d   1      -0.339   2.697  -5.457  0.00  0.00     0.034 A 
ATOM      7 Cl   UNL d   1       2.245   2.095  -5.062  0.00  0.00    -0.070 Cl
ATOM      8 Cl1  UNL d   1       2.772   5.260  -5.611  0.00  0.00    -0.070 Cl
ENDROOT
TORSDOF 0
ENDMDL
