MODEL 1
REMARK minimizedAffinity -1.38866007
REMARK minimizedRMSD -1
REMARK  0 active torsions:
REMARK  status: ('A' for Active; 'I' for Inactive)
ROOT
ATOM      1  C   UNL d   1       0.524   3.125  -5.997  0.00  0.00     0.020 A 
ATOM      2  C1  UNL d   1       0.729   4.504  -5.997  0.00  0.00     0.020 A 
ATOM      3  C2  UNL d   1      -0.365   5.373  -5.997  0.00  0.00     0.034 A 
ATOM      4  C3  UNL d   1      -1.668   4.863  -5.998  0.00  0.00     0.017 A 
ATOM      5  C4  UNL d   1      -1.873   3.478  -5.998  0.00  0.00     0.017 A 
ATOM      6  C5  UNL d   1      -0.774   2.613  -5.998  0.00  0.00     0.034 A 
ATOM      7 Cl   UNL d   1      -3.452   2.774  -5.999  0.00  0.00    -0.070 Cl
ATOM      8 Cl1  UNL d   1      -2.974   5.995  -5.998  0.00  0.00    -0.070 Cl
ENDROOT
TORSDOF 0
ENDMDL
