MODEL 1
REMARK minimizedAffinity 3.90542221
REMARK minimizedRMSD -1
REMARK  0 active torsions:
REMARK  status: ('A' for Active; 'I' for Inactive)
ROOT
ATOM      1  C   UNL d   1      -3.624   5.921  -5.995  0.00  0.00     0.020 A 
ATOM      2  C1  UNL d   1      -4.453   4.800  -5.995  0.00  0.00     0.020 A 
ATOM      3  C2  UNL d   1      -3.896   3.520  -5.997  0.00  0.00     0.034 A 
ATOM      4  C3  UNL d   1      -2.506   3.357  -5.997  0.00  0.00     0.017 A 
ATOM      5  C4  UNL d   1      -1.675   4.483  -5.997  0.00  0.00     0.017 A 
ATOM      6  C5  UNL d   1      -2.238   5.763  -5.996  0.00  0.00     0.034 A 
ATOM      7 Cl   UNL d   1       0.049   4.361  -5.998  0.00  0.00    -0.070 Cl
ATOM      8 Cl1  UNL d   1      -1.886   1.744  -5.998  0.00  0.00    -0.070 Cl
ENDROOT
TORSDOF 0
ENDMDL
