MODEL 1
REMARK minimizedAffinity -1.56763077
REMARK minimizedRMSD -1
REMARK  0 active torsions:
REMARK  status: ('A' for Active; 'I' for Inactive)
ROOT
ATOM      1  C   UNL d   1       0.565   4.236  -5.981  0.00  0.00     0.020 A 
ATOM      2  C1  UNL d   1       0.257   2.876  -5.989  0.00  0.00     0.020 A 
ATOM      3  C2  UNL d   1      -1.076   2.461  -5.994  0.00  0.00     0.034 A 
ATOM      4  C3  UNL d   1      -2.107   3.408  -5.991  0.00  0.00     0.017 A 
ATOM      5  C4  UNL d   1      -1.798   4.772  -5.983  0.00  0.00     0.017 A 
ATOM      6  C5  UNL d   1      -0.461   5.182  -5.978  0.00  0.00     0.034 A 
ATOM      7 Cl   UNL d   1      -3.016   5.999  -5.978  0.00  0.00    -0.070 Cl
ATOM      8 Cl1  UNL d   1      -3.734   2.824  -5.997  0.00  0.00    -0.070 Cl
ENDROOT
TORSDOF 0
ENDMDL
