MODEL 1
REMARK minimizedAffinity -3.07561994
REMARK minimizedRMSD -1
REMARK  0 active torsions:
REMARK  status: ('A' for Active; 'I' for Inactive)
ROOT
ATOM      1  C   UNL d   1       3.557   5.085  -5.952  0.00  0.00     0.020 A 
ATOM      2  C1  UNL d   1       3.568   3.690  -5.955  0.00  0.00     0.020 A 
ATOM      3  C2  UNL d   1       2.365   2.982  -5.970  0.00  0.00     0.034 A 
ATOM      4  C3  UNL d   1       1.145   3.668  -5.982  0.00  0.00     0.017 A 
ATOM      5  C4  UNL d   1       1.134   5.068  -5.979  0.00  0.00     0.017 A 
ATOM      6  C5  UNL d   1       2.342   5.772  -5.964  0.00  0.00     0.034 A 
ATOM      7 Cl   UNL d   1      -0.332   5.983  -5.993  0.00  0.00    -0.070 Cl
ATOM      8 Cl1  UNL d   1      -0.305   2.728  -6.000  0.00  0.00    -0.070 Cl
ENDROOT
TORSDOF 0
ENDMDL
