MODEL 1
REMARK minimizedAffinity -1.17570043
REMARK minimizedRMSD -1
REMARK  0 active torsions:
REMARK  status: ('A' for Active; 'I' for Inactive)
ROOT
ATOM      1  C   UNL d   1       0.181   5.272  -5.940  0.00  0.00     0.020 A 
ATOM      2  C1  UNL d   1       0.254   3.881  -5.986  0.00  0.00     0.020 A 
ATOM      3  C2  UNL d   1      -0.917   3.120  -5.999  0.00  0.00     0.034 A 
ATOM      4  C3  UNL d   1      -2.166   3.750  -5.966  0.00  0.00     0.017 A 
ATOM      5  C4  UNL d   1      -2.239   5.147  -5.920  0.00  0.00     0.017 A 
ATOM      6  C5  UNL d   1      -1.063   5.904  -5.907  0.00  0.00     0.034 A 
ATOM      7 Cl   UNL d   1      -3.744   5.996  -5.878  0.00  0.00    -0.070 Cl
ATOM      8 Cl1  UNL d   1      -3.573   2.747  -5.985  0.00  0.00    -0.070 Cl
ENDROOT
TORSDOF 0
ENDMDL
