MODEL 1
REMARK minimizedAffinity -2.33637166
REMARK minimizedRMSD -1
REMARK  0 active torsions:
REMARK  status: ('A' for Active; 'I' for Inactive)
ROOT
ATOM      1  C   UNL d   1      -3.746   5.665  -5.961  0.00  0.00     0.020 A 
ATOM      2  C1  UNL d   1      -4.133   4.326  -5.963  0.00  0.00     0.020 A 
ATOM      3  C2  UNL d   1      -3.165   3.319  -5.975  0.00  0.00     0.034 A 
ATOM      4  C3  UNL d   1      -1.805   3.651  -5.985  0.00  0.00     0.017 A 
ATOM      5  C4  UNL d   1      -1.418   4.996  -5.983  0.00  0.00     0.017 A 
ATOM      6  C5  UNL d   1      -2.392   6.000  -5.971  0.00  0.00     0.034 A 
ATOM      7 Cl   UNL d   1       0.240   5.483  -5.994  0.00  0.00    -0.070 Cl
ATOM      8 Cl1  UNL d   1      -0.662   2.355  -5.998  0.00  0.00    -0.070 Cl
ENDROOT
TORSDOF 0
ENDMDL
