MODEL 1
REMARK minimizedAffinity 8.72071362
REMARK minimizedRMSD -1
REMARK  0 active torsions:
REMARK  status: ('A' for Active; 'I' for Inactive)
ROOT
ATOM      1  C   UNL d   1       3.611  -2.185  -1.503  0.00  0.00     0.020 A 
ATOM      2  C1  UNL d   1       2.693  -2.983  -0.821  0.00  0.00     0.020 A 
ATOM      3  C2  UNL d   1       1.749  -3.726  -1.532  0.00  0.00     0.034 A 
ATOM      4  C3  UNL d   1       1.721  -3.673  -2.931  0.00  0.00     0.017 A 
ATOM      5  C4  UNL d   1       2.642  -2.872  -3.615  0.00  0.00     0.017 A 
ATOM      6  C5  UNL d   1       3.585  -2.130  -2.897  0.00  0.00     0.034 A 
ATOM      7 Cl   UNL d   1       2.669  -2.755  -5.339  0.00  0.00    -0.070 Cl
ATOM      8 Cl1  UNL d   1       0.526  -4.618  -3.746  0.00  0.00    -0.070 Cl
ENDROOT
TORSDOF 0
ENDMDL
