MODEL 1
REMARK minimizedAffinity 4.70910215
REMARK minimizedRMSD -1
REMARK  0 active torsions:
REMARK  status: ('A' for Active; 'I' for Inactive)
ROOT
ATOM      1  N1  IND d   1       5.259   5.409   3.852  0.00  0.00    -0.196 N 
ATOM      2  C2  IND d   1       5.977   5.674   4.984  0.00  0.00     0.054 A 
ATOM      3  C3  IND d   1       5.564   4.882   5.999  0.00  0.00    -0.031 A 
ATOM      4  C4  IND d   1       3.796   3.011   5.998  0.00  0.00     0.051 A 
ATOM      5  C5  IND d   1       2.850   2.424   5.206  0.00  0.00    -0.031 A 
ATOM      6  C6  IND d   1       2.656   2.808   3.895  0.00  0.00     0.015 A 
ATOM      7  C7  IND d   1       3.412   3.790   3.321  0.00  0.00    -0.016 A 
ATOM      8  C8  IND d   1       4.370   4.393   4.124  0.00  0.00    -0.047 A 
ATOM      9  C9  IND d   1       4.542   4.037   5.468  0.00  0.00    -0.096 A 
ATOM     10  HN1 IND d   1       5.348   5.810   3.096  0.00  0.00     0.298 HD
ENDROOT
TORSDOF 0
ENDMDL
