MODEL 1
REMARK minimizedAffinity 9.88476562
REMARK minimizedRMSD -1
REMARK  0 active torsions:
REMARK  status: ('A' for Active; 'I' for Inactive)
ROOT
ATOM      1  N1  IND d   1       4.775   4.504   5.999  0.00  0.00    -0.196 N 
ATOM      2  C2  IND d   1       5.685   4.778   5.017  0.00  0.00     0.054 A 
ATOM      3  C3  IND d   1       5.239   4.327   3.823  0.00  0.00    -0.031 A 
ATOM      4  C4  IND d   1       3.001   3.200   3.232  0.00  0.00     0.051 A 
ATOM      5  C5  IND d   1       1.861   2.706   3.801  0.00  0.00    -0.031 A 
ATOM      6  C6  IND d   1       1.628   2.790   5.158  0.00  0.00     0.015 A 
ATOM      7  C7  IND d   1       2.525   3.384   6.000  0.00  0.00    -0.016 A 
ATOM      8  C8  IND d   1       3.687   3.881   5.427  0.00  0.00    -0.047 A 
ATOM      9  C9  IND d   1       3.949   3.761   4.056  0.00  0.00    -0.096 A 
ATOM     10  HN1 IND d   1       4.866   4.689   6.834  0.00  0.00     0.298 HD
ENDROOT
TORSDOF 0
ENDMDL
