MODEL 1
REMARK minimizedAffinity 0.662810326
REMARK minimizedRMSD -1
REMARK  0 active torsions:
REMARK  status: ('A' for Active; 'I' for Inactive)
ROOT
ATOM      1  N1  IND d   1       5.595   5.009   4.978  0.00  0.00    -0.196 N 
ATOM      2  C2  IND d   1       5.219   5.845   5.992  0.00  0.00     0.054 A 
ATOM      3  C3  IND d   1       3.876   6.000   6.000  0.00  0.00    -0.031 A 
ATOM      4  C4  IND d   1       2.094   4.898   4.504  0.00  0.00     0.051 A 
ATOM      5  C5  IND d   1       1.955   4.087   3.413  0.00  0.00    -0.031 A 
ATOM      6  C6  IND d   1       3.044   3.529   2.776  0.00  0.00     0.015 A 
ATOM      7  C7  IND d   1       4.318   3.752   3.216  0.00  0.00    -0.016 A 
ATOM      8  C8  IND d   1       4.464   4.581   4.320  0.00  0.00    -0.047 A 
ATOM      9  C9  IND d   1       3.364   5.184   4.944  0.00  0.00    -0.096 A 
ATOM     10  HN1 IND d   1       6.403   4.788   4.783  0.00  0.00     0.298 HD
ENDROOT
TORSDOF 0
ENDMDL
