MODEL 1
REMARK minimizedAffinity 8.11788559
REMARK minimizedRMSD -1
REMARK  0 active torsions:
REMARK  status: ('A' for Active; 'I' for Inactive)
ROOT
ATOM      1  N1  IND d   1       2.746   3.743   2.523  0.00  0.00    -0.196 N 
ATOM      2  C2  IND d   1       3.743   4.539   3.015  0.00  0.00     0.054 A 
ATOM      3  C3  IND d   1       3.688   4.581   4.365  0.00  0.00    -0.031 A 
ATOM      4  C4  IND d   1       2.113   3.339   5.978  0.00  0.00     0.051 A 
ATOM      5  C5  IND d   1       1.015   2.524   5.998  0.00  0.00    -0.031 A 
ATOM      6  C6  IND d   1       0.429   2.062   4.837  0.00  0.00     0.015 A 
ATOM      7  C7  IND d   1       0.927   2.390   3.608  0.00  0.00    -0.016 A 
ATOM      8  C8  IND d   1       2.037   3.223   3.584  0.00  0.00    -0.047 A 
ATOM      9  C9  IND d   1       2.610   3.730   4.757  0.00  0.00    -0.096 A 
ATOM     10  HN1 IND d   1       2.589   3.591   1.691  0.00  0.00     0.298 HD
ENDROOT
TORSDOF 0
ENDMDL
