MODEL 1
REMARK minimizedAffinity 3.94105196
REMARK minimizedRMSD -1
REMARK  0 active torsions:
REMARK  status: ('A' for Active; 'I' for Inactive)
ROOT
ATOM      1  N1  IND d   1      -0.469  -0.303  -2.157  0.00  0.00    -0.196 N 
ATOM      2  C2  IND d   1      -1.722  -0.846  -2.215  0.00  0.00     0.054 A 
ATOM      3  C3  IND d   1      -2.572  -0.151  -1.427  0.00  0.00    -0.031 A 
ATOM      4  C4  IND d   1      -2.147   1.972  -0.034  0.00  0.00     0.051 A 
ATOM      5  C5  IND d   1      -1.150   2.818   0.362  0.00  0.00    -0.031 A 
ATOM      6  C6  IND d   1       0.151   2.667  -0.072  0.00  0.00     0.015 A 
ATOM      7  C7  IND d   1       0.502   1.665  -0.932  0.00  0.00    -0.016 A 
ATOM      8  C8  IND d   1      -0.506   0.799  -1.331  0.00  0.00    -0.047 A 
ATOM      9  C9  IND d   1      -1.820   0.922  -0.860  0.00  0.00    -0.096 A 
ATOM     10  HN1 IND d   1       0.226  -0.599  -2.569  0.00  0.00     0.298 HD
ENDROOT
TORSDOF 0
ENDMDL
