MODEL 1
REMARK minimizedAffinity 4.84550858
REMARK minimizedRMSD -1
REMARK  0 active torsions:
REMARK  status: ('A' for Active; 'I' for Inactive)
ROOT
ATOM      1  N1  IND d   1       3.159   0.487  -2.710  0.00  0.00    -0.196 N 
ATOM      2  C2  IND d   1       2.250  -0.101  -1.876  0.00  0.00     0.054 A 
ATOM      3  C3  IND d   1       2.588   0.116  -0.585  0.00  0.00    -0.031 A 
ATOM      4  C4  IND d   1       4.533   1.493   0.387  0.00  0.00     0.051 A 
ATOM      5  C5  IND d   1       5.650   2.189   0.019  0.00  0.00    -0.031 A 
ATOM      6  C6  IND d   1       6.000   2.359  -1.305  0.00  0.00     0.015 A 
ATOM      7  C7  IND d   1       5.235   1.846  -2.315  0.00  0.00    -0.016 A 
ATOM      8  C8  IND d   1       4.104   1.133  -1.944  0.00  0.00    -0.047 A 
ATOM      9  C9  IND d   1       3.768   0.921  -0.601  0.00  0.00    -0.096 A 
ATOM     10  HN1 IND d   1       3.143   0.458  -3.570  0.00  0.00     0.298 HD
ENDROOT
TORSDOF 0
ENDMDL
