MODEL 1
REMARK minimizedAffinity 6.52997446
REMARK minimizedRMSD -1
REMARK  0 active torsions:
REMARK  status: ('A' for Active; 'I' for Inactive)
ROOT
ATOM      1  N1  IND d   1      -0.885   0.972  -1.858  0.00  0.00    -0.196 N 
ATOM      2  C2  IND d   1      -1.706   1.676  -1.022  0.00  0.00     0.054 A 
ATOM      3  C3  IND d   1      -1.044   2.022   0.105  0.00  0.00    -0.031 A 
ATOM      4  C4  IND d   1       1.418   1.625   0.744  0.00  0.00     0.051 A 
ATOM      5  C5  IND d   1       2.553   0.995   0.317  0.00  0.00    -0.031 A 
ATOM      6  C6  IND d   1       2.602   0.314  -0.882  0.00  0.00     0.015 A 
ATOM      7  C7  IND d   1       1.516   0.246  -1.708  0.00  0.00    -0.016 A 
ATOM      8  C8  IND d   1       0.360   0.879  -1.275  0.00  0.00    -0.047 A 
ATOM      9  C9  IND d   1       0.291   1.536  -0.039  0.00  0.00    -0.096 A 
ATOM     10  HN1 IND d   1      -1.108   0.642  -2.620  0.00  0.00     0.298 HD
ENDROOT
TORSDOF 0
ENDMDL
