MODEL 1
REMARK minimizedAffinity 5.79916906
REMARK minimizedRMSD -1
REMARK  3 active torsions:
REMARK  status: ('A' for Active; 'I' for Inactive)
REMARK    1  A    between atoms: C3'_2  and  C2'_3 
REMARK    2  A    between atoms: C2'_3  and  C1'_4 
REMARK    3  A    between atoms: C1'_4  and  C1_5 
ROOT
ATOM      1  C1  N4B d   1       0.898   4.643  -3.896  0.00  0.00    -0.075 A 
ATOM      2  C2  N4B d   1      -0.388   4.986  -3.426  0.00  0.00     0.002 A 
ATOM      3  C3  N4B d   1      -1.272   5.632  -4.254  0.00  0.00     0.002 A 
ATOM      4  C4  N4B d   1      -0.887   5.962  -5.545  0.00  0.00    -0.004 A 
ATOM      5  C5  N4B d   1       0.349   5.604  -6.000  0.00  0.00     0.002 A 
ATOM      6  C6  N4B d   1       1.246   4.951  -5.180  0.00  0.00     0.002 A 
ENDROOT
BRANCH   1   7
ATOM      7  C1' N4B d   1       1.929   4.012  -3.000  0.00  0.00     0.057 C 
BRANCH   7   8
ATOM      8  C2' N4B d   1       1.234   3.070  -2.022  0.00  0.00     0.009 C 
BRANCH   8   9
ATOM      9  C3' N4B d   1       1.499   1.611  -2.351  0.00  0.00     0.004 C 
ATOM     10  C4' N4B d   1       2.914   1.200  -2.072  0.00  0.00     0.003 C 
ENDBRANCH   8   9
ENDBRANCH   7   8
ENDBRANCH   1   7
TORSDOF 3
ENDMDL
