MODEL 1
REMARK minimizedAffinity 5.803195
REMARK minimizedRMSD -1
REMARK  3 active torsions:
REMARK  status: ('A' for Active; 'I' for Inactive)
REMARK    1  A    between atoms: C3'_2  and  C2'_3 
REMARK    2  A    between atoms: C2'_3  and  C1'_4 
REMARK    3  A    between atoms: C1'_4  and  C1_5 
ROOT
ATOM      1  C1  N4B d   1       1.016   4.721  -4.040  0.00  0.00    -0.075 A 
ATOM      2  C2  N4B d   1       1.305   5.687  -5.029  0.00  0.00     0.002 A 
ATOM      3  C3  N4B d   1       0.372   5.984  -5.992  0.00  0.00     0.002 A 
ATOM      4  C4  N4B d   1      -0.844   5.318  -5.998  0.00  0.00    -0.004 A 
ATOM      5  C5  N4B d   1      -1.125   4.405  -5.024  0.00  0.00     0.002 A 
ATOM      6  C6  N4B d   1      -0.199   4.099  -4.048  0.00  0.00     0.002 A 
ENDROOT
BRANCH   1   7
ATOM      7  C1' N4B d   1       2.037   4.301  -3.018  0.00  0.00     0.057 C 
BRANCH   7   8
ATOM      8  C2' N4B d   1       1.465   3.163  -2.178  0.00  0.00     0.009 C 
BRANCH   8   9
ATOM      9  C3' N4B d   1       1.347   3.543  -0.712  0.00  0.00     0.004 C 
ATOM     10  C4' N4B d   1       1.367   2.352   0.200  0.00  0.00     0.003 C 
ENDBRANCH   8   9
ENDBRANCH   7   8
ENDBRANCH   1   7
TORSDOF 3
ENDMDL
