MODEL 1
REMARK minimizedAffinity 5.49274731
REMARK minimizedRMSD -1
REMARK  3 active torsions:
REMARK  status: ('A' for Active; 'I' for Inactive)
REMARK    1  A    between atoms: C3'_2  and  C2'_3 
REMARK    2  A    between atoms: C2'_3  and  C1'_4 
REMARK    3  A    between atoms: C1'_4  and  C1_5 
ROOT
ATOM      1  C1  N4B d   1      -4.180  -3.372   2.188  0.00  0.00    -0.075 A 
ATOM      2  C2  N4B d   1      -2.837  -3.782   2.039  0.00  0.00     0.002 A 
ATOM      3  C3  N4B d   1      -1.898  -2.899   1.565  0.00  0.00     0.002 A 
ATOM      4  C4  N4B d   1      -2.281  -1.612   1.217  0.00  0.00    -0.004 A 
ATOM      5  C5  N4B d   1      -3.575  -1.216   1.389  0.00  0.00     0.002 A 
ATOM      6  C6  N4B d   1      -4.528  -2.091   1.868  0.00  0.00     0.002 A 
ENDROOT
BRANCH   1   7
ATOM      7  C1' N4B d   1      -5.258  -4.327   2.622  0.00  0.00     0.057 C 
BRANCH   7   8
ATOM      8  C2' N4B d   1      -4.664  -5.349   3.585  0.00  0.00     0.009 C 
BRANCH   8   9
ATOM      9  C3' N4B d   1      -5.659  -5.769   4.654  0.00  0.00     0.004 C 
ATOM     10  C4' N4B d   1      -5.021  -5.964   5.997  0.00  0.00     0.003 C 
ENDBRANCH   8   9
ENDBRANCH   7   8
ENDBRANCH   1   7
TORSDOF 3
ENDMDL
