MODEL 1
REMARK minimizedAffinity 2.27334666
REMARK minimizedRMSD -1
REMARK  3 active torsions:
REMARK  status: ('A' for Active; 'I' for Inactive)
REMARK    1  A    between atoms: C3'_2  and  C2'_3 
REMARK    2  A    between atoms: C2'_3  and  C1'_4 
REMARK    3  A    between atoms: C1'_4  and  C1_5 
ROOT
ATOM      1  C1  N4B d   1       0.796   4.442  -3.936  0.00  0.00    -0.075 A 
ATOM      2  C2  N4B d   1      -0.585   4.737  -3.940  0.00  0.00     0.002 A 
ATOM      3  C3  N4B d   1      -1.129   5.464  -4.971  0.00  0.00     0.002 A 
ATOM      4  C4  N4B d   1      -0.311   5.920  -5.994  0.00  0.00    -0.004 A 
ATOM      5  C5  N4B d   1       1.017   5.609  -5.996  0.00  0.00     0.002 A 
ATOM      6  C6  N4B d   1       1.576   4.876  -4.969  0.00  0.00     0.002 A 
ENDROOT
BRANCH   1   7
ATOM      7  C1' N4B d   1       1.451   3.724  -2.788  0.00  0.00     0.057 C 
BRANCH   7   8
ATOM      8  C2' N4B d   1       1.267   2.220  -2.968  0.00  0.00     0.009 C 
BRANCH   8   9
ATOM      9  C3' N4B d   1       1.647   1.447  -1.716  0.00  0.00     0.004 C 
ATOM     10  C4' N4B d   1       3.005   0.819  -1.810  0.00  0.00     0.003 C 
ENDBRANCH   8   9
ENDBRANCH   7   8
ENDBRANCH   1   7
TORSDOF 3
ENDMDL
