MODEL 1
REMARK minimizedAffinity 12.2580137
REMARK minimizedRMSD -1
REMARK  3 active torsions:
REMARK  status: ('A' for Active; 'I' for Inactive)
REMARK    1  A    between atoms: C3'_2  and  C2'_3 
REMARK    2  A    between atoms: C2'_3  and  C1'_4 
REMARK    3  A    between atoms: C1'_4  and  C1_5 
ROOT
ATOM      1  C1  N4B d   1       2.648  -1.295   2.934  0.00  0.00    -0.075 A 
ATOM      2  C2  N4B d   1       3.861  -1.938   2.603  0.00  0.00     0.002 A 
ATOM      3  C3  N4B d   1       4.865  -1.234   1.987  0.00  0.00     0.002 A 
ATOM      4  C4  N4B d   1       4.674   0.104   1.676  0.00  0.00    -0.004 A 
ATOM      5  C5  N4B d   1       3.509   0.725   2.022  0.00  0.00     0.002 A 
ATOM      6  C6  N4B d   1       2.492   0.030   2.645  0.00  0.00     0.002 A 
ENDROOT
BRANCH   1   7
ATOM      7  C1' N4B d   1       1.488  -2.045   3.530  0.00  0.00     0.057 C 
BRANCH   7   8
ATOM      8  C2' N4B d   1       0.394  -2.197   2.477  0.00  0.00     0.009 C 
BRANCH   8   9
ATOM      9  C3' N4B d   1      -0.640  -1.088   2.568  0.00  0.00     0.004 C 
ATOM     10  C4' N4B d   1      -1.902  -1.408   1.825  0.00  0.00     0.003 C 
ENDBRANCH   8   9
ENDBRANCH   7   8
ENDBRANCH   1   7
TORSDOF 3
ENDMDL
