MODEL 1
REMARK minimizedAffinity 6.26536083
REMARK minimizedRMSD -1
REMARK  3 active torsions:
REMARK  status: ('A' for Active; 'I' for Inactive)
REMARK    1  A    between atoms: C3'_2  and  C2'_3 
REMARK    2  A    between atoms: C2'_3  and  C1'_4 
REMARK    3  A    between atoms: C1'_4  and  C1_5 
ROOT
ATOM      1  C1  N4B d   1       1.761   3.340  -1.799  0.00  0.00    -0.075 A 
ATOM      2  C2  N4B d   1       1.963   1.974  -2.095  0.00  0.00     0.002 A 
ATOM      3  C3  N4B d   1       1.971   1.045  -1.083  0.00  0.00     0.002 A 
ATOM      4  C4  N4B d   1       1.798   1.459   0.229  0.00  0.00    -0.004 A 
ATOM      5  C5  N4B d   1       1.578   2.777   0.504  0.00  0.00     0.002 A 
ATOM      6  C6  N4B d   1       1.564   3.721  -0.503  0.00  0.00     0.002 A 
ENDROOT
BRANCH   1   7
ATOM      7  C1' N4B d   1       1.830   4.402  -2.861  0.00  0.00     0.057 C 
BRANCH   7   8
ATOM      8  C2' N4B d   1       0.562   4.346  -3.708  0.00  0.00     0.009 C 
BRANCH   8   9
ATOM      9  C3' N4B d   1       0.633   5.285  -4.900  0.00  0.00     0.004 C 
ATOM     10  C4' N4B d   1      -0.584   5.210  -5.772  0.00  0.00     0.003 C 
ENDBRANCH   8   9
ENDBRANCH   7   8
ENDBRANCH   1   7
TORSDOF 3
ENDMDL
