MODEL 1
REMARK minimizedAffinity -2.79447913
REMARK minimizedRMSD -1
REMARK  0 active torsions:
REMARK  status: ('A' for Active; 'I' for Inactive)
ROOT
ATOM      1  C4' PXY d   1       0.774   1.932  -1.542  0.00  0.00     0.077 C 
ATOM      2  C1' PXY d   1      -0.800  -1.081   3.134  0.00  0.00     0.077 C 
ATOM      3  C1  PXY d   1      -0.375  -0.295   1.909  0.00  0.00    -0.082 A 
ATOM      4  C2  PXY d   1      -1.100   0.738   1.511  0.00  0.00     0.003 A 
ATOM      5  C3  PXY d   1      -0.748   1.440   0.387  0.00  0.00     0.003 A 
ATOM      6  C4  PXY d   1       0.388   1.115  -0.306  0.00  0.00    -0.082 A 
ATOM      7  C5  PXY d   1       1.139   0.070   0.101  0.00  0.00     0.003 A 
ATOM      8  C6  PXY d   1       0.741  -0.656   1.220  0.00  0.00     0.003 A 
ENDROOT
TORSDOF 0
ENDMDL
