MODEL 1
REMARK minimizedAffinity -4.15471935
REMARK minimizedRMSD -1
REMARK  0 active torsions:
REMARK  status: ('A' for Active; 'I' for Inactive)
ROOT
ATOM      1  C4' PXY d   1       1.365  -1.519  -1.060  0.00  0.00     0.077 C 
ATOM      2  C1' PXY d   1      -2.126   2.242   1.603  0.00  0.00     0.077 C 
ATOM      3  C1  PXY d   1      -1.204   1.254   0.916  0.00  0.00    -0.082 A 
ATOM      4  C2  PXY d   1      -1.007   1.342  -0.390  0.00  0.00     0.003 A 
ATOM      5  C3  PXY d   1      -0.202   0.436  -1.032  0.00  0.00     0.003 A 
ATOM      6  C4  PXY d   1       0.450  -0.537  -0.323  0.00  0.00    -0.082 A 
ATOM      7  C5  PXY d   1       0.262  -0.626   1.011  0.00  0.00     0.003 A 
ATOM      8  C6  PXY d   1      -0.591   0.277   1.638  0.00  0.00     0.003 A 
ENDROOT
TORSDOF 0
ENDMDL
