MODEL 1
REMARK minimizedAffinity -4.7543087
REMARK minimizedRMSD -1
REMARK  0 active torsions:
REMARK  status: ('A' for Active; 'I' for Inactive)
ROOT
ATOM      1  C4' PXY d   1      -2.019   1.339   1.440  0.00  0.00     0.077 C 
ATOM      2  C1' PXY d   1       1.351  -2.152  -1.702  0.00  0.00     0.077 C 
ATOM      3  C1  PXY d   1       0.457  -1.242  -0.884  0.00  0.00    -0.082 A 
ATOM      4  C2  PXY d   1       0.933  -0.095  -0.426  0.00  0.00     0.003 A 
ATOM      5  C3  PXY d   1       0.148   0.725   0.343  0.00  0.00     0.003 A 
ATOM      6  C4  PXY d   1      -1.155   0.393   0.601  0.00  0.00    -0.082 A 
ATOM      7  C5  PXY d   1      -1.652  -0.770   0.129  0.00  0.00     0.003 A 
ATOM      8  C6  PXY d   1      -0.826  -1.608  -0.615  0.00  0.00     0.003 A 
ENDROOT
TORSDOF 0
ENDMDL
