MODEL 1
REMARK minimizedAffinity -1.64571583
REMARK minimizedRMSD -1
REMARK  0 active torsions:
REMARK  status: ('A' for Active; 'I' for Inactive)
ROOT
ATOM      1  C4' PXY d   1       0.375  -2.931  -2.438  0.00  0.00     0.077 C 
ATOM      2  C1' PXY d   1      -0.750   0.750   1.875  0.00  0.00     0.077 C 
ATOM      3  C1  PXY d   1      -0.444  -0.209   0.741  0.00  0.00    -0.082 A 
ATOM      4  C2  PXY d   1      -1.425  -0.907   0.192  0.00  0.00     0.003 A 
ATOM      5  C3  PXY d   1      -1.161  -1.802  -0.812  0.00  0.00     0.003 A 
ATOM      6  C4  PXY d   1       0.111  -1.944  -1.297  0.00  0.00    -0.082 A 
ATOM      7  C5  PXY d   1       1.116  -1.227  -0.750  0.00  0.00     0.003 A 
ATOM      8  C6  PXY d   1       0.834  -0.355   0.297  0.00  0.00     0.003 A 
ENDROOT
TORSDOF 0
ENDMDL
