MODEL 1
REMARK minimizedAffinity -5.54253006
REMARK minimizedRMSD -1
REMARK  0 active torsions:
REMARK  status: ('A' for Active; 'I' for Inactive)
ROOT
ATOM      1  C4' PXY d   1       0.359  -1.453  -0.232  0.00  0.00     0.077 C 
ATOM      2  C1' PXY d   1      -1.879   3.744   0.950  0.00  0.00     0.077 C 
ATOM      3  C1  PXY d   1      -1.293   2.378   0.653  0.00  0.00    -0.082 A 
ATOM      4  C2  PXY d   1      -0.546   2.208  -0.426  0.00  0.00     0.003 A 
ATOM      5  C3  PXY d   1      -0.035   0.972  -0.727  0.00  0.00     0.003 A 
ATOM      6  C4  PXY d   1      -0.245  -0.089   0.113  0.00  0.00    -0.082 A 
ATOM      7  C5  PXY d   1      -0.997   0.080   1.221  0.00  0.00     0.003 A 
ATOM      8  C6  PXY d   1      -1.541   1.333   1.487  0.00  0.00     0.003 A 
ENDROOT
TORSDOF 0
ENDMDL
