MODEL 1
REMARK minimizedAffinity -4.8370204
REMARK minimizedRMSD -1
REMARK  0 active torsions:
REMARK  status: ('A' for Active; 'I' for Inactive)
ROOT
ATOM      1  C4' PXY d   1       1.112  -0.903  -0.335  0.00  0.00     0.077 C 
ATOM      2  C1' PXY d   1      -2.224   3.425   1.552  0.00  0.00     0.077 C 
ATOM      3  C1  PXY d   1      -1.347   2.286   1.069  0.00  0.00    -0.082 A 
ATOM      4  C2  PXY d   1      -0.743   2.378  -0.104  0.00  0.00     0.003 A 
ATOM      5  C3  PXY d   1       0.027   1.344  -0.570  0.00  0.00     0.003 A 
ATOM      6  C4  PXY d   1       0.225   0.227   0.196  0.00  0.00    -0.082 A 
ATOM      7  C5  PXY d   1      -0.379   0.130   1.400  0.00  0.00     0.003 A 
ATOM      8  C6  PXY d   1      -1.191   1.174   1.837  0.00  0.00     0.003 A 
ENDROOT
TORSDOF 0
ENDMDL
