MODEL 1
REMARK minimizedAffinity -5.50346947
REMARK minimizedRMSD -1
REMARK  0 active torsions:
REMARK  status: ('A' for Active; 'I' for Inactive)
ROOT
ATOM      1  C4' PXY d   1       1.193  -1.298  -1.124  0.00  0.00     0.077 C 
ATOM      2  C1' PXY d   1      -1.820   2.269   2.284  0.00  0.00     0.077 C 
ATOM      3  C1  PXY d   1      -1.033   1.341   1.380  0.00  0.00    -0.082 A 
ATOM      4  C2  PXY d   1      -0.833   0.085   1.746  0.00  0.00     0.003 A 
ATOM      5  C3  PXY d   1      -0.096  -0.759   0.956  0.00  0.00     0.003 A 
ATOM      6  C4  PXY d   1       0.396  -0.328  -0.247  0.00  0.00    -0.082 A 
ATOM      7  C5  PXY d   1       0.188   0.949  -0.632  0.00  0.00     0.003 A 
ATOM      8  C6  PXY d   1      -0.528   1.801   0.204  0.00  0.00     0.003 A 
ENDROOT
TORSDOF 0
ENDMDL
