MODEL 1
REMARK minimizedAffinity -3.18100142
REMARK minimizedRMSD -1
REMARK  0 active torsions:
REMARK  status: ('A' for Active; 'I' for Inactive)
ROOT
ATOM      1  C4' PXY d   1      -0.573   0.901   1.685  0.00  0.00     0.077 C 
ATOM      2  C1' PXY d   1       1.490  -2.660  -2.375  0.00  0.00     0.077 C 
ATOM      3  C1  PXY d   1       0.960  -1.729  -1.303  0.00  0.00    -0.082 A 
ATOM      4  C2  PXY d   1      -0.334  -1.457  -1.255  0.00  0.00     0.003 A 
ATOM      5  C3  PXY d   1      -0.827  -0.592  -0.312  0.00  0.00     0.003 A 
ATOM      6  C4  PXY d   1       0.006  -0.041   0.625  0.00  0.00    -0.082 A 
ATOM      7  C5  PXY d   1       1.326  -0.322   0.590  0.00  0.00     0.003 A 
ATOM      8  C6  PXY d   1       1.812  -1.170  -0.401  0.00  0.00     0.003 A 
ENDROOT
TORSDOF 0
ENDMDL
