MODEL 1
REMARK minimizedAffinity -5.56841469
REMARK minimizedRMSD -1
REMARK  0 active torsions:
REMARK  status: ('A' for Active; 'I' for Inactive)
ROOT
ATOM      1  C4' PXY d   1       1.000  -1.285  -0.573  0.00  0.00     0.077 C 
ATOM      2  C1' PXY d   1      -2.318   2.894   1.649  0.00  0.00     0.077 C 
ATOM      3  C1  PXY d   1      -1.449   1.791   1.077  0.00  0.00    -0.082 A 
ATOM      4  C2  PXY d   1      -0.574   2.074   0.126  0.00  0.00     0.003 A 
ATOM      5  C3  PXY d   1       0.197   1.083  -0.425  0.00  0.00     0.003 A 
ATOM      6  C4  PXY d   1       0.109  -0.202   0.040  0.00  0.00    -0.082 A 
ATOM      7  C5  PXY d   1      -0.774  -0.497   1.018  0.00  0.00     0.003 A 
ATOM      8  C6  PXY d   1      -1.576   0.516   1.535  0.00  0.00     0.003 A 
ENDROOT
TORSDOF 0
ENDMDL
