MODEL 1
REMARK minimizedAffinity -5.43234396
REMARK minimizedRMSD -1
REMARK  0 active torsions:
REMARK  status: ('A' for Active; 'I' for Inactive)
ROOT
ATOM      1  C4' PXY d   1      -0.184   4.091  -0.831  0.00  0.00     0.077 C 
ATOM      2  C1' PXY d   1      -0.894  -0.841   2.099  0.00  0.00     0.077 C 
ATOM      3  C1  PXY d   1      -0.719   0.456   1.336  0.00  0.00    -0.082 A 
ATOM      4  C2  PXY d   1       0.045   0.482   0.256  0.00  0.00     0.003 A 
ATOM      5  C3  PXY d   1       0.240   1.655  -0.428  0.00  0.00     0.003 A 
ATOM      6  C4  PXY d   1      -0.397   2.801  -0.034  0.00  0.00    -0.082 A 
ATOM      7  C5  PXY d   1      -1.187   2.780   1.060  0.00  0.00     0.003 A 
ATOM      8  C6  PXY d   1      -1.339   1.589   1.765  0.00  0.00     0.003 A 
ENDROOT
TORSDOF 0
ENDMDL
