MODEL 1
REMARK minimizedAffinity -4.21047211
REMARK minimizedRMSD -1
REMARK  0 active torsions:
REMARK  status: ('A' for Active; 'I' for Inactive)
ROOT
ATOM      1  C4' PXY d   1       1.486  -1.565  -0.103  0.00  0.00     0.077 C 
ATOM      2  C1' PXY d   1      -2.524   2.376   1.241  0.00  0.00     0.077 C 
ATOM      3  C1  PXY d   1      -1.475   1.344   0.876  0.00  0.00    -0.082 A 
ATOM      4  C2  PXY d   1      -1.118   0.431   1.765  0.00  0.00     0.003 A 
ATOM      5  C3  PXY d   1      -0.149  -0.489   1.462  0.00  0.00     0.003 A 
ATOM      6  C4  PXY d   1       0.424  -0.509   0.219  0.00  0.00    -0.082 A 
ATOM      7  C5  PXY d   1       0.058   0.412  -0.697  0.00  0.00     0.003 A 
ATOM      8  C6  PXY d   1      -0.898   1.364  -0.357  0.00  0.00     0.003 A 
ENDROOT
TORSDOF 0
ENDMDL
