MODEL 1
REMARK minimizedAffinity -3.72916746
REMARK minimizedRMSD -1
REMARK  0 active torsions:
REMARK  status: ('A' for Active; 'I' for Inactive)
ROOT
ATOM      1  C4' PXY d   1      -1.044   2.491   2.298  0.00  0.00     0.077 C 
ATOM      2  C1' PXY d   1       0.944  -1.523  -1.355  0.00  0.00     0.077 C 
ATOM      3  C1  PXY d   1       0.415  -0.479  -0.392  0.00  0.00    -0.082 A 
ATOM      4  C2  PXY d   1       0.534   0.805  -0.689  0.00  0.00     0.003 A 
ATOM      5  C3  PXY d   1       0.089   1.763   0.185  0.00  0.00     0.003 A 
ATOM      6  C4  PXY d   1      -0.532   1.402   1.351  0.00  0.00    -0.082 A 
ATOM      7  C5  PXY d   1      -0.668   0.094   1.656  0.00  0.00     0.003 A 
ATOM      8  C6  PXY d   1      -0.172  -0.862   0.774  0.00  0.00     0.003 A 
ENDROOT
TORSDOF 0
ENDMDL
