MODEL 1
REMARK minimizedAffinity -3.12717605
REMARK minimizedRMSD -1
REMARK  0 active torsions:
REMARK  status: ('A' for Active; 'I' for Inactive)
ROOT
ATOM      1  C4' PXY d   1       0.831  -1.257  -0.656  0.00  0.00     0.077 C 
ATOM      2  C1' PXY d   1      -2.365   2.910   1.759  0.00  0.00     0.077 C 
ATOM      3  C1  PXY d   1      -1.526   1.812   1.137  0.00  0.00    -0.082 A 
ATOM      4  C2  PXY d   1      -0.873   2.046   0.010  0.00  0.00     0.003 A 
ATOM      5  C3  PXY d   1      -0.135   1.054  -0.582  0.00  0.00     0.003 A 
ATOM      6  C4  PXY d   1      -0.021  -0.174   0.012  0.00  0.00    -0.082 A 
ATOM      7  C5  PXY d   1      -0.675  -0.418   1.167  0.00  0.00     0.003 A 
ATOM      8  C6  PXY d   1      -1.453   0.590   1.731  0.00  0.00     0.003 A 
ENDROOT
TORSDOF 0
ENDMDL
