MODEL 1
REMARK minimizedAffinity -4.70588207
REMARK minimizedRMSD -1
REMARK  0 active torsions:
REMARK  status: ('A' for Active; 'I' for Inactive)
ROOT
ATOM      1  C4' PXY d   1       0.928  -2.338  -1.354  0.00  0.00     0.077 C 
ATOM      2  C1' PXY d   1      -1.224   1.908   1.926  0.00  0.00     0.077 C 
ATOM      3  C1  PXY d   1      -0.655   0.789   1.076  0.00  0.00    -0.082 A 
ATOM      4  C2  PXY d   1      -0.396   1.006  -0.203  0.00  0.00     0.003 A 
ATOM      5  C3  PXY d   1       0.089  -0.004  -0.993  0.00  0.00     0.003 A 
ATOM      6  C4  PXY d   1       0.362  -1.234  -0.456  0.00  0.00    -0.082 A 
ATOM      7  C5  PXY d   1       0.110  -1.460   0.851  0.00  0.00     0.003 A 
ATOM      8  C6  PXY d   1      -0.421  -0.434   1.626  0.00  0.00     0.003 A 
ENDROOT
TORSDOF 0
ENDMDL
