MODEL 1
REMARK minimizedAffinity -4.01680756
REMARK minimizedRMSD -1
REMARK  0 active torsions:
REMARK  status: ('A' for Active; 'I' for Inactive)
ROOT
ATOM      1  C4' PXY d   1      -0.092   3.613  -1.051  0.00  0.00     0.077 C 
ATOM      2  C1' PXY d   1      -1.141  -1.122   2.094  0.00  0.00     0.077 C 
ATOM      3  C1  PXY d   1      -0.876   0.126   1.274  0.00  0.00    -0.082 A 
ATOM      4  C2  PXY d   1      -0.214   0.030   0.133  0.00  0.00     0.003 A 
ATOM      5  C3  PXY d   1       0.062   1.153  -0.604  0.00  0.00     0.003 A 
ATOM      6  C4  PXY d   1      -0.390   2.379  -0.196  0.00  0.00    -0.082 A 
ATOM      7  C5  PXY d   1      -1.076   2.483   0.962  0.00  0.00     0.003 A 
ATOM      8  C6  PXY d   1      -1.310   1.337   1.717  0.00  0.00     0.003 A 
ENDROOT
TORSDOF 0
ENDMDL
