MODEL 1
REMARK minimizedAffinity -2.04229355
REMARK minimizedRMSD -1
REMARK  0 active torsions:
REMARK  status: ('A' for Active; 'I' for Inactive)
ROOT
ATOM      1  C4' PXY d   1       1.299  -1.736  -1.548  0.00  0.00     0.077 C 
ATOM      2  C1' PXY d   1      -0.872   1.426   2.777  0.00  0.00     0.077 C 
ATOM      3  C1  PXY d   1      -0.291   0.600   1.646  0.00  0.00    -0.082 A 
ATOM      4  C2  PXY d   1      -1.019   0.363   0.568  0.00  0.00     0.003 A 
ATOM      5  C3  PXY d   1      -0.521  -0.409  -0.450  0.00  0.00     0.003 A 
ATOM      6  C4  PXY d   1       0.756  -0.899  -0.386  0.00  0.00    -0.082 A 
ATOM      7  C5  PXY d   1       1.510  -0.652   0.706  0.00  0.00     0.003 A 
ATOM      8  C6  PXY d   1       0.970   0.099   1.746  0.00  0.00     0.003 A 
ENDROOT
TORSDOF 0
ENDMDL
