MODEL 1
REMARK minimizedAffinity -4.61290598
REMARK minimizedRMSD -1
REMARK  0 active torsions:
REMARK  status: ('A' for Active; 'I' for Inactive)
ROOT
ATOM      1  C4' PXY d   1      -0.665   3.636  -0.826  0.00  0.00     0.077 C 
ATOM      2  C1' PXY d   1      -1.114  -1.090   2.472  0.00  0.00     0.077 C 
ATOM      3  C1  PXY d   1      -1.008   0.154   1.611  0.00  0.00    -0.082 A 
ATOM      4  C2  PXY d   1      -0.252   0.135   0.525  0.00  0.00     0.003 A 
ATOM      5  C3  PXY d   1      -0.119   1.261  -0.246  0.00  0.00     0.003 A 
ATOM      6  C4  PXY d   1      -0.810   2.401   0.067  0.00  0.00    -0.082 A 
ATOM      7  C5  PXY d   1      -1.591   2.425   1.167  0.00  0.00     0.003 A 
ATOM      8  C6  PXY d   1      -1.680   1.284   1.961  0.00  0.00     0.003 A 
ENDROOT
TORSDOF 0
ENDMDL
