MODEL 1
REMARK minimizedAffinity -4.88831091
REMARK minimizedRMSD -1
REMARK  0 active torsions:
REMARK  status: ('A' for Active; 'I' for Inactive)
ROOT
ATOM      1  C4' PXY d   1       1.259  -1.019  -0.860  0.00  0.00     0.077 C 
ATOM      2  C1' PXY d   1      -2.281   2.920   1.456  0.00  0.00     0.077 C 
ATOM      3  C1  PXY d   1      -1.353   1.894   0.837  0.00  0.00    -0.082 A 
ATOM      4  C2  PXY d   1      -1.292   0.675   1.348  0.00  0.00     0.003 A 
ATOM      5  C3  PXY d   1      -0.435  -0.256   0.821  0.00  0.00     0.003 A 
ATOM      6  C4  PXY d   1       0.329   0.047  -0.274  0.00  0.00    -0.082 A 
ATOM      7  C5  PXY d   1       0.265   1.285  -0.808  0.00  0.00     0.003 A 
ATOM      8  C6  PXY d   1      -0.582   2.228  -0.233  0.00  0.00     0.003 A 
ENDROOT
TORSDOF 0
ENDMDL
