MODEL 1
REMARK minimizedAffinity -2.16675353
REMARK minimizedRMSD -1
REMARK  0 active torsions:
REMARK  status: ('A' for Active; 'I' for Inactive)
ROOT
ATOM      1  C4' PXY d   1      -0.087  -1.691  -1.807  0.00  0.00     0.077 C 
ATOM      2  C1' PXY d   1      -1.398   2.171   2.289  0.00  0.00     0.077 C 
ATOM      3  C1  PXY d   1      -1.042   1.158   1.219  0.00  0.00    -0.082 A 
ATOM      4  C2  PXY d   1      -1.772   1.085   0.118  0.00  0.00     0.003 A 
ATOM      5  C3  PXY d   1      -1.483   0.153  -0.846  0.00  0.00     0.003 A 
ATOM      6  C4  PXY d   1      -0.404  -0.677  -0.705  0.00  0.00    -0.082 A 
ATOM      7  C5  PXY d   1       0.353  -0.602   0.411  0.00  0.00     0.003 A 
ATOM      8  C6  PXY d   1       0.018   0.323   1.396  0.00  0.00     0.003 A 
ENDROOT
TORSDOF 0
ENDMDL
