MODEL 1
REMARK minimizedAffinity 9.01534081
REMARK minimizedRMSD -1
REMARK  1 active torsions:
REMARK  status: ('A' for Active; 'I' for Inactive)
REMARK    1  A    between atoms: C1_2  and  C2_3 
ROOT
ATOM      1  C2  UNL d   1       0.511  -2.102  -0.070  0.00  0.00    -0.073 A 
ATOM      2  C3  UNL d   1      -0.752  -1.511   0.050  0.00  0.00    -0.002 A 
ATOM      3  C4  UNL d   1      -0.958  -0.463   0.948  0.00  0.00     0.004 A 
ATOM      4  C5  UNL d   1       0.096   0.009   1.730  0.00  0.00    -0.004 A 
ATOM      5  C6  UNL d   1       1.368  -0.561   1.617  0.00  0.00    -0.075 A 
ATOM      6  C7  UNL d   1       2.512  -0.067   2.453  0.00  0.00     0.076 C 
ATOM      7  C8  UNL d   1       1.566  -1.615   0.714  0.00  0.00     0.001 A 
ENDROOT
BRANCH   1   8
ATOM      8  C1  UNL d   1       0.740  -3.229  -1.043  0.00  0.00     0.053 C 
ATOM      9  C   UNL d   1       1.854  -4.158  -0.588  0.00  0.00     0.018 C 
ENDBRANCH   1   8
TORSDOF 1
ENDMDL
