MODEL 1
REMARK minimizedAffinity 3.16879606
REMARK minimizedRMSD -1
REMARK  1 active torsions:
REMARK  status: ('A' for Active; 'I' for Inactive)
REMARK    1  A    between atoms: C1_2  and  C2_3 
ROOT
ATOM      1  C2  UNL d   1       1.758  -2.761  -0.111  0.00  0.00    -0.073 A 
ATOM      2  C3  UNL d   1       0.839  -3.516  -0.849  0.00  0.00    -0.002 A 
ATOM      3  C4  UNL d   1      -0.531  -3.372  -0.627  0.00  0.00     0.004 A 
ATOM      4  C5  UNL d   1      -0.996  -2.468   0.329  0.00  0.00    -0.004 A 
ATOM      5  C6  UNL d   1      -0.094  -1.697   1.068  0.00  0.00    -0.075 A 
ATOM      6  C7  UNL d   1      -0.578  -0.722   2.101  0.00  0.00     0.076 C 
ATOM      7  C8  UNL d   1       1.281  -1.849   0.841  0.00  0.00     0.001 A 
ENDROOT
BRANCH   1   8
ATOM      8  C1  UNL d   1       3.238  -2.909  -0.351  0.00  0.00     0.053 C 
ATOM      9  C   UNL d   1       3.634  -4.355  -0.604  0.00  0.00     0.018 C 
ENDBRANCH   1   8
TORSDOF 1
ENDMDL
