MODEL 1
REMARK minimizedAffinity 1.00850034
REMARK minimizedRMSD -1
REMARK  1 active torsions:
REMARK  status: ('A' for Active; 'I' for Inactive)
REMARK    1  A    between atoms: C1_2  and  C2_3 
ROOT
ATOM      1  C2  UNL d   1      -4.736  -2.501   3.688  0.00  0.00    -0.073 A 
ATOM      2  C3  UNL d   1      -4.687  -2.562   2.291  0.00  0.00    -0.002 A 
ATOM      3  C4  UNL d   1      -5.052  -3.731   1.623  0.00  0.00     0.004 A 
ATOM      4  C5  UNL d   1      -5.475  -4.848   2.343  0.00  0.00    -0.004 A 
ATOM      5  C6  UNL d   1      -5.541  -4.804   3.740  0.00  0.00    -0.075 A 
ATOM      6  C7  UNL d   1      -5.992  -5.997   4.529  0.00  0.00     0.076 C 
ATOM      7  C8  UNL d   1      -5.171  -3.626   4.403  0.00  0.00     0.001 A 
ENDROOT
BRANCH   1   8
ATOM      8  C1  UNL d   1      -4.349  -1.238   4.413  0.00  0.00     0.053 C 
ATOM      9  C   UNL d   1      -4.572  -1.351   5.913  0.00  0.00     0.018 C 
ENDBRANCH   1   8
TORSDOF 1
ENDMDL
