MODEL 1
REMARK minimizedAffinity -3.45739698
REMARK minimizedRMSD -1
REMARK  1 active torsions:
REMARK  status: ('A' for Active; 'I' for Inactive)
REMARK    1  A    between atoms: C1_2  and  C2_3 
ROOT
ATOM      1  C2  UNL d   1       1.229  -1.477   0.488  0.00  0.00    -0.073 A 
ATOM      2  C3  UNL d   1       0.454  -2.448  -0.156  0.00  0.00    -0.002 A 
ATOM      3  C4  UNL d   1      -0.938  -2.346  -0.167  0.00  0.00     0.004 A 
ATOM      4  C5  UNL d   1      -1.568  -1.270   0.459  0.00  0.00    -0.004 A 
ATOM      5  C6  UNL d   1      -0.810  -0.283   1.098  0.00  0.00    -0.075 A 
ATOM      6  C7  UNL d   1      -1.472   0.879   1.777  0.00  0.00     0.076 C 
ATOM      7  C8  UNL d   1       0.587  -0.394   1.106  0.00  0.00     0.001 A 
ENDROOT
BRANCH   1   8
ATOM      8  C1  UNL d   1       2.732  -1.579   0.496  0.00  0.00     0.053 C 
ATOM      9  C   UNL d   1       3.211  -2.968   0.102  0.00  0.00     0.018 C 
ENDBRANCH   1   8
TORSDOF 1
ENDMDL
