MODEL 1
REMARK minimizedAffinity 1.36806059
REMARK minimizedRMSD -1
REMARK  1 active torsions:
REMARK  status: ('A' for Active; 'I' for Inactive)
REMARK    1  A    between atoms: C1_2  and  C2_3 
ROOT
ATOM      1  C2  UNL d   1       0.759  -2.934  -0.408  0.00  0.00    -0.073 A 
ATOM      2  C3  UNL d   1       2.080  -2.490  -0.542  0.00  0.00    -0.002 A 
ATOM      3  C4  UNL d   1       2.463  -1.251  -0.026  0.00  0.00     0.004 A 
ATOM      4  C5  UNL d   1       1.534  -0.448   0.635  0.00  0.00    -0.004 A 
ATOM      5  C6  UNL d   1       0.213  -0.879   0.790  0.00  0.00    -0.075 A 
ATOM      6  C7  UNL d   1      -0.799  -0.026   1.497  0.00  0.00     0.076 C 
ATOM      7  C8  UNL d   1      -0.165  -2.123   0.267  0.00  0.00     0.001 A 
ENDROOT
BRANCH   1   8
ATOM      8  C1  UNL d   1       0.342  -4.273  -0.958  0.00  0.00     0.053 C 
ATOM      9  C   UNL d   1       0.681  -4.414  -2.433  0.00  0.00     0.018 C 
ENDBRANCH   1   8
TORSDOF 1
ENDMDL
