MODEL 1
REMARK minimizedAffinity 3.83721542
REMARK minimizedRMSD -1
REMARK  1 active torsions:
REMARK  status: ('A' for Active; 'I' for Inactive)
REMARK    1  A    between atoms: C1_2  and  C2_3 
ROOT
ATOM      1  C2  UNL d   1       0.291  -2.436   0.009  0.00  0.00    -0.073 A 
ATOM      2  C3  UNL d   1      -0.904  -1.742   0.228  0.00  0.00    -0.002 A 
ATOM      3  C4  UNL d   1      -0.898  -0.529   0.919  0.00  0.00     0.004 A 
ATOM      4  C5  UNL d   1       0.301   0.004   1.391  0.00  0.00    -0.004 A 
ATOM      5  C6  UNL d   1       1.507  -0.670   1.172  0.00  0.00    -0.075 A 
ATOM      6  C7  UNL d   1       2.806  -0.111   1.675  0.00  0.00     0.076 C 
ATOM      7  C8  UNL d   1       1.493  -1.888   0.479  0.00  0.00     0.001 A 
ENDROOT
BRANCH   1   8
ATOM      8  C1  UNL d   1       0.291  -3.742  -0.743  0.00  0.00     0.053 C 
ATOM      9  C   UNL d   1       1.700  -4.231  -1.037  0.00  0.00     0.018 C 
ENDBRANCH   1   8
TORSDOF 1
ENDMDL
