MODEL 1
REMARK minimizedAffinity -4.32920837
REMARK minimizedRMSD -1
REMARK  1 active torsions:
REMARK  status: ('A' for Active; 'I' for Inactive)
REMARK    1  A    between atoms: C1_2  and  C2_3 
ROOT
ATOM      1  C2  UNL d   1      -1.633  -1.366   0.817  0.00  0.00    -0.073 A 
ATOM      2  C3  UNL d   1      -0.965  -0.828   1.923  0.00  0.00    -0.002 A 
ATOM      3  C4  UNL d   1      -1.382   0.383   2.477  0.00  0.00     0.004 A 
ATOM      4  C5  UNL d   1      -2.473   1.064   1.937  0.00  0.00    -0.004 A 
ATOM      5  C6  UNL d   1      -3.160   0.536   0.839  0.00  0.00    -0.075 A 
ATOM      6  C7  UNL d   1      -4.334   1.257   0.245  0.00  0.00     0.076 C 
ATOM      7  C8  UNL d   1      -2.734  -0.679   0.286  0.00  0.00     0.001 A 
ENDROOT
BRANCH   1   8
ATOM      8  C1  UNL d   1      -1.190  -2.677   0.219  0.00  0.00     0.053 C 
ATOM      9  C   UNL d   1       0.316  -2.863   0.304  0.00  0.00     0.018 C 
ENDBRANCH   1   8
TORSDOF 1
ENDMDL
