MODEL 1
REMARK minimizedAffinity 10.1658907
REMARK minimizedRMSD -1
REMARK  1 active torsions:
REMARK  status: ('A' for Active; 'I' for Inactive)
REMARK    1  A    between atoms: C1_2  and  C2_3 
ROOT
ATOM      1  C2  UNL d   1       0.922  -3.250  -0.146  0.00  0.00    -0.073 A 
ATOM      2  C3  UNL d   1      -0.450  -2.973  -0.175  0.00  0.00    -0.002 A 
ATOM      3  C4  UNL d   1      -0.986  -1.983   0.648  0.00  0.00     0.004 A 
ATOM      4  C5  UNL d   1      -0.158  -1.255   1.503  0.00  0.00    -0.004 A 
ATOM      5  C6  UNL d   1       1.217  -1.509   1.537  0.00  0.00    -0.075 A 
ATOM      6  C7  UNL d   1       2.122  -0.737   2.452  0.00  0.00     0.076 C 
ATOM      7  C8  UNL d   1       1.748  -2.507   0.709  0.00  0.00     0.001 A 
ENDROOT
BRANCH   1   8
ATOM      8  C1  UNL d   1       1.507  -4.315  -1.038  0.00  0.00     0.053 C 
ATOM      9  C   UNL d   1       2.969  -4.586  -0.719  0.00  0.00     0.018 C 
ENDBRANCH   1   8
TORSDOF 1
ENDMDL
