MODEL 1
REMARK minimizedAffinity -2.25964594
REMARK minimizedRMSD -1
REMARK  0 active torsions:
REMARK  status: ('A' for Active; 'I' for Inactive)
ROOT
ATOM      1  C   UNL d   1       1.468   1.757  -0.976  0.00  0.00     0.020 A 
ATOM      2  C1  UNL d   1       0.537   1.363  -0.017  0.00  0.00     0.020 A 
ATOM      3  C2  UNL d   1       0.326   0.005   0.235  0.00  0.00     0.034 A 
ATOM      4  C3  UNL d   1       1.047  -0.962  -0.474  0.00  0.00     0.017 A 
ATOM      5  C4  UNL d   1       1.981  -0.565  -1.438  0.00  0.00     0.017 A 
ATOM      6  C5  UNL d   1       2.189   0.795  -1.685  0.00  0.00     0.034 A 
ATOM      7 Cl   UNL d   1       2.909  -1.701  -2.353  0.00  0.00    -0.070 Cl
ATOM      8 Cl1  UNL d   1       0.735  -2.623  -0.112  0.00  0.00    -0.070 Cl
ENDROOT
TORSDOF 0
ENDMDL
