MODEL 1
REMARK minimizedAffinity -2.54627872
REMARK minimizedRMSD -1
REMARK  0 active torsions:
REMARK  status: ('A' for Active; 'I' for Inactive)
ROOT
ATOM      1  C   UNL d   1       1.004   2.248  -0.682  0.00  0.00     0.020 A 
ATOM      2  C1  UNL d   1       1.931   1.629  -1.520  0.00  0.00     0.020 A 
ATOM      3  C2  UNL d   1       2.031   0.236  -1.544  0.00  0.00     0.034 A 
ATOM      4  C3  UNL d   1       1.202  -0.543  -0.729  0.00  0.00     0.017 A 
ATOM      5  C4  UNL d   1       0.271   0.079   0.112  0.00  0.00     0.017 A 
ATOM      6  C5  UNL d   1       0.176   1.474   0.132  0.00  0.00     0.034 A 
ATOM      7 Cl   UNL d   1      -0.786  -0.815   1.147  0.00  0.00    -0.070 Cl
ATOM      8 Cl1  UNL d   1       1.378  -2.259  -0.810  0.00  0.00    -0.070 Cl
ENDROOT
TORSDOF 0
ENDMDL
