MODEL 1
REMARK minimizedAffinity -3.535254
REMARK minimizedRMSD -1
REMARK  0 active torsions:
REMARK  status: ('A' for Active; 'I' for Inactive)
ROOT
ATOM      1  C   UNL d   1       2.205   0.773  -1.736  0.00  0.00     0.020 A 
ATOM      2  C1  UNL d   1       1.485   1.815  -1.154  0.00  0.00     0.020 A 
ATOM      3  C2  UNL d   1       0.503   1.537  -0.200  0.00  0.00     0.034 A 
ATOM      4  C3  UNL d   1       0.239   0.214   0.174  0.00  0.00     0.017 A 
ATOM      5  C4  UNL d   1       0.963  -0.831  -0.411  0.00  0.00     0.017 A 
ATOM      6  C5  UNL d   1       1.945  -0.547  -1.366  0.00  0.00     0.034 A 
ATOM      7 Cl   UNL d   1       0.695  -2.488  -0.001  0.00  0.00    -0.070 Cl
ATOM      8 Cl1  UNL d   1      -0.988  -0.056   1.359  0.00  0.00    -0.070 Cl
ENDROOT
TORSDOF 0
ENDMDL
