MODEL 1
REMARK minimizedAffinity -5.17361975
REMARK minimizedRMSD -1
REMARK  0 active torsions:
REMARK  status: ('A' for Active; 'I' for Inactive)
ROOT
ATOM      1  C   UNL d   1       1.487  -1.950  -2.273  0.00  0.00     0.020 A 
ATOM      2  C1  UNL d   1       1.867  -0.657  -2.632  0.00  0.00     0.020 A 
ATOM      3  C2  UNL d   1       1.495   0.427  -1.834  0.00  0.00     0.034 A 
ATOM      4  C3  UNL d   1       0.740   0.221  -0.674  0.00  0.00     0.017 A 
ATOM      5  C4  UNL d   1       0.359  -1.077  -0.314  0.00  0.00     0.017 A 
ATOM      6  C5  UNL d   1       0.734  -2.159  -1.117  0.00  0.00     0.034 A 
ATOM      7 Cl   UNL d   1      -0.573  -1.410   1.103  0.00  0.00    -0.070 Cl
ATOM      8 Cl1  UNL d   1       0.315   1.608   0.265  0.00  0.00    -0.070 Cl
ENDROOT
TORSDOF 0
ENDMDL
