MODEL 1
REMARK minimizedAffinity -2.74496818
REMARK minimizedRMSD -1
REMARK  0 active torsions:
REMARK  status: ('A' for Active; 'I' for Inactive)
ROOT
ATOM      1  C   UNL d   1      -0.624   1.330   0.890  0.00  0.00     0.020 A 
ATOM      2  C1  UNL d   1      -1.094   0.078   1.285  0.00  0.00     0.020 A 
ATOM      3  C2  UNL d   1      -0.482  -1.081   0.804  0.00  0.00     0.034 A 
ATOM      4  C3  UNL d   1       0.604  -0.992  -0.074  0.00  0.00     0.017 A 
ATOM      5  C4  UNL d   1       1.075   0.265  -0.470  0.00  0.00     0.017 A 
ATOM      6  C5  UNL d   1       0.459   1.423   0.014  0.00  0.00     0.034 A 
ATOM      7 Cl   UNL d   1       2.410   0.456  -1.551  0.00  0.00    -0.070 Cl
ATOM      8 Cl1  UNL d   1       1.312  -2.467  -0.629  0.00  0.00    -0.070 Cl
ENDROOT
TORSDOF 0
ENDMDL
