MODEL 1
REMARK minimizedAffinity 7.97384262
REMARK minimizedRMSD -1
REMARK  0 active torsions:
REMARK  status: ('A' for Active; 'I' for Inactive)
ROOT
ATOM      1  C   UNL d   1       0.035   1.990   0.240  0.00  0.00     0.020 A 
ATOM      2  C1  UNL d   1       1.082   2.529  -0.507  0.00  0.00     0.020 A 
ATOM      3  C2  UNL d   1       1.958   1.684  -1.192  0.00  0.00     0.034 A 
ATOM      4  C3  UNL d   1       1.790   0.296  -1.130  0.00  0.00     0.017 A 
ATOM      5  C4  UNL d   1       0.739  -0.244  -0.380  0.00  0.00     0.017 A 
ATOM      6  C5  UNL d   1      -0.136   0.607   0.304  0.00  0.00     0.034 A 
ATOM      7 Cl   UNL d   1       0.467  -1.946  -0.256  0.00  0.00    -0.070 Cl
ATOM      8 Cl1  UNL d   1       2.911  -0.689  -2.001  0.00  0.00    -0.070 Cl
ENDROOT
TORSDOF 0
ENDMDL
