MODEL 1
REMARK minimizedAffinity -1.0787673
REMARK minimizedRMSD -1
REMARK  0 active torsions:
REMARK  status: ('A' for Active; 'I' for Inactive)
ROOT
ATOM      1  C   UNL d   1      -1.197   0.415   1.503  0.00  0.00     0.020 A 
ATOM      2  C1  UNL d   1      -0.778   1.693   1.137  0.00  0.00     0.020 A 
ATOM      3  C2  UNL d   1       0.222   1.852   0.175  0.00  0.00     0.034 A 
ATOM      4  C3  UNL d   1       0.807   0.730  -0.424  0.00  0.00     0.017 A 
ATOM      5  C4  UNL d   1       0.386  -0.553  -0.056  0.00  0.00     0.017 A 
ATOM      6  C5  UNL d   1      -0.616  -0.706   0.908  0.00  0.00     0.034 A 
ATOM      7 Cl   UNL d   1       1.060  -1.984  -0.751  0.00  0.00    -0.070 Cl
ATOM      8 Cl1  UNL d   1       2.038   1.001  -1.606  0.00  0.00    -0.070 Cl
ENDROOT
TORSDOF 0
ENDMDL
