MODEL 1
REMARK minimizedAffinity -2.84196734
REMARK minimizedRMSD -1
REMARK  0 active torsions:
REMARK  status: ('A' for Active; 'I' for Inactive)
ROOT
ATOM      1  C   UNL d   1       1.058   1.669  -0.703  0.00  0.00     0.020 A 
ATOM      2  C1  UNL d   1       1.638   0.907  -1.717  0.00  0.00     0.020 A 
ATOM      3  C2  UNL d   1       1.528  -0.485  -1.693  0.00  0.00     0.034 A 
ATOM      4  C3  UNL d   1       0.838  -1.119  -0.654  0.00  0.00     0.017 A 
ATOM      5  C4  UNL d   1       0.256  -0.354   0.363  0.00  0.00     0.017 A 
ATOM      6  C5  UNL d   1       0.369   1.040   0.334  0.00  0.00     0.034 A 
ATOM      7 Cl   UNL d   1      -0.611  -1.065   1.678  0.00  0.00    -0.070 Cl
ATOM      8 Cl1  UNL d   1       0.742  -2.844  -0.689  0.00  0.00    -0.070 Cl
ENDROOT
TORSDOF 0
ENDMDL
