MODEL 1
REMARK minimizedAffinity -1.73172474
REMARK minimizedRMSD -1
REMARK  0 active torsions:
REMARK  status: ('A' for Active; 'I' for Inactive)
ROOT
ATOM      1  C   UNL d   1      -3.799  -0.574   0.740  0.00  0.00     0.020 A 
ATOM      2  C1  UNL d   1      -4.540   0.019   1.761  0.00  0.00     0.020 A 
ATOM      3  C2  UNL d   1      -3.934   0.939   2.620  0.00  0.00     0.034 A 
ATOM      4  C3  UNL d   1      -2.583   1.268   2.460  0.00  0.00     0.017 A 
ATOM      5  C4  UNL d   1      -1.840   0.672   1.435  0.00  0.00     0.017 A 
ATOM      6  C5  UNL d   1      -2.452  -0.248   0.577  0.00  0.00     0.034 A 
ATOM      7 Cl   UNL d   1      -0.169   1.027   1.174  0.00  0.00    -0.070 Cl
ATOM      8 Cl1  UNL d   1      -1.899   2.413   3.558  0.00  0.00    -0.070 Cl
ENDROOT
TORSDOF 0
ENDMDL
