MODEL 1
REMARK minimizedAffinity -3.59271646
REMARK minimizedRMSD -1
REMARK  0 active torsions:
REMARK  status: ('A' for Active; 'I' for Inactive)
ROOT
ATOM      1  C   UNL d   1      -0.495   0.868   0.917  0.00  0.00     0.020 A 
ATOM      2  C1  UNL d   1      -0.643  -0.450   1.347  0.00  0.00     0.020 A 
ATOM      3  C2  UNL d   1       0.065  -1.474   0.715  0.00  0.00     0.034 A 
ATOM      4  C3  UNL d   1       0.924  -1.183  -0.351  0.00  0.00     0.017 A 
ATOM      5  C4  UNL d   1       1.072   0.140  -0.782  0.00  0.00     0.017 A 
ATOM      6  C5  UNL d   1       0.361   1.162  -0.146  0.00  0.00     0.034 A 
ATOM      7 Cl   UNL d   1       2.114   0.578  -2.090  0.00  0.00    -0.070 Cl
ATOM      8 Cl1  UNL d   1       1.768  -2.499  -1.086  0.00  0.00    -0.070 Cl
ENDROOT
TORSDOF 0
ENDMDL
