MODEL 1
REMARK minimizedAffinity -1.63624954
REMARK minimizedRMSD -1
REMARK  0 active torsions:
REMARK  status: ('A' for Active; 'I' for Inactive)
ROOT
ATOM      1  C   UNL d   1      -0.061   1.385   0.446  0.00  0.00     0.020 A 
ATOM      2  C1  UNL d   1      -0.656   0.316   1.115  0.00  0.00     0.020 A 
ATOM      3  C2  UNL d   1      -0.409  -0.994   0.698  0.00  0.00     0.034 A 
ATOM      4  C3  UNL d   1       0.435  -1.238  -0.392  0.00  0.00     0.017 A 
ATOM      5  C4  UNL d   1       1.032  -0.164  -1.063  0.00  0.00     0.017 A 
ATOM      6  C5  UNL d   1       0.781   1.145  -0.641  0.00  0.00     0.034 A 
ATOM      7 Cl   UNL d   1       2.085  -0.387  -2.415  0.00  0.00    -0.070 Cl
ATOM      8 Cl1  UNL d   1       0.697  -2.882  -0.853  0.00  0.00    -0.070 Cl
ENDROOT
TORSDOF 0
ENDMDL
