MODEL 1
REMARK minimizedAffinity -3.18212104
REMARK minimizedRMSD -1
REMARK  0 active torsions:
REMARK  status: ('A' for Active; 'I' for Inactive)
ROOT
ATOM      1  C   UNL d   1       1.635  -2.624  -1.047  0.00  0.00     0.020 A 
ATOM      2  C1  UNL d   1       2.446  -1.784  -1.809  0.00  0.00     0.020 A 
ATOM      3  C2  UNL d   1       2.300  -0.398  -1.713  0.00  0.00     0.034 A 
ATOM      4  C3  UNL d   1       1.342   0.151  -0.854  0.00  0.00     0.017 A 
ATOM      5  C4  UNL d   1       0.528  -0.693  -0.089  0.00  0.00     0.017 A 
ATOM      6  C5  UNL d   1       0.678  -2.080  -0.189  0.00  0.00     0.034 A 
ATOM      7 Cl   UNL d   1      -0.676  -0.090   0.993  0.00  0.00    -0.070 Cl
ATOM      8 Cl1  UNL d   1       1.217   1.873  -0.785  0.00  0.00    -0.070 Cl
ENDROOT
TORSDOF 0
ENDMDL
