MODEL 1
REMARK minimizedAffinity -1.50652039
REMARK minimizedRMSD -1
REMARK  0 active torsions:
REMARK  status: ('A' for Active; 'I' for Inactive)
ROOT
ATOM      1  C   UNL d   1      -0.578  -1.519   0.914  0.00  0.00     0.020 A 
ATOM      2  C1  UNL d   1      -0.460  -0.131   0.964  0.00  0.00     0.020 A 
ATOM      3  C2  UNL d   1       0.438   0.525   0.120  0.00  0.00     0.034 A 
ATOM      4  C3  UNL d   1       1.222  -0.207  -0.779  0.00  0.00     0.017 A 
ATOM      5  C4  UNL d   1       1.103  -1.601  -0.829  0.00  0.00     0.017 A 
ATOM      6  C5  UNL d   1       0.202  -2.253   0.019  0.00  0.00     0.034 A 
ATOM      7 Cl   UNL d   1       2.037  -2.573  -1.911  0.00  0.00    -0.070 Cl
ATOM      8 Cl1  UNL d   1       2.312   0.669  -1.794  0.00  0.00    -0.070 Cl
ENDROOT
TORSDOF 0
ENDMDL
