MODEL 1
REMARK minimizedAffinity -3.2709589
REMARK minimizedRMSD -1
REMARK  0 active torsions:
REMARK  status: ('A' for Active; 'I' for Inactive)
ROOT
ATOM      1  C   UNL d   1       2.705  -1.559  -2.199  0.00  0.00     0.020 A 
ATOM      2  C1  UNL d   1       1.888  -2.497  -1.569  0.00  0.00     0.020 A 
ATOM      3  C2  UNL d   1       0.842  -2.072  -0.748  0.00  0.00     0.034 A 
ATOM      4  C3  UNL d   1       0.610  -0.705  -0.554  0.00  0.00     0.017 A 
ATOM      5  C4  UNL d   1       1.431   0.235  -1.187  0.00  0.00     0.017 A 
ATOM      6  C5  UNL d   1       2.477  -0.196  -2.008  0.00  0.00     0.034 A 
ATOM      7 Cl   UNL d   1       1.207   1.939  -0.996  0.00  0.00    -0.070 Cl
ATOM      8 Cl1  UNL d   1      -0.702  -0.251   0.475  0.00  0.00    -0.070 Cl
ENDROOT
TORSDOF 0
ENDMDL
