MODEL 1
REMARK minimizedAffinity 6.77668905
REMARK minimizedRMSD -1
REMARK  0 active torsions:
REMARK  status: ('A' for Active; 'I' for Inactive)
ROOT
ATOM      1  C   UNL d   1      -2.264   1.467   5.999  0.00  0.00     0.020 A 
ATOM      2  C1  UNL d   1      -2.062   2.239   4.856  0.00  0.00     0.020 A 
ATOM      3  C2  UNL d   1      -2.770   1.953   3.687  0.00  0.00     0.034 A 
ATOM      4  C3  UNL d   1      -3.683   0.893   3.658  0.00  0.00     0.017 A 
ATOM      5  C4  UNL d   1      -3.885   0.118   4.806  0.00  0.00     0.017 A 
ATOM      6  C5  UNL d   1      -3.173   0.409   5.974  0.00  0.00     0.034 A 
ATOM      7 Cl   UNL d   1      -4.995  -1.206   4.847  0.00  0.00    -0.070 Cl
ATOM      8 Cl1  UNL d   1      -4.524   0.597   2.178  0.00  0.00    -0.070 Cl
ENDROOT
TORSDOF 0
ENDMDL
