MODEL 1
REMARK minimizedAffinity -0.235454321
REMARK minimizedRMSD -1
REMARK  0 active torsions:
REMARK  status: ('A' for Active; 'I' for Inactive)
ROOT
ATOM      1  C   UNL d   1       0.023   1.338   0.376  0.00  0.00     0.020 A 
ATOM      2  C1  UNL d   1      -0.704   0.204   0.733  0.00  0.00     0.020 A 
ATOM      3  C2  UNL d   1      -0.254  -1.063   0.354  0.00  0.00     0.034 A 
ATOM      4  C3  UNL d   1       0.927  -1.198  -0.385  0.00  0.00     0.017 A 
ATOM      5  C4  UNL d   1       1.656  -0.058  -0.743  0.00  0.00     0.017 A 
ATOM      6  C5  UNL d   1       1.201   1.207  -0.361  0.00  0.00     0.034 A 
ATOM      7 Cl   UNL d   1       3.123  -0.145  -1.654  0.00  0.00    -0.070 Cl
ATOM      8 Cl1  UNL d   1       1.424  -2.794  -0.820  0.00  0.00    -0.070 Cl
ENDROOT
TORSDOF 0
ENDMDL
