MODEL 1
REMARK minimizedAffinity 1.29729474
REMARK minimizedRMSD -1
REMARK  0 active torsions:
REMARK  status: ('A' for Active; 'I' for Inactive)
ROOT
ATOM      1  C   UNL d   1       1.739   2.221  -1.672  0.00  0.00     0.020 A 
ATOM      2  C1  UNL d   1       1.675   1.796  -0.346  0.00  0.00     0.020 A 
ATOM      3  C2  UNL d   1       1.776   0.437  -0.042  0.00  0.00     0.034 A 
ATOM      4  C3  UNL d   1       1.940  -0.503  -1.066  0.00  0.00     0.017 A 
ATOM      5  C4  UNL d   1       2.004  -0.076  -2.397  0.00  0.00     0.017 A 
ATOM      6  C5  UNL d   1       1.903   1.286  -2.696  0.00  0.00     0.034 A 
ATOM      7 Cl   UNL d   1       2.206  -1.177  -3.714  0.00  0.00    -0.070 Cl
ATOM      8 Cl1  UNL d   1       2.057  -2.167  -0.617  0.00  0.00    -0.070 Cl
ENDROOT
TORSDOF 0
ENDMDL
