MODEL 1
REMARK minimizedAffinity 0.220678344
REMARK minimizedRMSD -1
REMARK  1 active torsions:
REMARK  status: ('A' for Active; 'I' for Inactive)
REMARK    1  A    between atoms: C1_2  and  C2_3 
ROOT
ATOM      1  C2  UNL d   1       2.559  -5.956  -0.632  0.00  0.00    -0.073 A 
ATOM      2  C3  UNL d   1       1.728  -5.905  -1.756  0.00  0.00    -0.002 A 
ATOM      3  C4  UNL d   1       2.277  -5.870  -3.039  0.00  0.00     0.004 A 
ATOM      4  C5  UNL d   1       3.661  -5.895  -3.210  0.00  0.00    -0.004 A 
ATOM      5  C6  UNL d   1       4.509  -5.959  -2.099  0.00  0.00    -0.075 A 
ATOM      6  C7  UNL d   1       6.000  -5.983  -2.267  0.00  0.00     0.076 C 
ATOM      7  C8  UNL d   1       3.949  -5.990  -0.815  0.00  0.00     0.001 A 
ENDROOT
BRANCH   1   8
ATOM      8  C1  UNL d   1       1.971  -6.000   0.754  0.00  0.00     0.053 C 
ATOM      9  C   UNL d   1       3.045  -5.996   1.830  0.00  0.00     0.018 C 
ENDBRANCH   1   8
TORSDOF 1
ENDMDL
