MODEL 1
REMARK minimizedAffinity 3.69552445
REMARK minimizedRMSD -1
REMARK  1 active torsions:
REMARK  status: ('A' for Active; 'I' for Inactive)
REMARK    1  A    between atoms: C1_2  and  C2_3 
ROOT
ATOM      1  C2  UNL d   1       1.934  -3.642   2.191  0.00  0.00    -0.073 A 
ATOM      2  C3  UNL d   1       2.498  -4.514   3.130  0.00  0.00    -0.002 A 
ATOM      3  C4  UNL d   1       3.130  -5.686   2.712  0.00  0.00     0.004 A 
ATOM      4  C5  UNL d   1       3.211  -5.995   1.355  0.00  0.00    -0.004 A 
ATOM      5  C6  UNL d   1       2.664  -5.130   0.401  0.00  0.00    -0.075 A 
ATOM      6  C7  UNL d   1       2.741  -5.449  -1.064  0.00  0.00     0.076 C 
ATOM      7  C8  UNL d   1       2.029  -3.956   0.828  0.00  0.00     0.001 A 
ENDROOT
BRANCH   1   8
ATOM      8  C1  UNL d   1       1.257  -2.372   2.637  0.00  0.00     0.053 C 
ATOM      9  C   UNL d   1       1.637  -1.992   4.059  0.00  0.00     0.018 C 
ENDBRANCH   1   8
TORSDOF 1
ENDMDL
