MODEL 1
REMARK minimizedAffinity 6.45384073
REMARK minimizedRMSD -1
REMARK  1 active torsions:
REMARK  status: ('A' for Active; 'I' for Inactive)
REMARK    1  A    between atoms: C1_2  and  C2_3 
ROOT
ATOM      1  C2  UNL d   1       0.239   1.068   0.242  0.00  0.00    -0.073 A 
ATOM      2  C3  UNL d   1       0.657  -0.117   0.859  0.00  0.00    -0.002 A 
ATOM      3  C4  UNL d   1       1.124  -1.184   0.091  0.00  0.00     0.004 A 
ATOM      4  C5  UNL d   1       1.185  -1.076  -1.298  0.00  0.00    -0.004 A 
ATOM      5  C6  UNL d   1       0.784   0.105  -1.932  0.00  0.00    -0.075 A 
ATOM      6  C7  UNL d   1       0.841   0.236  -3.426  0.00  0.00     0.076 C 
ATOM      7  C8  UNL d   1       0.313   1.171  -1.154  0.00  0.00     0.001 A 
ENDROOT
BRANCH   1   8
ATOM      8  C1  UNL d   1      -0.260   2.226   1.068  0.00  0.00     0.053 C 
ATOM      9  C   UNL d   1       0.028   3.564   0.406  0.00  0.00     0.018 C 
ENDBRANCH   1   8
TORSDOF 1
ENDMDL
