MODEL 1
REMARK minimizedAffinity -0.166881844
REMARK minimizedRMSD -1
REMARK  3 active torsions:
REMARK  status: ('A' for Active; 'I' for Inactive)
REMARK    1  A    between atoms: C3'_2  and  C2'_3 
REMARK    2  A    between atoms: C2'_3  and  C1'_4 
REMARK    3  A    between atoms: C1'_4  and  C1_5 
ROOT
ATOM      1  C1  N4B d   1       3.148  -6.000  -3.327  0.00  0.00    -0.075 A 
ATOM      2  C2  N4B d   1       1.788  -5.967  -3.706  0.00  0.00     0.002 A 
ATOM      3  C3  N4B d   1       1.447  -5.910  -5.035  0.00  0.00     0.002 A 
ATOM      4  C4  N4B d   1       2.444  -5.867  -5.998  0.00  0.00    -0.004 A 
ATOM      5  C5  N4B d   1       3.755  -5.924  -5.624  0.00  0.00     0.002 A 
ATOM      6  C6  N4B d   1       4.112  -5.986  -4.292  0.00  0.00     0.002 A 
ENDROOT
BRANCH   1   7
ATOM      7  C1' N4B d   1       3.570  -5.975  -1.883  0.00  0.00     0.057 C 
BRANCH   7   8
ATOM      8  C2' N4B d   1       2.558  -5.165  -1.079  0.00  0.00     0.009 C 
BRANCH   8   9
ATOM      9  C3' N4B d   1       1.894  -5.999   0.003  0.00  0.00     0.004 C 
ATOM     10  C4' N4B d   1       2.083  -5.427   1.376  0.00  0.00     0.003 C 
ENDBRANCH   8   9
ENDBRANCH   7   8
ENDBRANCH   1   7
TORSDOF 3
ENDMDL
