MODEL 1
REMARK minimizedAffinity 4.39454746
REMARK minimizedRMSD -1
REMARK  3 active torsions:
REMARK  status: ('A' for Active; 'I' for Inactive)
REMARK    1  A    between atoms: C3'_2  and  C2'_3 
REMARK    2  A    between atoms: C2'_3  and  C1'_4 
REMARK    3  A    between atoms: C1'_4  and  C1_5 
ROOT
ATOM      1  C1  N4B d   1       2.151  -2.106   3.151  0.00  0.00    -0.075 A 
ATOM      2  C2  N4B d   1       1.274  -3.189   3.378  0.00  0.00     0.002 A 
ATOM      3  C3  N4B d   1       1.688  -4.263   4.127  0.00  0.00     0.002 A 
ATOM      4  C4  N4B d   1       2.976  -4.283   4.642  0.00  0.00    -0.004 A 
ATOM      5  C5  N4B d   1       3.808  -3.222   4.440  0.00  0.00     0.002 A 
ATOM      6  C6  N4B d   1       3.404  -2.135   3.692  0.00  0.00     0.002 A 
ENDROOT
BRANCH   1   7
ATOM      7  C1' N4B d   1       1.773  -0.950   2.266  0.00  0.00     0.057 C 
BRANCH   7   8
ATOM      8  C2' N4B d   1       3.032  -0.174   1.889  0.00  0.00     0.009 C 
BRANCH   8   9
ATOM      9  C3' N4B d   1       2.744   1.300   1.661  0.00  0.00     0.004 C 
ATOM     10  C4' N4B d   1       2.296   2.004   2.907  0.00  0.00     0.003 C 
ENDBRANCH   8   9
ENDBRANCH   7   8
ENDBRANCH   1   7
TORSDOF 3
ENDMDL
