MODEL 1
REMARK minimizedAffinity -4.33109093
REMARK minimizedRMSD -1
REMARK  0 active torsions:
REMARK  status: ('A' for Active; 'I' for Inactive)
ROOT
ATOM      1  O1  BZF d   1      -2.235   2.015   0.307  0.00  0.00    -0.204 OA
ATOM      2  C2  BZF d   1      -3.399   2.013   1.051  0.00  0.00     0.174 A 
ATOM      3  C3  BZF d   1      -3.505   0.875   1.768  0.00  0.00    -0.012 A 
ATOM      4  C3A BZF d   1      -2.291   0.160   1.522  0.00  0.00    -0.107 A 
ATOM      5  C4  BZF d   1      -1.798  -1.035   1.964  0.00  0.00     0.055 A 
ATOM      6  C5  BZF d   1      -0.611  -1.481   1.476  0.00  0.00    -0.016 A 
ATOM      7  C6  BZF d   1       0.106  -0.763   0.542  0.00  0.00     0.022 A 
ATOM      8  C7  BZF d   1      -0.339   0.430   0.077  0.00  0.00     0.029 A 
ATOM      9  C7A BZF d   1      -1.522   0.899   0.593  0.00  0.00     0.058 A 
ENDROOT
TORSDOF 0
ENDMDL
