MODEL 1
REMARK minimizedAffinity -5.17631292
REMARK minimizedRMSD -1
REMARK  0 active torsions:
REMARK  status: ('A' for Active; 'I' for Inactive)
ROOT
ATOM      1  O1  BZF d   1      -2.933   1.887  -0.342  0.00  0.00    -0.204 OA
ATOM      2  C2  BZF d   1      -4.119   1.907   0.367  0.00  0.00     0.174 A 
ATOM      3  C3  BZF d   1      -4.109   0.977   1.343  0.00  0.00    -0.012 A 
ATOM      4  C3A BZF d   1      -2.802   0.398   1.298  0.00  0.00    -0.107 A 
ATOM      5  C4  BZF d   1      -2.178  -0.571   2.030  0.00  0.00     0.055 A 
ATOM      6  C5  BZF d   1      -0.922  -0.956   1.683  0.00  0.00    -0.016 A 
ATOM      7  C6  BZF d   1      -0.263  -0.398   0.608  0.00  0.00     0.022 A 
ATOM      8  C7  BZF d   1      -0.838   0.570  -0.146  0.00  0.00     0.029 A 
ATOM      9  C7A BZF d   1      -2.095   0.985   0.223  0.00  0.00     0.058 A 
ENDROOT
TORSDOF 0
ENDMDL
