MODEL 1
REMARK minimizedAffinity -0.921496868
REMARK minimizedRMSD -1
REMARK  0 active torsions:
REMARK  status: ('A' for Active; 'I' for Inactive)
ROOT
ATOM      1  O1  BZF d   1      -0.271   0.839  -0.589  0.00  0.00    -0.204 OA
ATOM      2  C2  BZF d   1      -0.203  -0.427  -0.041  0.00  0.00     0.174 A 
ATOM      3  C3  BZF d   1       0.824  -0.518   0.828  0.00  0.00    -0.012 A 
ATOM      4  C3A BZF d   1       1.381   0.798   0.891  0.00  0.00    -0.107 A 
ATOM      5  C4  BZF d   1       2.415   1.347   1.594  0.00  0.00     0.055 A 
ATOM      6  C5  BZF d   1       2.747   2.647   1.374  0.00  0.00    -0.016 A 
ATOM      7  C6  BZF d   1       2.071   3.423   0.456  0.00  0.00     0.022 A 
ATOM      8  C7  BZF d   1       1.035   2.924  -0.261  0.00  0.00     0.029 A 
ATOM      9  C7A BZF d   1       0.676   1.621  -0.017  0.00  0.00     0.058 A 
ENDROOT
TORSDOF 0
ENDMDL
