MODEL 1
REMARK minimizedAffinity -2.35709667
REMARK minimizedRMSD -1
REMARK  0 active torsions:
REMARK  status: ('A' for Active; 'I' for Inactive)
ROOT
ATOM      1  O1  BZF d   1      -0.951  -0.807  -0.539  0.00  0.00    -0.204 OA
ATOM      2  C2  BZF d   1      -0.871  -1.294   0.752  0.00  0.00     0.174 A 
ATOM      3  C3  BZF d   1      -0.301  -0.387   1.571  0.00  0.00    -0.012 A 
ATOM      4  C3A BZF d   1      -0.090   0.772   0.761  0.00  0.00    -0.107 A 
ATOM      5  C4  BZF d   1       0.429   2.010   1.010  0.00  0.00     0.055 A 
ATOM      6  C5  BZF d   1       0.563   2.890  -0.017  0.00  0.00    -0.016 A 
ATOM      7  C6  BZF d   1       0.192   2.564  -1.305  0.00  0.00     0.022 A 
ATOM      8  C7  BZF d   1      -0.333   1.350  -1.600  0.00  0.00     0.029 A 
ATOM      9  C7A BZF d   1      -0.500   0.471  -0.559  0.00  0.00     0.058 A 
ENDROOT
TORSDOF 0
ENDMDL
