MODEL 1
REMARK minimizedAffinity -1.40667439
REMARK minimizedRMSD -1
REMARK  0 active torsions:
REMARK  status: ('A' for Active; 'I' for Inactive)
ROOT
ATOM      1  O1  BZF d   1       0.418  -1.433  -1.631  0.00  0.00    -0.204 OA
ATOM      2  C2  BZF d   1       0.838  -0.124  -1.497  0.00  0.00     0.174 A 
ATOM      3  C3  BZF d   1       0.362   0.418  -0.358  0.00  0.00    -0.012 A 
ATOM      4  C3A BZF d   1      -0.329  -0.646   0.305  0.00  0.00    -0.107 A 
ATOM      5  C4  BZF d   1      -1.002  -0.734   1.490  0.00  0.00     0.055 A 
ATOM      6  C5  BZF d   1      -1.625  -1.899   1.810  0.00  0.00    -0.016 A 
ATOM      7  C6  BZF d   1      -1.600  -2.991   0.969  0.00  0.00     0.022 A 
ATOM      8  C7  BZF d   1      -0.940  -2.953  -0.215  0.00  0.00     0.029 A 
ATOM      9  C7A BZF d   1      -0.282  -1.789  -0.527  0.00  0.00     0.058 A 
ENDROOT
TORSDOF 0
ENDMDL
