MODEL 1
REMARK minimizedAffinity -4.39479971
REMARK minimizedRMSD -1
REMARK  0 active torsions:
REMARK  status: ('A' for Active; 'I' for Inactive)
ROOT
ATOM      1  O1  BZF d   1      -0.408   0.617   0.754  0.00  0.00    -0.204 OA
ATOM      2  C2  BZF d   1       0.300   1.099  -0.330  0.00  0.00     0.174 A 
ATOM      3  C3  BZF d   1       0.839   0.086  -1.039  0.00  0.00    -0.012 A 
ATOM      4  C3A BZF d   1       0.366  -1.108  -0.407  0.00  0.00    -0.107 A 
ATOM      5  C4  BZF d   1       0.545  -2.438  -0.661  0.00  0.00     0.055 A 
ATOM      6  C5  BZF d   1       0.006  -3.350   0.190  0.00  0.00    -0.016 A 
ATOM      7  C6  BZF d   1      -0.712  -2.969   1.304  0.00  0.00     0.022 A 
ATOM      8  C7  BZF d   1      -0.920  -1.661   1.595  0.00  0.00     0.029 A 
ATOM      9  C7A BZF d   1      -0.404  -0.737   0.719  0.00  0.00     0.058 A 
ENDROOT
TORSDOF 0
ENDMDL
