MODEL 1
REMARK minimizedAffinity -3.80641294
REMARK minimizedRMSD -1
REMARK  0 active torsions:
REMARK  status: ('A' for Active; 'I' for Inactive)
ROOT
ATOM      1  O1  BZF d   1       0.593   0.368   1.825  0.00  0.00    -0.204 OA
ATOM      2  C2  BZF d   1       0.127   1.104   0.753  0.00  0.00     0.174 A 
ATOM      3  C3  BZF d   1      -0.592   0.328  -0.084  0.00  0.00    -0.012 A 
ATOM      4  C3A BZF d   1      -0.652  -0.953   0.550  0.00  0.00    -0.107 A 
ATOM      5  C4  BZF d   1      -1.240  -2.139   0.215  0.00  0.00     0.055 A 
ATOM      6  C5  BZF d   1      -1.048  -3.221   1.015  0.00  0.00    -0.016 A 
ATOM      7  C6  BZF d   1      -0.270  -3.153   2.153  0.00  0.00     0.022 A 
ATOM      8  C7  BZF d   1       0.330  -1.997   2.528  0.00  0.00     0.029 A 
ATOM      9  C7A BZF d   1       0.110  -0.895   1.739  0.00  0.00     0.058 A 
ENDROOT
TORSDOF 0
ENDMDL
