MODEL 1
REMARK minimizedAffinity -3.27731967
REMARK minimizedRMSD -1
REMARK  0 active torsions:
REMARK  status: ('A' for Active; 'I' for Inactive)
ROOT
ATOM      1  O1  BZF d   1       0.826  -0.703   0.928  0.00  0.00    -0.204 OA
ATOM      2  C2  BZF d   1       0.044  -1.450   0.067  0.00  0.00     0.174 A 
ATOM      3  C3  BZF d   1      -0.498  -0.667  -0.888  0.00  0.00    -0.012 A 
ATOM      4  C3A BZF d   1       0.048   0.636  -0.661  0.00  0.00    -0.107 A 
ATOM      5  C4  BZF d   1      -0.099   1.838  -1.292  0.00  0.00     0.055 A 
ATOM      6  C5  BZF d   1       0.515   2.934  -0.776  0.00  0.00    -0.016 A 
ATOM      7  C6  BZF d   1       1.279   2.866   0.371  0.00  0.00     0.022 A 
ATOM      8  C7  BZF d   1       1.458   1.695   1.029  0.00  0.00     0.029 A 
ATOM      9  C7A BZF d   1       0.865   0.579   0.491  0.00  0.00     0.058 A 
ENDROOT
TORSDOF 0
ENDMDL
