MODEL 1
REMARK minimizedAffinity -4.75732088
REMARK minimizedRMSD -1
REMARK  0 active torsions:
REMARK  status: ('A' for Active; 'I' for Inactive)
ROOT
ATOM      1  O1  BZF d   1      -0.650   0.550   0.380  0.00  0.00    -0.204 OA
ATOM      2  C2  BZF d   1       0.323   0.850  -0.554  0.00  0.00     0.174 A 
ATOM      3  C3  BZF d   1       0.998  -0.260  -0.916  0.00  0.00    -0.012 A 
ATOM      4  C3A BZF d   1       0.349  -1.335  -0.230  0.00  0.00    -0.107 A 
ATOM      5  C4  BZF d   1       0.550  -2.685  -0.197  0.00  0.00     0.055 A 
ATOM      6  C5  BZF d   1      -0.211  -3.446   0.632  0.00  0.00    -0.016 A 
ATOM      7  C6  BZF d   1      -1.179  -2.891   1.444  0.00  0.00     0.022 A 
ATOM      8  C7  BZF d   1      -1.419  -1.557   1.442  0.00  0.00     0.029 A 
ATOM      9  C7A BZF d   1      -0.673  -0.789   0.581  0.00  0.00     0.058 A 
ENDROOT
TORSDOF 0
ENDMDL
