MODEL 1
REMARK minimizedAffinity -3.99215245
REMARK minimizedRMSD -1
REMARK  0 active torsions:
REMARK  status: ('A' for Active; 'I' for Inactive)
ROOT
ATOM      1  O1  BZF d   1      -0.264  -1.753   1.800  0.00  0.00    -0.204 OA
ATOM      2  C2  BZF d   1       0.062  -3.034   1.398  0.00  0.00     0.174 A 
ATOM      3  C3  BZF d   1       0.315  -3.069   0.074  0.00  0.00    -0.012 A 
ATOM      4  C3A BZF d   1       0.227  -1.709  -0.363  0.00  0.00    -0.107 A 
ATOM      5  C4  BZF d   1       0.393  -1.099  -1.573  0.00  0.00     0.055 A 
ATOM      6  C5  BZF d   1       0.163   0.236  -1.677  0.00  0.00    -0.016 A 
ATOM      7  C6  BZF d   1      -0.238   0.990  -0.593  0.00  0.00     0.022 A 
ATOM      8  C7  BZF d   1      -0.411   0.430   0.629  0.00  0.00     0.029 A 
ATOM      9  C7A BZF d   1      -0.148  -0.913   0.744  0.00  0.00     0.058 A 
ENDROOT
TORSDOF 0
ENDMDL
