MODEL 1
REMARK minimizedAffinity -3.91849422
REMARK minimizedRMSD -1
REMARK  0 active torsions:
REMARK  status: ('A' for Active; 'I' for Inactive)
ROOT
ATOM      1  O1  BZF d   1       1.390  -0.160   0.512  0.00  0.00    -0.204 OA
ATOM      2  C2  BZF d   1       0.709   1.039   0.602  0.00  0.00     0.174 A 
ATOM      3  C3  BZF d   1      -0.620   0.829   0.688  0.00  0.00    -0.012 A 
ATOM      4  C3A BZF d   1      -0.774  -0.592   0.743  0.00  0.00    -0.107 A 
ATOM      5  C4  BZF d   1      -1.858  -1.416   0.850  0.00  0.00     0.055 A 
ATOM      6  C5  BZF d   1      -1.672  -2.761   0.802  0.00  0.00    -0.016 A 
ATOM      7  C6  BZF d   1      -0.419  -3.316   0.645  0.00  0.00     0.022 A 
ATOM      8  C7  BZF d   1       0.687  -2.540   0.540  0.00  0.00     0.029 A 
ATOM      9  C7A BZF d   1       0.506  -1.180   0.621  0.00  0.00     0.058 A 
ENDROOT
TORSDOF 0
ENDMDL
