MODEL 1
REMARK minimizedAffinity 0.509630024
REMARK minimizedRMSD -1
REMARK  0 active torsions:
REMARK  status: ('A' for Active; 'I' for Inactive)
ROOT
ATOM      1  O1  BZF d   1       0.262   1.175   0.904  0.00  0.00    -0.204 OA
ATOM      2  C2  BZF d   1      -0.433   0.767  -0.218  0.00  0.00     0.174 A 
ATOM      3  C3  BZF d   1      -0.002   1.425  -1.313  0.00  0.00    -0.012 A 
ATOM      4  C3A BZF d   1       1.090   2.231  -0.863  0.00  0.00    -0.107 A 
ATOM      5  C4  BZF d   1       1.939   3.098  -1.490  0.00  0.00     0.055 A 
ATOM      6  C5  BZF d   1       2.851   3.781  -0.750  0.00  0.00    -0.016 A 
ATOM      7  C6  BZF d   1       2.940   3.625   0.618  0.00  0.00     0.022 A 
ATOM      8  C7  BZF d   1       2.123   2.773   1.284  0.00  0.00     0.029 A 
ATOM      9  C7A BZF d   1       1.222   2.057   0.535  0.00  0.00     0.058 A 
ENDROOT
TORSDOF 0
ENDMDL
