MODEL 1
REMARK minimizedAffinity -3.62629771
REMARK minimizedRMSD -1
REMARK  0 active torsions:
REMARK  status: ('A' for Active; 'I' for Inactive)
ROOT
ATOM      1  O1  BZF d   1       0.160   0.355  -0.749  0.00  0.00    -0.204 OA
ATOM      2  C2  BZF d   1       0.631  -0.351  -1.839  0.00  0.00     0.174 A 
ATOM      3  C3  BZF d   1       0.411  -1.673  -1.685  0.00  0.00    -0.012 A 
ATOM      4  C3A BZF d   1      -0.320  -1.792  -0.461  0.00  0.00    -0.107 A 
ATOM      5  C4  BZF d   1      -0.841  -2.854   0.221  0.00  0.00     0.055 A 
ATOM      6  C5  BZF d   1      -1.435  -2.639   1.425  0.00  0.00    -0.016 A 
ATOM      7  C6  BZF d   1      -1.520  -1.378   1.977  0.00  0.00     0.022 A 
ATOM      8  C7  BZF d   1      -1.021  -0.293   1.336  0.00  0.00     0.029 A 
ATOM      9  C7A BZF d   1      -0.450  -0.503   0.104  0.00  0.00     0.058 A 
ENDROOT
TORSDOF 0
ENDMDL
