MODEL 1
REMARK minimizedAffinity 6.62198877
REMARK minimizedRMSD -1
REMARK  0 active torsions:
REMARK  status: ('A' for Active; 'I' for Inactive)
ROOT
ATOM      1  O1  BZF d   1       2.606   4.662   1.866  0.00  0.00    -0.204 OA
ATOM      2  C2  BZF d   1       1.319   4.239   2.138  0.00  0.00     0.174 A 
ATOM      3  C3  BZF d   1       0.816   3.541   1.100  0.00  0.00    -0.012 A 
ATOM      4  C3A BZF d   1       1.886   3.447   0.155  0.00  0.00    -0.107 A 
ATOM      5  C4  BZF d   1       2.008   2.858  -1.071  0.00  0.00     0.055 A 
ATOM      6  C5  BZF d   1       3.165   3.013  -1.767  0.00  0.00    -0.016 A 
ATOM      7  C6  BZF d   1       4.217   3.754  -1.270  0.00  0.00     0.022 A 
ATOM      8  C7  BZF d   1       4.145   4.352  -0.056  0.00  0.00     0.029 A 
ATOM      9  C7A BZF d   1       2.990   4.170   0.664  0.00  0.00     0.058 A 
ENDROOT
TORSDOF 0
ENDMDL
