MODEL 1
REMARK minimizedAffinity 11.9628325
REMARK minimizedRMSD -1
REMARK  0 active torsions:
REMARK  status: ('A' for Active; 'I' for Inactive)
ROOT
ATOM      1  O1  BZF d   1       1.445   5.844   2.759  0.00  0.00    -0.204 OA
ATOM      2  C2  BZF d   1       0.129   5.598   3.101  0.00  0.00     0.174 A 
ATOM      3  C3  BZF d   1      -0.387   4.612   2.339  0.00  0.00    -0.012 A 
ATOM      4  C3A BZF d   1       0.700   4.155   1.529  0.00  0.00    -0.107 A 
ATOM      5  C4  BZF d   1       0.818   3.179   0.580  0.00  0.00     0.055 A 
ATOM      6  C5  BZF d   1       1.999   3.036  -0.076  0.00  0.00    -0.016 A 
ATOM      7  C6  BZF d   1       3.080   3.852   0.187  0.00  0.00     0.022 A 
ATOM      8  C7  BZF d   1       3.012   4.830   1.123  0.00  0.00     0.029 A 
ATOM      9  C7A BZF d   1       1.830   4.956   1.812  0.00  0.00     0.058 A 
ENDROOT
TORSDOF 0
ENDMDL
