MODEL 1
REMARK minimizedAffinity 7.25971556
REMARK minimizedRMSD -1
REMARK  0 active torsions:
REMARK  status: ('A' for Active; 'I' for Inactive)
ROOT
ATOM      1  O1  BZF d   1       1.045   3.215   1.899  0.00  0.00    -0.204 OA
ATOM      2  C2  BZF d   1       1.785   4.086   1.123  0.00  0.00     0.174 A 
ATOM      3  C3  BZF d   1       1.827   3.668  -0.158  0.00  0.00    -0.012 A 
ATOM      4  C3A BZF d   1       0.990   2.509  -0.203  0.00  0.00    -0.107 A 
ATOM      5  C4  BZF d   1       0.619   1.656  -1.204  0.00  0.00     0.055 A 
ATOM      6  C5  BZF d   1      -0.152   0.579  -0.902  0.00  0.00    -0.016 A 
ATOM      7  C6  BZF d   1      -0.566   0.321   0.388  0.00  0.00     0.022 A 
ATOM      8  C7  BZF d   1      -0.228   1.140   1.413  0.00  0.00     0.029 A 
ATOM      9  C7A BZF d   1       0.524   2.248   1.106  0.00  0.00     0.058 A 
ENDROOT
TORSDOF 0
ENDMDL
