MODEL 1
REMARK minimizedAffinity 3.27037382
REMARK minimizedRMSD -1
REMARK  0 active torsions:
REMARK  status: ('A' for Active; 'I' for Inactive)
ROOT
ATOM      1  O1  BZF d   1      -4.980   0.318   0.922  0.00  0.00    -0.204 OA
ATOM      2  C2  BZF d   1      -5.384  -0.054  -0.346  0.00  0.00     0.174 A 
ATOM      3  C3  BZF d   1      -4.430  -0.787  -0.956  0.00  0.00    -0.012 A 
ATOM      4  C3A BZF d   1      -3.401  -0.956   0.023  0.00  0.00    -0.107 A 
ATOM      5  C4  BZF d   1      -2.200  -1.605   0.020  0.00  0.00     0.055 A 
ATOM      6  C5  BZF d   1      -1.399  -1.517   1.114  0.00  0.00    -0.016 A 
ATOM      7  C6  BZF d   1      -1.764  -0.784   2.225  0.00  0.00     0.022 A 
ATOM      8  C7  BZF d   1      -2.948  -0.127   2.276  0.00  0.00     0.029 A 
ATOM      9  C7A BZF d   1      -3.775  -0.241   1.185  0.00  0.00     0.058 A 
ENDROOT
TORSDOF 0
ENDMDL
