MODEL 1
REMARK minimizedAffinity 16.8431988
REMARK minimizedRMSD -1
REMARK  0 active torsions:
REMARK  status: ('A' for Active; 'I' for Inactive)
ROOT
ATOM      1  O1  BZF d   1      -1.333  -4.897   0.778  0.00  0.00    -0.204 OA
ATOM      2  C2  BZF d   1      -0.801  -5.999   0.139  0.00  0.00     0.174 A 
ATOM      3  C3  BZF d   1      -0.562  -5.730  -1.161  0.00  0.00    -0.012 A 
ATOM      4  C3A BZF d   1      -0.885  -4.345  -1.323  0.00  0.00    -0.107 A 
ATOM      5  C4  BZF d   1      -0.840  -3.489  -2.386  0.00  0.00     0.055 A 
ATOM      6  C5  BZF d   1      -1.294  -2.218  -2.230  0.00  0.00    -0.016 A 
ATOM      7  C6  BZF d   1      -1.803  -1.771  -1.028  0.00  0.00     0.022 A 
ATOM      8  C7  BZF d   1      -1.863  -2.582   0.056  0.00  0.00     0.029 A 
ATOM      9  C7A BZF d   1      -1.375  -3.858  -0.090  0.00  0.00     0.058 A 
ENDROOT
TORSDOF 0
ENDMDL
