MODEL 1
REMARK minimizedAffinity -0.331903934
REMARK minimizedRMSD -1
REMARK  0 active torsions:
REMARK  status: ('A' for Active; 'I' for Inactive)
ROOT
ATOM      1  O1  BZF d   1      -4.128  -0.755   3.243  0.00  0.00    -0.204 OA
ATOM      2  C2  BZF d   1      -2.868  -0.257   3.511  0.00  0.00     0.174 A 
ATOM      3  C3  BZF d   1      -2.153  -0.126   2.375  0.00  0.00    -0.012 A 
ATOM      4  C3A BZF d   1      -3.053  -0.483   1.321  0.00  0.00    -0.107 A 
ATOM      5  C4  BZF d   1      -2.933  -0.537  -0.038  0.00  0.00     0.055 A 
ATOM      6  C5  BZF d   1      -3.978  -0.997  -0.776  0.00  0.00    -0.016 A 
ATOM      7  C6  BZF d   1      -5.153  -1.416  -0.187  0.00  0.00     0.022 A 
ATOM      8  C7  BZF d   1      -5.321  -1.377   1.157  0.00  0.00     0.029 A 
ATOM      9  C7A BZF d   1      -4.279  -0.882   1.903  0.00  0.00     0.058 A 
ENDROOT
TORSDOF 0
ENDMDL
