MODEL 1
REMARK minimizedAffinity 8.70635033
REMARK minimizedRMSD -1
REMARK  0 active torsions:
REMARK  status: ('A' for Active; 'I' for Inactive)
ROOT
ATOM      1  O1  BZF d   1      -1.531  -2.378   5.974  0.00  0.00    -0.204 OA
ATOM      2  C2  BZF d   1      -0.421  -1.556   5.964  0.00  0.00     0.174 A 
ATOM      3  C3  BZF d   1       0.714  -2.284   5.996  0.00  0.00    -0.012 A 
ATOM      4  C3A BZF d   1       0.288  -3.648   5.934  0.00  0.00    -0.107 A 
ATOM      5  C4  BZF d   1       0.955  -4.840   5.915  0.00  0.00     0.055 A 
ATOM      6  C5  BZF d   1       0.241  -5.996   5.925  0.00  0.00    -0.016 A 
ATOM      7  C6  BZF d   1      -1.138  -5.998   5.960  0.00  0.00     0.022 A 
ATOM      8  C7  BZF d   1      -1.843  -4.841   5.975  0.00  0.00     0.029 A 
ATOM      9  C7A BZF d   1      -1.126  -3.670   5.931  0.00  0.00     0.058 A 
ENDROOT
TORSDOF 0
ENDMDL
