MODEL 1
REMARK minimizedAffinity 11.3828726
REMARK minimizedRMSD -1
REMARK  0 active torsions:
REMARK  status: ('A' for Active; 'I' for Inactive)
ROOT
ATOM      1  O1  BZF d   1       0.837   1.023   0.230  0.00  0.00    -0.204 OA
ATOM      2  C2  BZF d   1       2.181   1.329   0.320  0.00  0.00     0.174 A 
ATOM      3  C3  BZF d   1       2.937   0.272  -0.039  0.00  0.00    -0.012 A 
ATOM      4  C3A BZF d   1       2.007  -0.730  -0.463  0.00  0.00    -0.107 A 
ATOM      5  C4  BZF d   1       2.150  -1.998  -0.948  0.00  0.00     0.055 A 
ATOM      6  C5  BZF d   1       1.038  -2.739  -1.198  0.00  0.00    -0.016 A 
ATOM      7  C6  BZF d   1      -0.229  -2.245  -0.969  0.00  0.00     0.022 A 
ATOM      8  C7  BZF d   1      -0.421  -0.991  -0.493  0.00  0.00     0.029 A 
ATOM      9  C7A BZF d   1       0.699  -0.228  -0.271  0.00  0.00     0.058 A 
ENDROOT
TORSDOF 0
ENDMDL
