MODEL 1
REMARK minimizedAffinity -1.91135871
REMARK minimizedRMSD -1
REMARK  0 active torsions:
REMARK  status: ('A' for Active; 'I' for Inactive)
ROOT
ATOM      1  O1  BZF d   1       0.075  -0.569  -0.887  0.00  0.00    -0.204 OA
ATOM      2  C2  BZF d   1       0.939   0.082  -0.028  0.00  0.00     0.174 A 
ATOM      3  C3  BZF d   1       0.823   1.419  -0.155  0.00  0.00    -0.012 A 
ATOM      4  C3A BZF d   1      -0.242   1.617  -1.091  0.00  0.00    -0.107 A 
ATOM      5  C4  BZF d   1      -0.838   2.729  -1.614  0.00  0.00     0.055 A 
ATOM      6  C5  BZF d   1      -1.801   2.579  -2.560  0.00  0.00    -0.016 A 
ATOM      7  C6  BZF d   1      -2.190   1.334  -3.009  0.00  0.00     0.022 A 
ATOM      8  C7  BZF d   1      -1.631   0.201  -2.516  0.00  0.00     0.029 A 
ATOM      9  C7A BZF d   1      -0.680   0.349  -1.536  0.00  0.00     0.058 A 
ENDROOT
TORSDOF 0
ENDMDL
