MODEL 1
REMARK minimizedAffinity 0.740700006
REMARK minimizedRMSD -1
REMARK  0 active torsions:
REMARK  status: ('A' for Active; 'I' for Inactive)
ROOT
ATOM      1  O1  BZF d   1      -1.142  -0.179   1.109  0.00  0.00    -0.204 OA
ATOM      2  C2  BZF d   1      -0.960  -0.765   2.347  0.00  0.00     0.174 A 
ATOM      3  C3  BZF d   1       0.250  -1.357   2.423  0.00  0.00    -0.012 A 
ATOM      4  C3A BZF d   1       0.899  -1.046   1.186  0.00  0.00    -0.107 A 
ATOM      5  C4  BZF d   1       2.129  -1.339   0.672  0.00  0.00     0.055 A 
ATOM      6  C5  BZF d   1       2.426  -0.947  -0.595  0.00  0.00    -0.016 A 
ATOM      7  C6  BZF d   1       1.516  -0.267  -1.377  0.00  0.00     0.022 A 
ATOM      8  C7  BZF d   1       0.284   0.051  -0.909  0.00  0.00     0.029 A 
ATOM      9  C7A BZF d   1      -0.007  -0.315   0.383  0.00  0.00     0.058 A 
ENDROOT
TORSDOF 0
ENDMDL
