MODEL 1
REMARK minimizedAffinity -0.689795613
REMARK minimizedRMSD -1
REMARK  0 active torsions:
REMARK  status: ('A' for Active; 'I' for Inactive)
ROOT
ATOM      1  O1  BZF d   1       1.916  -2.104   1.565  0.00  0.00    -0.204 OA
ATOM      2  C2  BZF d   1       2.292  -1.506   0.377  0.00  0.00     0.174 A 
ATOM      3  C3  BZF d   1       1.304  -0.721  -0.097  0.00  0.00    -0.012 A 
ATOM      4  C3A BZF d   1       0.279  -0.762   0.900  0.00  0.00    -0.107 A 
ATOM      5  C4  BZF d   1      -0.948  -0.171   1.010  0.00  0.00     0.055 A 
ATOM      6  C5  BZF d   1      -1.734  -0.476   2.076  0.00  0.00    -0.016 A 
ATOM      7  C6  BZF d   1      -1.329  -1.371   3.045  0.00  0.00     0.022 A 
ATOM      8  C7  BZF d   1      -0.119  -1.978   2.981  0.00  0.00     0.029 A 
ATOM      9  C7A BZF d   1       0.692  -1.647   1.923  0.00  0.00     0.058 A 
ENDROOT
TORSDOF 0
ENDMDL
