MODEL 1
REMARK minimizedAffinity 1.3295629
REMARK minimizedRMSD -1
REMARK  0 active torsions:
REMARK  status: ('A' for Active; 'I' for Inactive)
ROOT
ATOM      1  O1  BZF d   1      -1.518  -0.069   0.290  0.00  0.00    -0.204 OA
ATOM      2  C2  BZF d   1      -0.343   0.505   0.732  0.00  0.00     0.174 A 
ATOM      3  C3  BZF d   1       0.132   1.383  -0.174  0.00  0.00    -0.012 A 
ATOM      4  C3A BZF d   1      -0.855   1.425  -1.210  0.00  0.00    -0.107 A 
ATOM      5  C4  BZF d   1      -0.961   2.124  -2.378  0.00  0.00     0.055 A 
ATOM      6  C5  BZF d   1      -2.015   1.880  -3.201  0.00  0.00    -0.016 A 
ATOM      7  C6  BZF d   1      -2.976   0.941  -2.890  0.00  0.00     0.022 A 
ATOM      8  C7  BZF d   1      -2.916   0.226  -1.740  0.00  0.00     0.029 A 
ATOM      9  C7A BZF d   1      -1.870   0.494  -0.891  0.00  0.00     0.058 A 
ENDROOT
TORSDOF 0
ENDMDL
