MODEL 1
REMARK minimizedAffinity -1.8738693
REMARK minimizedRMSD -1
REMARK  0 active torsions:
REMARK  status: ('A' for Active; 'I' for Inactive)
ROOT
ATOM      1  O1  BZF d   1      -0.814   2.511   0.844  0.00  0.00    -0.204 OA
ATOM      2  C2  BZF d   1      -1.253   1.309   1.367  0.00  0.00     0.174 A 
ATOM      3  C3  BZF d   1      -1.940   0.608   0.443  0.00  0.00    -0.012 A 
ATOM      4  C3A BZF d   1      -1.851   1.380  -0.759  0.00  0.00    -0.107 A 
ATOM      5  C4  BZF d   1      -2.321   1.199  -2.028  0.00  0.00     0.055 A 
ATOM      6  C5  BZF d   1      -2.124   2.177  -2.951  0.00  0.00    -0.016 A 
ATOM      7  C6  BZF d   1      -1.467   3.349  -2.638  0.00  0.00     0.022 A 
ATOM      8  C7  BZF d   1      -0.979   3.572  -1.394  0.00  0.00     0.029 A 
ATOM      9  C7A BZF d   1      -1.147   2.571  -0.468  0.00  0.00     0.058 A 
ENDROOT
TORSDOF 0
ENDMDL
