MODEL 1
REMARK minimizedAffinity -5.20837545
REMARK minimizedRMSD -1
REMARK  0 active torsions:
REMARK  status: ('A' for Active; 'I' for Inactive)
ROOT
ATOM      1  O1  BZF d   1       1.847  -1.653   0.687  0.00  0.00    -0.204 OA
ATOM      2  C2  BZF d   1       1.196  -2.613   1.436  0.00  0.00     0.174 A 
ATOM      3  C3  BZF d   1      -0.029  -2.185   1.803  0.00  0.00    -0.012 A 
ATOM      4  C3A BZF d   1      -0.187  -0.911   1.170  0.00  0.00    -0.107 A 
ATOM      5  C4  BZF d   1      -1.201   0.004   1.142  0.00  0.00     0.055 A 
ATOM      6  C5  BZF d   1      -1.010   1.181   0.491  0.00  0.00    -0.016 A 
ATOM      7  C6  BZF d   1       0.181   1.478  -0.139  0.00  0.00     0.022 A 
ATOM      8  C7  BZF d   1       1.214   0.599  -0.142  0.00  0.00     0.029 A 
ATOM      9  C7A BZF d   1       1.012  -0.605   0.487  0.00  0.00     0.058 A 
ENDROOT
TORSDOF 0
ENDMDL
