MODEL 1
REMARK minimizedAffinity 5.63856649
REMARK minimizedRMSD -1
REMARK  0 active torsions:
REMARK  status: ('A' for Active; 'I' for Inactive)
ROOT
ATOM      1  O1  BZF d   1       3.745  -0.932  -2.065  0.00  0.00    -0.204 OA
ATOM      2  C2  BZF d   1       3.702   0.441  -2.216  0.00  0.00     0.174 A 
ATOM      3  C3  BZF d   1       2.930   1.003  -1.265  0.00  0.00    -0.012 A 
ATOM      4  C3A BZF d   1       2.535  -0.077  -0.413  0.00  0.00    -0.107 A 
ATOM      5  C4  BZF d   1       1.774  -0.151   0.718  0.00  0.00     0.055 A 
ATOM      6  C5  BZF d   1       1.520  -1.368   1.265  0.00  0.00    -0.016 A 
ATOM      7  C6  BZF d   1       2.006  -2.532   0.705  0.00  0.00     0.022 A 
ATOM      8  C7  BZF d   1       2.770  -2.508  -0.414  0.00  0.00     0.029 A 
ATOM      9  C7A BZF d   1       3.056  -1.277  -0.951  0.00  0.00     0.058 A 
ENDROOT
TORSDOF 0
ENDMDL
