MODEL 1
REMARK minimizedAffinity -0.108620711
REMARK minimizedRMSD -1
REMARK  0 active torsions:
REMARK  status: ('A' for Active; 'I' for Inactive)
ROOT
ATOM      1  O1  BZF d   1       2.021  -3.698  -0.422  0.00  0.00    -0.204 OA
ATOM      2  C2  BZF d   1       1.361  -4.079   0.730  0.00  0.00     0.174 A 
ATOM      3  C3  BZF d   1       1.024  -3.000   1.467  0.00  0.00    -0.012 A 
ATOM      4  C3A BZF d   1       1.423  -1.871   0.684  0.00  0.00    -0.107 A 
ATOM      5  C4  BZF d   1       1.339  -0.521   0.874  0.00  0.00     0.055 A 
ATOM      6  C5  BZF d   1       1.889   0.311  -0.050  0.00  0.00    -0.016 A 
ATOM      7  C6  BZF d   1       2.534  -0.172  -1.170  0.00  0.00     0.022 A 
ATOM      8  C7  BZF d   1       2.637  -1.503  -1.403  0.00  0.00     0.029 A 
ATOM      9  C7A BZF d   1       2.054  -2.346  -0.489  0.00  0.00     0.058 A 
ENDROOT
TORSDOF 0
ENDMDL
