MODEL 1
REMARK minimizedAffinity 4.96944952
REMARK minimizedRMSD -1
REMARK  0 active torsions:
REMARK  status: ('A' for Active; 'I' for Inactive)
ROOT
ATOM      1  O1  BZF d   1      -2.782   1.162   0.906  0.00  0.00    -0.204 OA
ATOM      2  C2  BZF d   1      -2.402   0.790   2.181  0.00  0.00     0.174 A 
ATOM      3  C3  BZF d   1      -2.138  -0.531   2.236  0.00  0.00    -0.012 A 
ATOM      4  C3A BZF d   1      -2.278  -0.999   0.891  0.00  0.00    -0.107 A 
ATOM      5  C4  BZF d   1      -2.128  -2.221   0.301  0.00  0.00     0.055 A 
ATOM      6  C5  BZF d   1      -2.410  -2.356  -1.021  0.00  0.00    -0.016 A 
ATOM      7  C6  BZF d   1      -2.850  -1.293  -1.782  0.00  0.00     0.022 A 
ATOM      8  C7  BZF d   1      -3.009  -0.060  -1.243  0.00  0.00     0.029 A 
ATOM      9  C7A BZF d   1      -2.693   0.087   0.086  0.00  0.00     0.058 A 
ENDROOT
TORSDOF 0
ENDMDL
