MODEL 1
REMARK minimizedAffinity 2.95695925
REMARK minimizedRMSD -1
REMARK  0 active torsions:
REMARK  status: ('A' for Active; 'I' for Inactive)
ROOT
ATOM      1  O1  BZF d   1      -0.904   0.885   1.334  0.00  0.00    -0.204 OA
ATOM      2  C2  BZF d   1      -1.741  -0.002   1.984  0.00  0.00     0.174 A 
ATOM      3  C3  BZF d   1      -1.227  -1.249   1.960  0.00  0.00    -0.012 A 
ATOM      4  C3A BZF d   1       0.051  -1.117   1.331  0.00  0.00    -0.107 A 
ATOM      5  C4  BZF d   1       1.046  -2.003   1.032  0.00  0.00     0.055 A 
ATOM      6  C5  BZF d   1       2.137  -1.566   0.349  0.00  0.00    -0.016 A 
ATOM      7  C6  BZF d   1       2.263  -0.253  -0.054  0.00  0.00     0.022 A 
ATOM      8  C7  BZF d   1       1.305   0.664   0.224  0.00  0.00     0.029 A 
ATOM      9  C7A BZF d   1       0.216   0.232   0.943  0.00  0.00     0.058 A 
ENDROOT
TORSDOF 0
ENDMDL
