MODEL 1
REMARK minimizedAffinity 2.11808848
REMARK minimizedRMSD -1
REMARK  0 active torsions:
REMARK  status: ('A' for Active; 'I' for Inactive)
ROOT
ATOM      1  O1  BZF d   1      -0.238   1.511   0.486  0.00  0.00    -0.204 OA
ATOM      2  C2  BZF d   1      -1.279   1.082   1.286  0.00  0.00     0.174 A 
ATOM      3  C3  BZF d   1      -1.111  -0.209   1.638  0.00  0.00    -0.012 A 
ATOM      4  C3A BZF d   1       0.158  -0.585   1.094  0.00  0.00    -0.107 A 
ATOM      5  C4  BZF d   1       0.885  -1.741   1.121  0.00  0.00     0.055 A 
ATOM      6  C5  BZF d   1       2.053  -1.802   0.429  0.00  0.00    -0.016 A 
ATOM      7  C6  BZF d   1       2.520  -0.730  -0.303  0.00  0.00     0.022 A 
ATOM      8  C7  BZF d   1       1.836   0.439  -0.356  0.00  0.00     0.029 A 
ATOM      9  C7A BZF d   1       0.672   0.515   0.369  0.00  0.00     0.058 A 
ENDROOT
TORSDOF 0
ENDMDL
