MODEL 1
REMARK minimizedAffinity 6.43176651
REMARK minimizedRMSD -1
REMARK  0 active torsions:
REMARK  status: ('A' for Active; 'I' for Inactive)
ROOT
ATOM      1  O1  BZF d   1      -1.846   1.708   0.538  0.00  0.00    -0.204 OA
ATOM      2  C2  BZF d   1      -2.911   1.050   1.122  0.00  0.00     0.174 A 
ATOM      3  C3  BZF d   1      -3.881   0.811   0.217  0.00  0.00    -0.012 A 
ATOM      4  C3A BZF d   1      -3.354   1.271  -1.031  0.00  0.00    -0.107 A 
ATOM      5  C4  BZF d   1      -3.841   1.291  -2.306  0.00  0.00     0.055 A 
ATOM      6  C5  BZF d   1      -3.104   1.877  -3.286  0.00  0.00    -0.016 A 
ATOM      7  C6  BZF d   1      -1.879   2.456  -3.025  0.00  0.00     0.022 A 
ATOM      8  C7  BZF d   1      -1.352   2.457  -1.776  0.00  0.00     0.029 A 
ATOM      9  C7A BZF d   1      -2.080   1.837  -0.790  0.00  0.00     0.058 A 
ENDROOT
TORSDOF 0
ENDMDL
