MODEL 1
REMARK minimizedAffinity 9.31457329
REMARK minimizedRMSD -1
REMARK  0 active torsions:
REMARK  status: ('A' for Active; 'I' for Inactive)
ROOT
ATOM      1  O1  BZF d   1      -1.705  -0.145   2.637  0.00  0.00    -0.204 OA
ATOM      2  C2  BZF d   1      -1.072  -1.321   2.990  0.00  0.00     0.174 A 
ATOM      3  C3  BZF d   1      -1.249  -2.264   2.042  0.00  0.00    -0.012 A 
ATOM      4  C3A BZF d   1      -1.965  -1.609   0.990  0.00  0.00    -0.107 A 
ATOM      5  C4  BZF d   1      -2.422  -2.018  -0.230  0.00  0.00     0.055 A 
ATOM      6  C5  BZF d   1      -3.148  -1.154  -0.987  0.00  0.00    -0.016 A 
ATOM      7  C6  BZF d   1      -3.441   0.122  -0.552  0.00  0.00     0.022 A 
ATOM      8  C7  BZF d   1      -3.005   0.575   0.649  0.00  0.00     0.029 A 
ATOM      9  C7A BZF d   1      -2.243  -0.285   1.401  0.00  0.00     0.058 A 
ENDROOT
TORSDOF 0
ENDMDL
