MODEL 1
REMARK minimizedAffinity 2.70641732
REMARK minimizedRMSD -1
REMARK  0 active torsions:
REMARK  status: ('A' for Active; 'I' for Inactive)
ROOT
ATOM      1  O1  BZF d   1      -4.604   1.368  -1.248  0.00  0.00    -0.204 OA
ATOM      2  C2  BZF d   1      -3.833   1.386  -2.394  0.00  0.00     0.174 A 
ATOM      3  C3  BZF d   1      -2.532   1.184  -2.098  0.00  0.00    -0.012 A 
ATOM      4  C3A BZF d   1      -2.501   0.938  -0.689  0.00  0.00    -0.107 A 
ATOM      5  C4  BZF d   1      -1.497   0.654   0.192  0.00  0.00     0.055 A 
ATOM      6  C5  BZF d   1      -1.791   0.542   1.515  0.00  0.00    -0.016 A 
ATOM      7  C6  BZF d   1      -3.074   0.713   1.990  0.00  0.00     0.022 A 
ATOM      8  C7  BZF d   1      -4.104   0.990   1.154  0.00  0.00     0.029 A 
ATOM      9  C7A BZF d   1      -3.816   1.071  -0.187  0.00  0.00     0.058 A 
ENDROOT
TORSDOF 0
ENDMDL
