MODEL 1
REMARK minimizedAffinity 0.303805083
REMARK minimizedRMSD -1
REMARK  0 active torsions:
REMARK  status: ('A' for Active; 'I' for Inactive)
ROOT
ATOM      1  O1  BZF d   1      -4.027  -0.255  -0.606  0.00  0.00    -0.204 OA
ATOM      2  C2  BZF d   1      -3.660  -1.254  -1.486  0.00  0.00     0.174 A 
ATOM      3  C3  BZF d   1      -2.405  -1.677  -1.234  0.00  0.00    -0.012 A 
ATOM      4  C3A BZF d   1      -1.993  -0.957  -0.068  0.00  0.00    -0.107 A 
ATOM      5  C4  BZF d   1      -0.849  -0.954   0.678  0.00  0.00     0.055 A 
ATOM      6  C5  BZF d   1      -0.738  -0.080   1.713  0.00  0.00    -0.016 A 
ATOM      7  C6  BZF d   1      -1.747   0.806   2.027  0.00  0.00     0.022 A 
ATOM      8  C7  BZF d   1      -2.903   0.836   1.319  0.00  0.00     0.029 A 
ATOM      9  C7A BZF d   1      -3.031  -0.068   0.293  0.00  0.00     0.058 A 
ENDROOT
TORSDOF 0
ENDMDL
