MODEL 1
REMARK minimizedAffinity 0.941696942
REMARK minimizedRMSD -1
REMARK  0 active torsions:
REMARK  status: ('A' for Active; 'I' for Inactive)
ROOT
ATOM      1  O1  BZF d   1       2.617  -2.566  -0.102  0.00  0.00    -0.204 OA
ATOM      2  C2  BZF d   1       1.844  -2.321   1.017  0.00  0.00     0.174 A 
ATOM      3  C3  BZF d   1       1.612  -1.000   1.158  0.00  0.00    -0.012 A 
ATOM      4  C3A BZF d   1       2.204  -0.389   0.008  0.00  0.00    -0.107 A 
ATOM      5  C4  BZF d   1       2.292   0.902  -0.429  0.00  0.00     0.055 A 
ATOM      6  C5  BZF d   1       3.001   1.171  -1.556  0.00  0.00    -0.016 A 
ATOM      7  C6  BZF d   1       3.640   0.176  -2.267  0.00  0.00     0.022 A 
ATOM      8  C7  BZF d   1       3.578  -1.120  -1.875  0.00  0.00     0.029 A 
ATOM      9  C7A BZF d   1       2.834  -1.399  -0.755  0.00  0.00     0.058 A 
ENDROOT
TORSDOF 0
ENDMDL
