MODEL 1
REMARK minimizedAffinity 7.17256021
REMARK minimizedRMSD -1
REMARK  0 active torsions:
REMARK  status: ('A' for Active; 'I' for Inactive)
ROOT
ATOM      1  O1  BZF d   1      -2.726   1.625  -2.704  0.00  0.00    -0.204 OA
ATOM      2  C2  BZF d   1      -1.874   2.668  -3.014  0.00  0.00     0.174 A 
ATOM      3  C3  BZF d   1      -1.313   3.175  -1.897  0.00  0.00    -0.012 A 
ATOM      4  C3A BZF d   1      -1.776   2.341  -0.831  0.00  0.00    -0.107 A 
ATOM      5  C4  BZF d   1      -1.554   2.329   0.516  0.00  0.00     0.055 A 
ATOM      6  C5  BZF d   1      -2.217   1.427   1.287  0.00  0.00    -0.016 A 
ATOM      7  C6  BZF d   1      -3.111   0.527   0.745  0.00  0.00     0.022 A 
ATOM      8  C7  BZF d   1      -3.361   0.498  -0.586  0.00  0.00     0.029 A 
ATOM      9  C7A BZF d   1      -2.668   1.386  -1.372  0.00  0.00     0.058 A 
ENDROOT
TORSDOF 0
ENDMDL
