MODEL 1
REMARK minimizedAffinity 4.00719643
REMARK minimizedRMSD -1
REMARK  0 active torsions:
REMARK  status: ('A' for Active; 'I' for Inactive)
ROOT
ATOM      1  O1  BZF d   1       2.972  -1.388  -2.066  0.00  0.00    -0.204 OA
ATOM      2  C2  BZF d   1       3.486  -0.140  -1.772  0.00  0.00     0.174 A 
ATOM      3  C3  BZF d   1       3.300   0.160  -0.470  0.00  0.00    -0.012 A 
ATOM      4  C3A BZF d   1       2.710  -1.010   0.105  0.00  0.00    -0.107 A 
ATOM      5  C4  BZF d   1       2.306  -1.334   1.369  0.00  0.00     0.055 A 
ATOM      6  C5  BZF d   1       1.703  -2.532   1.582  0.00  0.00    -0.016 A 
ATOM      7  C6  BZF d   1       1.482  -3.428   0.556  0.00  0.00     0.022 A 
ATOM      8  C7  BZF d   1       1.870  -3.153  -0.713  0.00  0.00     0.029 A 
ATOM      9  C7A BZF d   1       2.510  -1.957  -0.926  0.00  0.00     0.058 A 
ENDROOT
TORSDOF 0
ENDMDL
