MODEL 1
REMARK minimizedAffinity 5.05860853
REMARK minimizedRMSD -1
REMARK  0 active torsions:
REMARK  status: ('A' for Active; 'I' for Inactive)
ROOT
ATOM      1  O1  BZF d   1      -0.956  -0.336   2.103  0.00  0.00    -0.204 OA
ATOM      2  C2  BZF d   1      -0.537  -1.490   2.735  0.00  0.00     0.174 A 
ATOM      3  C3  BZF d   1      -0.838  -2.577   1.996  0.00  0.00    -0.012 A 
ATOM      4  C3A BZF d   1      -1.404  -2.064   0.786  0.00  0.00    -0.107 A 
ATOM      5  C4  BZF d   1      -1.885  -2.653  -0.349  0.00  0.00     0.055 A 
ATOM      6  C5  BZF d   1      -2.436  -1.872  -1.315  0.00  0.00    -0.016 A 
ATOM      7  C6  BZF d   1      -2.528  -0.502  -1.177  0.00  0.00     0.022 A 
ATOM      8  C7  BZF d   1      -2.060   0.127  -0.072  0.00  0.00     0.029 A 
ATOM      9  C7A BZF d   1      -1.472  -0.656   0.892  0.00  0.00     0.058 A 
ENDROOT
TORSDOF 0
ENDMDL
