MODEL 1
REMARK minimizedAffinity 15.5885582
REMARK minimizedRMSD -1
REMARK  0 active torsions:
REMARK  status: ('A' for Active; 'I' for Inactive)
ROOT
ATOM      1  C   UNL d   1       3.294   3.068  -0.993  0.00  0.00    -0.002 A 
ATOM      2  C1  UNL d   1       2.429   2.707   0.030  0.00  0.00     0.010 A 
ATOM      3  C2  UNL d   1       2.360   1.383   0.468  0.00  0.00     0.041 A 
ATOM      4  C3  UNL d   1       3.185   0.419  -0.144  0.00  0.00    -0.075 A 
ATOM      5  S   UNL d   1       3.271  -1.262   0.229  0.00  0.00     0.015 SA
ATOM      6  C4  UNL d   1       4.460  -1.541  -0.961  0.00  0.00     0.022 A 
ATOM      7  C5  UNL d   1       4.794  -0.390  -1.635  0.00  0.00     0.026 A 
ATOM      8  C6  UNL d   1       4.065   0.758  -1.175  0.00  0.00    -0.082 A 
ATOM      9  C7  UNL d   1       4.111   2.109  -1.598  0.00  0.00     0.045 A 
ENDROOT
TORSDOF 0
ENDMDL
