MODEL 1
REMARK minimizedAffinity 7.64562273
REMARK minimizedRMSD -1
REMARK  0 active torsions:
REMARK  status: ('A' for Active; 'I' for Inactive)
ROOT
ATOM      1  C   UNL d   1      -5.861   4.131  -5.968  0.00  0.00    -0.002 A 
ATOM      2  C1  UNL d   1      -5.998   2.811  -5.561  0.00  0.00     0.010 A 
ATOM      3  C2  UNL d   1      -4.917   2.122  -5.009  0.00  0.00     0.041 A 
ATOM      4  C3  UNL d   1      -3.683   2.789  -4.869  0.00  0.00    -0.075 A 
ATOM      5  S   UNL d   1      -2.222   2.145  -4.218  0.00  0.00     0.015 SA
ATOM      6  C4  UNL d   1      -1.381   3.607  -4.464  0.00  0.00     0.022 A 
ATOM      7  C5  UNL d   1      -2.181   4.573  -5.028  0.00  0.00     0.026 A 
ATOM      8  C6  UNL d   1      -3.521   4.118  -5.270  0.00  0.00    -0.082 A 
ATOM      9  C7  UNL d   1      -4.636   4.789  -5.827  0.00  0.00     0.045 A 
ENDROOT
TORSDOF 0
ENDMDL
