MODEL 1
REMARK minimizedAffinity 1.6353581
REMARK minimizedRMSD -1
REMARK  0 active torsions:
REMARK  status: ('A' for Active; 'I' for Inactive)
ROOT
ATOM      1  C   UNL d   1       1.343  -5.428  -4.043  0.00  0.00    -0.002 A 
ATOM      2  C1  UNL d   1       1.436  -5.958  -5.322  0.00  0.00     0.010 A 
ATOM      3  C2  UNL d   1       2.659  -5.978  -5.996  0.00  0.00     0.041 A 
ATOM      4  C3  UNL d   1       3.798  -5.453  -5.355  0.00  0.00    -0.075 A 
ATOM      5  S   UNL d   1       5.400  -5.372  -5.986  0.00  0.00     0.015 SA
ATOM      6  C4  UNL d   1       6.000  -4.632  -4.572  0.00  0.00     0.022 A 
ATOM      7  C5  UNL d   1       5.015  -4.444  -3.632  0.00  0.00     0.026 A 
ATOM      8  C6  UNL d   1       3.730  -4.914  -4.067  0.00  0.00    -0.082 A 
ATOM      9  C7  UNL d   1       2.475  -4.908  -3.411  0.00  0.00     0.045 A 
ENDROOT
TORSDOF 0
ENDMDL
