MODEL 1
REMARK minimizedAffinity 27.2927265
REMARK minimizedRMSD -1
REMARK  0 active torsions:
REMARK  status: ('A' for Active; 'I' for Inactive)
ROOT
ATOM      1  C   UNL d   1       4.759  -2.319  -3.139  0.00  0.00    -0.002 A 
ATOM      2  C1  UNL d   1       5.941  -2.619  -3.801  0.00  0.00     0.010 A 
ATOM      3  C2  UNL d   1       5.999  -3.682  -4.705  0.00  0.00     0.041 A 
ATOM      4  C3  UNL d   1       4.837  -4.444  -4.936  0.00  0.00    -0.075 A 
ATOM      5  S   UNL d   1       4.672  -5.791  -6.000  0.00  0.00     0.015 SA
ATOM      6  C4  UNL d   1       3.028  -5.999  -5.602  0.00  0.00     0.022 A 
ATOM      7  C5  UNL d   1       2.599  -5.072  -4.681  0.00  0.00     0.026 A 
ATOM      8  C6  UNL d   1       3.635  -4.160  -4.282  0.00  0.00    -0.082 A 
ATOM      9  C7  UNL d   1       3.608  -3.077  -3.371  0.00  0.00     0.045 A 
ENDROOT
TORSDOF 0
ENDMDL
