MODEL 1
REMARK minimizedAffinity 10.1515808
REMARK minimizedRMSD -1
REMARK  0 active torsions:
REMARK  status: ('A' for Active; 'I' for Inactive)
ROOT
ATOM      1  C   UNL d   1       1.525  -5.134  -4.343  0.00  0.00    -0.002 A 
ATOM      2  C1  UNL d   1       1.849  -5.940  -5.425  0.00  0.00     0.010 A 
ATOM      3  C2  UNL d   1       3.122  -5.885  -5.996  0.00  0.00     0.041 A 
ATOM      4  C3  UNL d   1       4.074  -4.997  -5.455  0.00  0.00    -0.075 A 
ATOM      5  S   UNL d   1       5.695  -4.759  -5.990  0.00  0.00     0.015 SA
ATOM      6  C4  UNL d   1       5.996  -3.582  -4.795  0.00  0.00     0.022 A 
ATOM      7  C5  UNL d   1       4.897  -3.363  -3.999  0.00  0.00     0.026 A 
ATOM      8  C6  UNL d   1       3.771  -4.175  -4.366  0.00  0.00    -0.082 A 
ATOM      9  C7  UNL d   1       2.471  -4.255  -3.810  0.00  0.00     0.045 A 
ENDROOT
TORSDOF 0
ENDMDL
