MODEL 1
REMARK minimizedAffinity 7.48602104
REMARK minimizedRMSD -1
REMARK  0 active torsions:
REMARK  status: ('A' for Active; 'I' for Inactive)
ROOT
ATOM      1  C   UNL d   1       1.399  -5.973  -5.227  0.00  0.00    -0.002 A 
ATOM      2  C1  UNL d   1       1.381  -5.413  -3.957  0.00  0.00     0.010 A 
ATOM      3  C2  UNL d   1       2.543  -4.870  -3.404  0.00  0.00     0.041 A 
ATOM      4  C3  UNL d   1       3.734  -4.899  -4.157  0.00  0.00    -0.075 A 
ATOM      5  S   UNL d   1       5.277  -4.294  -3.684  0.00  0.00     0.015 SA
ATOM      6  C4  UNL d   1       5.996  -4.764  -5.156  0.00  0.00     0.022 A 
ATOM      7  C5  UNL d   1       5.095  -5.370  -5.999  0.00  0.00     0.026 A 
ATOM      8  C6  UNL d   1       3.776  -5.457  -5.438  0.00  0.00    -0.082 A 
ATOM      9  C7  UNL d   1       2.582  -6.000  -5.970  0.00  0.00     0.045 A 
ENDROOT
TORSDOF 0
ENDMDL
