MODEL 1
REMARK minimizedAffinity 13.4537754
REMARK minimizedRMSD -1
REMARK  0 active torsions:
REMARK  status: ('A' for Active; 'I' for Inactive)
ROOT
ATOM      1  C   UNL d   1      -1.799  -4.833  -1.893  0.00  0.00    -0.002 A 
ATOM      2  C1  UNL d   1      -2.119  -6.000  -1.214  0.00  0.00     0.010 A 
ATOM      3  C2  UNL d   1      -2.414  -5.970   0.150  0.00  0.00     0.041 A 
ATOM      4  C3  UNL d   1      -2.384  -4.734   0.827  0.00  0.00    -0.075 A 
ATOM      5  S   UNL d   1      -2.711  -4.455   2.497  0.00  0.00     0.015 SA
ATOM      6  C4  UNL d   1      -2.436  -2.780   2.348  0.00  0.00     0.022 A 
ATOM      7  C5  UNL d   1      -2.101  -2.425   1.062  0.00  0.00     0.026 A 
ATOM      8  C6  UNL d   1      -2.066  -3.545   0.165  0.00  0.00    -0.082 A 
ATOM      9  C7  UNL d   1      -1.770  -3.609  -1.218  0.00  0.00     0.045 A 
ENDROOT
TORSDOF 0
ENDMDL
