MODEL 1
REMARK minimizedAffinity 18.452816
REMARK minimizedRMSD -1
REMARK  0 active torsions:
REMARK  status: ('A' for Active; 'I' for Inactive)
ROOT
ATOM      1  C   UNL d   1       1.973   1.692  -0.839  0.00  0.00    -0.002 A 
ATOM      2  C1  UNL d   1       0.864   2.148  -0.140  0.00  0.00     0.010 A 
ATOM      3  C2  UNL d   1       0.896   2.256   1.251  0.00  0.00     0.041 A 
ATOM      4  C3  UNL d   1       2.074   1.897   1.936  0.00  0.00    -0.075 A 
ATOM      5  S   UNL d   1       2.343   1.948   3.638  0.00  0.00     0.015 SA
ATOM      6  C4  UNL d   1       3.938   1.368   3.478  0.00  0.00     0.022 A 
ATOM      7  C5  UNL d   1       4.272   1.135   2.165  0.00  0.00     0.026 A 
ATOM      8  C6  UNL d   1       3.204   1.436   1.255  0.00  0.00    -0.082 A 
ATOM      9  C7  UNL d   1       3.139   1.337  -0.156  0.00  0.00     0.045 A 
ENDROOT
TORSDOF 0
ENDMDL
