MODEL 1
REMARK minimizedAffinity -3.99618459
REMARK minimizedRMSD -1
REMARK  0 active torsions:
REMARK  status: ('A' for Active; 'I' for Inactive)
ROOT
ATOM      1  C   UNL d   1      -1.626   2.854   1.999  0.00  0.00     0.078 C 
ATOM      2  C1  UNL d   1      -0.888   1.717   1.358  0.00  0.00    -0.077 A 
ATOM      3  C2  UNL d   1      -1.008   1.461  -0.013  0.00  0.00    -0.001 A 
ATOM      4  C3  UNL d   1      -0.322   0.394  -0.595  0.00  0.00     0.003 A 
ATOM      5  C4  UNL d   1       0.488  -0.427   0.187  0.00  0.00    -0.005 A 
ATOM      6  C5  UNL d   1       0.612  -0.182   1.553  0.00  0.00     0.003 A 
ATOM      7  C6  UNL d   1      -0.073   0.885   2.137  0.00  0.00    -0.001 A 
ENDROOT
TORSDOF 0
ENDMDL
