MODEL 1
REMARK minimizedAffinity -4.21382475
REMARK minimizedRMSD -1
REMARK  0 active torsions:
REMARK  status: ('A' for Active; 'I' for Inactive)
ROOT
ATOM      1  C   UNL d   1      -1.409   2.388   1.774  0.00  0.00     0.078 C 
ATOM      2  C1  UNL d   1      -0.672   1.467   0.847  0.00  0.00    -0.077 A 
ATOM      3  C2  UNL d   1      -0.763   1.618  -0.542  0.00  0.00    -0.001 A 
ATOM      4  C3  UNL d   1      -0.079   0.747  -1.392  0.00  0.00     0.003 A 
ATOM      5  C4  UNL d   1       0.699  -0.280  -0.863  0.00  0.00    -0.005 A 
ATOM      6  C5  UNL d   1       0.793  -0.440   0.518  0.00  0.00     0.003 A 
ATOM      7  C6  UNL d   1       0.111   0.430   1.370  0.00  0.00    -0.001 A 
ENDROOT
TORSDOF 0
ENDMDL
