MODEL 1
REMARK minimizedAffinity -3.70591784
REMARK minimizedRMSD -1
REMARK  0 active torsions:
REMARK  status: ('A' for Active; 'I' for Inactive)
ROOT
ATOM      1  C   UNL d   1      -0.100  -1.688  -0.919  0.00  0.00     0.078 C 
ATOM      2  C1  UNL d   1      -0.191  -0.640   0.149  0.00  0.00    -0.077 A 
ATOM      3  C2  UNL d   1      -0.020   0.716  -0.155  0.00  0.00    -0.001 A 
ATOM      4  C3  UNL d   1      -0.098   1.681   0.851  0.00  0.00     0.003 A 
ATOM      5  C4  UNL d   1      -0.346   1.299   2.168  0.00  0.00    -0.005 A 
ATOM      6  C5  UNL d   1      -0.516  -0.048   2.481  0.00  0.00     0.003 A 
ATOM      7  C6  UNL d   1      -0.438  -1.014   1.476  0.00  0.00    -0.001 A 
ENDROOT
TORSDOF 0
ENDMDL
