MODEL 1
REMARK minimizedAffinity -4.73792505
REMARK minimizedRMSD -1
REMARK  0 active torsions:
REMARK  status: ('A' for Active; 'I' for Inactive)
ROOT
ATOM      1  C   UNL d   1      -0.113   0.223  -0.185  0.00  0.00     0.078 C 
ATOM      2  C1  UNL d   1      -0.059  -1.241  -0.509  0.00  0.00    -0.077 A 
ATOM      3  C2  UNL d   1      -1.233  -1.984  -0.686  0.00  0.00    -0.001 A 
ATOM      4  C3  UNL d   1      -1.168  -3.347  -0.978  0.00  0.00     0.003 A 
ATOM      5  C4  UNL d   1       0.068  -3.979  -1.094  0.00  0.00    -0.005 A 
ATOM      6  C5  UNL d   1       1.242  -3.249  -0.918  0.00  0.00     0.003 A 
ATOM      7  C6  UNL d   1       1.178  -1.885  -0.626  0.00  0.00    -0.001 A 
ENDROOT
TORSDOF 0
ENDMDL
