MODEL 1
REMARK minimizedAffinity -3.57448125
REMARK minimizedRMSD -1
REMARK  0 active torsions:
REMARK  status: ('A' for Active; 'I' for Inactive)
ROOT
ATOM      1  C   UNL d   1       0.076  -0.382  -0.654  0.00  0.00     0.078 C 
ATOM      2  C1  UNL d   1      -0.318  -1.773  -1.053  0.00  0.00    -0.077 A 
ATOM      3  C2  UNL d   1      -1.220  -1.995  -2.100  0.00  0.00    -0.001 A 
ATOM      4  C3  UNL d   1      -1.585  -3.295  -2.454  0.00  0.00     0.003 A 
ATOM      5  C4  UNL d   1      -1.054  -4.383  -1.764  0.00  0.00    -0.005 A 
ATOM      6  C5  UNL d   1      -0.158  -4.172  -0.718  0.00  0.00     0.003 A 
ATOM      7  C6  UNL d   1       0.209  -2.873  -0.363  0.00  0.00    -0.001 A 
ENDROOT
TORSDOF 0
ENDMDL
