MODEL 1
REMARK minimizedAffinity -5.16222763
REMARK minimizedRMSD -1
REMARK  0 active torsions:
REMARK  status: ('A' for Active; 'I' for Inactive)
ROOT
ATOM      1  C   UNL d   1      -0.606  -1.494  -0.467  0.00  0.00     0.078 C 
ATOM      2  C1  UNL d   1      -0.828  -0.104   0.048  0.00  0.00    -0.077 A 
ATOM      3  C2  UNL d   1      -0.502   1.014  -0.729  0.00  0.00    -0.001 A 
ATOM      4  C3  UNL d   1      -0.705   2.303  -0.232  0.00  0.00     0.003 A 
ATOM      5  C4  UNL d   1      -1.233   2.486   1.044  0.00  0.00    -0.005 A 
ATOM      6  C5  UNL d   1      -1.558   1.379   1.826  0.00  0.00     0.003 A 
ATOM      7  C6  UNL d   1      -1.356   0.090   1.331  0.00  0.00    -0.001 A 
ENDROOT
TORSDOF 0
ENDMDL
