MODEL 1
REMARK minimizedAffinity 5.56284571
REMARK minimizedRMSD -1
REMARK  0 active torsions:
REMARK  status: ('A' for Active; 'I' for Inactive)
ROOT
ATOM      1  C   UNL d   1      -0.677   1.768   1.328  0.00  0.00     0.078 C 
ATOM      2  C1  UNL d   1       0.298   2.860   1.657  0.00  0.00    -0.077 A 
ATOM      3  C2  UNL d   1       0.912   2.924   2.914  0.00  0.00    -0.001 A 
ATOM      4  C3  UNL d   1       1.809   3.952   3.209  0.00  0.00     0.003 A 
ATOM      5  C4  UNL d   1       2.100   4.923   2.253  0.00  0.00    -0.005 A 
ATOM      6  C5  UNL d   1       1.493   4.868   1.000  0.00  0.00     0.003 A 
ATOM      7  C6  UNL d   1       0.595   3.842   0.703  0.00  0.00    -0.001 A 
ENDROOT
TORSDOF 0
ENDMDL
