MODEL 1
REMARK minimizedAffinity 2.43404341
REMARK minimizedRMSD -1
REMARK  0 active torsions:
REMARK  status: ('A' for Active; 'I' for Inactive)
ROOT
ATOM      1  C   UNL d   1      -1.126  -3.851  -2.517  0.00  0.00     0.078 C 
ATOM      2  C1  UNL d   1      -1.467  -2.413  -2.263  0.00  0.00    -0.077 A 
ATOM      3  C2  UNL d   1      -2.770  -2.029  -1.927  0.00  0.00    -0.001 A 
ATOM      4  C3  UNL d   1      -3.075  -0.685  -1.703  0.00  0.00     0.003 A 
ATOM      5  C4  UNL d   1      -2.081   0.285  -1.814  0.00  0.00    -0.005 A 
ATOM      6  C5  UNL d   1      -0.781  -0.087  -2.151  0.00  0.00     0.003 A 
ATOM      7  C6  UNL d   1      -0.475  -1.430  -2.375  0.00  0.00    -0.001 A 
ENDROOT
TORSDOF 0
ENDMDL
