MODEL 1
REMARK minimizedAffinity 1.96336818
REMARK minimizedRMSD -1
REMARK  0 active torsions:
REMARK  status: ('A' for Active; 'I' for Inactive)
ROOT
ATOM      1  C   UNL d   1       6.000  -1.955  -1.512  0.00  0.00     0.078 C 
ATOM      2  C1  UNL d   1       5.090  -3.053  -1.977  0.00  0.00    -0.077 A 
ATOM      3  C2  UNL d   1       4.219  -3.693  -1.088  0.00  0.00    -0.001 A 
ATOM      4  C3  UNL d   1       3.384  -4.719  -1.532  0.00  0.00     0.003 A 
ATOM      5  C4  UNL d   1       3.414  -5.116  -2.868  0.00  0.00    -0.005 A 
ATOM      6  C5  UNL d   1       4.279  -4.486  -3.760  0.00  0.00     0.003 A 
ATOM      7  C6  UNL d   1       5.114  -3.459  -3.317  0.00  0.00    -0.001 A 
ENDROOT
TORSDOF 0
ENDMDL
