MODEL 1
REMARK minimizedAffinity -0.300427198
REMARK minimizedRMSD -1
REMARK  0 active torsions:
REMARK  status: ('A' for Active; 'I' for Inactive)
ROOT
ATOM      1  C   UNL d   1       0.744  -0.409  -2.250  0.00  0.00     0.078 C 
ATOM      2  C1  UNL d   1      -0.014  -1.691  -2.425  0.00  0.00    -0.077 A 
ATOM      3  C2  UNL d   1      -0.616  -2.012  -3.648  0.00  0.00    -0.001 A 
ATOM      4  C3  UNL d   1      -1.326  -3.204  -3.794  0.00  0.00     0.003 A 
ATOM      5  C4  UNL d   1      -1.442  -4.085  -2.721  0.00  0.00    -0.005 A 
ATOM      6  C5  UNL d   1      -0.848  -3.774  -1.499  0.00  0.00     0.003 A 
ATOM      7  C6  UNL d   1      -0.138  -2.582  -1.351  0.00  0.00    -0.001 A 
ENDROOT
TORSDOF 0
ENDMDL
