MODEL 1
REMARK minimizedAffinity -4.83626223
REMARK minimizedRMSD -1
REMARK  2 active torsions:
REMARK  status: ('A' for Active; 'I' for Inactive)
REMARK    1  A    between atoms: C2'_3  and  C1'_4 
REMARK    2  A    between atoms: C1'_4  and  C1_5 
ROOT
ATOM      1  C1  I4B d   1       0.359  -0.372   0.826  0.00  0.00    -0.075 A 
ATOM      2  C2  I4B d   1      -0.659   0.226   1.526  0.00  0.00     0.003 A 
ATOM      3  C3  I4B d   1      -0.486   0.558   2.892  0.00  0.00     0.002 A 
ATOM      4  C4  I4B d   1       0.695   0.229   3.526  0.00  0.00    -0.004 A 
ATOM      5  C5  I4B d   1       1.734  -0.356   2.809  0.00  0.00     0.002 A 
ATOM      6  C6  I4B d   1       1.570  -0.648   1.447  0.00  0.00     0.003 A 
ENDROOT
BRANCH   1   7
ATOM      7  C1' I4B d   1       0.130  -0.738  -0.607  0.00  0.00     0.060 C 
BRANCH   7   8
ATOM      8  C2' I4B d   1       0.337   0.507  -1.445  0.00  0.00    -0.013 C 
ATOM      9  C4' I4B d   1       0.846   0.161  -2.819  0.00  0.00     0.013 C 
ATOM     10  C3' I4B d   1      -0.971   1.237  -1.521  0.00  0.00     0.013 C 
ENDBRANCH   7   8
ENDBRANCH   1   7
TORSDOF 2
ENDMDL
