MODEL 1
REMARK minimizedAffinity -2.36842537
REMARK minimizedRMSD -1
REMARK  2 active torsions:
REMARK  status: ('A' for Active; 'I' for Inactive)
REMARK    1  A    between atoms: C2'_3  and  C1'_4 
REMARK    2  A    between atoms: C1'_4  and  C1_5 
ROOT
ATOM      1  C1  I4B d   1      -0.072  -0.248   0.111  0.00  0.00    -0.075 A 
ATOM      2  C2  I4B d   1      -1.398  -0.045  -0.177  0.00  0.00     0.003 A 
ATOM      3  C3  I4B d   1      -2.283   0.421   0.826  0.00  0.00     0.002 A 
ATOM      4  C4  I4B d   1      -1.812   0.620   2.108  0.00  0.00    -0.004 A 
ATOM      5  C5  I4B d   1      -0.462   0.435   2.393  0.00  0.00     0.002 A 
ATOM      6  C6  I4B d   1       0.416   0.010   1.386  0.00  0.00     0.003 A 
ENDROOT
BRANCH   1   7
ATOM      7  C1' I4B d   1       0.827  -0.771  -0.963  0.00  0.00     0.060 C 
BRANCH   7   8
ATOM      8  C2' I4B d   1       0.712   0.152  -2.159  0.00  0.00    -0.013 C 
ATOM      9  C4' I4B d   1       2.057   0.704  -2.553  0.00  0.00     0.013 C 
ATOM     10  C3' I4B d   1       0.094  -0.623  -3.285  0.00  0.00     0.013 C 
ENDBRANCH   7   8
ENDBRANCH   1   7
TORSDOF 2
ENDMDL
