MODEL 1
REMARK minimizedAffinity 2.11900163
REMARK minimizedRMSD -1
REMARK  2 active torsions:
REMARK  status: ('A' for Active; 'I' for Inactive)
REMARK    1  A    between atoms: C2'_3  and  C1'_4 
REMARK    2  A    between atoms: C1'_4  and  C1_5 
ROOT
ATOM      1  C1  I4B d   1       0.413  -0.120  -2.176  0.00  0.00    -0.075 A 
ATOM      2  C2  I4B d   1      -0.475  -0.144  -3.223  0.00  0.00     0.003 A 
ATOM      3  C3  I4B d   1      -0.154   0.496  -4.445  0.00  0.00     0.002 A 
ATOM      4  C4  I4B d   1       1.036   1.185  -4.559  0.00  0.00    -0.004 A 
ATOM      5  C5  I4B d   1       1.945   1.188  -3.505  0.00  0.00     0.002 A 
ATOM      6  C6  I4B d   1       1.637   0.522  -2.310  0.00  0.00     0.003 A 
ENDROOT
BRANCH   1   7
ATOM      7  C1' I4B d   1       0.027  -0.777  -0.889  0.00  0.00     0.060 C 
BRANCH   7   8
ATOM      8  C2' I4B d   1       0.171   0.246   0.219  0.00  0.00    -0.013 C 
ATOM      9  C4' I4B d   1      -1.144   0.489   0.911  0.00  0.00     0.013 C 
ATOM     10  C3' I4B d   1       1.205  -0.256   1.182  0.00  0.00     0.013 C 
ENDBRANCH   7   8
ENDBRANCH   1   7
TORSDOF 2
ENDMDL
