MODEL 1
REMARK minimizedAffinity -3.33049703
REMARK minimizedRMSD -1
REMARK  2 active torsions:
REMARK  status: ('A' for Active; 'I' for Inactive)
REMARK    1  A    between atoms: C2'_3  and  C1'_4 
REMARK    2  A    between atoms: C1'_4  and  C1_5 
ROOT
ATOM      1  C1  I4B d   1       0.090  -0.258  -0.560  0.00  0.00    -0.075 A 
ATOM      2  C2  I4B d   1       0.405  -0.552   0.743  0.00  0.00     0.003 A 
ATOM      3  C3  I4B d   1      -0.568  -0.408   1.761  0.00  0.00     0.002 A 
ATOM      4  C4  I4B d   1      -1.819   0.078   1.442  0.00  0.00    -0.004 A 
ATOM      5  C5  I4B d   1      -2.144   0.355   0.117  0.00  0.00     0.002 A 
ATOM      6  C6  I4B d   1      -1.187   0.174  -0.893  0.00  0.00     0.003 A 
ENDROOT
BRANCH   1   7
ATOM      7  C1' I4B d   1       1.152  -0.390  -1.606  0.00  0.00     0.060 C 
BRANCH   7   8
ATOM      8  C2' I4B d   1       0.516  -0.114  -2.954  0.00  0.00    -0.013 C 
ATOM      9  C4' I4B d   1       1.379   0.798  -3.787  0.00  0.00     0.013 C 
ATOM     10  C3' I4B d   1       0.297  -1.429  -3.640  0.00  0.00     0.013 C 
ENDBRANCH   7   8
ENDBRANCH   1   7
TORSDOF 2
ENDMDL
