MODEL 1
REMARK minimizedAffinity -2.53522491
REMARK minimizedRMSD -1
REMARK  2 active torsions:
REMARK  status: ('A' for Active; 'I' for Inactive)
REMARK    1  A    between atoms: C2'_3  and  C1'_4 
REMARK    2  A    between atoms: C1'_4  and  C1_5 
ROOT
ATOM      1  C1  I4B d   1      -0.413   0.929  -0.115  0.00  0.00    -0.075 A 
ATOM      2  C2  I4B d   1       0.710   0.982   0.672  0.00  0.00     0.003 A 
ATOM      3  C3  I4B d   1       0.672   0.498   2.002  0.00  0.00     0.002 A 
ATOM      4  C4  I4B d   1      -0.515   0.018   2.517  0.00  0.00    -0.004 A 
ATOM      5  C5  I4B d   1      -1.646  -0.057   1.710  0.00  0.00     0.002 A 
ATOM      6  C6  I4B d   1      -1.593   0.390   0.382  0.00  0.00     0.003 A 
ENDROOT
BRANCH   1   7
ATOM      7  C1' I4B d   1      -0.347   1.479  -1.505  0.00  0.00     0.060 C 
BRANCH   7   8
ATOM      8  C2' I4B d   1       0.627   0.631  -2.297  0.00  0.00    -0.013 C 
ATOM      9  C4' I4B d   1      -0.081  -0.151  -3.372  0.00  0.00     0.013 C 
ATOM     10  C3' I4B d   1       1.663   1.542  -2.884  0.00  0.00     0.013 C 
ENDBRANCH   7   8
ENDBRANCH   1   7
TORSDOF 2
ENDMDL
