MODEL 1
REMARK minimizedAffinity -2.1614213
REMARK minimizedRMSD -1
REMARK  0 active torsions:
REMARK  status: ('A' for Active; 'I' for Inactive)
ROOT
ATOM      1  C   UNL d   1      -1.119  -0.199  -0.121  0.00  0.00     0.078 C 
ATOM      2  C1  UNL d   1       0.334   0.033   0.168  0.00  0.00    -0.077 A 
ATOM      3  C2  UNL d   1       0.852   1.330   0.264  0.00  0.00    -0.001 A 
ATOM      4  C3  UNL d   1       2.209   1.531   0.525  0.00  0.00     0.003 A 
ATOM      5  C4  UNL d   1       3.058   0.439   0.690  0.00  0.00    -0.005 A 
ATOM      6  C5  UNL d   1       2.552  -0.856   0.593  0.00  0.00     0.003 A 
ATOM      7  C6  UNL d   1       1.196  -1.058   0.333  0.00  0.00    -0.001 A 
ENDROOT
TORSDOF 0
ENDMDL
