MODEL 1
REMARK minimizedAffinity -2.85576439
REMARK minimizedRMSD -1
REMARK  0 active torsions:
REMARK  status: ('A' for Active; 'I' for Inactive)
ROOT
ATOM      1  C   UNL d   1       1.901  -1.861   2.655  0.00  0.00     0.078 C 
ATOM      2  C1  UNL d   1       1.504  -0.718   1.769  0.00  0.00    -0.077 A 
ATOM      3  C2  UNL d   1       2.275   0.449   1.709  0.00  0.00    -0.001 A 
ATOM      4  C3  UNL d   1       1.888   1.509   0.887  0.00  0.00     0.003 A 
ATOM      5  C4  UNL d   1       0.729   1.412   0.120  0.00  0.00    -0.005 A 
ATOM      6  C5  UNL d   1      -0.046   0.255   0.174  0.00  0.00     0.003 A 
ATOM      7  C6  UNL d   1       0.340  -0.806   0.996  0.00  0.00    -0.001 A 
ENDROOT
TORSDOF 0
ENDMDL
