MODEL 1
REMARK minimizedAffinity -3.54905987
REMARK minimizedRMSD -1
REMARK  0 active torsions:
REMARK  status: ('A' for Active; 'I' for Inactive)
ROOT
ATOM      1  C   UNL d   1      -1.760  -0.452  -0.279  0.00  0.00     0.078 C 
ATOM      2  C1  UNL d   1      -0.461  -0.119   0.393  0.00  0.00    -0.077 A 
ATOM      3  C2  UNL d   1       0.112  -0.991   1.326  0.00  0.00    -0.001 A 
ATOM      4  C3  UNL d   1       1.317  -0.664   1.951  0.00  0.00     0.003 A 
ATOM      5  C4  UNL d   1       1.957   0.537   1.650  0.00  0.00    -0.005 A 
ATOM      6  C5  UNL d   1       1.393   1.412   0.725  0.00  0.00     0.003 A 
ATOM      7  C6  UNL d   1       0.188   1.086   0.099  0.00  0.00    -0.001 A 
ENDROOT
TORSDOF 0
ENDMDL
