MODEL 1
REMARK minimizedAffinity -4.91652727
REMARK minimizedRMSD -1
REMARK  0 active torsions:
REMARK  status: ('A' for Active; 'I' for Inactive)
ROOT
ATOM      1  C   UNL d   1      -1.290  -0.000  -0.456  0.00  0.00     0.078 C 
ATOM      2  C1  UNL d   1      -0.039  -0.260   0.328  0.00  0.00    -0.077 A 
ATOM      3  C2  UNL d   1       0.084  -1.400   1.133  0.00  0.00    -0.001 A 
ATOM      4  C3  UNL d   1       1.251  -1.624   1.865  0.00  0.00     0.003 A 
ATOM      5  C4  UNL d   1       2.303  -0.712   1.802  0.00  0.00    -0.005 A 
ATOM      6  C5  UNL d   1       2.189   0.425   1.006  0.00  0.00     0.003 A 
ATOM      7  C6  UNL d   1       1.023   0.651   0.273  0.00  0.00    -0.001 A 
ENDROOT
TORSDOF 0
ENDMDL
