MODEL 1
REMARK minimizedAffinity -3.66086626
REMARK minimizedRMSD -1
REMARK  0 active torsions:
REMARK  status: ('A' for Active; 'I' for Inactive)
ROOT
ATOM      1  C   UNL d   1       2.270   1.512   0.583  0.00  0.00     0.078 C 
ATOM      2  C1  UNL d   1       2.305   0.763   1.882  0.00  0.00    -0.077 A 
ATOM      3  C2  UNL d   1       2.440  -0.631   1.906  0.00  0.00    -0.001 A 
ATOM      4  C3  UNL d   1       2.462  -1.316   3.122  0.00  0.00     0.003 A 
ATOM      5  C4  UNL d   1       2.348  -0.617   4.322  0.00  0.00    -0.005 A 
ATOM      6  C5  UNL d   1       2.211   0.770   4.307  0.00  0.00     0.003 A 
ATOM      7  C6  UNL d   1       2.189   1.457   3.092  0.00  0.00    -0.001 A 
ENDROOT
TORSDOF 0
ENDMDL
