MODEL 1
REMARK minimizedAffinity -3.12059927
REMARK minimizedRMSD -1
REMARK  0 active torsions:
REMARK  status: ('A' for Active; 'I' for Inactive)
ROOT
ATOM      1  C   UNL d   1       2.203  -0.733   0.591  0.00  0.00     0.078 C 
ATOM      2  C1  UNL d   1       0.709  -0.657   0.498  0.00  0.00    -0.077 A 
ATOM      3  C2  UNL d   1       0.077   0.465  -0.051  0.00  0.00    -0.001 A 
ATOM      4  C3  UNL d   1      -1.316   0.527  -0.123  0.00  0.00     0.003 A 
ATOM      5  C4  UNL d   1      -2.088  -0.530   0.355  0.00  0.00    -0.005 A 
ATOM      6  C5  UNL d   1      -1.469  -1.650   0.906  0.00  0.00     0.003 A 
ATOM      7  C6  UNL d   1      -0.076  -1.713   0.978  0.00  0.00    -0.001 A 
ENDROOT
TORSDOF 0
ENDMDL
