MODEL 1
REMARK minimizedAffinity -2.72416258
REMARK minimizedRMSD -1
REMARK  0 active torsions:
REMARK  status: ('A' for Active; 'I' for Inactive)
ROOT
ATOM      1  C   UNL d   1      -0.725  -0.933   0.568  0.00  0.00     0.078 C 
ATOM      2  C1  UNL d   1       0.695  -0.451   0.567  0.00  0.00    -0.077 A 
ATOM      3  C2  UNL d   1       1.031   0.805   1.087  0.00  0.00    -0.001 A 
ATOM      4  C3  UNL d   1       2.355   1.245   1.070  0.00  0.00     0.003 A 
ATOM      5  C4  UNL d   1       3.354   0.436   0.533  0.00  0.00    -0.005 A 
ATOM      6  C5  UNL d   1       3.029  -0.815   0.011  0.00  0.00     0.003 A 
ATOM      7  C6  UNL d   1       1.705  -1.256   0.027  0.00  0.00    -0.001 A 
ENDROOT
TORSDOF 0
ENDMDL
