MODEL 1
REMARK minimizedAffinity 1.79552245
REMARK minimizedRMSD -1
REMARK  0 active torsions:
REMARK  status: ('A' for Active; 'I' for Inactive)
ROOT
ATOM      1  C   UNL d   1       2.598   1.091   2.984  0.00  0.00     0.078 C 
ATOM      2  C1  UNL d   1       1.884   0.271   1.952  0.00  0.00    -0.077 A 
ATOM      3  C2  UNL d   1       0.738   0.759   1.310  0.00  0.00    -0.001 A 
ATOM      4  C3  UNL d   1       0.078  -0.019   0.358  0.00  0.00     0.003 A 
ATOM      5  C4  UNL d   1       0.554  -1.289   0.039  0.00  0.00    -0.005 A 
ATOM      6  C5  UNL d   1       1.692  -1.783   0.673  0.00  0.00     0.003 A 
ATOM      7  C6  UNL d   1       2.354  -1.007   1.626  0.00  0.00    -0.001 A 
ENDROOT
TORSDOF 0
ENDMDL
