MODEL 1
REMARK minimizedAffinity -4.49304771
REMARK minimizedRMSD -1
REMARK  1 active torsions:
REMARK  status: ('A' for Active; 'I' for Inactive)
REMARK    1  A    between atoms: C1_2  and  C2_3 
ROOT
ATOM      1  C2  UNL d   1      -0.517  -4.801  -3.024  0.00  0.00    -0.077 A 
ATOM      2  C3  UNL d   1      -0.635  -3.599  -3.737  0.00  0.00     0.002 A 
ATOM      3  C4  UNL d   1      -1.124  -3.600  -5.045  0.00  0.00     0.002 A 
ATOM      4  C5  UNL d   1      -1.501  -4.797  -5.650  0.00  0.00    -0.004 A 
ATOM      5  C6  UNL d   1      -1.386  -5.997  -4.950  0.00  0.00     0.002 A 
ATOM      6  C7  UNL d   1      -0.897  -5.999  -3.643  0.00  0.00     0.002 A 
ENDROOT
BRANCH   1   7
ATOM      7  C1  UNL d   1      -0.037  -4.797  -1.597  0.00  0.00     0.055 C 
ATOM      8  C   UNL d   1       0.885  -5.976  -1.319  0.00  0.00     0.019 C 
ENDBRANCH   1   7
TORSDOF 1
ENDMDL
