MODEL 1
REMARK minimizedAffinity -1.64735532
REMARK minimizedRMSD -1
REMARK  1 active torsions:
REMARK  status: ('A' for Active; 'I' for Inactive)
REMARK    1  A    between atoms: C1_2  and  C2_3 
ROOT
ATOM      1  C2  UNL d   1       0.826   3.571  -0.427  0.00  0.00    -0.077 A 
ATOM      2  C3  UNL d   1       0.988   3.115   0.889  0.00  0.00     0.002 A 
ATOM      3  C4  UNL d   1       0.261   2.015   1.349  0.00  0.00     0.002 A 
ATOM      4  C5  UNL d   1      -0.628   1.360   0.500  0.00  0.00    -0.004 A 
ATOM      5  C6  UNL d   1      -0.797   1.807  -0.810  0.00  0.00     0.002 A 
ATOM      6  C7  UNL d   1      -0.073   2.907  -1.272  0.00  0.00     0.002 A 
ENDROOT
BRANCH   1   7
ATOM      7  C1  UNL d   1       1.645   4.727  -0.940  0.00  0.00     0.055 C 
ATOM      8  C   UNL d   1       1.014   5.344  -2.180  0.00  0.00     0.019 C 
ENDBRANCH   1   7
TORSDOF 1
ENDMDL
