MODEL 1
REMARK minimizedAffinity 5.46017838
REMARK minimizedRMSD -1
REMARK  1 active torsions:
REMARK  status: ('A' for Active; 'I' for Inactive)
REMARK    1  A    between atoms: C1_2  and  C2_3 
ROOT
ATOM      1  C2  UNL d   1       5.304  -2.204  -4.669  0.00  0.00    -0.077 A 
ATOM      2  C3  UNL d   1       4.573  -1.644  -3.612  0.00  0.00     0.002 A 
ATOM      3  C4  UNL d   1       4.540  -2.271  -2.365  0.00  0.00     0.002 A 
ATOM      4  C5  UNL d   1       5.238  -3.460  -2.163  0.00  0.00    -0.004 A 
ATOM      5  C6  UNL d   1       5.966  -4.027  -3.208  0.00  0.00     0.002 A 
ATOM      6  C7  UNL d   1       6.000  -3.401  -4.455  0.00  0.00     0.002 A 
ENDROOT
BRANCH   1   7
ATOM      7  C1  UNL d   1       5.381  -1.503  -6.000  0.00  0.00     0.055 C 
ATOM      8  C   UNL d   1       6.000  -0.120  -5.862  0.00  0.00     0.019 C 
ENDBRANCH   1   7
TORSDOF 1
ENDMDL
