MODEL 1
REMARK minimizedAffinity 6.65552568
REMARK minimizedRMSD -1
REMARK  1 active torsions:
REMARK  status: ('A' for Active; 'I' for Inactive)
REMARK    1  A    between atoms: C1_2  and  C2_3 
ROOT
ATOM      1  C2  UNL d   1       0.515   3.641  -0.725  0.00  0.00    -0.077 A 
ATOM      2  C3  UNL d   1      -0.176   4.674  -0.076  0.00  0.00     0.002 A 
ATOM      3  C4  UNL d   1      -0.495   5.849  -0.760  0.00  0.00     0.002 A 
ATOM      4  C5  UNL d   1      -0.131   6.000  -2.097  0.00  0.00    -0.004 A 
ATOM      5  C6  UNL d   1       0.558   4.979  -2.750  0.00  0.00     0.002 A 
ATOM      6  C7  UNL d   1       0.879   3.805  -2.068  0.00  0.00     0.002 A 
ENDROOT
BRANCH   1   7
ATOM      7  C1  UNL d   1       0.816   2.354  -0.004  0.00  0.00     0.055 C 
ATOM      8  C   UNL d   1       0.303   2.388   1.428  0.00  0.00     0.019 C 
ENDBRANCH   1   7
TORSDOF 1
ENDMDL
