MODEL 1
REMARK minimizedAffinity -1.84053314
REMARK minimizedRMSD -1
REMARK  1 active torsions:
REMARK  status: ('A' for Active; 'I' for Inactive)
REMARK    1  A    between atoms: C1_2  and  C2_3 
ROOT
ATOM      1  C2  UNL d   1       0.260   1.139   0.862  0.00  0.00    -0.077 A 
ATOM      2  C3  UNL d   1      -0.827   0.345   1.253  0.00  0.00     0.002 A 
ATOM      3  C4  UNL d   1      -0.615  -0.914   1.818  0.00  0.00     0.002 A 
ATOM      4  C5  UNL d   1       0.682  -1.389   1.999  0.00  0.00    -0.004 A 
ATOM      5  C6  UNL d   1       1.770  -0.608   1.611  0.00  0.00     0.002 A 
ATOM      6  C7  UNL d   1       1.560   0.651   1.046  0.00  0.00     0.002 A 
ENDROOT
BRANCH   1   7
ATOM      7  C1  UNL d   1       0.035   2.518   0.298  0.00  0.00     0.055 C 
ATOM      8  C   UNL d   1       0.325   2.560  -1.195  0.00  0.00     0.019 C 
ENDBRANCH   1   7
TORSDOF 1
ENDMDL
