MODEL 1
REMARK minimizedAffinity 0.427729309
REMARK minimizedRMSD -1
REMARK  1 active torsions:
REMARK  status: ('A' for Active; 'I' for Inactive)
REMARK    1  A    between atoms: C1_2  and  C2_3 
ROOT
ATOM      1  C2  UNL d   1       2.906   0.032   2.891  0.00  0.00    -0.076 A 
ATOM      2  C3  UNL d   1       2.262  -0.294   4.098  0.00  0.00     0.004 A 
ATOM      3  C4  UNL d   1       2.183  -1.615   4.535  0.00  0.00    -0.003 A 
ATOM      4  C5  UNL d   1       2.747  -2.632   3.774  0.00  0.00     0.000 A 
ATOM      5  C6  UNL d   1       3.405  -2.326   2.583  0.00  0.00     0.000 A 
ATOM      6  C7  UNL d   1       3.508  -0.997   2.136  0.00  0.00    -0.073 A 
ATOM      7  C8  UNL d   1       4.224  -0.725   0.841  0.00  0.00     0.078 C 
ENDROOT
BRANCH   1   8
ATOM      8  C1  UNL d   1       2.937   1.479   2.454  0.00  0.00     0.053 C 
ATOM      9  C   UNL d   1       3.114   2.437   3.622  0.00  0.00     0.018 C 
ENDBRANCH   1   8
TORSDOF 1
ENDMDL
