MODEL 1
REMARK minimizedAffinity 7.29257393
REMARK minimizedRMSD -1
REMARK  1 active torsions:
REMARK  status: ('A' for Active; 'I' for Inactive)
REMARK    1  A    between atoms: C1_2  and  C2_3 
ROOT
ATOM      1  C2  UNL d   1       3.825   1.518  -5.266  0.00  0.00    -0.076 A 
ATOM      2  C3  UNL d   1       3.244   2.792  -5.143  0.00  0.00     0.004 A 
ATOM      3  C4  UNL d   1       3.972   3.944  -5.434  0.00  0.00    -0.003 A 
ATOM      4  C5  UNL d   1       5.294   3.841  -5.852  0.00  0.00     0.000 A 
ATOM      5  C6  UNL d   1       5.882   2.584  -5.996  0.00  0.00     0.000 A 
ATOM      6  C7  UNL d   1       5.156   1.412  -5.723  0.00  0.00    -0.073 A 
ATOM      7  C8  UNL d   1       5.841   0.083  -5.890  0.00  0.00     0.078 C 
ENDROOT
BRANCH   1   8
ATOM      8  C1  UNL d   1       2.994   0.305  -4.910  0.00  0.00     0.053 C 
ATOM      9  C   UNL d   1       3.497  -0.399  -3.660  0.00  0.00     0.018 C 
ENDBRANCH   1   8
TORSDOF 1
ENDMDL
