MODEL 1
REMARK minimizedAffinity 6.97793674
REMARK minimizedRMSD -1
REMARK  1 active torsions:
REMARK  status: ('A' for Active; 'I' for Inactive)
REMARK    1  A    between atoms: C1_2  and  C2_3 
ROOT
ATOM      1  C2  UNL d   1       4.832   5.926  -3.628  0.00  0.00    -0.076 A 
ATOM      2  C3  UNL d   1       6.000   5.970  -2.847  0.00  0.00     0.004 A 
ATOM      3  C4  UNL d   1       5.934   5.930  -1.455  0.00  0.00    -0.003 A 
ATOM      4  C5  UNL d   1       4.699   5.846  -0.822  0.00  0.00     0.000 A 
ATOM      5  C6  UNL d   1       3.531   5.784  -1.582  0.00  0.00     0.000 A 
ATOM      6  C7  UNL d   1       3.581   5.807  -2.986  0.00  0.00    -0.073 A 
ATOM      7  C8  UNL d   1       2.290   5.743  -3.755  0.00  0.00     0.078 C 
ENDROOT
BRANCH   1   8
ATOM      8  C1  UNL d   1       4.964   6.000  -5.132  0.00  0.00     0.053 C 
ATOM      9  C   UNL d   1       5.808   4.868  -5.699  0.00  0.00     0.018 C 
ENDBRANCH   1   8
TORSDOF 1
ENDMDL
