MODEL 1
REMARK minimizedAffinity -1.56376886
REMARK minimizedRMSD -1
REMARK  1 active torsions:
REMARK  status: ('A' for Active; 'I' for Inactive)
REMARK    1  A    between atoms: C1_2  and  C2_3 
ROOT
ATOM      1  C2  UNL d   1      -5.737  -3.968  -3.993  0.00  0.00    -0.076 A 
ATOM      2  C3  UNL d   1      -5.998  -3.368  -2.749  0.00  0.00     0.004 A 
ATOM      3  C4  UNL d   1      -5.823  -4.075  -1.561  0.00  0.00    -0.003 A 
ATOM      4  C5  UNL d   1      -5.383  -5.394  -1.597  0.00  0.00     0.000 A 
ATOM      5  C6  UNL d   1      -5.102  -5.999  -2.822  0.00  0.00     0.000 A 
ATOM      6  C7  UNL d   1      -5.258  -5.295  -4.028  0.00  0.00    -0.073 A 
ATOM      7  C8  UNL d   1      -4.947  -5.999  -5.320  0.00  0.00     0.078 C 
ENDROOT
BRANCH   1   8
ATOM      8  C1  UNL d   1      -5.971  -3.161  -5.250  0.00  0.00     0.053 C 
ATOM      9  C   UNL d   1      -4.682  -2.860  -5.998  0.00  0.00     0.018 C 
ENDBRANCH   1   8
TORSDOF 1
ENDMDL
