MODEL 1
REMARK minimizedAffinity 4.03544426
REMARK minimizedRMSD -1
REMARK  1 active torsions:
REMARK  status: ('A' for Active; 'I' for Inactive)
REMARK    1  A    between atoms: C1_2  and  C2_3 
ROOT
ATOM      1  C2  UNL d   1      -4.833  -4.957  -2.917  0.00  0.00    -0.076 A 
ATOM      2  C3  UNL d   1      -4.378  -5.967  -3.782  0.00  0.00     0.004 A 
ATOM      3  C4  UNL d   1      -4.594  -5.885  -5.157  0.00  0.00    -0.003 A 
ATOM      4  C5  UNL d   1      -5.268  -4.791  -5.688  0.00  0.00     0.000 A 
ATOM      5  C6  UNL d   1      -5.712  -3.772  -4.847  0.00  0.00     0.000 A 
ATOM      6  C7  UNL d   1      -5.488  -3.831  -3.461  0.00  0.00    -0.073 A 
ATOM      7  C8  UNL d   1      -5.993  -2.706  -2.599  0.00  0.00     0.078 C 
ENDROOT
BRANCH   1   8
ATOM      8  C1  UNL d   1      -4.594  -5.113  -1.432  0.00  0.00     0.053 C 
ATOM      9  C   UNL d   1      -5.679  -5.932  -0.750  0.00  0.00     0.018 C 
ENDBRANCH   1   8
TORSDOF 1
ENDMDL
