MODEL 1
REMARK minimizedAffinity 0.421664208
REMARK minimizedRMSD -1
REMARK  1 active torsions:
REMARK  status: ('A' for Active; 'I' for Inactive)
REMARK    1  A    between atoms: C1_2  and  C2_3 
ROOT
ATOM      1  C2  UNL d   1      -5.755  -3.872  -3.540  0.00  0.00    -0.076 A 
ATOM      2  C3  UNL d   1      -5.743  -3.253  -4.802  0.00  0.00     0.004 A 
ATOM      3  C4  UNL d   1      -5.497  -3.990  -5.960  0.00  0.00    -0.003 A 
ATOM      4  C5  UNL d   1      -5.261  -5.357  -5.875  0.00  0.00     0.000 A 
ATOM      5  C6  UNL d   1      -5.287  -5.991  -4.633  0.00  0.00     0.000 A 
ATOM      6  C7  UNL d   1      -5.549  -5.266  -3.457  0.00  0.00    -0.073 A 
ATOM      7  C8  UNL d   1      -5.559  -5.999  -2.144  0.00  0.00     0.078 C 
ENDROOT
BRANCH   1   8
ATOM      8  C1  UNL d   1      -5.999  -3.018  -2.317  0.00  0.00     0.053 C 
ATOM      9  C   UNL d   1      -5.990  -1.530  -2.634  0.00  0.00     0.018 C 
ENDBRANCH   1   8
TORSDOF 1
ENDMDL
