MODEL 1
REMARK minimizedAffinity 1.78465188
REMARK minimizedRMSD -1
REMARK  1 active torsions:
REMARK  status: ('A' for Active; 'I' for Inactive)
REMARK    1  A    between atoms: C1_2  and  C2_3 
ROOT
ATOM      1  C2  UNL d   1      -5.242  -5.270  -3.388  0.00  0.00    -0.076 A 
ATOM      2  C3  UNL d   1      -4.746  -5.999  -4.483  0.00  0.00     0.004 A 
ATOM      3  C4  UNL d   1      -4.517  -5.381  -5.712  0.00  0.00    -0.003 A 
ATOM      4  C5  UNL d   1      -4.780  -4.024  -5.864  0.00  0.00     0.000 A 
ATOM      5  C6  UNL d   1      -5.255  -3.282  -4.784  0.00  0.00     0.000 A 
ATOM      6  C7  UNL d   1      -5.476  -3.886  -3.534  0.00  0.00    -0.073 A 
ATOM      7  C8  UNL d   1      -5.995  -3.039  -2.404  0.00  0.00     0.078 C 
ENDROOT
BRANCH   1   8
ATOM      8  C1  UNL d   1      -5.497  -6.000  -2.088  0.00  0.00     0.053 C 
ATOM      9  C   UNL d   1      -4.356  -5.838  -1.096  0.00  0.00     0.018 C 
ENDBRANCH   1   8
TORSDOF 1
ENDMDL
