MODEL 1
REMARK minimizedAffinity 8.29385376
REMARK minimizedRMSD -1
REMARK  0 active torsions:
REMARK  status: ('A' for Active; 'I' for Inactive)
ROOT
ATOM      1  C   UNL d   1      -1.434  -0.911  -1.420  0.00  0.00     0.078 C 
ATOM      2  C1  UNL d   1      -1.480  -1.873  -0.270  0.00  0.00    -0.077 A 
ATOM      3  C2  UNL d   1      -2.394  -1.702   0.776  0.00  0.00    -0.001 A 
ATOM      4  C3  UNL d   1      -2.419  -2.600   1.845  0.00  0.00     0.003 A 
ATOM      5  C4  UNL d   1      -1.531  -3.673   1.878  0.00  0.00    -0.005 A 
ATOM      6  C5  UNL d   1      -0.616  -3.850   0.843  0.00  0.00     0.003 A 
ATOM      7  C6  UNL d   1      -0.590  -2.953  -0.227  0.00  0.00    -0.001 A 
ENDROOT
TORSDOF 0
ENDMDL
