MODEL 1
REMARK minimizedAffinity 13.0139256
REMARK minimizedRMSD -1
REMARK  0 active torsions:
REMARK  status: ('A' for Active; 'I' for Inactive)
ROOT
ATOM      1  C   UNL d   1       0.476   3.175  -5.777  0.00  0.00     0.078 C 
ATOM      2  C1  UNL d   1      -0.689   2.720  -4.948  0.00  0.00    -0.077 A 
ATOM      3  C2  UNL d   1      -0.632   1.527  -4.218  0.00  0.00    -0.001 A 
ATOM      4  C3  UNL d   1      -1.727   1.111  -3.460  0.00  0.00     0.003 A 
ATOM      5  C4  UNL d   1      -2.887   1.882  -3.424  0.00  0.00    -0.005 A 
ATOM      6  C5  UNL d   1      -2.954   3.070  -4.149  0.00  0.00     0.003 A 
ATOM      7  C6  UNL d   1      -1.860   3.487  -4.909  0.00  0.00    -0.001 A 
ENDROOT
TORSDOF 0
ENDMDL
