MODEL 1
REMARK minimizedAffinity 6.88129187
REMARK minimizedRMSD -1
REMARK  0 active torsions:
REMARK  status: ('A' for Active; 'I' for Inactive)
ROOT
ATOM      1  C   UNL d   1      -5.231   4.213   5.854  0.00  0.00     0.078 C 
ATOM      2  C1  UNL d   1      -4.953   2.739   5.889  0.00  0.00    -0.077 A 
ATOM      3  C2  UNL d   1      -5.998   1.809   5.952  0.00  0.00    -0.001 A 
ATOM      4  C3  UNL d   1      -5.724   0.442   5.994  0.00  0.00     0.003 A 
ATOM      5  C4  UNL d   1      -4.405  -0.009   5.974  0.00  0.00    -0.005 A 
ATOM      6  C5  UNL d   1      -3.359   0.909   5.913  0.00  0.00     0.003 A 
ATOM      7  C6  UNL d   1      -3.631   2.278   5.872  0.00  0.00    -0.001 A 
ENDROOT
TORSDOF 0
ENDMDL
