MODEL 1
REMARK minimizedAffinity 3.84296823
REMARK minimizedRMSD -1
REMARK  0 active torsions:
REMARK  status: ('A' for Active; 'I' for Inactive)
ROOT
ATOM      1  C   UNL d   1      -2.288  -2.602   2.785  0.00  0.00     0.078 C 
ATOM      2  C1  UNL d   1      -1.556  -3.439   1.779  0.00  0.00    -0.077 A 
ATOM      3  C2  UNL d   1      -1.180  -2.912   0.538  0.00  0.00    -0.001 A 
ATOM      4  C3  UNL d   1      -0.507  -3.706  -0.392  0.00  0.00     0.003 A 
ATOM      5  C4  UNL d   1      -0.205  -5.033  -0.091  0.00  0.00    -0.005 A 
ATOM      6  C5  UNL d   1      -0.577  -5.567   1.141  0.00  0.00     0.003 A 
ATOM      7  C6  UNL d   1      -1.250  -4.775   2.072  0.00  0.00    -0.001 A 
ENDROOT
TORSDOF 0
ENDMDL
