MODEL 1
REMARK minimizedAffinity 7.92909193
REMARK minimizedRMSD -1
REMARK  0 active torsions:
REMARK  status: ('A' for Active; 'I' for Inactive)
ROOT
ATOM      1  C   UNL d   1       4.876   5.999   1.143  0.00  0.00     0.078 C 
ATOM      2  C1  UNL d   1       4.942   4.804   0.240  0.00  0.00    -0.077 A 
ATOM      3  C2  UNL d   1       4.042   3.741   0.384  0.00  0.00    -0.001 A 
ATOM      4  C3  UNL d   1       4.121   2.631  -0.459  0.00  0.00     0.003 A 
ATOM      5  C4  UNL d   1       5.099   2.572  -1.450  0.00  0.00    -0.005 A 
ATOM      6  C5  UNL d   1       6.000   3.625  -1.599  0.00  0.00     0.003 A 
ATOM      7  C6  UNL d   1       5.922   4.736  -0.758  0.00  0.00    -0.001 A 
ENDROOT
TORSDOF 0
ENDMDL
