MODEL 1
REMARK minimizedAffinity 8.00785923
REMARK minimizedRMSD -1
REMARK  0 active torsions:
REMARK  status: ('A' for Active; 'I' for Inactive)
ROOT
ATOM      1  C   UNL d   1      -3.821   5.863  -2.273  0.00  0.00     0.078 C 
ATOM      2  C1  UNL d   1      -4.430   5.311  -1.018  0.00  0.00    -0.077 A 
ATOM      3  C2  UNL d   1      -5.448   6.000  -0.348  0.00  0.00    -0.001 A 
ATOM      4  C3  UNL d   1      -5.999   5.479   0.825  0.00  0.00     0.003 A 
ATOM      5  C4  UNL d   1      -5.537   4.269   1.337  0.00  0.00    -0.005 A 
ATOM      6  C5  UNL d   1      -4.523   3.577   0.678  0.00  0.00     0.003 A 
ATOM      7  C6  UNL d   1      -3.971   4.096  -0.495  0.00  0.00    -0.001 A 
ENDROOT
TORSDOF 0
ENDMDL
