MODEL 1
REMARK minimizedAffinity 8.48019886
REMARK minimizedRMSD -1
REMARK  0 active torsions:
REMARK  status: ('A' for Active; 'I' for Inactive)
ROOT
ATOM      1  C   UNL d   1      -0.295  -5.300   0.742  0.00  0.00     0.078 C 
ATOM      2  C1  UNL d   1      -0.999  -4.191   1.466  0.00  0.00    -0.077 A 
ATOM      3  C2  UNL d   1      -1.061  -4.169   2.864  0.00  0.00    -0.001 A 
ATOM      4  C3  UNL d   1      -1.728  -3.136   3.525  0.00  0.00     0.003 A 
ATOM      5  C4  UNL d   1      -2.340  -2.118   2.795  0.00  0.00    -0.005 A 
ATOM      6  C5  UNL d   1      -2.285  -2.134   1.403  0.00  0.00     0.003 A 
ATOM      7  C6  UNL d   1      -1.618  -3.166   0.740  0.00  0.00    -0.001 A 
ENDROOT
TORSDOF 0
ENDMDL
