MODEL 1
REMARK minimizedAffinity 16.3029613
REMARK minimizedRMSD -1
REMARK  0 active torsions:
REMARK  status: ('A' for Active; 'I' for Inactive)
ROOT
ATOM      1  C   UNL d   1       3.101   2.163   0.692  0.00  0.00     0.078 C 
ATOM      2  C1  UNL d   1       4.110   3.031   0.001  0.00  0.00    -0.077 A 
ATOM      3  C2  UNL d   1       5.056   2.481  -0.873  0.00  0.00    -0.001 A 
ATOM      4  C3  UNL d   1       5.996   3.299  -1.501  0.00  0.00     0.003 A 
ATOM      5  C4  UNL d   1       6.000   4.672  -1.261  0.00  0.00    -0.005 A 
ATOM      6  C5  UNL d   1       5.064   5.228  -0.391  0.00  0.00     0.003 A 
ATOM      7  C6  UNL d   1       4.124   4.411   0.238  0.00  0.00    -0.001 A 
ENDROOT
TORSDOF 0
ENDMDL
