MODEL 1
REMARK minimizedAffinity 16.2319164
REMARK minimizedRMSD -1
REMARK  0 active torsions:
REMARK  status: ('A' for Active; 'I' for Inactive)
ROOT
ATOM      1  C   UNL d   1      -1.711   2.978  -4.195  0.00  0.00     0.078 C 
ATOM      2  C1  UNL d   1      -2.835   3.866  -4.641  0.00  0.00    -0.077 A 
ATOM      3  C2  UNL d   1      -3.770   3.426  -5.586  0.00  0.00    -0.001 A 
ATOM      4  C3  UNL d   1      -4.804   4.266  -5.999  0.00  0.00     0.003 A 
ATOM      5  C4  UNL d   1      -4.913   5.553  -5.475  0.00  0.00    -0.005 A 
ATOM      6  C5  UNL d   1      -3.986   6.000  -4.536  0.00  0.00     0.003 A 
ATOM      7  C6  UNL d   1      -2.951   5.161  -4.121  0.00  0.00    -0.001 A 
ENDROOT
TORSDOF 0
ENDMDL
