MODEL 1
REMARK minimizedAffinity 9.49404907
REMARK minimizedRMSD -1
REMARK  0 active torsions:
REMARK  status: ('A' for Active; 'I' for Inactive)
ROOT
ATOM      1  C   UNL d   1      -2.550  -0.125   4.776  0.00  0.00     0.078 C 
ATOM      2  C1  UNL d   1      -3.646   0.806   5.199  0.00  0.00    -0.077 A 
ATOM      3  C2  UNL d   1      -4.986   0.400   5.175  0.00  0.00    -0.001 A 
ATOM      4  C3  UNL d   1      -5.998   1.280   5.562  0.00  0.00     0.003 A 
ATOM      5  C4  UNL d   1      -5.680   2.573   5.974  0.00  0.00    -0.005 A 
ATOM      6  C5  UNL d   1      -4.350   2.987   5.999  0.00  0.00     0.003 A 
ATOM      7  C6  UNL d   1      -3.337   2.108   5.612  0.00  0.00    -0.001 A 
ENDROOT
TORSDOF 0
ENDMDL
