MODEL 1
REMARK minimizedAffinity 13.4288616
REMARK minimizedRMSD -1
REMARK  0 active torsions:
REMARK  status: ('A' for Active; 'I' for Inactive)
ROOT
ATOM      1  C   UNL d   1       3.185   2.250   0.375  0.00  0.00     0.078 C 
ATOM      2  C1  UNL d   1       4.123   3.324  -0.092  0.00  0.00    -0.077 A 
ATOM      3  C2  UNL d   1       4.004   4.638   0.375  0.00  0.00    -0.001 A 
ATOM      4  C3  UNL d   1       4.878   5.629  -0.076  0.00  0.00     0.003 A 
ATOM      5  C4  UNL d   1       5.875   5.316  -0.997  0.00  0.00    -0.005 A 
ATOM      6  C5  UNL d   1       5.999   4.011  -1.469  0.00  0.00     0.003 A 
ATOM      7  C6  UNL d   1       5.127   3.019  -1.020  0.00  0.00    -0.001 A 
ENDROOT
TORSDOF 0
ENDMDL
