MODEL 1
REMARK minimizedAffinity 3.18006682
REMARK minimizedRMSD -1
REMARK  0 active torsions:
REMARK  status: ('A' for Active; 'I' for Inactive)
ROOT
ATOM      1  C   UNL d   1      -0.372  -5.681   1.512  0.00  0.00     0.078 C 
ATOM      2  C1  UNL d   1      -1.006  -4.339   1.306  0.00  0.00    -0.077 A 
ATOM      3  C2  UNL d   1      -1.734  -3.720   2.330  0.00  0.00    -0.001 A 
ATOM      4  C3  UNL d   1      -2.327  -2.474   2.121  0.00  0.00     0.003 A 
ATOM      5  C4  UNL d   1      -2.201  -1.837   0.888  0.00  0.00    -0.005 A 
ATOM      6  C5  UNL d   1      -1.481  -2.446  -0.138  0.00  0.00     0.003 A 
ATOM      7  C6  UNL d   1      -0.886  -3.691   0.069  0.00  0.00    -0.001 A 
ENDROOT
TORSDOF 0
ENDMDL
