MODEL 1
REMARK minimizedAffinity 14.1350069
REMARK minimizedRMSD -1
REMARK  0 active torsions:
REMARK  status: ('A' for Active; 'I' for Inactive)
ROOT
ATOM      1  C   UNL d   1       4.881   6.000   0.801  0.00  0.00     0.078 C 
ATOM      2  C1  UNL d   1       4.974   4.622   0.217  0.00  0.00    -0.077 A 
ATOM      3  C2  UNL d   1       5.931   4.315  -0.758  0.00  0.00    -0.001 A 
ATOM      4  C3  UNL d   1       6.000   3.031  -1.301  0.00  0.00     0.003 A 
ATOM      5  C4  UNL d   1       5.114   2.044  -0.875  0.00  0.00    -0.005 A 
ATOM      6  C5  UNL d   1       4.156   2.340   0.093  0.00  0.00     0.003 A 
ATOM      7  C6  UNL d   1       4.086   3.624   0.636  0.00  0.00    -0.001 A 
ENDROOT
TORSDOF 0
ENDMDL
