MODEL 1
REMARK minimizedAffinity 9.20279217
REMARK minimizedRMSD -1
REMARK  0 active torsions:
REMARK  status: ('A' for Active; 'I' for Inactive)
ROOT
ATOM      1  C4' PXY d   1       3.063  -3.160   2.797  0.00  0.00     0.077 C 
ATOM      2  C1' PXY d   1       5.790  -5.024  -1.947  0.00  0.00     0.077 C 
ATOM      3  C1  PXY d   1       5.065  -4.531  -0.711  0.00  0.00    -0.082 A 
ATOM      4  C2  PXY d   1       5.759  -4.198   0.365  0.00  0.00     0.003 A 
ATOM      5  C3  PXY d   1       5.117  -3.781   1.503  0.00  0.00     0.003 A 
ATOM      6  C4  PXY d   1       3.754  -3.653   1.522  0.00  0.00    -0.082 A 
ATOM      7  C5  PXY d   1       3.039  -3.982   0.425  0.00  0.00     0.003 A 
ATOM      8  C6  PXY d   1       3.707  -4.442  -0.706  0.00  0.00     0.003 A 
ENDROOT
TORSDOF 0
ENDMDL
