MODEL 1
REMARK minimizedAffinity 7.19000196
REMARK minimizedRMSD -1
REMARK  0 active torsions:
REMARK  status: ('A' for Active; 'I' for Inactive)
ROOT
ATOM      1  C4' PXY d   1      -3.986  -1.524  -1.660  0.00  0.00     0.077 C 
ATOM      2  C1' PXY d   1      -3.664   0.580   3.714  0.00  0.00     0.077 C 
ATOM      3  C1  PXY d   1      -3.759   0.036   2.302  0.00  0.00    -0.082 A 
ATOM      4  C2  PXY d   1      -3.269  -1.162   2.029  0.00  0.00     0.003 A 
ATOM      5  C3  PXY d   1      -3.317  -1.656   0.751  0.00  0.00     0.003 A 
ATOM      6  C4  PXY d   1      -3.921  -0.939  -0.247  0.00  0.00    -0.082 A 
ATOM      7  C5  PXY d   1      -4.434   0.280   0.027  0.00  0.00     0.003 A 
ATOM      8  C6  PXY d   1      -4.337   0.781   1.322  0.00  0.00     0.003 A 
ENDROOT
TORSDOF 0
ENDMDL
