MODEL 1
REMARK minimizedAffinity 4.73103619
REMARK minimizedRMSD -1
REMARK  0 active torsions:
REMARK  status: ('A' for Active; 'I' for Inactive)
ROOT
ATOM      1  C4' PXY d   1       5.835  -4.538   1.111  0.00  0.00     0.077 C 
ATOM      2  C1' PXY d   1       0.582  -2.257   1.897  0.00  0.00     0.077 C 
ATOM      3  C1  PXY d   1       1.965  -2.845   1.697  0.00  0.00    -0.082 A 
ATOM      4  C2  PXY d   1       2.180  -3.688   0.700  0.00  0.00     0.003 A 
ATOM      5  C3  PXY d   1       3.416  -4.254   0.524  0.00  0.00     0.003 A 
ATOM      6  C4  PXY d   1       4.458  -3.912   1.345  0.00  0.00    -0.082 A 
ATOM      7  C5  PXY d   1       4.249  -3.044   2.358  0.00  0.00     0.003 A 
ATOM      8  C6  PXY d   1       2.977  -2.513   2.545  0.00  0.00     0.003 A 
ENDROOT
TORSDOF 0
ENDMDL
