MODEL 1
REMARK minimizedAffinity 6.06114626
REMARK minimizedRMSD -1
REMARK  0 active torsions:
REMARK  status: ('A' for Active; 'I' for Inactive)
ROOT
ATOM      1  C4' PXY d   1      -2.983   3.492  -2.413  0.00  0.00     0.077 C 
ATOM      2  C1' PXY d   1       1.548   0.006  -1.557  0.00  0.00     0.077 C 
ATOM      3  C1  PXY d   1       0.368   0.931  -1.781  0.00  0.00    -0.082 A 
ATOM      4  C2  PXY d   1      -0.853   0.518  -1.480  0.00  0.00     0.003 A 
ATOM      5  C3  PXY d   1      -1.935   1.329  -1.706  0.00  0.00     0.003 A 
ATOM      6  C4  PXY d   1      -1.761   2.596  -2.195  0.00  0.00    -0.082 A 
ATOM      7  C5  PXY d   1      -0.518   3.029  -2.494  0.00  0.00     0.003 A 
ATOM      8  C6  PXY d   1       0.563   2.175  -2.296  0.00  0.00     0.003 A 
ENDROOT
TORSDOF 0
ENDMDL
