MODEL 1
REMARK minimizedAffinity 10.8605537
REMARK minimizedRMSD -1
REMARK  0 active torsions:
REMARK  status: ('A' for Active; 'I' for Inactive)
ROOT
ATOM      1  C4' PXY d   1       5.999  -6.000  -1.259  0.00  0.00     0.077 C 
ATOM      2  C1' PXY d   1       3.287  -3.084   2.932  0.00  0.00     0.077 C 
ATOM      3  C1  PXY d   1       3.991  -3.859   1.835  0.00  0.00    -0.082 A 
ATOM      4  C2  PXY d   1       5.224  -3.529   1.488  0.00  0.00     0.003 A 
ATOM      5  C3  PXY d   1       5.864  -4.198   0.477  0.00  0.00     0.003 A 
ATOM      6  C4  PXY d   1       5.254  -5.251  -0.151  0.00  0.00    -0.082 A 
ATOM      7  C5  PXY d   1       3.999  -5.602   0.205  0.00  0.00     0.003 A 
ATOM      8  C6  PXY d   1       3.352  -4.883   1.206  0.00  0.00     0.003 A 
ENDROOT
TORSDOF 0
ENDMDL
