MODEL 1
REMARK minimizedAffinity 8.04863071
REMARK minimizedRMSD -1
REMARK  0 active torsions:
REMARK  status: ('A' for Active; 'I' for Inactive)
ROOT
ATOM      1  C4' PXY d   1       5.576  -4.433   0.931  0.00  0.00     0.077 C 
ATOM      2  C1' PXY d   1       0.285  -2.501   2.230  0.00  0.00     0.077 C 
ATOM      3  C1  PXY d   1       1.671  -3.017   1.897  0.00  0.00    -0.082 A 
ATOM      4  C2  PXY d   1       2.585  -2.183   1.429  0.00  0.00     0.003 A 
ATOM      5  C3  PXY d   1       3.834  -2.640   1.093  0.00  0.00     0.003 A 
ATOM      6  C4  PXY d   1       4.167  -3.954   1.289  0.00  0.00    -0.082 A 
ATOM      7  C5  PXY d   1       3.243  -4.809   1.777  0.00  0.00     0.003 A 
ATOM      8  C6  PXY d   1       1.969  -4.333   2.073  0.00  0.00     0.003 A 
ENDROOT
TORSDOF 0
ENDMDL
