MODEL 1
REMARK minimizedAffinity 11.2598972
REMARK minimizedRMSD -1
REMARK  0 active torsions:
REMARK  status: ('A' for Active; 'I' for Inactive)
ROOT
ATOM      1  C4' PXY d   1      -1.545  -2.172   3.272  0.00  0.00     0.077 C 
ATOM      2  C1' PXY d   1       3.112  -4.816   1.095  0.00  0.00     0.077 C 
ATOM      3  C1  PXY d   1       1.883  -4.133   1.663  0.00  0.00    -0.082 A 
ATOM      4  C2  PXY d   1       1.846  -2.813   1.739  0.00  0.00     0.003 A 
ATOM      5  C3  PXY d   1       0.756  -2.180   2.279  0.00  0.00     0.003 A 
ATOM      6  C4  PXY d   1      -0.329  -2.904   2.697  0.00  0.00    -0.082 A 
ATOM      7  C5  PXY d   1      -0.303  -4.251   2.612  0.00  0.00     0.003 A 
ATOM      8  C6  PXY d   1       0.830  -4.876   2.099  0.00  0.00     0.003 A 
ENDROOT
TORSDOF 0
ENDMDL
