MODEL 1
REMARK minimizedAffinity 12.3264246
REMARK minimizedRMSD -1
REMARK  0 active torsions:
REMARK  status: ('A' for Active; 'I' for Inactive)
ROOT
ATOM      1  C4' PXY d   1      -0.827   4.926  -5.693  0.00  0.00     0.077 C 
ATOM      2  C1' PXY d   1      -5.894   2.592  -4.177  0.00  0.00     0.077 C 
ATOM      3  C1  PXY d   1      -4.561   3.203  -4.562  0.00  0.00    -0.082 A 
ATOM      4  C2  PXY d   1      -4.487   4.000  -5.616  0.00  0.00     0.003 A 
ATOM      5  C3  PXY d   1      -3.283   4.535  -5.997  0.00  0.00     0.003 A 
ATOM      6  C4  PXY d   1      -2.154   4.295  -5.261  0.00  0.00    -0.082 A 
ATOM      7  C5  PXY d   1      -2.224   3.492  -4.178  0.00  0.00     0.003 A 
ATOM      8  C6  PXY d   1      -3.447   2.925  -3.832  0.00  0.00     0.003 A 
ENDROOT
TORSDOF 0
ENDMDL
