MODEL 1
REMARK minimizedAffinity 4.40269279
REMARK minimizedRMSD -1
REMARK  0 active torsions:
REMARK  status: ('A' for Active; 'I' for Inactive)
ROOT
ATOM      1  C4' PXY d   1       6.000  -5.093  -0.369  0.00  0.00     0.077 C 
ATOM      2  C1' PXY d   1       1.149  -2.901   1.886  0.00  0.00     0.077 C 
ATOM      3  C1  PXY d   1       2.427  -3.465   1.297  0.00  0.00    -0.082 A 
ATOM      4  C2  PXY d   1       2.364  -4.457   0.424  0.00  0.00     0.003 A 
ATOM      5  C3  PXY d   1       3.511  -4.999  -0.094  0.00  0.00     0.003 A 
ATOM      6  C4  PXY d   1       4.735  -4.486   0.244  0.00  0.00    -0.082 A 
ATOM      7  C5  PXY d   1       4.808  -3.467   1.127  0.00  0.00     0.003 A 
ATOM      8  C6  PXY d   1       3.633  -2.958   1.673  0.00  0.00     0.003 A 
ENDROOT
TORSDOF 0
ENDMDL
