MODEL 1
REMARK minimizedAffinity 2.2091372
REMARK minimizedRMSD -1
REMARK  0 active torsions:
REMARK  status: ('A' for Active; 'I' for Inactive)
ROOT
ATOM      1  C4' PXY d   1      -2.051  -4.109   3.333  0.00  0.00     0.077 C 
ATOM      2  C1' PXY d   1       3.215  -2.877   1.293  0.00  0.00     0.077 C 
ATOM      3  C1  PXY d   1       1.835  -3.190   1.836  0.00  0.00    -0.082 A 
ATOM      4  C2  PXY d   1       1.361  -4.422   1.747  0.00  0.00     0.003 A 
ATOM      5  C3  PXY d   1       0.102  -4.716   2.205  0.00  0.00     0.003 A 
ATOM      6  C4  PXY d   1      -0.659  -3.750   2.807  0.00  0.00    -0.082 A 
ATOM      7  C5  PXY d   1      -0.178  -2.493   2.911  0.00  0.00     0.003 A 
ATOM      8  C6  PXY d   1       1.086  -2.206   2.403  0.00  0.00     0.003 A 
ENDROOT
TORSDOF 0
ENDMDL
