MODEL 1
REMARK minimizedAffinity 14.647419
REMARK minimizedRMSD -1
REMARK  0 active torsions:
REMARK  status: ('A' for Active; 'I' for Inactive)
ROOT
ATOM      1  C4' PXY d   1      -0.994  -0.443  -0.687  0.00  0.00     0.077 C 
ATOM      2  C1' PXY d   1      -5.774  -1.444  -3.780  0.00  0.00     0.077 C 
ATOM      3  C1  PXY d   1      -4.524  -1.169  -2.969  0.00  0.00    -0.082 A 
ATOM      4  C2  PXY d   1      -3.513  -2.021  -3.016  0.00  0.00     0.003 A 
ATOM      5  C3  PXY d   1      -2.387  -1.804  -2.264  0.00  0.00     0.003 A 
ATOM      6  C4  PXY d   1      -2.273  -0.676  -1.497  0.00  0.00    -0.082 A 
ATOM      7  C5  PXY d   1      -3.296   0.205  -1.453  0.00  0.00     0.003 A 
ATOM      8  C6  PXY d   1      -4.446  -0.055  -2.191  0.00  0.00     0.003 A 
ENDROOT
TORSDOF 0
ENDMDL
