MODEL 1
REMARK minimizedAffinity -5.5906539
REMARK minimizedRMSD -1
REMARK  1 active torsions:
REMARK  status: ('A' for Active; 'I' for Inactive)
REMARK    1  A    between atoms: C1_2  and  C2_3 
ROOT
ATOM      1  C2  UNL d   1      -0.062  -0.085  -0.005  0.00  0.00    -0.073 A 
ATOM      2  C3  UNL d   1       0.249  -1.449  -0.000  0.00  0.00    -0.002 A 
ATOM      3  C4  UNL d   1       1.567  -1.871   0.181  0.00  0.00     0.004 A 
ATOM      4  C5  UNL d   1       2.585  -0.934   0.365  0.00  0.00    -0.004 A 
ATOM      5  C6  UNL d   1       2.292   0.433   0.375  0.00  0.00    -0.075 A 
ATOM      6  C7  UNL d   1       3.375   1.453   0.570  0.00  0.00     0.076 C 
ATOM      7  C8  UNL d   1       0.966   0.849   0.190  0.00  0.00     0.001 A 
ENDROOT
BRANCH   1   8
ATOM      8  C1  UNL d   1      -1.485   0.375  -0.194  0.00  0.00     0.053 C 
ATOM      9  C   UNL d   1      -2.142   0.750   1.124  0.00  0.00     0.018 C 
ENDBRANCH   1   8
TORSDOF 1
ENDMDL
