MODEL 1
REMARK minimizedAffinity -4.23926163
REMARK minimizedRMSD -1
REMARK  1 active torsions:
REMARK  status: ('A' for Active; 'I' for Inactive)
REMARK    1  A    between atoms: C1_2  and  C2_3 
ROOT
ATOM      1  C2  UNL d   1      -0.704   0.330  -0.111  0.00  0.00    -0.073 A 
ATOM      2  C3  UNL d   1      -0.260   1.636  -0.348  0.00  0.00    -0.002 A 
ATOM      3  C4  UNL d   1       1.086   1.964  -0.183  0.00  0.00     0.004 A 
ATOM      4  C5  UNL d   1       2.003   0.990   0.213  0.00  0.00    -0.004 A 
ATOM      5  C6  UNL d   1       1.581  -0.324   0.443  0.00  0.00    -0.075 A 
ATOM      6  C7  UNL d   1       2.554  -1.383   0.872  0.00  0.00     0.076 C 
ATOM      7  C8  UNL d   1       0.227  -0.645   0.278  0.00  0.00     0.001 A 
ENDROOT
BRANCH   1   8
ATOM      8  C1  UNL d   1      -2.155  -0.031  -0.294  0.00  0.00     0.053 C 
ATOM      9  C   UNL d   1      -3.080   0.964   0.390  0.00  0.00     0.018 C 
ENDBRANCH   1   8
TORSDOF 1
ENDMDL
