MODEL 1
REMARK minimizedAffinity -4.29337835
REMARK minimizedRMSD -1
REMARK  0 active torsions:
REMARK  status: ('A' for Active; 'I' for Inactive)
ROOT
ATOM      1  O1  BZF d   1       0.776   0.687  -1.135  0.00  0.00    -0.204 OA
ATOM      2  C2  BZF d   1       0.618  -0.442  -0.356  0.00  0.00     0.174 A 
ATOM      3  C3  BZF d   1      -0.154  -0.178   0.718  0.00  0.00    -0.012 A 
ATOM      4  C3A BZF d   1      -0.575   1.180   0.554  0.00  0.00    -0.107 A 
ATOM      5  C4  BZF d   1      -1.372   2.011   1.289  0.00  0.00     0.055 A 
ATOM      6  C5  BZF d   1      -1.523   3.301   0.892  0.00  0.00    -0.016 A 
ATOM      7  C6  BZF d   1      -0.890   3.795  -0.230  0.00  0.00     0.022 A 
ATOM      8  C7  BZF d   1      -0.094   3.007  -0.993  0.00  0.00     0.029 A 
ATOM      9  C7A BZF d   1       0.035   1.694  -0.613  0.00  0.00     0.058 A 
ENDROOT
TORSDOF 0
ENDMDL
