MODEL 1
REMARK minimizedAffinity -6.5456748
REMARK minimizedRMSD -1
REMARK  0 active torsions:
REMARK  status: ('A' for Active; 'I' for Inactive)
ROOT
ATOM      1  O1  BZF d   1       0.235   0.900  -0.512  0.00  0.00    -0.204 OA
ATOM      2  C2  BZF d   1       0.207  -0.363   0.048  0.00  0.00     0.174 A 
ATOM      3  C3  BZF d   1      -0.619  -0.395   1.113  0.00  0.00    -0.012 A 
ATOM      4  C3A BZF d   1      -1.210   0.907   1.171  0.00  0.00    -0.107 A 
ATOM      5  C4  BZF d   1      -2.127   1.486   2.001  0.00  0.00     0.055 A 
ATOM      6  C5  BZF d   1      -2.436   2.798   1.830  0.00  0.00    -0.016 A 
ATOM      7  C6  BZF d   1      -1.846   3.561   0.845  0.00  0.00     0.022 A 
ATOM      8  C7  BZF d   1      -0.934   3.030  -0.006  0.00  0.00     0.029 A 
ATOM      9  C7A BZF d   1      -0.644   1.696   0.143  0.00  0.00     0.058 A 
ENDROOT
TORSDOF 0
ENDMDL
