MODEL 1
REMARK minimizedAffinity -4.84540081
REMARK minimizedRMSD -1
REMARK  0 active torsions:
REMARK  status: ('A' for Active; 'I' for Inactive)
ROOT
ATOM      1  O1  BZF d   1       0.833   0.094  -1.464  0.00  0.00    -0.204 OA
ATOM      2  C2  BZF d   1       0.655  -1.102  -0.796  0.00  0.00     0.174 A 
ATOM      3  C3  BZF d   1       0.013  -0.907   0.373  0.00  0.00    -0.012 A 
ATOM      4  C3A BZF d   1      -0.307   0.488   0.398  0.00  0.00    -0.107 A 
ATOM      5  C4  BZF d   1      -0.960   1.286   1.294  0.00  0.00     0.055 A 
ATOM      6  C5  BZF d   1      -1.040   2.621   1.054  0.00  0.00    -0.016 A 
ATOM      7  C6  BZF d   1      -0.476   3.191  -0.069  0.00  0.00     0.022 A 
ATOM      8  C7  BZF d   1       0.177   2.440  -0.989  0.00  0.00     0.029 A 
ATOM      9  C7A BZF d   1       0.231   1.086  -0.765  0.00  0.00     0.058 A 
ENDROOT
TORSDOF 0
ENDMDL
