MODEL 1
REMARK minimizedAffinity -6.04469728
REMARK minimizedRMSD -1
REMARK  0 active torsions:
REMARK  status: ('A' for Active; 'I' for Inactive)
ROOT
ATOM      1  O1  BZF d   1       0.602   0.854  -0.879  0.00  0.00    -0.204 OA
ATOM      2  C2  BZF d   1       0.379  -0.342  -0.225  0.00  0.00     0.174 A 
ATOM      3  C3  BZF d   1      -0.679  -0.243   0.605  0.00  0.00    -0.012 A 
ATOM      4  C3A BZF d   1      -1.204   1.071   0.392  0.00  0.00    -0.107 A 
ATOM      5  C4  BZF d   1      -2.264   1.755   0.914  0.00  0.00     0.055 A 
ATOM      6  C5  BZF d   1      -2.460   3.049   0.549  0.00  0.00    -0.016 A 
ATOM      7  C6  BZF d   1      -1.613   3.691  -0.331  0.00  0.00     0.022 A 
ATOM      8  C7  BZF d   1      -0.551   3.052  -0.879  0.00  0.00     0.029 A 
ATOM      9  C7A BZF d   1      -0.370   1.735  -0.538  0.00  0.00     0.058 A 
ENDROOT
TORSDOF 0
ENDMDL
