MODEL 1
REMARK minimizedAffinity -5.97180843
REMARK minimizedRMSD -1
REMARK  0 active torsions:
REMARK  status: ('A' for Active; 'I' for Inactive)
ROOT
ATOM      1  O1  BZF d   1       0.439   0.281  -0.487  0.00  0.00    -0.204 OA
ATOM      2  C2  BZF d   1       0.361  -0.854   0.297  0.00  0.00     0.174 A 
ATOM      3  C3  BZF d   1      -0.446  -0.649   1.357  0.00  0.00    -0.012 A 
ATOM      4  C3A BZF d   1      -0.974   0.669   1.179  0.00  0.00    -0.107 A 
ATOM      5  C4  BZF d   1      -1.848   1.436   1.896  0.00  0.00     0.055 A 
ATOM      6  C5  BZF d   1      -2.098   2.708   1.488  0.00  0.00    -0.016 A 
ATOM      7  C6  BZF d   1      -1.489   3.247   0.374  0.00  0.00     0.022 A 
ATOM      8  C7  BZF d   1      -0.619   2.523  -0.372  0.00  0.00     0.029 A 
ATOM      9  C7A BZF d   1      -0.390   1.226   0.018  0.00  0.00     0.058 A 
ENDROOT
TORSDOF 0
ENDMDL
