MODEL 1
REMARK minimizedAffinity -2.25747252
REMARK minimizedRMSD -1
REMARK  0 active torsions:
REMARK  status: ('A' for Active; 'I' for Inactive)
ROOT
ATOM      1  O1  BZF d   1       0.337   2.723  -0.764  0.00  0.00    -0.204 OA
ATOM      2  C2  BZF d   1      -0.034   3.991  -0.360  0.00  0.00     0.174 A 
ATOM      3  C3  BZF d   1      -0.795   3.934   0.752  0.00  0.00    -0.012 A 
ATOM      4  C3A BZF d   1      -0.829   2.551   1.115  0.00  0.00    -0.107 A 
ATOM      5  C4  BZF d   1      -1.413   1.863   2.141  0.00  0.00     0.055 A 
ATOM      6  C5  BZF d   1      -1.315   0.508   2.167  0.00  0.00    -0.016 A 
ATOM      7  C6  BZF d   1      -0.648  -0.191   1.183  0.00  0.00     0.022 A 
ATOM      8  C7  BZF d   1      -0.049   0.447   0.148  0.00  0.00     0.029 A 
ATOM      9  C7A BZF d   1      -0.117   1.819   0.137  0.00  0.00     0.058 A 
ENDROOT
TORSDOF 0
ENDMDL
