MODEL 1
REMARK minimizedAffinity -1.26674545
REMARK minimizedRMSD -1
REMARK  0 active torsions:
REMARK  status: ('A' for Active; 'I' for Inactive)
ROOT
ATOM      1  O1  BZF d   1       1.198  -0.184  -0.746  0.00  0.00    -0.204 OA
ATOM      2  C2  BZF d   1       0.261  -0.018   0.256  0.00  0.00     0.174 A 
ATOM      3  C3  BZF d   1      -0.600  -1.056   0.282  0.00  0.00    -0.012 A 
ATOM      4  C3A BZF d   1      -0.118  -1.969  -0.709  0.00  0.00    -0.107 A 
ATOM      5  C4  BZF d   1      -0.540  -3.194  -1.142  0.00  0.00     0.055 A 
ATOM      6  C5  BZF d   1       0.109  -3.788  -2.177  0.00  0.00    -0.016 A 
ATOM      7  C6  BZF d   1       1.179  -3.186  -2.805  0.00  0.00     0.022 A 
ATOM      8  C7  BZF d   1       1.638  -1.974  -2.407  0.00  0.00     0.029 A 
ATOM      9  C7A BZF d   1       1.004  -1.385  -1.340  0.00  0.00     0.058 A 
ENDROOT
TORSDOF 0
ENDMDL
