MODEL 1
REMARK minimizedAffinity -4.17202377
REMARK minimizedRMSD -1
REMARK  0 active torsions:
REMARK  status: ('A' for Active; 'I' for Inactive)
ROOT
ATOM      1  O1  BZF d   1       0.452   2.419  -0.822  0.00  0.00    -0.204 OA
ATOM      2  C2  BZF d   1      -0.005   3.613  -0.297  0.00  0.00     0.174 A 
ATOM      3  C3  BZF d   1      -0.711   3.399   0.833  0.00  0.00    -0.012 A 
ATOM      4  C3A BZF d   1      -0.616   1.992   1.076  0.00  0.00    -0.107 A 
ATOM      5  C4  BZF d   1      -1.098   1.175   2.058  0.00  0.00     0.055 A 
ATOM      6  C5  BZF d   1      -0.889  -0.165   1.963  0.00  0.00    -0.016 A 
ATOM      7  C6  BZF d   1      -0.208  -0.720   0.899  0.00  0.00     0.022 A 
ATOM      8  C7  BZF d   1       0.292   0.051  -0.096  0.00  0.00     0.029 A 
ATOM      9  C7A BZF d   1       0.112   1.408   0.013  0.00  0.00     0.058 A 
ENDROOT
TORSDOF 0
ENDMDL
