MODEL 1
REMARK minimizedAffinity 2.13462806
REMARK minimizedRMSD -1
REMARK  0 active torsions:
REMARK  status: ('A' for Active; 'I' for Inactive)
ROOT
ATOM      1  O1  BZF d   1       0.543   0.180  -0.259  0.00  0.00    -0.204 OA
ATOM      2  C2  BZF d   1       0.053  -0.138   0.992  0.00  0.00     0.174 A 
ATOM      3  C3  BZF d   1      -0.213  -1.457   1.081  0.00  0.00    -0.012 A 
ATOM      4  C3A BZF d   1       0.219  -2.013  -0.165  0.00  0.00    -0.107 A 
ATOM      5  C4  BZF d   1       0.231  -3.280  -0.674  0.00  0.00     0.055 A 
ATOM      6  C5  BZF d   1       0.652  -3.475  -1.951  0.00  0.00    -0.016 A 
ATOM      7  C6  BZF d   1       1.061  -2.426  -2.749  0.00  0.00     0.022 A 
ATOM      8  C7  BZF d   1       1.071  -1.152  -2.286  0.00  0.00     0.029 A 
ATOM      9  C7A BZF d   1       0.678  -0.956  -0.985  0.00  0.00     0.058 A 
ENDROOT
TORSDOF 0
ENDMDL
