MODEL 1
REMARK minimizedAffinity -6.42657614
REMARK minimizedRMSD -1
REMARK  0 active torsions:
REMARK  status: ('A' for Active; 'I' for Inactive)
ROOT
ATOM      1  O1  BZF d   1       0.483   0.621   0.180  0.00  0.00    -0.204 OA
ATOM      2  C2  BZF d   1       0.100  -0.557   0.793  0.00  0.00     0.174 A 
ATOM      3  C3  BZF d   1      -1.043  -0.385   1.488  0.00  0.00    -0.012 A 
ATOM      4  C3A BZF d   1      -1.446   0.962   1.222  0.00  0.00    -0.107 A 
ATOM      5  C4  BZF d   1      -2.513   1.718   1.617  0.00  0.00     0.055 A 
ATOM      6  C5  BZF d   1      -2.573   3.023   1.241  0.00  0.00    -0.016 A 
ATOM      7  C6  BZF d   1      -1.583   3.604   0.476  0.00  0.00     0.022 A 
ATOM      8  C7  BZF d   1      -0.508   2.893   0.057  0.00  0.00     0.029 A 
ATOM      9  C7A BZF d   1      -0.460   1.566   0.408  0.00  0.00     0.058 A 
ENDROOT
TORSDOF 0
ENDMDL
