MODEL 1
REMARK minimizedAffinity -2.21896386
REMARK minimizedRMSD -1
REMARK  0 active torsions:
REMARK  status: ('A' for Active; 'I' for Inactive)
ROOT
ATOM      1  O1  BZF d   1       1.228  -0.253  -0.750  0.00  0.00    -0.204 OA
ATOM      2  C2  BZF d   1       0.939  -1.221   0.193  0.00  0.00     0.174 A 
ATOM      3  C3  BZF d   1       0.458  -0.660   1.321  0.00  0.00    -0.012 A 
ATOM      4  C3A BZF d   1       0.358   0.738   1.034  0.00  0.00    -0.107 A 
ATOM      5  C4  BZF d   1      -0.069   1.816   1.755  0.00  0.00     0.055 A 
ATOM      6  C5  BZF d   1       0.031   3.057   1.209  0.00  0.00    -0.016 A 
ATOM      7  C6  BZF d   1       0.557   3.256  -0.050  0.00  0.00     0.022 A 
ATOM      8  C7  BZF d   1       0.989   2.217  -0.805  0.00  0.00     0.029 A 
ATOM      9  C7A BZF d   1       0.859   0.959  -0.270  0.00  0.00     0.058 A 
ENDROOT
TORSDOF 0
ENDMDL
