MODEL 1
REMARK minimizedAffinity -0.415570021
REMARK minimizedRMSD -1
REMARK  0 active torsions:
REMARK  status: ('A' for Active; 'I' for Inactive)
ROOT
ATOM      1  O1  BZF d   1       0.961   0.854  -1.253  0.00  0.00    -0.204 OA
ATOM      2  C2  BZF d   1       0.891  -0.487  -0.930  0.00  0.00     0.174 A 
ATOM      3  C3  BZF d   1       0.258  -0.663   0.248  0.00  0.00    -0.012 A 
ATOM      4  C3A BZF d   1      -0.172   0.643   0.643  0.00  0.00    -0.107 A 
ATOM      5  C4  BZF d   1      -0.868   1.118   1.718  0.00  0.00     0.055 A 
ATOM      6  C5  BZF d   1      -1.059   2.458   1.842  0.00  0.00    -0.016 A 
ATOM      7  C6  BZF d   1      -0.563   3.351   0.915  0.00  0.00     0.022 A 
ATOM      8  C7  BZF d   1       0.129   2.927  -0.171  0.00  0.00     0.029 A 
ATOM      9  C7A BZF d   1       0.295   1.571  -0.316  0.00  0.00     0.058 A 
ENDROOT
TORSDOF 0
ENDMDL
