MODEL 1
REMARK minimizedAffinity -3.40585995
REMARK minimizedRMSD -1
REMARK  0 active torsions:
REMARK  status: ('A' for Active; 'I' for Inactive)
ROOT
ATOM      1  O1  BZF d   1       0.810   1.656  -0.757  0.00  0.00    -0.204 OA
ATOM      2  C2  BZF d   1       1.156   0.374  -1.140  0.00  0.00     0.174 A 
ATOM      3  C3  BZF d   1       0.542  -0.540  -0.360  0.00  0.00    -0.012 A 
ATOM      4  C3A BZF d   1      -0.307   0.216   0.509  0.00  0.00    -0.107 A 
ATOM      5  C4  BZF d   1      -1.182  -0.129   1.499  0.00  0.00     0.055 A 
ATOM      6  C5  BZF d   1      -1.800   0.854   2.205  0.00  0.00    -0.016 A 
ATOM      7  C6  BZF d   1      -1.563   2.189   1.952  0.00  0.00     0.022 A 
ATOM      8  C7  BZF d   1      -0.707   2.580   0.977  0.00  0.00     0.029 A 
ATOM      9  C7A BZF d   1      -0.106   1.589   0.239  0.00  0.00     0.058 A 
ENDROOT
TORSDOF 0
ENDMDL
