MODEL 1
REMARK minimizedAffinity -6.14898205
REMARK minimizedRMSD -1
REMARK  0 active torsions:
REMARK  status: ('A' for Active; 'I' for Inactive)
ROOT
ATOM      1  O1  BZF d   1       1.215   0.643  -0.594  0.00  0.00    -0.204 OA
ATOM      2  C2  BZF d   1       0.775  -0.522   0.004  0.00  0.00     0.174 A 
ATOM      3  C3  BZF d   1      -0.360  -0.303   0.699  0.00  0.00    -0.012 A 
ATOM      4  C3A BZF d   1      -0.697   1.064   0.448  0.00  0.00    -0.107 A 
ATOM      5  C4  BZF d   1      -1.728   1.865   0.849  0.00  0.00     0.055 A 
ATOM      6  C5  BZF d   1      -1.726   3.175   0.487  0.00  0.00    -0.016 A 
ATOM      7  C6  BZF d   1      -0.708   3.718  -0.269  0.00  0.00     0.022 A 
ATOM      8  C7  BZF d   1       0.334   2.961  -0.695  0.00  0.00     0.029 A 
ATOM      9  C7A BZF d   1       0.317   1.630  -0.358  0.00  0.00     0.058 A 
ENDROOT
TORSDOF 0
ENDMDL
