MODEL 1
REMARK minimizedAffinity -6.68950176
REMARK minimizedRMSD -1
REMARK  0 active torsions:
REMARK  status: ('A' for Active; 'I' for Inactive)
ROOT
ATOM      1  O1  BZF d   1       0.889   0.750  -0.363  0.00  0.00    -0.204 OA
ATOM      2  C2  BZF d   1       0.577  -0.432   0.281  0.00  0.00     0.174 A 
ATOM      3  C3  BZF d   1      -0.461  -0.258   1.125  0.00  0.00    -0.012 A 
ATOM      4  C3A BZF d   1      -0.879   1.097   0.932  0.00  0.00    -0.107 A 
ATOM      5  C4  BZF d   1      -1.875   1.859   1.474  0.00  0.00     0.055 A 
ATOM      6  C5  BZF d   1      -1.969   3.168   1.125  0.00  0.00    -0.016 A 
ATOM      7  C6  BZF d   1      -1.083   3.750   0.242  0.00  0.00     0.022 A 
ATOM      8  C7  BZF d   1      -0.082   3.034  -0.326  0.00  0.00     0.029 A 
ATOM      9  C7A BZF d   1      -0.004   1.702  -0.000  0.00  0.00     0.058 A 
ENDROOT
TORSDOF 0
ENDMDL
