MODEL 1
REMARK minimizedAffinity -6.42828894
REMARK minimizedRMSD -1
REMARK  0 active torsions:
REMARK  status: ('A' for Active; 'I' for Inactive)
ROOT
ATOM      1  O1  BZF d   1       1.168   2.100  -0.901  0.00  0.00    -0.204 OA
ATOM      2  C2  BZF d   1       1.458   0.759  -0.738  0.00  0.00     0.174 A 
ATOM      3  C3  BZF d   1       0.508   0.149  -0.001  0.00  0.00    -0.012 A 
ATOM      4  C3A BZF d   1      -0.483   1.153   0.240  0.00  0.00    -0.107 A 
ATOM      5  C4  BZF d   1      -1.677   1.153   0.902  0.00  0.00     0.055 A 
ATOM      6  C5  BZF d   1      -2.369   2.318   1.016  0.00  0.00    -0.016 A 
ATOM      7  C6  BZF d   1      -1.895   3.499   0.485  0.00  0.00     0.022 A 
ATOM      8  C7  BZF d   1      -0.717   3.547  -0.185  0.00  0.00     0.029 A 
ATOM      9  C7A BZF d   1      -0.032   2.366  -0.330  0.00  0.00     0.058 A 
ENDROOT
TORSDOF 0
ENDMDL
