MODEL 1
REMARK minimizedAffinity -1.96052861
REMARK minimizedRMSD -1
REMARK  0 active torsions:
REMARK  status: ('A' for Active; 'I' for Inactive)
ROOT
ATOM      1  C4' PXY d   1      -0.598   1.758  -2.171  0.00  0.00     0.077 C 
ATOM      2  C1' PXY d   1       0.308  -1.951   2.168  0.00  0.00     0.077 C 
ATOM      3  C1  PXY d   1       0.083  -0.979   1.027  0.00  0.00    -0.082 A 
ATOM      4  C2  PXY d   1      -0.926  -0.126   1.084  0.00  0.00     0.003 A 
ATOM      5  C3  PXY d   1      -1.163   0.738   0.046  0.00  0.00     0.003 A 
ATOM      6  C4  PXY d   1      -0.327   0.765  -1.038  0.00  0.00    -0.082 A 
ATOM      7  C5  PXY d   1       0.712  -0.095  -1.098  0.00  0.00     0.003 A 
ATOM      8  C6  PXY d   1       0.911  -0.992  -0.053  0.00  0.00     0.003 A 
ENDROOT
TORSDOF 0
ENDMDL
