MODEL 1
REMARK minimizedAffinity -2.1197772
REMARK minimizedRMSD -1
REMARK  0 active torsions:
REMARK  status: ('A' for Active; 'I' for Inactive)
ROOT
ATOM      1  C4' PXY d   1      -0.907   1.265  -2.080  0.00  0.00     0.077 C 
ATOM      2  C1' PXY d   1       0.540  -1.541   2.762  0.00  0.00     0.077 C 
ATOM      3  C1  PXY d   1       0.172  -0.808   1.487  0.00  0.00    -0.082 A 
ATOM      4  C2  PXY d   1      -0.789   0.102   1.510  0.00  0.00     0.003 A 
ATOM      5  C3  PXY d   1      -1.156   0.752   0.360  0.00  0.00     0.003 A 
ATOM      6  C4  PXY d   1      -0.496   0.507  -0.815  0.00  0.00    -0.082 A 
ATOM      7  C5  PXY d   1       0.493  -0.412  -0.844  0.00  0.00     0.003 A 
ATOM      8  C6  PXY d   1       0.822  -1.090   0.326  0.00  0.00     0.003 A 
ENDROOT
TORSDOF 0
ENDMDL
