MODEL 1
REMARK minimizedAffinity -0.507363558
REMARK minimizedRMSD -1
REMARK  0 active torsions:
REMARK  status: ('A' for Active; 'I' for Inactive)
ROOT
ATOM      1  C4' PXY d   1       2.581  -2.435   0.695  0.00  0.00     0.077 C 
ATOM      2  C1' PXY d   1      -0.750   1.558  -1.830  0.00  0.00     0.077 C 
ATOM      3  C1  PXY d   1       0.122   0.517  -1.156  0.00  0.00    -0.082 A 
ATOM      4  C2  PXY d   1       1.019  -0.145  -1.869  0.00  0.00     0.003 A 
ATOM      5  C3  PXY d   1       1.794  -1.113  -1.282  0.00  0.00     0.003 A 
ATOM      6  C4  PXY d   1       1.686  -1.368   0.058  0.00  0.00    -0.082 A 
ATOM      7  C5  PXY d   1       0.780  -0.690   0.794  0.00  0.00     0.003 A 
ATOM      8  C6  PXY d   1      -0.025   0.259   0.172  0.00  0.00     0.003 A 
ENDROOT
TORSDOF 0
ENDMDL
