MODEL 1
REMARK minimizedAffinity -0.738483191
REMARK minimizedRMSD -1
REMARK  0 active torsions:
REMARK  status: ('A' for Active; 'I' for Inactive)
ROOT
ATOM      1  C4' PXY d   1      -1.230   2.002  -2.369  0.00  0.00     0.077 C 
ATOM      2  C1' PXY d   1       0.127  -1.318   2.165  0.00  0.00     0.077 C 
ATOM      3  C1  PXY d   1      -0.217  -0.448   0.971  0.00  0.00    -0.082 A 
ATOM      4  C2  PXY d   1      -1.221   0.409   1.054  0.00  0.00     0.003 A 
ATOM      5  C3  PXY d   1      -1.566   1.180  -0.026  0.00  0.00     0.003 A 
ATOM      6  C4  PXY d   1      -0.841   1.111  -1.186  0.00  0.00    -0.082 A 
ATOM      7  C5  PXY d   1       0.191   0.246  -1.275  0.00  0.00     0.003 A 
ATOM      8  C6  PXY d   1       0.499  -0.557  -0.181  0.00  0.00     0.003 A 
ENDROOT
TORSDOF 0
ENDMDL
