MODEL 1
REMARK minimizedAffinity -2.09642577
REMARK minimizedRMSD -1
REMARK  0 active torsions:
REMARK  status: ('A' for Active; 'I' for Inactive)
ROOT
ATOM      1  C4' PXY d   1       1.207  -1.761   1.875  0.00  0.00     0.077 C 
ATOM      2  C1' PXY d   1      -1.226   1.362  -2.337  0.00  0.00     0.077 C 
ATOM      3  C1  PXY d   1      -0.591   0.553  -1.224  0.00  0.00    -0.082 A 
ATOM      4  C2  PXY d   1       0.293  -0.386  -1.520  0.00  0.00     0.003 A 
ATOM      5  C3  PXY d   1       0.854  -1.149  -0.529  0.00  0.00     0.003 A 
ATOM      6  C4  PXY d   1       0.547  -0.913   0.785  0.00  0.00    -0.082 A 
ATOM      7  C5  PXY d   1      -0.346   0.050   1.096  0.00  0.00     0.003 A 
ATOM      8  C6  PXY d   1      -0.935   0.786   0.072  0.00  0.00     0.003 A 
ENDROOT
TORSDOF 0
ENDMDL
