MODEL 1
REMARK minimizedAffinity -5.78599739
REMARK minimizedRMSD -1
REMARK  0 active torsions:
REMARK  status: ('A' for Active; 'I' for Inactive)
ROOT
ATOM      1  C4' PXY d   1      -0.298   0.251  -1.944  0.00  0.00     0.077 C 
ATOM      2  C1' PXY d   1       2.271  -1.285   3.001  0.00  0.00     0.077 C 
ATOM      3  C1  PXY d   1       1.609  -0.882   1.698  0.00  0.00    -0.082 A 
ATOM      4  C2  PXY d   1       0.442  -0.259   1.723  0.00  0.00     0.003 A 
ATOM      5  C3  PXY d   1      -0.186   0.084   0.553  0.00  0.00     0.003 A 
ATOM      6  C4  PXY d   1       0.412  -0.166  -0.653  0.00  0.00    -0.082 A 
ATOM      7  C5  PXY d   1       1.608  -0.791  -0.686  0.00  0.00     0.003 A 
ATOM      8  C6  PXY d   1       2.209  -1.168   0.511  0.00  0.00     0.003 A 
ENDROOT
TORSDOF 0
ENDMDL
