MODEL 1
REMARK minimizedAffinity -5.76713371
REMARK minimizedRMSD -1
REMARK  0 active torsions:
REMARK  status: ('A' for Active; 'I' for Inactive)
ROOT
ATOM      1  C4' PXY d   1      -0.754  -0.155  -0.241  0.00  0.00     0.077 C 
ATOM      2  C1' PXY d   1       3.091  -1.663   3.804  0.00  0.00     0.077 C 
ATOM      3  C1  PXY d   1       2.073  -1.267   2.752  0.00  0.00    -0.082 A 
ATOM      4  C2  PXY d   1       2.287  -1.581   1.485  0.00  0.00     0.003 A 
ATOM      5  C3  PXY d   1       1.392  -1.203   0.517  0.00  0.00     0.003 A 
ATOM      6  C4  PXY d   1       0.242  -0.543   0.856  0.00  0.00    -0.082 A 
ATOM      7  C5  PXY d   1       0.012  -0.228   2.149  0.00  0.00     0.003 A 
ATOM      8  C6  PXY d   1       0.952  -0.584   3.111  0.00  0.00     0.003 A 
ENDROOT
TORSDOF 0
ENDMDL
