MODEL 1
REMARK minimizedAffinity -5.36183167
REMARK minimizedRMSD -1
REMARK  0 active torsions:
REMARK  status: ('A' for Active; 'I' for Inactive)
ROOT
ATOM      1  C4' PXY d   1      -0.353   1.014  -0.598  0.00  0.00     0.077 C 
ATOM      2  C1' PXY d   1       2.426  -1.878   3.564  0.00  0.00     0.077 C 
ATOM      3  C1  PXY d   1       1.685  -1.125   2.477  0.00  0.00    -0.082 A 
ATOM      4  C2  PXY d   1       2.320  -0.790   1.365  0.00  0.00     0.003 A 
ATOM      5  C3  PXY d   1       1.675  -0.080   0.385  0.00  0.00     0.003 A 
ATOM      6  C4  PXY d   1       0.351   0.244   0.522  0.00  0.00    -0.082 A 
ATOM      7  C5  PXY d   1      -0.306  -0.103   1.649  0.00  0.00     0.003 A 
ATOM      8  C6  PXY d   1       0.378  -0.787   2.649  0.00  0.00     0.003 A 
ENDROOT
TORSDOF 0
ENDMDL
