MODEL 1
REMARK minimizedAffinity -5.55463839
REMARK minimizedRMSD -1
REMARK  0 active torsions:
REMARK  status: ('A' for Active; 'I' for Inactive)
ROOT
ATOM      1  C4' PXY d   1       3.158  -1.807   4.310  0.00  0.00     0.077 C 
ATOM      2  C1' PXY d   1       0.313  -0.210  -0.461  0.00  0.00     0.077 C 
ATOM      3  C1  PXY d   1       1.068  -0.634   0.783  0.00  0.00    -0.082 A 
ATOM      4  C2  PXY d   1       0.419  -0.768   1.928  0.00  0.00     0.003 A 
ATOM      5  C3  PXY d   1       1.092  -1.120   3.069  0.00  0.00     0.003 A 
ATOM      6  C4  PXY d   1       2.434  -1.390   3.027  0.00  0.00    -0.082 A 
ATOM      7  C5  PXY d   1       3.101  -1.266   1.860  0.00  0.00     0.003 A 
ATOM      8  C6  PXY d   1       2.407  -0.867   0.721  0.00  0.00     0.003 A 
ENDROOT
TORSDOF 0
ENDMDL
