MODEL 1
REMARK minimizedAffinity -4.09500933
REMARK minimizedRMSD -1
REMARK  0 active torsions:
REMARK  status: ('A' for Active; 'I' for Inactive)
ROOT
ATOM      1  C4' PXY d   1       0.254  -0.421   1.010  0.00  0.00     0.077 C 
ATOM      2  C1' PXY d   1      -0.909   3.039  -3.472  0.00  0.00     0.077 C 
ATOM      3  C1  PXY d   1      -0.612   2.123  -2.302  0.00  0.00    -0.082 A 
ATOM      4  C2  PXY d   1      -0.241   2.641  -1.143  0.00  0.00     0.003 A 
ATOM      5  C3  PXY d   1       0.063   1.825  -0.083  0.00  0.00     0.003 A 
ATOM      6  C4  PXY d   1      -0.066   0.467  -0.196  0.00  0.00    -0.082 A 
ATOM      7  C5  PXY d   1      -0.454  -0.069  -1.372  0.00  0.00     0.003 A 
ATOM      8  C6  PXY d   1      -0.718   0.774  -2.448  0.00  0.00     0.003 A 
ENDROOT
TORSDOF 0
ENDMDL
