MODEL 1
REMARK minimizedAffinity 1.28175831
REMARK minimizedRMSD -1
REMARK  0 active torsions:
REMARK  status: ('A' for Active; 'I' for Inactive)
ROOT
ATOM      1  C4' PXY d   1      -0.667   0.630  -1.790  0.00  0.00     0.077 C 
ATOM      2  C1' PXY d   1       1.033  -2.285   2.904  0.00  0.00     0.077 C 
ATOM      3  C1  PXY d   1       0.599  -1.520   1.668  0.00  0.00    -0.082 A 
ATOM      4  C2  PXY d   1      -0.515  -0.808   1.698  0.00  0.00     0.003 A 
ATOM      5  C3  PXY d   1      -0.938  -0.136   0.580  0.00  0.00     0.003 A 
ATOM      6  C4  PXY d   1      -0.186  -0.151  -0.564  0.00  0.00    -0.082 A 
ATOM      7  C5  PXY d   1       0.958  -0.867  -0.598  0.00  0.00     0.003 A 
ATOM      8  C6  PXY d   1       1.349  -1.575   0.534  0.00  0.00     0.003 A 
ENDROOT
TORSDOF 0
ENDMDL
