MODEL 1
REMARK minimizedAffinity -5.26973343
REMARK minimizedRMSD -1
REMARK  0 active torsions:
REMARK  status: ('A' for Active; 'I' for Inactive)
ROOT
ATOM      1  C4' PXY d   1      -1.146   0.140  -0.972  0.00  0.00     0.077 C 
ATOM      2  C1' PXY d   1       2.452  -0.822   3.448  0.00  0.00     0.077 C 
ATOM      3  C1  PXY d   1       1.498  -0.573   2.296  0.00  0.00    -0.082 A 
ATOM      4  C2  PXY d   1       1.940  -0.654   1.052  0.00  0.00     0.003 A 
ATOM      5  C3  PXY d   1       1.099  -0.401  -0.001  0.00  0.00     0.003 A 
ATOM      6  C4  PXY d   1      -0.221  -0.113   0.221  0.00  0.00    -0.082 A 
ATOM      7  C5  PXY d   1      -0.682  -0.039   1.488  0.00  0.00     0.003 A 
ATOM      8  C6  PXY d   1       0.198  -0.259   2.544  0.00  0.00     0.003 A 
ENDROOT
TORSDOF 0
ENDMDL
