MODEL 1
REMARK minimizedAffinity -4.36003017
REMARK minimizedRMSD -1
REMARK  0 active torsions:
REMARK  status: ('A' for Active; 'I' for Inactive)
ROOT
ATOM      1  C4' PXY d   1      -2.323   0.129   2.057  0.00  0.00     0.077 C 
ATOM      2  C1' PXY d   1       2.716  -1.997   0.186  0.00  0.00     0.077 C 
ATOM      3  C1  PXY d   1       1.395  -1.431   0.667  0.00  0.00    -0.082 A 
ATOM      4  C2  PXY d   1       1.042  -1.579   1.934  0.00  0.00     0.003 A 
ATOM      5  C3  PXY d   1      -0.164  -1.101   2.378  0.00  0.00     0.003 A 
ATOM      6  C4  PXY d   1      -0.994  -0.418   1.530  0.00  0.00    -0.082 A 
ATOM      7  C5  PXY d   1      -0.635  -0.253   0.239  0.00  0.00     0.003 A 
ATOM      8  C6  PXY d   1       0.574  -0.781  -0.202  0.00  0.00     0.003 A 
ENDROOT
TORSDOF 0
ENDMDL
