MODEL 1
REMARK minimizedAffinity -4.70596838
REMARK minimizedRMSD -1
REMARK  0 active torsions:
REMARK  status: ('A' for Active; 'I' for Inactive)
ROOT
ATOM      1  C4' PXY d   1       2.730  -2.051   2.913  0.00  0.00     0.077 C 
ATOM      2  C1' PXY d   1      -0.672   0.016  -1.278  0.00  0.00     0.077 C 
ATOM      3  C1  PXY d   1       0.225  -0.534  -0.188  0.00  0.00    -0.082 A 
ATOM      4  C2  PXY d   1      -0.127  -0.397   1.081  0.00  0.00     0.003 A 
ATOM      5  C3  PXY d   1       0.688  -0.861   2.081  0.00  0.00     0.003 A 
ATOM      6  C4  PXY d   1       1.850  -1.519   1.778  0.00  0.00    -0.082 A 
ATOM      7  C5  PXY d   1       2.211  -1.672   0.487  0.00  0.00     0.003 A 
ATOM      8  C6  PXY d   1       1.390  -1.158  -0.513  0.00  0.00     0.003 A 
ENDROOT
TORSDOF 0
ENDMDL
