MODEL 1
REMARK minimizedAffinity 0.775323987
REMARK minimizedRMSD -1
REMARK  0 active torsions:
REMARK  status: ('A' for Active; 'I' for Inactive)
ROOT
ATOM      1  C4' PXY d   1       3.222   2.419   1.927  0.00  0.00     0.077 C 
ATOM      2  C1' PXY d   1       0.130   6.000   5.247  0.00  0.00     0.077 C 
ATOM      3  C1  PXY d   1       0.952   5.068   4.379  0.00  0.00    -0.082 A 
ATOM      4  C2  PXY d   1       0.357   4.366   3.428  0.00  0.00     0.003 A 
ATOM      5  C3  PXY d   1       1.080   3.494   2.654  0.00  0.00     0.003 A 
ATOM      6  C4  PXY d   1       2.434   3.379   2.821  0.00  0.00    -0.082 A 
ATOM      7  C5  PXY d   1       3.049   4.100   3.782  0.00  0.00     0.003 A 
ATOM      8  C6  PXY d   1       2.291   4.948   4.584  0.00  0.00     0.003 A 
ENDROOT
TORSDOF 0
ENDMDL
