MODEL 1
REMARK minimizedAffinity 5.31229496
REMARK minimizedRMSD -1
REMARK  0 active torsions:
REMARK  status: ('A' for Active; 'I' for Inactive)
ROOT
ATOM      1  C4' PXY d   1      -0.385   4.579   4.128  0.00  0.00     0.077 C 
ATOM      2  C1' PXY d   1       5.004   5.996   5.666  0.00  0.00     0.077 C 
ATOM      3  C1  PXY d   1       3.594   5.624   5.251  0.00  0.00    -0.082 A 
ATOM      4  C2  PXY d   1       2.570   5.999   6.000  0.00  0.00     0.003 A 
ATOM      5  C3  PXY d   1       1.292   5.643   5.655  0.00  0.00     0.003 A 
ATOM      6  C4  PXY d   1       1.054   4.941   4.504  0.00  0.00    -0.082 A 
ATOM      7  C5  PXY d   1       2.093   4.563   3.729  0.00  0.00     0.003 A 
ATOM      8  C6  PXY d   1       3.386   4.899   4.118  0.00  0.00     0.003 A 
ENDROOT
TORSDOF 0
ENDMDL
