MODEL 1
REMARK minimizedAffinity 2.96312833
REMARK minimizedRMSD -1
REMARK  0 active torsions:
REMARK  status: ('A' for Active; 'I' for Inactive)
ROOT
ATOM      1  C4' PXY d   1      -0.519   4.558   3.743  0.00  0.00     0.077 C 
ATOM      2  C1' PXY d   1       4.837   5.661   5.616  0.00  0.00     0.077 C 
ATOM      3  C1  PXY d   1       3.437   5.368   5.113  0.00  0.00    -0.082 A 
ATOM      4  C2  PXY d   1       2.405   6.000   5.647  0.00  0.00     0.003 A 
ATOM      5  C3  PXY d   1       1.129   5.723   5.227  0.00  0.00     0.003 A 
ATOM      6  C4  PXY d   1       0.913   4.829   4.212  0.00  0.00    -0.082 A 
ATOM      7  C5  PXY d   1       1.962   4.189   3.655  0.00  0.00     0.003 A 
ATOM      8  C6  PXY d   1       3.245   4.453   4.124  0.00  0.00     0.003 A 
ENDROOT
TORSDOF 0
ENDMDL
