MODEL 1
REMARK minimizedAffinity 5.03497458
REMARK minimizedRMSD -1
REMARK  0 active torsions:
REMARK  status: ('A' for Active; 'I' for Inactive)
ROOT
ATOM      1  C4' PXY d   1      -0.669  -1.884   1.891  0.00  0.00     0.077 C 
ATOM      2  C1' PXY d   1       4.637  -1.823  -0.403  0.00  0.00     0.077 C 
ATOM      3  C1  PXY d   1       3.249  -1.829   0.207  0.00  0.00    -0.082 A 
ATOM      4  C2  PXY d   1       2.528  -2.938   0.181  0.00  0.00     0.003 A 
ATOM      5  C3  PXY d   1       1.259  -2.952   0.698  0.00  0.00     0.003 A 
ATOM      6  C4  PXY d   1       0.742  -1.834   1.296  0.00  0.00    -0.082 A 
ATOM      7  C5  PXY d   1       1.475  -0.702   1.336  0.00  0.00     0.003 A 
ATOM      8  C6  PXY d   1       2.746  -0.696   0.768  0.00  0.00     0.003 A 
ENDROOT
TORSDOF 0
ENDMDL
