MODEL 1
REMARK minimizedAffinity 0.878760576
REMARK minimizedRMSD -1
REMARK  0 active torsions:
REMARK  status: ('A' for Active; 'I' for Inactive)
ROOT
ATOM      1  C4' PXY d   1       4.787   6.000   5.338  0.00  0.00     0.077 C 
ATOM      2  C1' PXY d   1      -0.825   5.245   4.174  0.00  0.00     0.077 C 
ATOM      3  C1  PXY d   1       0.650   5.435   4.469  0.00  0.00    -0.082 A 
ATOM      4  C2  PXY d   1       1.033   5.793   5.684  0.00  0.00     0.003 A 
ATOM      5  C3  PXY d   1       2.360   6.000   5.960  0.00  0.00     0.003 A 
ATOM      6  C4  PXY d   1       3.310   5.787   4.997  0.00  0.00    -0.082 A 
ATOM      7  C5  PXY d   1       2.928   5.412   3.758  0.00  0.00     0.003 A 
ATOM      8  C6  PXY d   1       1.572   5.247   3.487  0.00  0.00     0.003 A 
ENDROOT
TORSDOF 0
ENDMDL
