MODEL 1
REMARK minimizedAffinity 2.35963106
REMARK minimizedRMSD -1
REMARK  0 active torsions:
REMARK  status: ('A' for Active; 'I' for Inactive)
ROOT
ATOM      1  C4' PXY d   1      -0.709   4.178   3.359  0.00  0.00     0.077 C 
ATOM      2  C1' PXY d   1       4.268   5.816   5.802  0.00  0.00     0.077 C 
ATOM      3  C1  PXY d   1       2.969   5.382   5.151  0.00  0.00    -0.082 A 
ATOM      4  C2  PXY d   1       1.842   5.999   5.465  0.00  0.00     0.003 A 
ATOM      5  C3  PXY d   1       0.654   5.598   4.910  0.00  0.00     0.003 A 
ATOM      6  C4  PXY d   1       0.627   4.589   3.985  0.00  0.00    -0.082 A 
ATOM      7  C5  PXY d   1       1.775   3.961   3.652  0.00  0.00     0.003 A 
ATOM      8  C6  PXY d   1       2.964   4.356   4.257  0.00  0.00     0.003 A 
ENDROOT
TORSDOF 0
ENDMDL
