MODEL 1
REMARK minimizedAffinity 2.17528057
REMARK minimizedRMSD -1
REMARK  0 active torsions:
REMARK  status: ('A' for Active; 'I' for Inactive)
ROOT
ATOM      1  C4' PXY d   1       3.460   3.003   1.883  0.00  0.00     0.077 C 
ATOM      2  C1' PXY d   1       0.721   6.000   5.998  0.00  0.00     0.077 C 
ATOM      3  C1  PXY d   1       1.451   5.218   4.924  0.00  0.00    -0.082 A 
ATOM      4  C2  PXY d   1       0.820   4.899   3.805  0.00  0.00     0.003 A 
ATOM      5  C3  PXY d   1       1.455   4.165   2.836  0.00  0.00     0.003 A 
ATOM      6  C4  PXY d   1       2.765   3.800   2.991  0.00  0.00    -0.082 A 
ATOM      7  C5  PXY d   1       3.419   4.131   4.125  0.00  0.00     0.003 A 
ATOM      8  C6  PXY d   1       2.744   4.841   5.114  0.00  0.00     0.003 A 
ENDROOT
TORSDOF 0
ENDMDL
