MODEL 1
REMARK minimizedAffinity -4.631145
REMARK minimizedRMSD -1
REMARK  1 active torsions:
REMARK  status: ('A' for Active; 'I' for Inactive)
REMARK    1  A    between atoms: C1_2  and  C2_3 
ROOT
ATOM      1  C2  UNL d   1       5.014   4.541  -4.765  0.00  0.00    -0.077 A 
ATOM      2  C3  UNL d   1       5.999   4.651  -3.773  0.00  0.00     0.002 A 
ATOM      3  C4  UNL d   1       5.750   5.379  -2.608  0.00  0.00     0.002 A 
ATOM      4  C5  UNL d   1       4.516   5.999  -2.422  0.00  0.00    -0.004 A 
ATOM      5  C6  UNL d   1       3.531   5.897  -3.404  0.00  0.00     0.002 A 
ATOM      6  C7  UNL d   1       3.778   5.171  -4.569  0.00  0.00     0.002 A 
ENDROOT
BRANCH   1   7
ATOM      7  C1  UNL d   1       5.262   3.714  -6.000  0.00  0.00     0.055 C 
ATOM      8  C   UNL d   1       5.586   2.271  -5.644  0.00  0.00     0.019 C 
ENDBRANCH   1   7
TORSDOF 1
ENDMDL
