MODEL 1
REMARK minimizedAffinity -5.34478521
REMARK minimizedRMSD -1
REMARK  1 active torsions:
REMARK  status: ('A' for Active; 'I' for Inactive)
REMARK    1  A    between atoms: C1_2  and  C2_3 
ROOT
ATOM      1  C2  UNL d   1       4.438   3.515  -4.840  0.00  0.00    -0.077 A 
ATOM      2  C3  UNL d   1       3.157   3.881  -4.402  0.00  0.00     0.002 A 
ATOM      3  C4  UNL d   1       3.002   4.793  -3.357  0.00  0.00     0.002 A 
ATOM      4  C5  UNL d   1       4.122   5.351  -2.745  0.00  0.00    -0.004 A 
ATOM      5  C6  UNL d   1       5.400   4.993  -3.172  0.00  0.00     0.002 A 
ATOM      6  C7  UNL d   1       5.557   4.080  -4.216  0.00  0.00     0.002 A 
ENDROOT
BRANCH   1   7
ATOM      7  C1  UNL d   1       4.607   2.569  -6.000  0.00  0.00     0.055 C 
ATOM      8  C   UNL d   1       5.065   1.196  -5.531  0.00  0.00     0.019 C 
ENDBRANCH   1   7
TORSDOF 1
ENDMDL
