MODEL 1
REMARK minimizedAffinity 6.59303713
REMARK minimizedRMSD -1
REMARK  1 active torsions:
REMARK  status: ('A' for Active; 'I' for Inactive)
REMARK    1  A    between atoms: C1_2  and  C2_3 
ROOT
ATOM      1  C2  UNL d   1       0.982  -3.439  -3.521  0.00  0.00    -0.077 A 
ATOM      2  C3  UNL d   1      -0.235  -3.481  -4.215  0.00  0.00     0.002 A 
ATOM      3  C4  UNL d   1      -1.363  -2.839  -3.701  0.00  0.00     0.002 A 
ATOM      4  C5  UNL d   1      -1.284  -2.147  -2.494  0.00  0.00    -0.004 A 
ATOM      5  C6  UNL d   1      -0.079  -2.101  -1.796  0.00  0.00     0.002 A 
ATOM      6  C7  UNL d   1       1.050  -2.744  -2.307  0.00  0.00     0.002 A 
ENDROOT
BRANCH   1   7
ATOM      7  C1  UNL d   1       2.213  -4.090  -4.097  0.00  0.00     0.055 C 
ATOM      8  C   UNL d   1       2.219  -4.013  -5.617  0.00  0.00     0.019 C 
ENDBRANCH   1   7
TORSDOF 1
ENDMDL
