MODEL 1
REMARK minimizedAffinity 0.169770971
REMARK minimizedRMSD -1
REMARK  1 active torsions:
REMARK  status: ('A' for Active; 'I' for Inactive)
REMARK    1  A    between atoms: C1_2  and  C2_3 
ROOT
ATOM      1  C2  UNL d   1       4.241  -3.062  -3.552  0.00  0.00    -0.077 A 
ATOM      2  C3  UNL d   1       5.228  -4.051  -3.428  0.00  0.00     0.002 A 
ATOM      3  C4  UNL d   1       5.999  -4.138  -2.268  0.00  0.00     0.002 A 
ATOM      4  C5  UNL d   1       5.790  -3.242  -1.222  0.00  0.00    -0.004 A 
ATOM      5  C6  UNL d   1       4.813  -2.253  -1.336  0.00  0.00     0.002 A 
ATOM      6  C7  UNL d   1       4.042  -2.165  -2.496  0.00  0.00     0.002 A 
ENDROOT
BRANCH   1   7
ATOM      7  C1  UNL d   1       3.375  -2.998  -4.782  0.00  0.00     0.055 C 
ATOM      8  C   UNL d   1       2.066  -3.748  -4.577  0.00  0.00     0.019 C 
ENDBRANCH   1   7
TORSDOF 1
ENDMDL
