MODEL 1
REMARK minimizedAffinity 3.14283872
REMARK minimizedRMSD -1
REMARK  1 active torsions:
REMARK  status: ('A' for Active; 'I' for Inactive)
REMARK    1  A    between atoms: C1_2  and  C2_3 
ROOT
ATOM      1  C2  UNL d   1       5.168  -2.962  -2.946  0.00  0.00    -0.077 A 
ATOM      2  C3  UNL d   1       3.769  -2.974  -2.871  0.00  0.00     0.002 A 
ATOM      3  C4  UNL d   1       2.999  -2.627  -3.983  0.00  0.00     0.002 A 
ATOM      4  C5  UNL d   1       3.619  -2.270  -5.178  0.00  0.00    -0.004 A 
ATOM      5  C6  UNL d   1       5.011  -2.253  -5.262  0.00  0.00     0.002 A 
ATOM      6  C7  UNL d   1       5.782  -2.599  -4.152  0.00  0.00     0.002 A 
ENDROOT
BRANCH   1   7
ATOM      7  C1  UNL d   1       6.000  -3.384  -1.763  0.00  0.00     0.055 C 
ATOM      8  C   UNL d   1       6.000  -2.317  -0.678  0.00  0.00     0.019 C 
ENDBRANCH   1   7
TORSDOF 1
ENDMDL
