MODEL 1
REMARK minimizedAffinity 1.26952422
REMARK minimizedRMSD -1
REMARK  1 active torsions:
REMARK  status: ('A' for Active; 'I' for Inactive)
REMARK    1  A    between atoms: C1_2  and  C2_3 
ROOT
ATOM      1  C2  UNL d   1       3.289  -2.636  -3.768  0.00  0.00    -0.077 A 
ATOM      2  C3  UNL d   1       4.059  -1.526  -4.140  0.00  0.00     0.002 A 
ATOM      3  C4  UNL d   1       5.408  -1.452  -3.786  0.00  0.00     0.002 A 
ATOM      4  C5  UNL d   1       5.998  -2.486  -3.062  0.00  0.00    -0.004 A 
ATOM      5  C6  UNL d   1       5.239  -3.594  -2.686  0.00  0.00     0.002 A 
ATOM      6  C7  UNL d   1       3.891  -3.669  -3.038  0.00  0.00     0.002 A 
ENDROOT
BRANCH   1   7
ATOM      7  C1  UNL d   1       1.847  -2.741  -4.191  0.00  0.00     0.055 C 
ATOM      8  C   UNL d   1       0.927  -2.036  -3.205  0.00  0.00     0.019 C 
ENDBRANCH   1   7
TORSDOF 1
ENDMDL
