MODEL 1
REMARK minimizedAffinity 6.99958849
REMARK minimizedRMSD -1
REMARK  1 active torsions:
REMARK  status: ('A' for Active; 'I' for Inactive)
REMARK    1  A    between atoms: C1_2  and  C2_3 
ROOT
ATOM      1  C2  UNL d   1       5.302  -2.354  -2.810  0.00  0.00    -0.077 A 
ATOM      2  C3  UNL d   1       4.713  -3.169  -3.788  0.00  0.00     0.002 A 
ATOM      3  C4  UNL d   1       4.142  -2.601  -4.929  0.00  0.00     0.002 A 
ATOM      4  C5  UNL d   1       4.159  -1.220  -5.105  0.00  0.00    -0.004 A 
ATOM      5  C6  UNL d   1       4.741  -0.401  -4.138  0.00  0.00     0.002 A 
ATOM      6  C7  UNL d   1       5.311  -0.966  -2.996  0.00  0.00     0.002 A 
ENDROOT
BRANCH   1   7
ATOM      7  C1  UNL d   1       5.961  -2.967  -1.602  0.00  0.00     0.055 C 
ATOM      8  C   UNL d   1       5.982  -1.996  -0.431  0.00  0.00     0.019 C 
ENDBRANCH   1   7
TORSDOF 1
ENDMDL
