MODEL 1
REMARK minimizedAffinity 0.0735332519
REMARK minimizedRMSD -1
REMARK  1 active torsions:
REMARK  status: ('A' for Active; 'I' for Inactive)
REMARK    1  A    between atoms: C1_2  and  C2_3 
ROOT
ATOM      1  C2  UNL d   1       0.702  -1.531  -1.921  0.00  0.00    -0.077 A 
ATOM      2  C3  UNL d   1       2.069  -1.757  -1.707  0.00  0.00     0.002 A 
ATOM      3  C4  UNL d   1       2.888  -0.732  -1.227  0.00  0.00     0.002 A 
ATOM      4  C5  UNL d   1       2.348   0.522  -0.952  0.00  0.00    -0.004 A 
ATOM      5  C6  UNL d   1       0.990   0.757  -1.163  0.00  0.00     0.002 A 
ATOM      6  C7  UNL d   1       0.170  -0.265  -1.644  0.00  0.00     0.002 A 
ENDROOT
BRANCH   1   7
ATOM      7  C1  UNL d   1      -0.191  -2.648  -2.392  0.00  0.00     0.055 C 
ATOM      8  C   UNL d   1      -0.735  -3.453  -1.221  0.00  0.00     0.019 C 
ENDBRANCH   1   7
TORSDOF 1
ENDMDL
