MODEL 1
REMARK minimizedAffinity 5.89998293
REMARK minimizedRMSD -1
REMARK  1 active torsions:
REMARK  status: ('A' for Active; 'I' for Inactive)
REMARK    1  A    between atoms: C1_2  and  C2_3 
ROOT
ATOM      1  C2  UNL d   1       4.776   3.592  -3.139  0.00  0.00    -0.077 A 
ATOM      2  C3  UNL d   1       3.582   4.133  -2.643  0.00  0.00     0.002 A 
ATOM      3  C4  UNL d   1       3.599   5.303  -1.882  0.00  0.00     0.002 A 
ATOM      4  C5  UNL d   1       4.806   5.945  -1.615  0.00  0.00    -0.004 A 
ATOM      5  C6  UNL d   1       5.999   5.415  -2.103  0.00  0.00     0.002 A 
ATOM      6  C7  UNL d   1       5.985   4.244  -2.862  0.00  0.00     0.002 A 
ENDROOT
BRANCH   1   7
ATOM      7  C1  UNL d   1       4.755   2.357  -4.001  0.00  0.00     0.055 C 
ATOM      8  C   UNL d   1       5.998   2.270  -4.875  0.00  0.00     0.019 C 
ENDBRANCH   1   7
TORSDOF 1
ENDMDL
