MODEL 1
REMARK minimizedAffinity 6.14121437
REMARK minimizedRMSD -1
REMARK  1 active torsions:
REMARK  status: ('A' for Active; 'I' for Inactive)
REMARK    1  A    between atoms: C1_2  and  C2_3 
ROOT
ATOM      1  C2  UNL d   1       2.169   4.369  -0.630  0.00  0.00    -0.077 A 
ATOM      2  C3  UNL d   1       1.684   4.671  -1.910  0.00  0.00     0.002 A 
ATOM      3  C4  UNL d   1       2.548   5.148  -2.898  0.00  0.00     0.002 A 
ATOM      4  C5  UNL d   1       3.901   5.323  -2.617  0.00  0.00    -0.004 A 
ATOM      5  C6  UNL d   1       4.393   5.027  -1.346  0.00  0.00     0.002 A 
ATOM      6  C7  UNL d   1       3.531   4.552  -0.357  0.00  0.00     0.002 A 
ENDROOT
BRANCH   1   7
ATOM      7  C1  UNL d   1       1.248   3.808   0.423  0.00  0.00     0.055 C 
ATOM      8  C   UNL d   1       0.602   4.916   1.241  0.00  0.00     0.019 C 
ENDBRANCH   1   7
TORSDOF 1
ENDMDL
