MODEL 1
REMARK minimizedAffinity 1.4199394
REMARK minimizedRMSD -1
REMARK  1 active torsions:
REMARK  status: ('A' for Active; 'I' for Inactive)
REMARK    1  A    between atoms: C1_2  and  C2_3 
ROOT
ATOM      1  C2  UNL d   1       3.893   4.795  -2.609  0.00  0.00    -0.077 A 
ATOM      2  C3  UNL d   1       3.898   4.703  -1.210  0.00  0.00     0.002 A 
ATOM      3  C4  UNL d   1       4.946   5.253  -0.469  0.00  0.00     0.002 A 
ATOM      4  C5  UNL d   1       5.994   5.902  -1.118  0.00  0.00    -0.004 A 
ATOM      5  C6  UNL d   1       6.000   5.997  -2.509  0.00  0.00     0.002 A 
ATOM      6  C7  UNL d   1       4.954   5.447  -3.251  0.00  0.00     0.002 A 
ENDROOT
BRANCH   1   7
ATOM      7  C1  UNL d   1       2.739   4.247  -3.406  0.00  0.00     0.055 C 
ATOM      8  C   UNL d   1       2.225   5.268  -4.411  0.00  0.00     0.019 C 
ENDBRANCH   1   7
TORSDOF 1
ENDMDL
