MODEL 1
REMARK minimizedAffinity -5.39186907
REMARK minimizedRMSD -1
REMARK  2 active torsions:
REMARK  status: ('A' for Active; 'I' for Inactive)
REMARK    1  A    between atoms: C2'_3  and  C1'_4 
REMARK    2  A    between atoms: C1'_4  and  C1_5 
ROOT
ATOM      1  C1  I4B d   1      -0.206   0.640   0.245  0.00  0.00    -0.075 A 
ATOM      2  C2  I4B d   1      -1.499   0.196   0.367  0.00  0.00     0.003 A 
ATOM      3  C3  I4B d   1      -2.181   0.319   1.602  0.00  0.00     0.002 A 
ATOM      4  C4  I4B d   1      -1.520   0.843   2.694  0.00  0.00    -0.004 A 
ATOM      5  C5  I4B d   1      -0.217   1.314   2.563  0.00  0.00     0.002 A 
ATOM      6  C6  I4B d   1       0.441   1.223   1.327  0.00  0.00     0.003 A 
ENDROOT
BRANCH   1   7
ATOM      7  C1' I4B d   1       0.496   0.464  -1.064  0.00  0.00     0.060 C 
BRANCH   7   8
ATOM      8  C2' I4B d   1       0.499  -1.014  -1.397  0.00  0.00    -0.013 C 
ATOM      9  C4' I4B d   1       0.892  -1.249  -2.832  0.00  0.00     0.013 C 
ATOM     10  C3' I4B d   1       1.446  -1.698  -0.457  0.00  0.00     0.013 C 
ENDBRANCH   7   8
ENDBRANCH   1   7
TORSDOF 2
ENDMDL
