MODEL 1
REMARK minimizedAffinity -5.86788654
REMARK minimizedRMSD -1
REMARK  2 active torsions:
REMARK  status: ('A' for Active; 'I' for Inactive)
REMARK    1  A    between atoms: C2'_3  and  C1'_4 
REMARK    2  A    between atoms: C1'_4  and  C1_5 
ROOT
ATOM      1  C1  I4B d   1       0.534   0.125  -1.127  0.00  0.00    -0.075 A 
ATOM      2  C2  I4B d   1       0.397  -0.661  -0.010  0.00  0.00     0.003 A 
ATOM      3  C3  I4B d   1       0.251  -0.067   1.267  0.00  0.00     0.002 A 
ATOM      4  C4  I4B d   1       0.297   1.307   1.386  0.00  0.00    -0.004 A 
ATOM      5  C5  I4B d   1       0.412   2.103   0.251  0.00  0.00     0.002 A 
ATOM      6  C6  I4B d   1       0.519   1.509  -1.016  0.00  0.00     0.003 A 
ENDROOT
BRANCH   1   7
ATOM      7  C1' I4B d   1       0.719  -0.536  -2.456  0.00  0.00     0.060 C 
BRANCH   7   8
ATOM      8  C2' I4B d   1       1.697   0.298  -3.259  0.00  0.00    -0.013 C 
ATOM      9  C4' I4B d   1       3.007  -0.423  -3.441  0.00  0.00     0.013 C 
ATOM     10  C3' I4B d   1       1.062   0.609  -4.582  0.00  0.00     0.013 C 
ENDBRANCH   7   8
ENDBRANCH   1   7
TORSDOF 2
ENDMDL
