MODEL 1
REMARK minimizedAffinity -1.64571202
REMARK minimizedRMSD -1
REMARK  2 active torsions:
REMARK  status: ('A' for Active; 'I' for Inactive)
REMARK    1  A    between atoms: C2'_3  and  C1'_4 
REMARK    2  A    between atoms: C1'_4  and  C1_5 
ROOT
ATOM      1  C1  I4B d   1       0.333   0.120  -1.039  0.00  0.00    -0.075 A 
ATOM      2  C2  I4B d   1      -0.864   0.785  -1.124  0.00  0.00     0.003 A 
ATOM      3  C3  I4B d   1      -1.670   0.953   0.028  0.00  0.00     0.002 A 
ATOM      4  C4  I4B d   1      -1.267   0.400   1.226  0.00  0.00    -0.004 A 
ATOM      5  C5  I4B d   1      -0.042  -0.255   1.315  0.00  0.00     0.002 A 
ATOM      6  C6  I4B d   1       0.770  -0.385   0.179  0.00  0.00     0.003 A 
ENDROOT
BRANCH   1   7
ATOM      7  C1' I4B d   1       1.143  -0.067  -2.283  0.00  0.00     0.060 C 
BRANCH   7   8
ATOM      8  C2' I4B d   1       0.622   0.896  -3.329  0.00  0.00    -0.013 C 
ATOM      9  C4' I4B d   1       1.669   1.910  -3.707  0.00  0.00     0.013 C 
ATOM     10  C3' I4B d   1       0.190   0.095  -4.521  0.00  0.00     0.013 C 
ENDBRANCH   7   8
ENDBRANCH   1   7
TORSDOF 2
ENDMDL
