MODEL 1
REMARK minimizedAffinity -0.850006044
REMARK minimizedRMSD -1
REMARK  2 active torsions:
REMARK  status: ('A' for Active; 'I' for Inactive)
REMARK    1  A    between atoms: C2'_3  and  C1'_4 
REMARK    2  A    between atoms: C1'_4  and  C1_5 
ROOT
ATOM      1  C1  I4B d   1      -0.002   0.017  -4.905  0.00  0.00    -0.075 A 
ATOM      2  C2  I4B d   1       0.804   1.127  -4.925  0.00  0.00     0.003 A 
ATOM      3  C3  I4B d   1       2.096   1.060  -5.502  0.00  0.00     0.002 A 
ATOM      4  C4  I4B d   1       2.556  -0.142  -6.000  0.00  0.00    -0.004 A 
ATOM      5  C5  I4B d   1       1.729  -1.261  -5.999  0.00  0.00     0.002 A 
ATOM      6  C6  I4B d   1       0.437  -1.179  -5.460  0.00  0.00     0.003 A 
ENDROOT
BRANCH   1   7
ATOM      7  C1' I4B d   1      -1.347   0.114  -4.258  0.00  0.00     0.060 C 
BRANCH   7   8
ATOM      8  C2' I4B d   1      -2.371   0.369  -5.345  0.00  0.00    -0.013 C 
ATOM      9  C4' I4B d   1      -3.758   0.009  -4.883  0.00  0.00     0.013 C 
ATOM     10  C3' I4B d   1      -2.287   1.816  -5.729  0.00  0.00     0.013 C 
ENDBRANCH   7   8
ENDBRANCH   1   7
TORSDOF 2
ENDMDL
