MODEL 1
REMARK minimizedAffinity -4.37983418
REMARK minimizedRMSD -1
REMARK  2 active torsions:
REMARK  status: ('A' for Active; 'I' for Inactive)
REMARK    1  A    between atoms: C2'_3  and  C1'_4 
REMARK    2  A    between atoms: C1'_4  and  C1_5 
ROOT
ATOM      1  C1  I4B d   1      -0.043   0.045  -0.226  0.00  0.00    -0.075 A 
ATOM      2  C2  I4B d   1       0.635   0.193   0.959  0.00  0.00     0.003 A 
ATOM      3  C3  I4B d   1      -0.016   0.748   2.088  0.00  0.00     0.002 A 
ATOM      4  C4  I4B d   1      -1.320   1.184   1.974  0.00  0.00    -0.004 A 
ATOM      5  C5  I4B d   1      -2.012   1.012   0.778  0.00  0.00     0.002 A 
ATOM      6  C6  I4B d   1      -1.374   0.428  -0.325  0.00  0.00     0.003 A 
ENDROOT
BRANCH   1   7
ATOM      7  C1' I4B d   1       0.685  -0.514  -1.407  0.00  0.00     0.060 C 
BRANCH   7   8
ATOM      8  C2' I4B d   1       0.638   0.518  -2.515  0.00  0.00    -0.013 C 
ATOM      9  C4' I4B d   1       2.021   0.989  -2.880  0.00  0.00     0.013 C 
ATOM     10  C3' I4B d   1      -0.051  -0.101  -3.695  0.00  0.00     0.013 C 
ENDBRANCH   7   8
ENDBRANCH   1   7
TORSDOF 2
ENDMDL
