MODEL 1
REMARK minimizedAffinity -5.09071732
REMARK minimizedRMSD -1
REMARK  2 active torsions:
REMARK  status: ('A' for Active; 'I' for Inactive)
REMARK    1  A    between atoms: C2'_3  and  C1'_4 
REMARK    2  A    between atoms: C1'_4  and  C1_5 
ROOT
ATOM      1  C1  I4B d   1      -0.074   0.251   0.089  0.00  0.00    -0.075 A 
ATOM      2  C2  I4B d   1      -1.170  -0.358   0.648  0.00  0.00     0.003 A 
ATOM      3  C3  I4B d   1      -1.874   0.270   1.704  0.00  0.00     0.002 A 
ATOM      4  C4  I4B d   1      -1.422   1.475   2.200  0.00  0.00    -0.004 A 
ATOM      5  C5  I4B d   1      -0.325   2.103   1.617  0.00  0.00     0.002 A 
ATOM      6  C6  I4B d   1       0.346   1.493   0.546  0.00  0.00     0.003 A 
ENDROOT
BRANCH   1   7
ATOM      7  C1' I4B d   1       0.665  -0.455  -1.002  0.00  0.00     0.060 C 
BRANCH   7   8
ATOM      8  C2' I4B d   1       0.480   0.336  -2.281  0.00  0.00    -0.013 C 
ATOM      9  C4' I4B d   1       1.786   0.916  -2.757  0.00  0.00     0.013 C 
ATOM     10  C3' I4B d   1      -0.113  -0.579  -3.310  0.00  0.00     0.013 C 
ENDBRANCH   7   8
ENDBRANCH   1   7
TORSDOF 2
ENDMDL
