MODEL 1
REMARK minimizedAffinity -1.39586091
REMARK minimizedRMSD -1
REMARK  0 active torsions:
REMARK  status: ('A' for Active; 'I' for Inactive)
ROOT
ATOM      1  C   UNL d   1      -5.919   2.103  -3.679  0.00  0.00     0.020 A 
ATOM      2  C1  UNL d   1      -4.908   2.168  -2.720  0.00  0.00     0.020 A 
ATOM      3  C2  UNL d   1      -3.976   1.133  -2.617  0.00  0.00     0.034 A 
ATOM      4  C3  UNL d   1      -4.053   0.029  -3.474  0.00  0.00     0.017 A 
ATOM      5  C4  UNL d   1      -5.067  -0.035  -4.436  0.00  0.00     0.017 A 
ATOM      6  C5  UNL d   1      -5.998   1.004  -4.535  0.00  0.00     0.034 A 
ATOM      7 Cl   UNL d   1      -5.226  -1.364  -5.529  0.00  0.00    -0.070 Cl
ATOM      8 Cl1  UNL d   1      -2.867  -1.214  -3.291  0.00  0.00    -0.070 Cl
ENDROOT
TORSDOF 0
ENDMDL
