MODEL 1
REMARK minimizedAffinity 7.75083685
REMARK minimizedRMSD -1
REMARK  0 active torsions:
REMARK  status: ('A' for Active; 'I' for Inactive)
ROOT
ATOM      1  C   UNL d   1       2.050  -1.351   0.855  0.00  0.00     0.020 A 
ATOM      2  C1  UNL d   1       1.867  -2.720   0.665  0.00  0.00     0.020 A 
ATOM      3  C2  UNL d   1       0.845  -3.388   1.343  0.00  0.00     0.034 A 
ATOM      4  C3  UNL d   1       0.002  -2.687   2.213  0.00  0.00     0.017 A 
ATOM      5  C4  UNL d   1       0.187  -1.313   2.403  0.00  0.00     0.017 A 
ATOM      6  C5  UNL d   1       1.212  -0.649   1.722  0.00  0.00     0.034 A 
ATOM      7 Cl   UNL d   1      -0.813  -0.380   3.460  0.00  0.00    -0.070 Cl
ATOM      8 Cl1  UNL d   1      -1.242  -3.577   3.017  0.00  0.00    -0.070 Cl
ENDROOT
TORSDOF 0
ENDMDL
