MODEL 1
REMARK minimizedAffinity 9.8235178
REMARK minimizedRMSD -1
REMARK  0 active torsions:
REMARK  status: ('A' for Active; 'I' for Inactive)
ROOT
ATOM      1  C   UNL d   1      -4.403   2.244   4.552  0.00  0.00     0.020 A 
ATOM      2  C1  UNL d   1      -3.012   2.333   4.552  0.00  0.00     0.020 A 
ATOM      3  C2  UNL d   1      -2.387   3.498   5.002  0.00  0.00     0.034 A 
ATOM      4  C3  UNL d   1      -3.154   4.578   5.455  0.00  0.00     0.017 A 
ATOM      5  C4  UNL d   1      -4.550   4.487   5.455  0.00  0.00     0.017 A 
ATOM      6  C5  UNL d   1      -5.171   3.319   5.003  0.00  0.00     0.034 A 
ATOM      7 Cl   UNL d   1      -5.563   5.778   5.998  0.00  0.00    -0.070 Cl
ATOM      8 Cl1  UNL d   1      -2.314   5.987   5.998  0.00  0.00    -0.070 Cl
ENDROOT
TORSDOF 0
ENDMDL
