MODEL 1
REMARK minimizedAffinity 4.23953915
REMARK minimizedRMSD -1
REMARK  0 active torsions:
REMARK  status: ('A' for Active; 'I' for Inactive)
ROOT
ATOM      1  C   UNL d   1       2.391  -2.748   2.231  0.00  0.00     0.020 A 
ATOM      2  C1  UNL d   1       2.350  -2.927   0.849  0.00  0.00     0.020 A 
ATOM      3  C2  UNL d   1       1.365  -2.290   0.091  0.00  0.00     0.034 A 
ATOM      4  C3  UNL d   1       0.416  -1.472   0.715  0.00  0.00     0.017 A 
ATOM      5  C4  UNL d   1       0.458  -1.293   2.103  0.00  0.00     0.017 A 
ATOM      6  C5  UNL d   1       1.447  -1.932   2.856  0.00  0.00     0.034 A 
ATOM      7 Cl   UNL d   1      -0.679  -0.299   2.944  0.00  0.00    -0.070 Cl
ATOM      8 Cl1  UNL d   1      -0.774  -0.716  -0.283  0.00  0.00    -0.070 Cl
ENDROOT
TORSDOF 0
ENDMDL
