MODEL 1
REMARK minimizedAffinity 4.84807396
REMARK minimizedRMSD -1
REMARK  0 active torsions:
REMARK  status: ('A' for Active; 'I' for Inactive)
ROOT
ATOM      1  C   UNL d   1       2.558  -2.906   0.568  0.00  0.00     0.020 A 
ATOM      2  C1  UNL d   1       1.782  -1.811   0.944  0.00  0.00     0.020 A 
ATOM      3  C2  UNL d   1       0.647  -1.997   1.736  0.00  0.00     0.034 A 
ATOM      4  C3  UNL d   1       0.285  -3.283   2.155  0.00  0.00     0.017 A 
ATOM      5  C4  UNL d   1       1.065  -4.382   1.777  0.00  0.00     0.017 A 
ATOM      6  C5  UNL d   1       2.200  -4.189   0.984  0.00  0.00     0.034 A 
ATOM      7 Cl   UNL d   1       0.681  -5.998   2.256  0.00  0.00    -0.070 Cl
ATOM      8 Cl1  UNL d   1      -1.130  -3.440   3.134  0.00  0.00    -0.070 Cl
ENDROOT
TORSDOF 0
ENDMDL
