MODEL 1
REMARK minimizedAffinity 3.85929203
REMARK minimizedRMSD -1
REMARK  0 active torsions:
REMARK  status: ('A' for Active; 'I' for Inactive)
ROOT
ATOM      1  C   UNL d   1      -2.816   2.412  -2.615  0.00  0.00     0.020 A 
ATOM      2  C1  UNL d   1      -3.064   1.098  -2.218  0.00  0.00     0.020 A 
ATOM      3  C2  UNL d   1      -4.049   0.348  -2.864  0.00  0.00     0.034 A 
ATOM      4  C3  UNL d   1      -4.790   0.910  -3.910  0.00  0.00     0.017 A 
ATOM      5  C4  UNL d   1      -4.540   2.228  -4.308  0.00  0.00     0.017 A 
ATOM      6  C5  UNL d   1      -3.552   2.975  -3.658  0.00  0.00     0.034 A 
ATOM      7 Cl   UNL d   1      -5.412   2.991  -5.591  0.00  0.00    -0.070 Cl
ATOM      8 Cl1  UNL d   1      -5.992  -0.076  -4.664  0.00  0.00    -0.070 Cl
ENDROOT
TORSDOF 0
ENDMDL
