MODEL 1
REMARK minimizedAffinity 8.86088085
REMARK minimizedRMSD -1
REMARK  0 active torsions:
REMARK  status: ('A' for Active; 'I' for Inactive)
ROOT
ATOM      1  C   UNL d   1       1.202  -1.917   0.267  0.00  0.00     0.020 A 
ATOM      2  C1  UNL d   1       2.172  -2.889   0.509  0.00  0.00     0.020 A 
ATOM      3  C2  UNL d   1       2.857  -2.904   1.725  0.00  0.00     0.034 A 
ATOM      4  C3  UNL d   1       2.573  -1.946   2.705  0.00  0.00     0.017 A 
ATOM      5  C4  UNL d   1       1.599  -0.971   2.462  0.00  0.00     0.017 A 
ATOM      6  C5  UNL d   1       0.916  -0.960   1.242  0.00  0.00     0.034 A 
ATOM      7 Cl   UNL d   1       1.193   0.244   3.622  0.00  0.00    -0.070 Cl
ATOM      8 Cl1  UNL d   1       3.459  -2.024   4.187  0.00  0.00    -0.070 Cl
ENDROOT
TORSDOF 0
ENDMDL
