MODEL 1
REMARK minimizedAffinity 2.94888973
REMARK minimizedRMSD -1
REMARK  0 active torsions:
REMARK  status: ('A' for Active; 'I' for Inactive)
ROOT
ATOM      1  C   UNL d   1       2.167  -1.959   1.498  0.00  0.00     0.020 A 
ATOM      2  C1  UNL d   1       2.382  -2.718   0.348  0.00  0.00     0.020 A 
ATOM      3  C2  UNL d   1       3.315  -3.756   0.361  0.00  0.00     0.034 A 
ATOM      4  C3  UNL d   1       4.038  -4.039   1.525  0.00  0.00     0.017 A 
ATOM      5  C4  UNL d   1       3.822  -3.277   2.679  0.00  0.00     0.017 A 
ATOM      6  C5  UNL d   1       2.886  -2.238   2.661  0.00  0.00     0.034 A 
ATOM      7 Cl   UNL d   1       4.676  -3.566   4.154  0.00  0.00    -0.070 Cl
ATOM      8 Cl1  UNL d   1       5.176  -5.337   1.469  0.00  0.00    -0.070 Cl
ENDROOT
TORSDOF 0
ENDMDL
