MODEL 1
REMARK minimizedAffinity 0.369382888
REMARK minimizedRMSD -1
REMARK  0 active torsions:
REMARK  status: ('A' for Active; 'I' for Inactive)
ROOT
ATOM      1  C   UNL d   1       0.644  -2.498   1.543  0.00  0.00     0.020 A 
ATOM      2  C1  UNL d   1       1.545  -1.641   2.173  0.00  0.00     0.020 A 
ATOM      3  C2  UNL d   1       2.918  -1.801   1.971  0.00  0.00     0.034 A 
ATOM      4  C3  UNL d   1       3.393  -2.821   1.138  0.00  0.00     0.017 A 
ATOM      5  C4  UNL d   1       2.487  -3.680   0.506  0.00  0.00     0.017 A 
ATOM      6  C5  UNL d   1       1.113  -3.515   0.712  0.00  0.00     0.034 A 
ATOM      7 Cl   UNL d   1       2.997  -4.961  -0.536  0.00  0.00    -0.070 Cl
ATOM      8 Cl1  UNL d   1       5.103  -2.960   0.933  0.00  0.00    -0.070 Cl
ENDROOT
TORSDOF 0
ENDMDL
