MODEL 1
REMARK minimizedAffinity 2.80900908
REMARK minimizedRMSD -1
REMARK  0 active torsions:
REMARK  status: ('A' for Active; 'I' for Inactive)
ROOT
ATOM      1  C   UNL d   1       2.748   4.802   6.000  0.00  0.00     0.020 A 
ATOM      2  C1  UNL d   1       2.453   6.000   5.349  0.00  0.00     0.020 A 
ATOM      3  C2  UNL d   1       1.679   5.991   4.187  0.00  0.00     0.034 A 
ATOM      4  C3  UNL d   1       1.198   4.782   3.671  0.00  0.00     0.017 A 
ATOM      5  C4  UNL d   1       1.495   3.580   4.325  0.00  0.00     0.017 A 
ATOM      6  C5  UNL d   1       2.270   3.595   5.489  0.00  0.00     0.034 A 
ATOM      7 Cl   UNL d   1       0.936   2.049   3.749  0.00  0.00    -0.070 Cl
ATOM      8 Cl1  UNL d   1       0.247   4.845   2.230  0.00  0.00    -0.070 Cl
ENDROOT
TORSDOF 0
ENDMDL
