MODEL 1
REMARK minimizedAffinity 8.70870113
REMARK minimizedRMSD -1
REMARK  0 active torsions:
REMARK  status: ('A' for Active; 'I' for Inactive)
ROOT
ATOM      1  C1  BNZ d   1       4.736  -5.991   3.541  0.00  0.00     0.000 A 
ATOM      2  C2  BNZ d   1       5.427  -5.998   4.723  0.00  0.00     0.000 A 
ATOM      3  C3  BNZ d   1       4.767  -5.999   5.920  0.00  0.00     0.000 A 
ATOM      4  C4  BNZ d   1       3.419  -5.953   5.934  0.00  0.00     0.000 A 
ATOM      5  C5  BNZ d   1       2.708  -5.935   4.750  0.00  0.00     0.000 A 
ATOM      6  C6  BNZ d   1       3.375  -5.973   3.548  0.00  0.00     0.000 A 
ENDROOT
TORSDOF 0
ENDMDL
