MODEL 1
REMARK minimizedAffinity 0.123101048
REMARK minimizedRMSD -1
REMARK  0 active torsions:
REMARK  status: ('A' for Active; 'I' for Inactive)
ROOT
ATOM      1  C1  BNZ d   1       0.739  -5.999  -4.423  0.00  0.00     0.000 A 
ATOM      2  C2  BNZ d   1       0.892  -4.934  -3.575  0.00  0.00     0.000 A 
ATOM      3  C3  BNZ d   1       1.639  -3.849  -3.942  0.00  0.00     0.000 A 
ATOM      4  C4  BNZ d   1       2.265  -3.849  -5.136  0.00  0.00     0.000 A 
ATOM      5  C5  BNZ d   1       2.129  -4.919  -5.998  0.00  0.00     0.000 A 
ATOM      6  C6  BNZ d   1       1.344  -5.991  -5.642  0.00  0.00     0.000 A 
ENDROOT
TORSDOF 0
ENDMDL
