MODEL 1
REMARK minimizedAffinity 8.35757256
REMARK minimizedRMSD -1
REMARK  0 active torsions:
REMARK  status: ('A' for Active; 'I' for Inactive)
ROOT
ATOM      1  C1  BNZ d   1       2.990  -0.317   1.724  0.00  0.00     0.000 A 
ATOM      2  C2  BNZ d   1       1.954  -0.381   2.618  0.00  0.00     0.000 A 
ATOM      3  C3  BNZ d   1       1.024  -1.379   2.542  0.00  0.00     0.000 A 
ATOM      4  C4  BNZ d   1       1.108  -2.289   1.549  0.00  0.00     0.000 A 
ATOM      5  C5  BNZ d   1       2.141  -2.233   0.635  0.00  0.00     0.000 A 
ATOM      6  C6  BNZ d   1       3.098  -1.249   0.738  0.00  0.00     0.000 A 
ENDROOT
TORSDOF 0
ENDMDL
