MODEL 1
REMARK minimizedAffinity 9.67098427
REMARK minimizedRMSD -1
REMARK  0 active torsions:
REMARK  status: ('A' for Active; 'I' for Inactive)
ROOT
ATOM      1  C1  BNZ d   1      -2.212   5.994  -3.509  0.00  0.00     0.000 A 
ATOM      2  C2  BNZ d   1      -2.084   5.998  -4.873  0.00  0.00     0.000 A 
ATOM      3  C3  BNZ d   1      -2.119   4.830  -5.582  0.00  0.00     0.000 A 
ATOM      4  C4  BNZ d   1      -2.240   3.658  -4.925  0.00  0.00     0.000 A 
ATOM      5  C5  BNZ d   1      -2.361   3.637  -3.550  0.00  0.00     0.000 A 
ATOM      6  C6  BNZ d   1      -2.365   4.817  -2.842  0.00  0.00     0.000 A 
ENDROOT
TORSDOF 0
ENDMDL
