MODEL 1
REMARK minimizedAffinity 2.09808612
REMARK minimizedRMSD -1
REMARK  0 active torsions:
REMARK  status: ('A' for Active; 'I' for Inactive)
ROOT
ATOM      1  C1  BNZ d   1      -0.585  -0.900   3.627  0.00  0.00     0.000 A 
ATOM      2  C2  BNZ d   1       0.647  -0.702   3.062  0.00  0.00     0.000 A 
ATOM      3  C3  BNZ d   1       1.035  -1.416   1.962  0.00  0.00     0.000 A 
ATOM      4  C4  BNZ d   1       0.209  -2.353   1.455  0.00  0.00     0.000 A 
ATOM      5  C5  BNZ d   1      -1.032  -2.571   2.020  0.00  0.00     0.000 A 
ATOM      6  C6  BNZ d   1      -1.435  -1.824   3.102  0.00  0.00     0.000 A 
ENDROOT
TORSDOF 0
ENDMDL
