MODEL 1
REMARK minimizedAffinity 12.7463417
REMARK minimizedRMSD -1
REMARK  0 active torsions:
REMARK  status: ('A' for Active; 'I' for Inactive)
ROOT
ATOM      1  C1  BNZ d   1       2.142   4.969   0.768  0.00  0.00     0.000 A 
ATOM      2  C2  BNZ d   1       2.600   3.679   0.820  0.00  0.00     0.000 A 
ATOM      3  C3  BNZ d   1       1.870   2.655   0.283  0.00  0.00     0.000 A 
ATOM      4  C4  BNZ d   1       0.668   2.917  -0.269  0.00  0.00     0.000 A 
ATOM      5  C5  BNZ d   1       0.188   4.210  -0.321  0.00  0.00     0.000 A 
ATOM      6  C6  BNZ d   1       0.943   5.243   0.186  0.00  0.00     0.000 A 
ENDROOT
TORSDOF 0
ENDMDL
