MODEL 1
REMARK minimizedAffinity 6.49490309
REMARK minimizedRMSD -1
REMARK  0 active torsions:
REMARK  status: ('A' for Active; 'I' for Inactive)
ROOT
ATOM      1  C1  BNZ d   1       3.489  -5.777   3.647  0.00  0.00     0.000 A 
ATOM      2  C2  BNZ d   1       4.848  -5.892   3.524  0.00  0.00     0.000 A 
ATOM      3  C3  BNZ d   1       5.645  -5.999   4.630  0.00  0.00     0.000 A 
ATOM      4  C4  BNZ d   1       5.086  -5.950   5.856  0.00  0.00     0.000 A 
ATOM      5  C5  BNZ d   1       3.719  -5.825   5.997  0.00  0.00     0.000 A 
ATOM      6  C6  BNZ d   1       2.916  -5.757   4.882  0.00  0.00     0.000 A 
ENDROOT
TORSDOF 0
ENDMDL
