MODEL 1
REMARK minimizedAffinity 7.73873997
REMARK minimizedRMSD -1
REMARK  0 active torsions:
REMARK  status: ('A' for Active; 'I' for Inactive)
ROOT
ATOM      1  C1  BNZ d   1       5.935  -2.521  -3.657  0.00  0.00     0.000 A 
ATOM      2  C2  BNZ d   1       5.996  -3.236  -4.822  0.00  0.00     0.000 A 
ATOM      3  C3  BNZ d   1       5.553  -2.698  -5.998  0.00  0.00     0.000 A 
ATOM      4  C4  BNZ d   1       5.012  -1.463  -6.000  0.00  0.00     0.000 A 
ATOM      5  C5  BNZ d   1       4.935  -0.732  -4.831  0.00  0.00     0.000 A 
ATOM      6  C6  BNZ d   1       5.418  -1.262  -3.656  0.00  0.00     0.000 A 
ENDROOT
TORSDOF 0
ENDMDL
