MODEL 1
REMARK minimizedAffinity 7.19092703
REMARK minimizedRMSD -1
REMARK  0 active torsions:
REMARK  status: ('A' for Active; 'I' for Inactive)
ROOT
ATOM      1  C1  BNZ d   1      -2.386   3.647  -5.058  0.00  0.00     0.000 A 
ATOM      2  C2  BNZ d   1      -2.280   4.866  -5.672  0.00  0.00     0.000 A 
ATOM      3  C3  BNZ d   1      -2.036   5.997  -4.944  0.00  0.00     0.000 A 
ATOM      4  C4  BNZ d   1      -1.939   5.914  -3.602  0.00  0.00     0.000 A 
ATOM      5  C5  BNZ d   1      -2.053   4.693  -2.967  0.00  0.00     0.000 A 
ATOM      6  C6  BNZ d   1      -2.260   3.551  -3.706  0.00  0.00     0.000 A 
ENDROOT
TORSDOF 0
ENDMDL
