MODEL 1
REMARK minimizedAffinity 12.1770306
REMARK minimizedRMSD -1
REMARK  0 active torsions:
REMARK  status: ('A' for Active; 'I' for Inactive)
ROOT
ATOM      1  C1  BNZ d   1      -3.020   5.992  -2.258  0.00  0.00     0.000 A 
ATOM      2  C2  BNZ d   1      -2.211   5.601  -3.291  0.00  0.00     0.000 A 
ATOM      3  C3  BNZ d   1      -2.169   4.295  -3.692  0.00  0.00     0.000 A 
ATOM      4  C4  BNZ d   1      -2.903   3.376  -3.034  0.00  0.00     0.000 A 
ATOM      5  C5  BNZ d   1      -3.717   3.752  -1.984  0.00  0.00     0.000 A 
ATOM      6  C6  BNZ d   1      -3.787   5.074  -1.609  0.00  0.00     0.000 A 
ENDROOT
TORSDOF 0
ENDMDL
