MODEL 1
REMARK minimizedAffinity 5.03354454
REMARK minimizedRMSD -1
REMARK  0 active torsions:
REMARK  status: ('A' for Active; 'I' for Inactive)
ROOT
ATOM      1  C1  BNZ d   1       0.908  -0.326   4.821  0.00  0.00     0.000 A 
ATOM      2  C2  BNZ d   1       0.386  -0.817   3.654  0.00  0.00     0.000 A 
ATOM      3  C3  BNZ d   1       1.108  -0.781   2.494  0.00  0.00     0.000 A 
ATOM      4  C4  BNZ d   1       2.334  -0.218   2.494  0.00  0.00     0.000 A 
ATOM      5  C5  BNZ d   1       2.870   0.290   3.660  0.00  0.00     0.000 A 
ATOM      6  C6  BNZ d   1       2.156   0.217   4.834  0.00  0.00     0.000 A 
ENDROOT
TORSDOF 0
ENDMDL
