MODEL 1
REMARK minimizedAffinity 8.39133549
REMARK minimizedRMSD -1
REMARK  0 active torsions:
REMARK  status: ('A' for Active; 'I' for Inactive)
ROOT
ATOM      1  C1  BNZ d   1       2.650  -0.843   2.114  0.00  0.00     0.000 A 
ATOM      2  C2  BNZ d   1       1.371  -1.328   2.060  0.00  0.00     0.000 A 
ATOM      3  C3  BNZ d   1       0.501  -1.126   3.094  0.00  0.00     0.000 A 
ATOM      4  C4  BNZ d   1       0.923  -0.475   4.198  0.00  0.00     0.000 A 
ATOM      5  C5  BNZ d   1       2.213   0.012   4.272  0.00  0.00     0.000 A 
ATOM      6  C6  BNZ d   1       3.074  -0.160   3.212  0.00  0.00     0.000 A 
ENDROOT
TORSDOF 0
ENDMDL
