MODEL 1
REMARK minimizedAffinity 6.68153048
REMARK minimizedRMSD -1
REMARK  0 active torsions:
REMARK  status: ('A' for Active; 'I' for Inactive)
ROOT
ATOM      1  C1  BNZ d   1       0.476  -0.233   3.156  0.00  0.00     0.000 A 
ATOM      2  C2  BNZ d   1       1.123  -0.413   1.963  0.00  0.00     0.000 A 
ATOM      3  C3  BNZ d   1       1.102  -1.625   1.331  0.00  0.00     0.000 A 
ATOM      4  C4  BNZ d   1       0.469  -2.665   1.912  0.00  0.00     0.000 A 
ATOM      5  C5  BNZ d   1      -0.180  -2.501   3.120  0.00  0.00     0.000 A 
ATOM      6  C6  BNZ d   1      -0.189  -1.270   3.734  0.00  0.00     0.000 A 
ENDROOT
TORSDOF 0
ENDMDL
