MODEL 1
REMARK minimizedAffinity 2.33134747
REMARK minimizedRMSD -1
REMARK  0 active torsions:
REMARK  status: ('A' for Active; 'I' for Inactive)
ROOT
ATOM      1  C1  BNZ d   1       1.001  -0.680   2.716  0.00  0.00     0.000 A 
ATOM      2  C2  BNZ d   1      -0.169  -0.962   3.372  0.00  0.00     0.000 A 
ATOM      3  C3  BNZ d   1      -0.842  -2.127   3.131  0.00  0.00     0.000 A 
ATOM      4  C4  BNZ d   1      -0.369  -2.988   2.208  0.00  0.00     0.000 A 
ATOM      5  C5  BNZ d   1       0.804  -2.714   1.533  0.00  0.00     0.000 A 
ATOM      6  C6  BNZ d   1       1.500  -1.559   1.805  0.00  0.00     0.000 A 
ENDROOT
TORSDOF 0
ENDMDL
