MODEL 1
REMARK minimizedAffinity 3.39942503
REMARK minimizedRMSD -1
REMARK  0 active torsions:
REMARK  status: ('A' for Active; 'I' for Inactive)
ROOT
ATOM      1  C1  BNZ d   1      -2.078   5.661  -2.969  0.00  0.00     0.000 A 
ATOM      2  C2  BNZ d   1      -1.876   6.000  -4.280  0.00  0.00     0.000 A 
ATOM      3  C3  BNZ d   1      -1.879   5.046  -5.258  0.00  0.00     0.000 A 
ATOM      4  C4  BNZ d   1      -2.045   3.750  -4.921  0.00  0.00     0.000 A 
ATOM      5  C5  BNZ d   1      -2.241   3.391  -3.602  0.00  0.00     0.000 A 
ATOM      6  C6  BNZ d   1      -2.276   4.359  -2.624  0.00  0.00     0.000 A 
ENDROOT
TORSDOF 0
ENDMDL
