MODEL 1
REMARK minimizedAffinity 1.10677743
REMARK minimizedRMSD -1
REMARK  0 active torsions:
REMARK  status: ('A' for Active; 'I' for Inactive)
ROOT
ATOM      1  C1  BNZ d   1       0.452  -0.725   3.700  0.00  0.00     0.000 A 
ATOM      2  C2  BNZ d   1      -0.504  -1.320   4.478  0.00  0.00     0.000 A 
ATOM      3  C3  BNZ d   1      -1.225  -2.384   4.011  0.00  0.00     0.000 A 
ATOM      4  C4  BNZ d   1      -1.017  -2.824   2.753  0.00  0.00     0.000 A 
ATOM      5  C5  BNZ d   1      -0.063  -2.227   1.952  0.00  0.00     0.000 A 
ATOM      6  C6  BNZ d   1       0.687  -1.182   2.440  0.00  0.00     0.000 A 
ENDROOT
TORSDOF 0
ENDMDL
