MODEL 1
REMARK minimizedAffinity -5.59206772
REMARK minimizedRMSD -1
REMARK  0 active torsions:
REMARK  status: ('A' for Active; 'I' for Inactive)
ROOT
ATOM      1  C   UNL d   1      -2.237  -0.719  -0.317  0.00  0.00     0.078 C 
ATOM      2  C1  UNL d   1      -1.158  -0.166   0.565  0.00  0.00    -0.077 A 
ATOM      3  C2  UNL d   1       0.109   0.136   0.052  0.00  0.00    -0.001 A 
ATOM      4  C3  UNL d   1       1.107   0.641   0.888  0.00  0.00     0.003 A 
ATOM      5  C4  UNL d   1       0.848   0.847   2.241  0.00  0.00    -0.005 A 
ATOM      6  C5  UNL d   1      -0.410   0.547   2.761  0.00  0.00     0.003 A 
ATOM      7  C6  UNL d   1      -1.408   0.042   1.927  0.00  0.00    -0.001 A 
ENDROOT
TORSDOF 0
ENDMDL
