MODEL 1
REMARK minimizedAffinity -3.67090392
REMARK minimizedRMSD -1
REMARK  0 active torsions:
REMARK  status: ('A' for Active; 'I' for Inactive)
ROOT
ATOM      1  C   UNL d   1       0.069   1.274   3.756  0.00  0.00     0.078 C 
ATOM      2  C1  UNL d   1      -0.194   0.795   2.360  0.00  0.00    -0.077 A 
ATOM      3  C2  UNL d   1       0.861   0.486   1.493  0.00  0.00    -0.001 A 
ATOM      4  C3  UNL d   1       0.602   0.050   0.192  0.00  0.00     0.003 A 
ATOM      5  C4  UNL d   1      -0.712  -0.081  -0.253  0.00  0.00    -0.005 A 
ATOM      6  C5  UNL d   1      -1.768   0.226   0.602  0.00  0.00     0.003 A 
ATOM      7  C6  UNL d   1      -1.511   0.662   1.903  0.00  0.00    -0.001 A 
ENDROOT
TORSDOF 0
ENDMDL
