MODEL 1
REMARK minimizedAffinity -2.57074404
REMARK minimizedRMSD -1
REMARK  0 active torsions:
REMARK  status: ('A' for Active; 'I' for Inactive)
ROOT
ATOM      1  C   UNL d   1      -0.952   1.514   2.583  0.00  0.00     0.078 C 
ATOM      2  C1  UNL d   1      -0.481   0.763   1.375  0.00  0.00    -0.077 A 
ATOM      3  C2  UNL d   1       0.873   0.449   1.203  0.00  0.00    -0.001 A 
ATOM      4  C3  UNL d   1       1.299  -0.243   0.068  0.00  0.00     0.003 A 
ATOM      5  C4  UNL d   1       0.378  -0.625  -0.905  0.00  0.00    -0.005 A 
ATOM      6  C5  UNL d   1      -0.971  -0.315  -0.744  0.00  0.00     0.003 A 
ATOM      7  C6  UNL d   1      -1.399   0.376   0.390  0.00  0.00    -0.001 A 
ENDROOT
TORSDOF 0
ENDMDL
