MODEL 1
REMARK minimizedAffinity 1.4821806
REMARK minimizedRMSD -1
REMARK  0 active torsions:
REMARK  status: ('A' for Active; 'I' for Inactive)
ROOT
ATOM      1  C   UNL d   1       0.330  -1.264   4.374  0.00  0.00     0.078 C 
ATOM      2  C1  UNL d   1      -0.369  -0.595   3.229  0.00  0.00    -0.077 A 
ATOM      3  C2  UNL d   1      -1.698  -0.169   3.345  0.00  0.00    -0.001 A 
ATOM      4  C3  UNL d   1      -2.339   0.444   2.267  0.00  0.00     0.003 A 
ATOM      5  C4  UNL d   1      -1.660   0.636   1.066  0.00  0.00    -0.005 A 
ATOM      6  C5  UNL d   1      -0.338   0.214   0.941  0.00  0.00     0.003 A 
ATOM      7  C6  UNL d   1       0.305  -0.400   2.017  0.00  0.00    -0.001 A 
ENDROOT
TORSDOF 0
ENDMDL
