MODEL 1
REMARK minimizedAffinity 0.64700973
REMARK minimizedRMSD -1
REMARK  0 active torsions:
REMARK  status: ('A' for Active; 'I' for Inactive)
ROOT
ATOM      1  C   UNL d   1       2.767  -1.858   4.666  0.00  0.00     0.078 C 
ATOM      2  C1  UNL d   1       2.531  -0.892   3.543  0.00  0.00    -0.077 A 
ATOM      3  C2  UNL d   1       1.633  -1.192   2.511  0.00  0.00    -0.001 A 
ATOM      4  C3  UNL d   1       1.431  -0.288   1.467  0.00  0.00     0.003 A 
ATOM      5  C4  UNL d   1       2.123   0.920   1.444  0.00  0.00    -0.005 A 
ATOM      6  C5  UNL d   1       3.020   1.227   2.465  0.00  0.00     0.003 A 
ATOM      7  C6  UNL d   1       3.224   0.324   3.510  0.00  0.00    -0.001 A 
ENDROOT
TORSDOF 0
ENDMDL
