MODEL 1
REMARK minimizedAffinity 0.105092771
REMARK minimizedRMSD -1
REMARK  0 active torsions:
REMARK  status: ('A' for Active; 'I' for Inactive)
ROOT
ATOM      1  C   UNL d   1       0.950   0.613   1.503  0.00  0.00     0.078 C 
ATOM      2  C1  UNL d   1      -0.214   0.060   2.270  0.00  0.00    -0.077 A 
ATOM      3  C2  UNL d   1      -1.473   0.669   2.207  0.00  0.00    -0.001 A 
ATOM      4  C3  UNL d   1      -2.545   0.150   2.934  0.00  0.00     0.003 A 
ATOM      5  C4  UNL d   1      -2.369  -0.980   3.731  0.00  0.00    -0.005 A 
ATOM      6  C5  UNL d   1      -1.119  -1.591   3.801  0.00  0.00     0.003 A 
ATOM      7  C6  UNL d   1      -0.046  -1.074   3.075  0.00  0.00    -0.001 A 
ENDROOT
TORSDOF 0
ENDMDL
