MODEL 1
REMARK minimizedAffinity -0.273017675
REMARK minimizedRMSD -1
REMARK  0 active torsions:
REMARK  status: ('A' for Active; 'I' for Inactive)
ROOT
ATOM      1  C   UNL d   1      -1.236  -0.338   4.394  0.00  0.00     0.078 C 
ATOM      2  C1  UNL d   1      -0.652  -0.234   3.017  0.00  0.00    -0.077 A 
ATOM      3  C2  UNL d   1       0.722  -0.403   2.802  0.00  0.00    -0.001 A 
ATOM      4  C3  UNL d   1       1.253  -0.293   1.516  0.00  0.00     0.003 A 
ATOM      5  C4  UNL d   1       0.419  -0.013   0.435  0.00  0.00    -0.005 A 
ATOM      6  C5  UNL d   1      -0.948   0.158   0.640  0.00  0.00     0.003 A 
ATOM      7  C6  UNL d   1      -1.482   0.049   1.925  0.00  0.00    -0.001 A 
ENDROOT
TORSDOF 0
ENDMDL
