MODEL 1
REMARK minimizedAffinity -3.13202405
REMARK minimizedRMSD -1
REMARK  0 active torsions:
REMARK  status: ('A' for Active; 'I' for Inactive)
ROOT
ATOM      1  C   UNL d   1       1.088  -1.513   4.175  0.00  0.00     0.078 C 
ATOM      2  C1  UNL d   1      -0.369  -1.372   3.849  0.00  0.00    -0.077 A 
ATOM      3  C2  UNL d   1      -1.310  -2.287   4.339  0.00  0.00    -0.001 A 
ATOM      4  C3  UNL d   1      -2.661  -2.150   4.019  0.00  0.00     0.003 A 
ATOM      5  C4  UNL d   1      -3.085  -1.100   3.206  0.00  0.00    -0.005 A 
ATOM      6  C5  UNL d   1      -2.156  -0.187   2.711  0.00  0.00     0.003 A 
ATOM      7  C6  UNL d   1      -0.804  -0.322   3.031  0.00  0.00    -0.001 A 
ENDROOT
TORSDOF 0
ENDMDL
