MODEL 1
REMARK minimizedAffinity 4.27926064
REMARK minimizedRMSD -1
REMARK  0 active torsions:
REMARK  status: ('A' for Active; 'I' for Inactive)
ROOT
ATOM      1  C   UNL d   1       2.446   3.013   0.865  0.00  0.00     0.078 C 
ATOM      2  C1  UNL d   1       3.327   3.523   1.966  0.00  0.00    -0.077 A 
ATOM      3  C2  UNL d   1       3.854   2.653   2.929  0.00  0.00    -0.001 A 
ATOM      4  C3  UNL d   1       4.666   3.143   3.953  0.00  0.00     0.003 A 
ATOM      5  C4  UNL d   1       4.956   4.503   4.026  0.00  0.00    -0.005 A 
ATOM      6  C5  UNL d   1       4.435   5.377   3.074  0.00  0.00     0.003 A 
ATOM      7  C6  UNL d   1       3.623   4.889   2.048  0.00  0.00    -0.001 A 
ENDROOT
TORSDOF 0
ENDMDL
