MODEL 1
REMARK minimizedAffinity -0.256445348
REMARK minimizedRMSD -1
REMARK  0 active torsions:
REMARK  status: ('A' for Active; 'I' for Inactive)
ROOT
ATOM      1  C   UNL d   1       1.287   0.030   1.149  0.00  0.00     0.078 C 
ATOM      2  C1  UNL d   1       0.005   0.077   1.925  0.00  0.00    -0.077 A 
ATOM      3  C2  UNL d   1      -1.087   0.824   1.468  0.00  0.00    -0.001 A 
ATOM      4  C3  UNL d   1      -2.272   0.866   2.205  0.00  0.00     0.003 A 
ATOM      5  C4  UNL d   1      -2.375   0.163   3.404  0.00  0.00    -0.005 A 
ATOM      6  C5  UNL d   1      -1.293  -0.582   3.867  0.00  0.00     0.003 A 
ATOM      7  C6  UNL d   1      -0.108  -0.625   3.132  0.00  0.00    -0.001 A 
ENDROOT
TORSDOF 0
ENDMDL
