MODEL 1
REMARK minimizedAffinity -0.196007892
REMARK minimizedRMSD -1
REMARK  0 active torsions:
REMARK  status: ('A' for Active; 'I' for Inactive)
ROOT
ATOM      1  C   UNL d   1       0.400  -2.748  -1.542  0.00  0.00     0.078 C 
ATOM      2  C1  UNL d   1       0.388  -3.497  -2.840  0.00  0.00    -0.077 A 
ATOM      3  C2  UNL d   1      -0.010  -2.874  -4.029  0.00  0.00    -0.001 A 
ATOM      4  C3  UNL d   1      -0.025  -3.587  -5.229  0.00  0.00     0.003 A 
ATOM      5  C4  UNL d   1       0.356  -4.927  -5.252  0.00  0.00    -0.005 A 
ATOM      6  C5  UNL d   1       0.752  -5.556  -4.074  0.00  0.00     0.003 A 
ATOM      7  C6  UNL d   1       0.767  -4.845  -2.873  0.00  0.00    -0.001 A 
ENDROOT
TORSDOF 0
ENDMDL
