MODEL 1
REMARK minimizedAffinity 7.10035515
REMARK minimizedRMSD -1
REMARK  0 active torsions:
REMARK  status: ('A' for Active; 'I' for Inactive)
ROOT
ATOM      1  C2' OXE d   1      -1.198   2.176   0.576  0.00  0.00     0.078 C 
ATOM      2  C1' OXE d   1       1.506   1.493   0.894  0.00  0.00     0.078 C 
ATOM      3  C1  OXE d   1       1.187   2.824   0.261  0.00  0.00    -0.078 A 
ATOM      4  C2  OXE d   1      -0.139   3.130   0.068  0.00  0.00    -0.078 A 
ATOM      5  C3  OXE d   1      -0.490   4.369  -0.461  0.00  0.00     0.003 A 
ATOM      6  C4  OXE d   1       0.495   5.241  -0.939  0.00  0.00    -0.002 A 
ATOM      7  C5  OXE d   1       1.851   4.932  -0.787  0.00  0.00    -0.002 A 
ATOM      8  C6  OXE d   1       2.213   3.749  -0.152  0.00  0.00     0.003 A 
ENDROOT
TORSDOF 0
ENDMDL
