MODEL 1
REMARK minimizedAffinity -0.491890669
REMARK minimizedRMSD -1
REMARK  0 active torsions:
REMARK  status: ('A' for Active; 'I' for Inactive)
ROOT
ATOM      1  C2' OXE d   1      -5.207   1.502  -3.056  0.00  0.00     0.078 C 
ATOM      2  C1' OXE d   1      -2.842   3.014  -3.000  0.00  0.00     0.078 C 
ATOM      3  C1  OXE d   1      -3.866   3.347  -4.056  0.00  0.00    -0.078 A 
ATOM      4  C2  OXE d   1      -4.999   2.572  -4.106  0.00  0.00    -0.078 A 
ATOM      5  C3  OXE d   1      -6.000   2.872  -5.026  0.00  0.00     0.003 A 
ATOM      6  C4  OXE d   1      -5.795   3.857  -6.000  0.00  0.00    -0.002 A 
ATOM      7  C5  OXE d   1      -4.631   4.632  -5.992  0.00  0.00    -0.002 A 
ATOM      8  C6  OXE d   1      -3.677   4.419  -5.003  0.00  0.00     0.003 A 
ENDROOT
TORSDOF 0
ENDMDL
