MODEL 1
REMARK minimizedAffinity 4.97265053
REMARK minimizedRMSD -1
REMARK  0 active torsions:
REMARK  status: ('A' for Active; 'I' for Inactive)
ROOT
ATOM      1  C2' OXE d   1      -2.330   3.244   0.195  0.00  0.00     0.078 C 
ATOM      2  C1' OXE d   1       0.319   2.341   0.410  0.00  0.00     0.078 C 
ATOM      3  C1  OXE d   1       0.075   3.634  -0.326  0.00  0.00    -0.078 A 
ATOM      4  C2  OXE d   1      -1.229   4.045  -0.467  0.00  0.00    -0.078 A 
ATOM      5  C3  OXE d   1      -1.507   5.258  -1.090  0.00  0.00     0.003 A 
ATOM      6  C4  OXE d   1      -0.484   5.988  -1.708  0.00  0.00    -0.002 A 
ATOM      7  C5  OXE d   1       0.847   5.567  -1.611  0.00  0.00    -0.002 A 
ATOM      8  C6  OXE d   1       1.147   4.417  -0.889  0.00  0.00     0.003 A 
ENDROOT
TORSDOF 0
ENDMDL
