MODEL 1
REMARK minimizedAffinity 12.4625978
REMARK minimizedRMSD -1
REMARK  0 active torsions:
REMARK  status: ('A' for Active; 'I' for Inactive)
ROOT
ATOM      1  C2' OXE d   1      -4.785   1.855  -2.114  0.00  0.00     0.078 C 
ATOM      2  C1' OXE d   1      -2.842   3.738  -2.859  0.00  0.00     0.078 C 
ATOM      3  C1  OXE d   1      -2.693   2.331  -3.380  0.00  0.00    -0.078 A 
ATOM      4  C2  OXE d   1      -3.623   1.404  -2.973  0.00  0.00    -0.078 A 
ATOM      5  C3  OXE d   1      -3.564   0.105  -3.468  0.00  0.00     0.003 A 
ATOM      6  C4  OXE d   1      -2.481  -0.306  -4.254  0.00  0.00    -0.002 A 
ATOM      7  C5  OXE d   1      -1.501   0.612  -4.648  0.00  0.00    -0.002 A 
ATOM      8  C6  OXE d   1      -1.616   1.941  -4.256  0.00  0.00     0.003 A 
ENDROOT
TORSDOF 0
ENDMDL
