MODEL 1
REMARK minimizedAffinity 8.13063812
REMARK minimizedRMSD -1
REMARK  0 active torsions:
REMARK  status: ('A' for Active; 'I' for Inactive)
ROOT
ATOM      1  C2' OXE d   1       5.239  -2.411   0.156  0.00  0.00     0.078 C 
ATOM      2  C1' OXE d   1       5.368  -2.954   2.907  0.00  0.00     0.078 C 
ATOM      3  C1  OXE d   1       4.210  -2.126   2.407  0.00  0.00    -0.078 A 
ATOM      4  C2  OXE d   1       4.181  -1.826   1.066  0.00  0.00    -0.078 A 
ATOM      5  C3  OXE d   1       3.106  -1.112   0.543  0.00  0.00     0.003 A 
ATOM      6  C4  OXE d   1       2.137  -0.567   1.393  0.00  0.00    -0.002 A 
ATOM      7  C5  OXE d   1       2.170  -0.827   2.767  0.00  0.00    -0.002 A 
ATOM      8  C6  OXE d   1       3.174  -1.639   3.283  0.00  0.00     0.003 A 
ENDROOT
TORSDOF 0
ENDMDL
