MODEL 1
REMARK minimizedAffinity 9.61940193
REMARK minimizedRMSD -1
REMARK  0 active torsions:
REMARK  status: ('A' for Active; 'I' for Inactive)
ROOT
ATOM      1  C2' OXE d   1      -4.949  -0.829   5.980  0.00  0.00     0.078 C 
ATOM      2  C1' OXE d   1      -2.832   0.522   4.725  0.00  0.00     0.078 C 
ATOM      3  C1  OXE d   1      -3.927  -0.037   3.851  0.00  0.00    -0.078 A 
ATOM      4  C2  OXE d   1      -4.934  -0.737   4.470  0.00  0.00    -0.078 A 
ATOM      5  C3  OXE d   1      -5.997  -1.227   3.716  0.00  0.00     0.003 A 
ATOM      6  C4  OXE d   1      -5.971  -1.147   2.318  0.00  0.00    -0.002 A 
ATOM      7  C5  OXE d   1      -4.933  -0.473   1.665  0.00  0.00    -0.002 A 
ATOM      8  C6  OXE d   1      -3.928   0.123   2.418  0.00  0.00     0.003 A 
ENDROOT
TORSDOF 0
ENDMDL
