MODEL 1
REMARK minimizedAffinity 6.32063341
REMARK minimizedRMSD -1
REMARK  0 active torsions:
REMARK  status: ('A' for Active; 'I' for Inactive)
ROOT
ATOM      1  C2' OXE d   1       2.498   4.118  -0.440  0.00  0.00     0.078 C 
ATOM      2  C1' OXE d   1       1.497   6.000  -2.267  0.00  0.00     0.078 C 
ATOM      3  C1  OXE d   1       0.599   4.853  -1.875  0.00  0.00    -0.078 A 
ATOM      4  C2  OXE d   1       1.114   3.912  -1.016  0.00  0.00    -0.078 A 
ATOM      5  C3  OXE d   1       0.309   2.864  -0.580  0.00  0.00     0.003 A 
ATOM      6  C4  OXE d   1      -0.967   2.675  -1.125  0.00  0.00    -0.002 A 
ATOM      7  C5  OXE d   1      -1.496   3.600  -2.031  0.00  0.00    -0.002 A 
ATOM      8  C6  OXE d   1      -0.743   4.716  -2.383  0.00  0.00     0.003 A 
ENDROOT
TORSDOF 0
ENDMDL
