MODEL 1
REMARK minimizedAffinity 13.1677008
REMARK minimizedRMSD -1
REMARK  0 active torsions:
REMARK  status: ('A' for Active; 'I' for Inactive)
ROOT
ATOM      1  C2' OXE d   1      -2.454   2.918  -1.312  0.00  0.00     0.078 C 
ATOM      2  C1' OXE d   1       0.040   1.827  -0.625  0.00  0.00     0.078 C 
ATOM      3  C1  OXE d   1       0.021   3.196  -1.258  0.00  0.00    -0.078 A 
ATOM      4  C2  OXE d   1      -1.200   3.702  -1.633  0.00  0.00    -0.078 A 
ATOM      5  C3  OXE d   1      -1.279   4.984  -2.171  0.00  0.00     0.003 A 
ATOM      6  C4  OXE d   1      -0.114   5.698  -2.474  0.00  0.00    -0.002 A 
ATOM      7  C5  OXE d   1       1.142   5.184  -2.136  0.00  0.00    -0.002 A 
ATOM      8  C6  OXE d   1       1.224   3.956  -1.490  0.00  0.00     0.003 A 
ENDROOT
TORSDOF 0
ENDMDL
