MODEL 1
REMARK minimizedAffinity 14.0903015
REMARK minimizedRMSD -1
REMARK  0 active torsions:
REMARK  status: ('A' for Active; 'I' for Inactive)
ROOT
ATOM      1  C2' OXE d   1      -2.085   1.194  -4.082  0.00  0.00     0.078 C 
ATOM      2  C1' OXE d   1      -2.742   3.439  -2.530  0.00  0.00     0.078 C 
ATOM      3  C1  OXE d   1      -3.696   2.271  -2.517  0.00  0.00    -0.078 A 
ATOM      4  C2  OXE d   1      -3.390   1.195  -3.316  0.00  0.00    -0.078 A 
ATOM      5  C3  OXE d   1      -4.208   0.069  -3.299  0.00  0.00     0.003 A 
ATOM      6  C4  OXE d   1      -5.418   0.083  -2.596  0.00  0.00    -0.002 A 
ATOM      7  C5  OXE d   1      -5.769   1.184  -1.807  0.00  0.00    -0.002 A 
ATOM      8  C6  OXE d   1      -4.900   2.266  -1.724  0.00  0.00     0.003 A 
ENDROOT
TORSDOF 0
ENDMDL
