MODEL 1
REMARK minimizedAffinity 10.6569834
REMARK minimizedRMSD -1
REMARK  0 active torsions:
REMARK  status: ('A' for Active; 'I' for Inactive)
ROOT
ATOM      1  C2' OXE d   1       4.159  -5.871  -1.366  0.00  0.00     0.078 C 
ATOM      2  C1' OXE d   1       2.238  -5.126  -3.273  0.00  0.00     0.078 C 
ATOM      3  C1  OXE d   1       1.766  -5.388  -1.864  0.00  0.00    -0.078 A 
ATOM      4  C2  OXE d   1       2.706  -5.797  -0.949  0.00  0.00    -0.078 A 
ATOM      5  C3  OXE d   1       2.334  -6.000   0.377  0.00  0.00     0.003 A 
ATOM      6  C4  OXE d   1       0.987  -5.940   0.752  0.00  0.00    -0.002 A 
ATOM      7  C5  OXE d   1       0.008  -5.564  -0.174  0.00  0.00    -0.002 A 
ATOM      8  C6  OXE d   1       0.386  -5.244  -1.473  0.00  0.00     0.003 A 
ENDROOT
TORSDOF 0
ENDMDL
