MODEL 1
REMARK minimizedAffinity -2.89611697
REMARK minimizedRMSD -1
REMARK  0 active torsions:
REMARK  status: ('A' for Active; 'I' for Inactive)
ROOT
ATOM      1  C2' OXE d   1      -1.058   3.195   0.007  0.00  0.00     0.078 C 
ATOM      2  C1' OXE d   1      -2.909   1.810   1.599  0.00  0.00     0.078 C 
ATOM      3  C1  OXE d   1      -3.162   3.274   1.338  0.00  0.00    -0.078 A 
ATOM      4  C2  OXE d   1      -2.227   3.955   0.596  0.00  0.00    -0.078 A 
ATOM      5  C3  OXE d   1      -2.439   5.294   0.280  0.00  0.00     0.003 A 
ATOM      6  C4  OXE d   1      -3.518   5.991   0.837  0.00  0.00    -0.002 A 
ATOM      7  C5  OXE d   1      -4.461   5.326   1.627  0.00  0.00    -0.002 A 
ATOM      8  C6  OXE d   1      -4.321   3.961   1.852  0.00  0.00     0.003 A 
ENDROOT
TORSDOF 0
ENDMDL
