MODEL 1
REMARK minimizedAffinity 10.413681
REMARK minimizedRMSD -1
REMARK  0 active torsions:
REMARK  status: ('A' for Active; 'I' for Inactive)
ROOT
ATOM      1  C2' OXE d   1      -2.660   3.078  -1.436  0.00  0.00     0.078 C 
ATOM      2  C1' OXE d   1      -2.894   5.704  -2.400  0.00  0.00     0.078 C 
ATOM      3  C1  OXE d   1      -1.511   5.192  -2.082  0.00  0.00    -0.078 A 
ATOM      4  C2  OXE d   1      -1.411   3.922  -1.566  0.00  0.00    -0.078 A 
ATOM      5  C3  OXE d   1      -0.155   3.381  -1.307  0.00  0.00     0.003 A 
ATOM      6  C4  OXE d   1       0.995   4.172  -1.421  0.00  0.00    -0.002 A 
ATOM      7  C5  OXE d   1       0.911   5.482  -1.906  0.00  0.00    -0.002 A 
ATOM      8  C6  OXE d   1      -0.327   5.991  -2.281  0.00  0.00     0.003 A 
ENDROOT
TORSDOF 0
ENDMDL
