MODEL 1
REMARK minimizedAffinity -0.712566555
REMARK minimizedRMSD -1
REMARK  0 active torsions:
REMARK  status: ('A' for Active; 'I' for Inactive)
ROOT
ATOM      1  C2' OXE d   1      -2.251   1.907   1.559  0.00  0.00     0.078 C 
ATOM      2  C1' OXE d   1      -1.068   3.515  -0.414  0.00  0.00     0.078 C 
ATOM      3  C1  OXE d   1      -2.141   4.133   0.448  0.00  0.00    -0.078 A 
ATOM      4  C2  OXE d   1      -2.747   3.325   1.379  0.00  0.00    -0.078 A 
ATOM      5  C3  OXE d   1      -3.704   3.860   2.237  0.00  0.00     0.003 A 
ATOM      6  C4  OXE d   1      -4.164   5.170   2.057  0.00  0.00    -0.002 A 
ATOM      7  C5  OXE d   1      -3.588   5.998   1.088  0.00  0.00    -0.002 A 
ATOM      8  C6  OXE d   1      -2.548   5.509   0.305  0.00  0.00     0.003 A 
ENDROOT
TORSDOF 0
ENDMDL
