MODEL 1
REMARK minimizedAffinity -2.95700359
REMARK minimizedRMSD -1
REMARK  0 active torsions:
REMARK  status: ('A' for Active; 'I' for Inactive)
ROOT
ATOM      1  N1  IND d   1       1.300  -1.338   2.082  0.00  0.00    -0.196 N 
ATOM      2  C2  IND d   1       0.319  -0.784   2.857  0.00  0.00     0.054 A 
ATOM      3  C3  IND d   1      -0.589  -0.149   2.083  0.00  0.00    -0.031 A 
ATOM      4  C4  IND d   1      -0.719   0.020  -0.483  0.00  0.00     0.051 A 
ATOM      5  C5  IND d   1      -0.029  -0.297  -1.620  0.00  0.00    -0.031 A 
ATOM      6  C6  IND d   1       1.162  -0.993  -1.580  0.00  0.00     0.015 A 
ATOM      7  C7  IND d   1       1.704  -1.411  -0.397  0.00  0.00    -0.016 A 
ATOM      8  C8  IND d   1       1.009  -1.085   0.760  0.00  0.00    -0.047 A 
ATOM      9  C9  IND d   1      -0.178  -0.342   0.728  0.00  0.00    -0.096 A 
ATOM     10  HN1 IND d   1       1.983  -1.773   2.372  0.00  0.00     0.298 HD
ENDROOT
TORSDOF 0
ENDMDL
