MODEL 1
REMARK minimizedAffinity -4.22510672
REMARK minimizedRMSD -1
REMARK  0 active torsions:
REMARK  status: ('A' for Active; 'I' for Inactive)
ROOT
ATOM      1  N1  IND d   1       0.615  -0.415  -1.609  0.00  0.00    -0.196 N 
ATOM      2  C2  IND d   1      -0.276   0.555  -1.976  0.00  0.00     0.054 A 
ATOM      3  C3  IND d   1      -0.840   1.114  -0.882  0.00  0.00    -0.031 A 
ATOM      4  C4  IND d   1      -0.376   0.662   1.609  0.00  0.00     0.051 A 
ATOM      5  C5  IND d   1       0.329  -0.161   2.442  0.00  0.00    -0.031 A 
ATOM      6  C6  IND d   1       1.185  -1.129   1.956  0.00  0.00     0.015 A 
ATOM      7  C7  IND d   1       1.377  -1.302   0.615  0.00  0.00    -0.016 A 
ATOM      8  C8  IND d   1       0.657  -0.473  -0.233  0.00  0.00    -0.047 A 
ATOM      9  C9  IND d   1      -0.245   0.483   0.252  0.00  0.00    -0.096 A 
ATOM     10  HN1 IND d   1       1.072  -0.906  -2.147  0.00  0.00     0.298 HD
ENDROOT
TORSDOF 0
ENDMDL
