MODEL 1
REMARK minimizedAffinity -3.54971671
REMARK minimizedRMSD -1
REMARK  0 active torsions:
REMARK  status: ('A' for Active; 'I' for Inactive)
ROOT
ATOM      1  N1  IND d   1       1.127  -1.044  -0.869  0.00  0.00    -0.196 N 
ATOM      2  C2  IND d   1       1.872  -1.980  -0.208  0.00  0.00     0.054 A 
ATOM      3  C3  IND d   1       1.524  -2.021   1.098  0.00  0.00    -0.031 A 
ATOM      4  C4  IND d   1      -0.311  -0.714   2.344  0.00  0.00     0.051 A 
ATOM      5  C5  IND d   1      -1.231   0.282   2.170  0.00  0.00    -0.031 A 
ATOM      6  C6  IND d   1      -1.417   0.898   0.950  0.00  0.00     0.015 A 
ATOM      7  C7  IND d   1      -0.695   0.531  -0.151  0.00  0.00    -0.016 A 
ATOM      8  C8  IND d   1       0.244  -0.476   0.023  0.00  0.00    -0.047 A 
ATOM      9  C9  IND d   1       0.467  -1.075   1.270  0.00  0.00    -0.096 A 
ATOM     10  HN1 IND d   1       1.198  -0.843  -1.702  0.00  0.00     0.298 HD
ENDROOT
TORSDOF 0
ENDMDL
