MODEL 1
REMARK minimizedAffinity -3.94439816
REMARK minimizedRMSD -1
REMARK  0 active torsions:
REMARK  status: ('A' for Active; 'I' for Inactive)
ROOT
ATOM      1  N1  IND d   1      -0.812   0.379  -1.021  0.00  0.00    -0.196 N 
ATOM      2  C2  IND d   1      -0.013  -0.048  -2.045  0.00  0.00     0.054 A 
ATOM      3  C3  IND d   1       0.946  -0.879  -1.578  0.00  0.00    -0.031 A 
ATOM      4  C4  IND d   1       1.327  -1.757   0.812  0.00  0.00     0.051 A 
ATOM      5  C5  IND d   1       0.876  -1.621   2.094  0.00  0.00    -0.031 A 
ATOM      6  C6  IND d   1      -0.185  -0.796   2.410  0.00  0.00     0.015 A 
ATOM      7  C7  IND d   1      -0.844  -0.083   1.448  0.00  0.00    -0.016 A 
ATOM      8  C8  IND d   1      -0.383  -0.214   0.146  0.00  0.00    -0.047 A 
ATOM      9  C9  IND d   1       0.720  -1.016  -0.174  0.00  0.00    -0.096 A 
ATOM     10  HN1 IND d   1      -1.472   0.925  -1.094  0.00  0.00     0.298 HD
ENDROOT
TORSDOF 0
ENDMDL
