MODEL 1
REMARK minimizedAffinity 14.8811588
REMARK minimizedRMSD -1
REMARK  1 active torsions:
REMARK  status: ('A' for Active; 'I' for Inactive)
REMARK    1  A    between atoms: C3_4  and  O_7 
ROOT
ATOM      1  C   UNL d   1      -3.585   5.863   1.696  0.00  0.00    -0.033 A 
ATOM      2  C1  UNL d   1      -2.651   5.470   0.735  0.00  0.00     0.039 A 
ATOM      3  C2  UNL d   1      -3.061   5.209  -0.574  0.00  0.00    -0.080 A 
ATOM      4  C3  UNL d   1      -4.405   5.346  -0.909  0.00  0.00     0.150 A 
ATOM      5  C4  UNL d   1      -5.340   5.741   0.042  0.00  0.00    -0.007 A 
ATOM      6  C5  UNL d   1      -4.929   6.000   1.349  0.00  0.00     0.039 A 
ENDROOT
BRANCH   4   7
ATOM      7  O   UNL d   1      -4.853   5.097  -2.172  0.00  0.00    -0.526 OA
ATOM      8  H5  UNL d   1      -4.101   4.806  -2.714  0.00  0.00     0.418 HD
ENDBRANCH   4   7
TORSDOF 1
ENDMDL
