MODEL 1
REMARK minimizedAffinity 7.71853399
REMARK minimizedRMSD -1
REMARK  1 active torsions:
REMARK  status: ('A' for Active; 'I' for Inactive)
REMARK    1  A    between atoms: C3_4  and  O_7 
ROOT
ATOM      1  C   UNL d   1      -1.543   2.514  -0.491  0.00  0.00    -0.033 A 
ATOM      2  C1  UNL d   1      -0.174   2.725  -0.665  0.00  0.00     0.039 A 
ATOM      3  C2  UNL d   1       0.696   2.604   0.421  0.00  0.00    -0.080 A 
ATOM      4  C3  UNL d   1       0.184   2.271   1.672  0.00  0.00     0.150 A 
ATOM      5  C4  UNL d   1      -1.178   2.056   1.851  0.00  0.00    -0.007 A 
ATOM      6  C5  UNL d   1      -2.045   2.178   0.766  0.00  0.00     0.039 A 
ENDROOT
BRANCH   4   7
ATOM      7  O   UNL d   1       0.994   2.147   2.762  0.00  0.00    -0.526 OA
ATOM      8  H5  UNL d   1       1.905   2.352   2.494  0.00  0.00     0.418 HD
ENDBRANCH   4   7
TORSDOF 1
ENDMDL
