MODEL 1
REMARK minimizedAffinity 9.66860104
REMARK minimizedRMSD -1
REMARK  1 active torsions:
REMARK  status: ('A' for Active; 'I' for Inactive)
REMARK    1  A    between atoms: C3_4  and  O_7 
ROOT
ATOM      1  C   UNL d   1      -3.383   5.944   0.646  0.00  0.00    -0.033 A 
ATOM      2  C1  UNL d   1      -4.685   5.863   1.142  0.00  0.00     0.039 A 
ATOM      3  C2  UNL d   1      -5.236   4.621   1.463  0.00  0.00    -0.080 A 
ATOM      4  C3  UNL d   1      -4.474   3.469   1.285  0.00  0.00     0.150 A 
ATOM      5  C4  UNL d   1      -3.174   3.543   0.795  0.00  0.00    -0.007 A 
ATOM      6  C5  UNL d   1      -2.626   4.784   0.474  0.00  0.00     0.039 A 
ENDROOT
BRANCH   4   7
ATOM      7  O   UNL d   1      -4.969   2.234   1.581  0.00  0.00    -0.526 OA
ATOM      8  H5  UNL d   1      -5.888   2.335   1.882  0.00  0.00     0.418 HD
ENDBRANCH   4   7
TORSDOF 1
ENDMDL
