MODEL 1
REMARK minimizedAffinity 4.43960571
REMARK minimizedRMSD -1
REMARK  1 active torsions:
REMARK  status: ('A' for Active; 'I' for Inactive)
REMARK    1  A    between atoms: C3_4  and  O_7 
ROOT
ATOM      1  C   UNL d   1      -3.968  -2.663   5.742  0.00  0.00    -0.033 A 
ATOM      2  C1  UNL d   1      -3.277  -3.622   4.998  0.00  0.00     0.039 A 
ATOM      3  C2  UNL d   1      -3.946  -4.748   4.514  0.00  0.00    -0.080 A 
ATOM      4  C3  UNL d   1      -5.304  -4.902   4.779  0.00  0.00     0.150 A 
ATOM      5  C4  UNL d   1      -5.999  -3.949   5.516  0.00  0.00    -0.007 A 
ATOM      6  C5  UNL d   1      -5.329  -2.826   6.000  0.00  0.00     0.039 A 
ENDROOT
BRANCH   4   7
ATOM      7  O   UNL d   1      -5.999  -5.986   4.332  0.00  0.00    -0.526 OA
ATOM      8  H5  UNL d   1      -5.383  -6.574   3.863  0.00  0.00     0.418 HD
ENDBRANCH   4   7
TORSDOF 1
ENDMDL
