MODEL 1
REMARK minimizedAffinity 17.3427296
REMARK minimizedRMSD -1
REMARK  1 active torsions:
REMARK  status: ('A' for Active; 'I' for Inactive)
REMARK    1  A    between atoms: C3_4  and  O_7 
ROOT
ATOM      1  C   UNL d   1       5.951  -5.999  -0.074  0.00  0.00    -0.033 A 
ATOM      2  C1  UNL d   1       5.930  -5.574   1.256  0.00  0.00     0.039 A 
ATOM      3  C2  UNL d   1       5.939  -4.210   1.555  0.00  0.00    -0.080 A 
ATOM      4  C3  UNL d   1       5.969  -3.283   0.517  0.00  0.00     0.150 A 
ATOM      5  C4  UNL d   1       5.986  -3.700  -0.810  0.00  0.00    -0.007 A 
ATOM      6  C5  UNL d   1       5.977  -5.062  -1.107  0.00  0.00     0.039 A 
ENDROOT
BRANCH   4   7
ATOM      7  O   UNL d   1       5.984  -1.942   0.759  0.00  0.00    -0.526 OA
ATOM      8  H5  UNL d   1       5.998  -1.803   1.721  0.00  0.00     0.418 HD
ENDBRANCH   4   7
TORSDOF 1
ENDMDL
