MODEL 1
REMARK minimizedAffinity -0.937601745
REMARK minimizedRMSD -1
REMARK  1 active torsions:
REMARK  status: ('A' for Active; 'I' for Inactive)
REMARK    1  A    between atoms: C3_4  and  O_7 
ROOT
ATOM      1  C   UNL d   1      -2.053   5.510  -4.409  0.00  0.00    -0.033 A 
ATOM      2  C1  UNL d   1      -3.107   5.898  -5.239  0.00  0.00     0.039 A 
ATOM      3  C2  UNL d   1      -4.074   4.967  -5.624  0.00  0.00    -0.080 A 
ATOM      4  C3  UNL d   1      -3.975   3.654  -5.174  0.00  0.00     0.150 A 
ATOM      5  C4  UNL d   1      -2.930   3.261  -4.345  0.00  0.00    -0.007 A 
ATOM      6  C5  UNL d   1      -1.965   4.192  -3.961  0.00  0.00     0.039 A 
ENDROOT
BRANCH   4   7
ATOM      7  O   UNL d   1      -4.892   2.709  -5.528  0.00  0.00    -0.526 OA
ATOM      8  H5  UNL d   1      -5.540   3.117  -6.126  0.00  0.00     0.418 HD
ENDBRANCH   4   7
TORSDOF 1
ENDMDL
