MODEL 1
REMARK minimizedAffinity 6.553792
REMARK minimizedRMSD -1
REMARK  1 active torsions:
REMARK  status: ('A' for Active; 'I' for Inactive)
REMARK    1  A    between atoms: C3_4  and  O_7 
ROOT
ATOM      1  C   UNL d   1      -1.930   6.000  -4.843  0.00  0.00    -0.033 A 
ATOM      2  C1  UNL d   1      -2.949   5.606  -5.712  0.00  0.00     0.039 A 
ATOM      3  C2  UNL d   1      -3.521   4.338  -5.591  0.00  0.00    -0.080 A 
ATOM      4  C3  UNL d   1      -3.065   3.475  -4.598  0.00  0.00     0.150 A 
ATOM      5  C4  UNL d   1      -2.053   3.862  -3.727  0.00  0.00    -0.007 A 
ATOM      6  C5  UNL d   1      -1.483   5.128  -3.849  0.00  0.00     0.039 A 
ENDROOT
BRANCH   4   7
ATOM      7  O   UNL d   1      -3.589   2.225  -4.445  0.00  0.00    -0.526 OA
ATOM      8  H5  UNL d   1      -4.259   2.086  -5.135  0.00  0.00     0.418 HD
ENDBRANCH   4   7
TORSDOF 1
ENDMDL
