MODEL 1
REMARK minimizedAffinity 8.98661613
REMARK minimizedRMSD -1
REMARK  1 active torsions:
REMARK  status: ('A' for Active; 'I' for Inactive)
REMARK    1  A    between atoms: C3_4  and  O_7 
ROOT
ATOM      1  C   UNL d   1      -0.543   4.617  -4.366  0.00  0.00    -0.033 A 
ATOM      2  C1  UNL d   1      -0.500   5.523  -5.428  0.00  0.00     0.039 A 
ATOM      3  C2  UNL d   1      -1.686   6.000  -5.989  0.00  0.00    -0.080 A 
ATOM      4  C3  UNL d   1      -2.906   5.564  -5.481  0.00  0.00     0.150 A 
ATOM      5  C4  UNL d   1      -2.956   4.664  -4.421  0.00  0.00    -0.007 A 
ATOM      6  C5  UNL d   1      -1.771   4.189  -3.862  0.00  0.00     0.039 A 
ENDROOT
BRANCH   4   7
ATOM      7  O   UNL d   1      -4.090   5.998  -6.000  0.00  0.00    -0.526 OA
ATOM      8  H5  UNL d   1      -3.900   6.592  -6.744  0.00  0.00     0.418 HD
ENDBRANCH   4   7
TORSDOF 1
ENDMDL
