MODEL 1
REMARK minimizedAffinity 5.05208015
REMARK minimizedRMSD -1
REMARK  1 active torsions:
REMARK  status: ('A' for Active; 'I' for Inactive)
REMARK    1  A    between atoms: C3_4  and  O_7 
ROOT
ATOM      1  C   UNL d   1      -6.000  -4.046   5.065  0.00  0.00    -0.033 A 
ATOM      2  C1  UNL d   1      -5.584  -3.096   6.000  0.00  0.00     0.039 A 
ATOM      3  C2  UNL d   1      -4.262  -2.645   5.999  0.00  0.00    -0.080 A 
ATOM      4  C3  UNL d   1      -3.368  -3.151   5.060  0.00  0.00     0.150 A 
ATOM      5  C4  UNL d   1      -3.777  -4.095   4.123  0.00  0.00    -0.007 A 
ATOM      6  C5  UNL d   1      -5.096  -4.544   4.125  0.00  0.00     0.039 A 
ENDROOT
BRANCH   4   7
ATOM      7  O   UNL d   1      -2.067  -2.745   5.024  0.00  0.00    -0.526 OA
ATOM      8  H5  UNL d   1      -1.922  -2.113   5.747  0.00  0.00     0.418 HD
ENDBRANCH   4   7
TORSDOF 1
ENDMDL
