MODEL 1
REMARK minimizedAffinity -1.14590883
REMARK minimizedRMSD -1
REMARK  1 active torsions:
REMARK  status: ('A' for Active; 'I' for Inactive)
REMARK    1  A    between atoms: C3_4  and  O_7 
ROOT
ATOM      1  C   UNL d   1      -2.330   5.999  -5.250  0.00  0.00    -0.033 A 
ATOM      2  C1  UNL d   1      -3.491   5.785  -5.997  0.00  0.00     0.039 A 
ATOM      3  C2  UNL d   1      -4.099   4.529  -6.000  0.00  0.00    -0.080 A 
ATOM      4  C3  UNL d   1      -3.539   3.496  -5.253  0.00  0.00     0.150 A 
ATOM      5  C4  UNL d   1      -2.385   3.703  -4.504  0.00  0.00    -0.007 A 
ATOM      6  C5  UNL d   1      -1.778   4.958  -4.503  0.00  0.00     0.039 A 
ENDROOT
BRANCH   4   7
ATOM      7  O   UNL d   1      -4.094   2.252  -5.229  0.00  0.00    -0.526 OA
ATOM      8  H5  UNL d   1      -4.869   2.249  -5.815  0.00  0.00     0.418 HD
ENDBRANCH   4   7
TORSDOF 1
ENDMDL
