MODEL 1
REMARK minimizedAffinity 13.7446499
REMARK minimizedRMSD -1
REMARK  1 active torsions:
REMARK  status: ('A' for Active; 'I' for Inactive)
REMARK    1  A    between atoms: C3_4  and  O_7 
ROOT
ATOM      1  C   UNL d   1      -3.189   4.270  -2.624  0.00  0.00    -0.033 A 
ATOM      2  C1  UNL d   1      -1.920   3.719  -2.812  0.00  0.00     0.039 A 
ATOM      3  C2  UNL d   1      -1.039   4.289  -3.732  0.00  0.00    -0.080 A 
ATOM      4  C3  UNL d   1      -1.437   5.408  -4.457  0.00  0.00     0.150 A 
ATOM      5  C4  UNL d   1      -2.698   5.965  -4.273  0.00  0.00    -0.007 A 
ATOM      6  C5  UNL d   1      -3.578   5.394  -3.354  0.00  0.00     0.039 A 
ENDROOT
BRANCH   4   7
ATOM      7  O   UNL d   1      -0.613   5.996  -5.370  0.00  0.00    -0.526 OA
ATOM      8  H5  UNL d   1       0.214   5.487  -5.411  0.00  0.00     0.418 HD
ENDBRANCH   4   7
TORSDOF 1
ENDMDL
