MODEL 1
REMARK minimizedAffinity 9.66090298
REMARK minimizedRMSD -1
REMARK  1 active torsions:
REMARK  status: ('A' for Active; 'I' for Inactive)
REMARK    1  A    between atoms: C3_4  and  O_7 
ROOT
ATOM      1  C   UNL d   1      -0.970   1.518   3.351  0.00  0.00    -0.033 A 
ATOM      2  C1  UNL d   1      -1.344   2.068   2.124  0.00  0.00     0.039 A 
ATOM      3  C2  UNL d   1      -0.491   2.956   1.465  0.00  0.00    -0.080 A 
ATOM      4  C3  UNL d   1       0.732   3.284   2.043  0.00  0.00     0.150 A 
ATOM      5  C4  UNL d   1       1.113   2.737   3.264  0.00  0.00    -0.007 A 
ATOM      6  C5  UNL d   1       0.260   1.851   3.920  0.00  0.00     0.039 A 
ENDROOT
BRANCH   4   7
ATOM      7  O   UNL d   1       1.596   4.149   1.440  0.00  0.00    -0.526 OA
ATOM      8  H5  UNL d   1       1.187   4.469   0.618  0.00  0.00     0.418 HD
ENDBRANCH   4   7
TORSDOF 1
ENDMDL
