MODEL 1
REMARK minimizedAffinity 5.5398407
REMARK minimizedRMSD -1
REMARK  1 active torsions:
REMARK  status: ('A' for Active; 'I' for Inactive)
REMARK    1  A    between atoms: C3_4  and  O_7 
ROOT
ATOM      1  C   UNL d   1      -5.981  -2.323  -0.264  0.00  0.00    -0.033 A 
ATOM      2  C1  UNL d   1      -5.992  -3.715  -0.146  0.00  0.00     0.039 A 
ATOM      3  C2  UNL d   1      -5.998  -4.310   1.116  0.00  0.00    -0.080 A 
ATOM      4  C3  UNL d   1      -5.995  -3.505   2.252  0.00  0.00     0.150 A 
ATOM      5  C4  UNL d   1      -5.988  -2.118   2.142  0.00  0.00    -0.007 A 
ATOM      6  C5  UNL d   1      -5.981  -1.525   0.881  0.00  0.00     0.039 A 
ENDROOT
BRANCH   4   7
ATOM      7  O   UNL d   1      -5.996  -4.041   3.505  0.00  0.00    -0.526 OA
ATOM      8  H5  UNL d   1      -5.971  -5.009   3.426  0.00  0.00     0.418 HD
ENDBRANCH   4   7
TORSDOF 1
ENDMDL
