MODEL 1
REMARK minimizedAffinity 12.2036705
REMARK minimizedRMSD -1
REMARK  1 active torsions:
REMARK  status: ('A' for Active; 'I' for Inactive)
REMARK    1  A    between atoms: C3_4  and  O_7 
ROOT
ATOM      1  C   UNL d   1       0.421   2.447   0.007  0.00  0.00    -0.033 A 
ATOM      2  C1  UNL d   1       0.953   2.629  -1.271  0.00  0.00     0.039 A 
ATOM      3  C2  UNL d   1       0.125   2.550  -2.392  0.00  0.00    -0.080 A 
ATOM      4  C3  UNL d   1      -1.232   2.291  -2.222  0.00  0.00     0.150 A 
ATOM      5  C4  UNL d   1      -1.770   2.113  -0.952  0.00  0.00    -0.007 A 
ATOM      6  C5  UNL d   1      -0.942   2.191   0.167  0.00  0.00     0.039 A 
ENDROOT
BRANCH   4   7
ATOM      7  O   UNL d   1      -2.079   2.201  -3.287  0.00  0.00    -0.526 OA
ATOM      8  H5  UNL d   1      -1.562   2.317  -4.102  0.00  0.00     0.418 HD
ENDBRANCH   4   7
TORSDOF 1
ENDMDL
