MODEL 1
REMARK minimizedAffinity 1.35822248
REMARK minimizedRMSD -1
REMARK  1 active torsions:
REMARK  status: ('A' for Active; 'I' for Inactive)
REMARK    1  A    between atoms: C3_4  and  O_7 
ROOT
ATOM      1  C   UNL d   1      -5.980  -4.499   3.868  0.00  0.00    -0.033 A 
ATOM      2  C1  UNL d   1      -5.991  -5.725   3.200  0.00  0.00     0.039 A 
ATOM      3  C2  UNL d   1      -5.996  -5.762   1.804  0.00  0.00    -0.080 A 
ATOM      4  C3  UNL d   1      -5.990  -4.568   1.089  0.00  0.00     0.150 A 
ATOM      5  C4  UNL d   1      -5.974  -3.343   1.748  0.00  0.00    -0.007 A 
ATOM      6  C5  UNL d   1      -5.970  -3.308   3.141  0.00  0.00     0.039 A 
ENDROOT
BRANCH   4   7
ATOM      7  O   UNL d   1      -5.999  -4.554  -0.274  0.00  0.00    -0.526 OA
ATOM      8  H5  UNL d   1      -6.038  -5.472  -0.591  0.00  0.00     0.418 HD
ENDBRANCH   4   7
TORSDOF 1
ENDMDL
