MODEL 1
REMARK minimizedAffinity 10.1890593
REMARK minimizedRMSD -1
REMARK  1 active torsions:
REMARK  status: ('A' for Active; 'I' for Inactive)
REMARK    1  A    between atoms: C3_4  and  O_7 
ROOT
ATOM      1  C   UNL d   1      -6.000  -4.554   5.180  0.00  0.00    -0.033 A 
ATOM      2  C1  UNL d   1      -5.962  -3.394   5.957  0.00  0.00     0.039 A 
ATOM      3  C2  UNL d   1      -4.805  -2.613   5.992  0.00  0.00    -0.080 A 
ATOM      4  C3  UNL d   1      -3.696  -3.000   5.246  0.00  0.00     0.150 A 
ATOM      5  C4  UNL d   1      -3.728  -4.152   4.467  0.00  0.00    -0.007 A 
ATOM      6  C5  UNL d   1      -4.883  -4.931   4.434  0.00  0.00     0.039 A 
ENDROOT
BRANCH   4   7
ATOM      7  O   UNL d   1      -2.543  -2.272   5.252  0.00  0.00    -0.526 OA
ATOM      8  H5  UNL d   1      -2.658  -1.520   5.857  0.00  0.00     0.418 HD
ENDBRANCH   4   7
TORSDOF 1
ENDMDL
