MODEL 1
REMARK minimizedAffinity 11.0038815
REMARK minimizedRMSD -1
REMARK  1 active torsions:
REMARK  status: ('A' for Active; 'I' for Inactive)
REMARK    1  A    between atoms: C3_4  and  O_7 
ROOT
ATOM      1  C   UNL d   1       0.371   3.118  -0.736  0.00  0.00    -0.033 A 
ATOM      2  C1  UNL d   1       0.315   2.119   0.238  0.00  0.00     0.039 A 
ATOM      3  C2  UNL d   1      -0.885   1.854   0.900  0.00  0.00    -0.080 A 
ATOM      4  C3  UNL d   1      -2.021   2.592   0.579  0.00  0.00     0.150 A 
ATOM      5  C4  UNL d   1      -1.973   3.586  -0.393  0.00  0.00    -0.007 A 
ATOM      6  C5  UNL d   1      -0.773   3.850  -1.053  0.00  0.00     0.039 A 
ENDROOT
BRANCH   4   7
ATOM      7  O   UNL d   1      -3.213   2.372   1.201  0.00  0.00    -0.526 OA
ATOM      8  H5  UNL d   1      -3.089   1.677   1.869  0.00  0.00     0.418 HD
ENDBRANCH   4   7
TORSDOF 1
ENDMDL
