MODEL 1
REMARK minimizedAffinity 14.0019503
REMARK minimizedRMSD -1
REMARK  0 active torsions:
REMARK  status: ('A' for Active; 'I' for Inactive)
ROOT
ATOM      1  C   UNL d   1       1.792  -3.630   0.585  0.00  0.00     0.124 A 
ATOM      2  C1  UNL d   1       0.624  -4.179   1.096  0.00  0.00     0.062 A 
ATOM      3  C2  UNL d   1      -0.252  -3.392   1.839  0.00  0.00     0.162 A 
ATOM      4  C3  UNL d   1       0.035  -2.048   2.074  0.00  0.00    -0.034 A 
ATOM      5  C4  UNL d   1       1.212  -1.503   1.557  0.00  0.00     0.162 A 
ATOM      6  C5  UNL d   1       2.085  -2.293   0.815  0.00  0.00     0.062 A 
ATOM      7  F   UNL d   1       3.212  -1.761   0.322  0.00  0.00    -0.097 F 
ATOM      8  F1  UNL d   1       1.520  -0.214   1.764  0.00  0.00    -0.096 F 
ATOM      9  I   UNL d   1      -1.272  -0.869   3.184  0.00  0.00    -0.060 I 
ATOM     10  F2  UNL d   1      -1.373  -3.949   2.321  0.00  0.00    -0.096 F 
ATOM     11  F3  UNL d   1       0.339  -5.470   0.876  0.00  0.00    -0.097 F 
ATOM     12  F4  UNL d   1       2.633  -4.389  -0.128  0.00  0.00    -0.092 F 
ENDROOT
TORSDOF 0
ENDMDL
