MODEL 1
REMARK minimizedAffinity 20.7936897
REMARK minimizedRMSD -1
REMARK  0 active torsions:
REMARK  status: ('A' for Active; 'I' for Inactive)
ROOT
ATOM      1  C   UNL d   1       3.130  -3.371   0.512  0.00  0.00     0.124 A 
ATOM      2  C1  UNL d   1       2.115  -4.309   0.379  0.00  0.00     0.062 A 
ATOM      3  C2  UNL d   1       0.802  -3.968   0.690  0.00  0.00     0.162 A 
ATOM      4  C3  UNL d   1       0.495  -2.682   1.136  0.00  0.00    -0.034 A 
ATOM      5  C4  UNL d   1       1.521  -1.745   1.267  0.00  0.00     0.162 A 
ATOM      6  C5  UNL d   1       2.832  -2.091   0.955  0.00  0.00     0.062 A 
ATOM      7  F   UNL d   1       3.811  -1.183   1.084  0.00  0.00    -0.097 F 
ATOM      8  F1  UNL d   1       1.262  -0.500   1.693  0.00  0.00    -0.096 F 
ATOM      9  I   UNL d   1      -1.467  -2.169   1.601  0.00  0.00    -0.060 I 
ATOM     10  F2  UNL d   1      -0.158  -4.894   0.553  0.00  0.00    -0.096 F 
ATOM     11  F3  UNL d   1       2.400  -5.548  -0.048  0.00  0.00    -0.097 F 
ATOM     12  F4  UNL d   1       4.393  -3.702   0.213  0.00  0.00    -0.092 F 
ENDROOT
TORSDOF 0
ENDMDL
