MODEL 1
REMARK minimizedAffinity 26.0349998
REMARK minimizedRMSD -1
REMARK  0 active torsions:
REMARK  status: ('A' for Active; 'I' for Inactive)
ROOT
ATOM      1  C   UNL d   1       0.701  -1.431   1.401  0.00  0.00     0.124 A 
ATOM      2  C1  UNL d   1       1.668  -2.312   0.938  0.00  0.00     0.062 A 
ATOM      3  C2  UNL d   1       2.819  -2.544   1.686  0.00  0.00     0.162 A 
ATOM      4  C3  UNL d   1       3.009  -1.893   2.905  0.00  0.00    -0.034 A 
ATOM      5  C4  UNL d   1       2.032  -1.008   3.364  0.00  0.00     0.162 A 
ATOM      6  C5  UNL d   1       0.883  -0.780   2.613  0.00  0.00     0.062 A 
ATOM      7  F   UNL d   1      -0.050   0.071   3.062  0.00  0.00    -0.097 F 
ATOM      8  F1  UNL d   1       2.183  -0.366   4.532  0.00  0.00    -0.096 F 
ATOM      9  I   UNL d   1       4.729  -2.237   4.025  0.00  0.00    -0.060 I 
ATOM     10  F2  UNL d   1       3.737  -3.400   1.214  0.00  0.00    -0.096 F 
ATOM     11  F3  UNL d   1       1.494  -2.942  -0.233  0.00  0.00    -0.097 F 
ATOM     12  F4  UNL d   1      -0.406  -1.210   0.680  0.00  0.00    -0.092 F 
ENDROOT
TORSDOF 0
ENDMDL
