MODEL 1
REMARK minimizedAffinity 29.7443886
REMARK minimizedRMSD -1
REMARK  0 active torsions:
REMARK  status: ('A' for Active; 'I' for Inactive)
ROOT
ATOM      1  C   UNL d   1       2.687  -2.389   0.832  0.00  0.00     0.124 A 
ATOM      2  C1  UNL d   1       1.913  -1.445   1.491  0.00  0.00     0.062 A 
ATOM      3  C2  UNL d   1       0.626  -1.765   1.913  0.00  0.00     0.162 A 
ATOM      4  C3  UNL d   1       0.104  -3.038   1.678  0.00  0.00    -0.034 A 
ATOM      5  C4  UNL d   1       0.888  -3.982   1.013  0.00  0.00     0.162 A 
ATOM      6  C5  UNL d   1       2.174  -3.657   0.593  0.00  0.00     0.062 A 
ATOM      7  F   UNL d   1       2.921  -4.571  -0.044  0.00  0.00    -0.097 F 
ATOM      8  F1  UNL d   1       0.418  -5.215   0.770  0.00  0.00    -0.096 F 
ATOM      9  I   UNL d   1      -1.820  -3.521   2.307  0.00  0.00    -0.060 I 
ATOM     10  F2  UNL d   1      -0.100  -0.833   2.548  0.00  0.00    -0.096 F 
ATOM     11  F3  UNL d   1       2.405  -0.219   1.722  0.00  0.00    -0.097 F 
ATOM     12  F4  UNL d   1       3.924  -2.078   0.426  0.00  0.00    -0.092 F 
ENDROOT
TORSDOF 0
ENDMDL
