MODEL 1
REMARK minimizedAffinity 11.5606794
REMARK minimizedRMSD -1
REMARK  0 active torsions:
REMARK  status: ('A' for Active; 'I' for Inactive)
ROOT
ATOM      1  C   UNL d   1       2.319  -2.935   0.955  0.00  0.00     0.124 A 
ATOM      2  C1  UNL d   1       1.772  -1.820   1.576  0.00  0.00     0.062 A 
ATOM      3  C2  UNL d   1       0.408  -1.768   1.846  0.00  0.00     0.162 A 
ATOM      4  C3  UNL d   1      -0.420  -2.835   1.496  0.00  0.00    -0.034 A 
ATOM      5  C4  UNL d   1       0.137  -3.952   0.871  0.00  0.00     0.162 A 
ATOM      6  C5  UNL d   1       1.501  -3.999   0.603  0.00  0.00     0.062 A 
ATOM      7  F   UNL d   1       2.027  -5.077   0.003  0.00  0.00    -0.097 F 
ATOM      8  F1  UNL d   1      -0.631  -4.995   0.521  0.00  0.00    -0.096 F 
ATOM      9  I   UNL d   1      -2.461  -2.760   1.898  0.00  0.00    -0.060 I 
ATOM     10  F2  UNL d   1      -0.093  -0.678   2.447  0.00  0.00    -0.096 F 
ATOM     11  F3  UNL d   1       2.560  -0.790   1.916  0.00  0.00    -0.097 F 
ATOM     12  F4  UNL d   1       3.632  -2.982   0.695  0.00  0.00    -0.092 F 
ENDROOT
TORSDOF 0
ENDMDL
