MODEL 1
REMARK minimizedAffinity 26.7013721
REMARK minimizedRMSD -1
REMARK  0 active torsions:
REMARK  status: ('A' for Active; 'I' for Inactive)
ROOT
ATOM      1  C   UNL d   1       0.909  -2.111  -0.353  0.00  0.00     0.124 A 
ATOM      2  C1  UNL d   1       1.101  -0.932   0.353  0.00  0.00     0.062 A 
ATOM      3  C2  UNL d   1       1.933  -0.913   1.469  0.00  0.00     0.162 A 
ATOM      4  C3  UNL d   1       2.580  -2.077   1.885  0.00  0.00    -0.034 A 
ATOM      5  C4  UNL d   1       2.381  -3.259   1.170  0.00  0.00     0.162 A 
ATOM      6  C5  UNL d   1       1.548  -3.273   0.055  0.00  0.00     0.062 A 
ATOM      7  F   UNL d   1       1.364  -4.413  -0.626  0.00  0.00    -0.097 F 
ATOM      8  F1  UNL d   1       2.987  -4.396   1.542  0.00  0.00    -0.096 F 
ATOM      9  I   UNL d   1       3.824  -2.052   3.553  0.00  0.00    -0.060 I 
ATOM     10  F2  UNL d   1       2.101   0.241   2.133  0.00  0.00    -0.096 F 
ATOM     11  F3  UNL d   1       0.484   0.191  -0.039  0.00  0.00    -0.097 F 
ATOM     12  F4  UNL d   1       0.107  -2.127  -1.426  0.00  0.00    -0.092 F 
ENDROOT
TORSDOF 0
ENDMDL
