MODEL 1
REMARK minimizedAffinity 23.8056355
REMARK minimizedRMSD -1
REMARK  0 active torsions:
REMARK  status: ('A' for Active; 'I' for Inactive)
ROOT
ATOM      1  C   UNL d   1       3.174  -3.206   0.540  0.00  0.00     0.124 A 
ATOM      2  C1  UNL d   1       2.366  -4.303   0.808  0.00  0.00     0.062 A 
ATOM      3  C2  UNL d   1       1.107  -4.123   1.373  0.00  0.00     0.162 A 
ATOM      4  C3  UNL d   1       0.647  -2.841   1.673  0.00  0.00    -0.034 A 
ATOM      5  C4  UNL d   1       1.465  -1.743   1.401  0.00  0.00     0.162 A 
ATOM      6  C5  UNL d   1       2.723  -1.928   0.837  0.00  0.00     0.062 A 
ATOM      7  F   UNL d   1       3.502  -0.867   0.579  0.00  0.00    -0.097 F 
ATOM      8  F1  UNL d   1       1.054  -0.497   1.677  0.00  0.00    -0.096 F 
ATOM      9  I   UNL d   1      -1.236  -2.568   2.517  0.00  0.00    -0.060 I 
ATOM     10  F2  UNL d   1       0.348  -5.201   1.621  0.00  0.00    -0.096 F 
ATOM     11  F3  UNL d   1       2.800  -5.539   0.523  0.00  0.00    -0.097 F 
ATOM     12  F4  UNL d   1       4.386  -3.382  -0.003  0.00  0.00    -0.092 F 
ENDROOT
TORSDOF 0
ENDMDL
