MODEL 1
REMARK minimizedAffinity 26.1701412
REMARK minimizedRMSD -1
REMARK  0 active torsions:
REMARK  status: ('A' for Active; 'I' for Inactive)
ROOT
ATOM      1  C   UNL d   1      -3.369   1.013  -2.126  0.00  0.00     0.124 A 
ATOM      2  C1  UNL d   1      -4.401   0.432  -2.850  0.00  0.00     0.062 A 
ATOM      3  C2  UNL d   1      -5.006   1.131  -3.891  0.00  0.00     0.162 A 
ATOM      4  C3  UNL d   1      -4.580   2.419  -4.214  0.00  0.00    -0.034 A 
ATOM      5  C4  UNL d   1      -3.542   2.997  -3.480  0.00  0.00     0.162 A 
ATOM      6  C5  UNL d   1      -2.941   2.294  -2.441  0.00  0.00     0.062 A 
ATOM      7  F   UNL d   1      -1.945   2.857  -1.742  0.00  0.00    -0.097 F 
ATOM      8  F1  UNL d   1      -3.108   4.234  -3.765  0.00  0.00    -0.096 F 
ATOM      9  I   UNL d   1      -5.481   3.467  -5.769  0.00  0.00    -0.060 I 
ATOM     10  F2  UNL d   1      -6.000   0.544  -4.574  0.00  0.00    -0.096 F 
ATOM     11  F3  UNL d   1      -4.817  -0.806  -2.547  0.00  0.00    -0.097 F 
ATOM     12  F4  UNL d   1      -2.790   0.338  -1.124  0.00  0.00    -0.092 F 
ENDROOT
TORSDOF 0
ENDMDL
