MODEL 1
REMARK minimizedAffinity -1.86451209
REMARK minimizedRMSD -1
REMARK  2 active torsions:
REMARK  status: ('A' for Active; 'I' for Inactive)
REMARK    1  A    between atoms: C2'_3  and  C1'_4 
REMARK    2  A    between atoms: C1'_4  and  C1_5 
ROOT
ATOM      1  C1  I4B d   1       1.792  -1.268   2.144  0.00  0.00    -0.075 A 
ATOM      2  C2  I4B d   1       3.090  -1.170   1.709  0.00  0.00     0.003 A 
ATOM      3  C3  I4B d   1       4.147  -1.045   2.643  0.00  0.00     0.002 A 
ATOM      4  C4  I4B d   1       3.858  -0.972   3.990  0.00  0.00    -0.004 A 
ATOM      5  C5  I4B d   1       2.544  -1.094   4.431  0.00  0.00     0.002 A 
ATOM      6  C6  I4B d   1       1.505  -1.255   3.503  0.00  0.00     0.003 A 
ENDROOT
BRANCH   1   7
ATOM      7  C1' I4B d   1       0.697  -1.365   1.129  0.00  0.00     0.060 C 
BRANCH   7   8
ATOM      8  C2' I4B d   1       0.697  -0.086   0.317  0.00  0.00    -0.013 C 
ATOM      9  C4' I4B d   1       0.836  -0.375  -1.154  0.00  0.00     0.013 C 
ATOM     10  C3' I4B d   1      -0.578   0.647   0.607  0.00  0.00     0.013 C 
ENDBRANCH   7   8
ENDBRANCH   1   7
TORSDOF 2
ENDMDL
