MODEL 1
REMARK minimizedAffinity 4.02268791
REMARK minimizedRMSD -1
REMARK  2 active torsions:
REMARK  status: ('A' for Active; 'I' for Inactive)
REMARK    1  A    between atoms: C2'_3  and  C1'_4 
REMARK    2  A    between atoms: C1'_4  and  C1_5 
ROOT
ATOM      1  C1  I4B d   1       2.000  -0.927   1.978  0.00  0.00    -0.075 A 
ATOM      2  C2  I4B d   1       3.026  -0.781   1.079  0.00  0.00     0.003 A 
ATOM      3  C3  I4B d   1       4.370  -0.773   1.526  0.00  0.00     0.002 A 
ATOM      4  C4  I4B d   1       4.637  -0.864   2.877  0.00  0.00    -0.004 A 
ATOM      5  C5  I4B d   1       3.596  -1.035   3.785  0.00  0.00     0.002 A 
ATOM      6  C6  I4B d   1       2.270  -1.080   3.332  0.00  0.00     0.003 A 
ENDROOT
BRANCH   1   7
ATOM      7  C1' I4B d   1       0.591  -0.897   1.475  0.00  0.00     0.060 C 
BRANCH   7   8
ATOM      8  C2' I4B d   1       0.601  -1.358   0.032  0.00  0.00    -0.013 C 
ATOM      9  C4' I4B d   1       0.075  -2.764  -0.095  0.00  0.00     0.013 C 
ATOM     10  C3' I4B d   1      -0.226  -0.396  -0.767  0.00  0.00     0.013 C 
ENDBRANCH   7   8
ENDBRANCH   1   7
TORSDOF 2
ENDMDL
