MODEL 1
REMARK minimizedAffinity 6.69797945
REMARK minimizedRMSD -1
REMARK  2 active torsions:
REMARK  status: ('A' for Active; 'I' for Inactive)
REMARK    1  A    between atoms: C2'_3  and  C1'_4 
REMARK    2  A    between atoms: C1'_4  and  C1_5 
ROOT
ATOM      1  C1  I4B d   1      -2.132  -1.640   0.274  0.00  0.00    -0.075 A 
ATOM      2  C2  I4B d   1      -1.223  -2.643   0.048  0.00  0.00     0.003 A 
ATOM      3  C3  I4B d   1       0.165  -2.389   0.171  0.00  0.00     0.002 A 
ATOM      4  C4  I4B d   1       0.598  -1.113   0.469  0.00  0.00    -0.004 A 
ATOM      5  C5  I4B d   1      -0.326  -0.103   0.721  0.00  0.00     0.002 A 
ATOM      6  C6  I4B d   1      -1.700  -0.370   0.635  0.00  0.00     0.003 A 
ENDROOT
BRANCH   1   7
ATOM      7  C1' I4B d   1      -3.588  -1.935   0.104  0.00  0.00     0.060 C 
BRANCH   7   8
ATOM      8  C2' I4B d   1      -4.269  -0.668  -0.372  0.00  0.00    -0.013 C 
ATOM      9  C4' I4B d   1      -4.911  -0.867  -1.719  0.00  0.00     0.013 C 
ATOM     10  C3' I4B d   1      -5.284  -0.273   0.659  0.00  0.00     0.013 C 
ENDBRANCH   7   8
ENDBRANCH   1   7
TORSDOF 2
ENDMDL
