MODEL 1
REMARK minimizedAffinity 8.48242664
REMARK minimizedRMSD -1
REMARK  2 active torsions:
REMARK  status: ('A' for Active; 'I' for Inactive)
REMARK    1  A    between atoms: C2'_3  and  C1'_4 
REMARK    2  A    between atoms: C1'_4  and  C1_5 
ROOT
ATOM      1  C1  I4B d   1       3.937  -2.836   4.882  0.00  0.00    -0.075 A 
ATOM      2  C2  I4B d   1       3.548  -3.167   3.608  0.00  0.00     0.003 A 
ATOM      3  C3  I4B d   1       3.764  -2.263   2.540  0.00  0.00     0.002 A 
ATOM      4  C4  I4B d   1       4.322  -1.027   2.797  0.00  0.00    -0.004 A 
ATOM      5  C5  I4B d   1       4.737  -0.703   4.086  0.00  0.00     0.002 A 
ATOM      6  C6  I4B d   1       4.554  -1.618   5.133  0.00  0.00     0.003 A 
ENDROOT
BRANCH   1   7
ATOM      7  C1' I4B d   1       3.663  -3.801   5.992  0.00  0.00     0.060 C 
BRANCH   7   8
ATOM      8  C2' I4B d   1       3.813  -5.204   5.439  0.00  0.00    -0.013 C 
ATOM      9  C4' I4B d   1       5.037  -5.882   5.997  0.00  0.00     0.013 C 
ATOM     10  C3' I4B d   1       2.569  -5.970   5.775  0.00  0.00     0.013 C 
ENDBRANCH   7   8
ENDBRANCH   1   7
TORSDOF 2
ENDMDL
