MODEL 1
REMARK minimizedAffinity 1.12165189
REMARK minimizedRMSD -1
REMARK  2 active torsions:
REMARK  status: ('A' for Active; 'I' for Inactive)
REMARK    1  A    between atoms: C2'_3  and  C1'_4 
REMARK    2  A    between atoms: C1'_4  and  C1_5 
ROOT
ATOM      1  C1  I4B d   1       1.601  -1.438   1.146  0.00  0.00    -0.075 A 
ATOM      2  C2  I4B d   1       2.967  -1.459   1.007  0.00  0.00     0.003 A 
ATOM      3  C3  I4B d   1       3.797  -1.614   2.144  0.00  0.00     0.002 A 
ATOM      4  C4  I4B d   1       3.225  -1.695   3.397  0.00  0.00    -0.004 A 
ATOM      5  C5  I4B d   1       1.840  -1.697   3.534  0.00  0.00     0.002 A 
ATOM      6  C6  I4B d   1       1.022  -1.580   2.400  0.00  0.00     0.003 A 
ENDROOT
BRANCH   1   7
ATOM      7  C1' I4B d   1       0.756  -1.239  -0.071  0.00  0.00     0.060 C 
BRANCH   7   8
ATOM      8  C2' I4B d   1       0.890   0.207  -0.501  0.00  0.00    -0.013 C 
ATOM      9  C4' I4B d   1       0.265   0.434  -1.853  0.00  0.00     0.013 C 
ATOM     10  C3' I4B d   1       0.241   1.063   0.545  0.00  0.00     0.013 C 
ENDBRANCH   7   8
ENDBRANCH   1   7
TORSDOF 2
ENDMDL
