MODEL 1
REMARK minimizedAffinity 5.27908325
REMARK minimizedRMSD -1
REMARK  2 active torsions:
REMARK  status: ('A' for Active; 'I' for Inactive)
REMARK    1  A    between atoms: C2'_3  and  C1'_4 
REMARK    2  A    between atoms: C1'_4  and  C1_5 
ROOT
ATOM      1  C1  I4B d   1      -1.933  -1.667   0.221  0.00  0.00    -0.075 A 
ATOM      2  C2  I4B d   1      -1.058  -2.716   0.095  0.00  0.00     0.003 A 
ATOM      3  C3  I4B d   1       0.332  -2.510   0.271  0.00  0.00     0.002 A 
ATOM      4  C4  I4B d   1       0.804  -1.238   0.521  0.00  0.00    -0.004 A 
ATOM      5  C5  I4B d   1      -0.087  -0.179   0.672  0.00  0.00     0.002 A 
ATOM      6  C6  I4B d   1      -1.465  -0.397   0.533  0.00  0.00     0.003 A 
ENDROOT
BRANCH   1   7
ATOM      7  C1' I4B d   1      -3.391  -1.913  -0.004  0.00  0.00     0.060 C 
BRANCH   7   8
ATOM      8  C2' I4B d   1      -4.038  -0.591  -0.365  0.00  0.00    -0.013 C 
ATOM      9  C4' I4B d   1      -4.918  -0.728  -1.580  0.00  0.00     0.013 C 
ATOM     10  C3' I4B d   1      -4.824  -0.121   0.822  0.00  0.00     0.013 C 
ENDBRANCH   7   8
ENDBRANCH   1   7
TORSDOF 2
ENDMDL
