MODEL 1
REMARK minimizedAffinity 7.60649633
REMARK minimizedRMSD -1
REMARK  2 active torsions:
REMARK  status: ('A' for Active; 'I' for Inactive)
REMARK    1  A    between atoms: C2'_3  and  C1'_4 
REMARK    2  A    between atoms: C1'_4  and  C1_5 
ROOT
ATOM      1  C1  I4B d   1      -3.064   1.358  -3.139  0.00  0.00    -0.075 A 
ATOM      2  C2  I4B d   1      -2.972   2.230  -4.194  0.00  0.00     0.003 A 
ATOM      3  C3  I4B d   1      -1.726   2.810  -4.534  0.00  0.00     0.002 A 
ATOM      4  C4  I4B d   1      -0.614   2.530  -3.766  0.00  0.00    -0.004 A 
ATOM      5  C5  I4B d   1      -0.704   1.627  -2.710  0.00  0.00     0.002 A 
ATOM      6  C6  I4B d   1      -1.934   1.027  -2.402  0.00  0.00     0.003 A 
ENDROOT
BRANCH   1   7
ATOM      7  C1' I4B d   1      -4.402   0.789  -2.787  0.00  0.00     0.060 C 
BRANCH   7   8
ATOM      8  C2' I4B d   1      -4.197  -0.257  -1.711  0.00  0.00    -0.013 C 
ATOM      9  C4' I4B d   1      -5.077   0.008  -0.518  0.00  0.00     0.013 C 
ATOM     10  C3' I4B d   1      -4.487  -1.601  -2.310  0.00  0.00     0.013 C 
ENDBRANCH   7   8
ENDBRANCH   1   7
TORSDOF 2
ENDMDL
