MODEL 1
REMARK minimizedAffinity 5.45288277
REMARK minimizedRMSD -1
REMARK  2 active torsions:
REMARK  status: ('A' for Active; 'I' for Inactive)
REMARK    1  A    between atoms: C2'_3  and  C1'_4 
REMARK    2  A    between atoms: C1'_4  and  C1_5 
ROOT
ATOM      1  C1  I4B d   1       3.224  -1.066   1.480  0.00  0.00    -0.075 A 
ATOM      2  C2  I4B d   1       4.562  -0.785   1.361  0.00  0.00     0.003 A 
ATOM      3  C3  I4B d   1       5.395  -0.785   2.506  0.00  0.00     0.002 A 
ATOM      4  C4  I4B d   1       4.842  -1.019   3.749  0.00  0.00    -0.004 A 
ATOM      5  C5  I4B d   1       3.490  -1.326   3.865  0.00  0.00     0.002 A 
ATOM      6  C6  I4B d   1       2.677  -1.362   2.722  0.00  0.00     0.003 A 
ENDROOT
BRANCH   1   7
ATOM      7  C1' I4B d   1       2.367  -1.025   0.255  0.00  0.00     0.060 C 
BRANCH   7   8
ATOM      8  C2' I4B d   1       0.919  -1.098   0.695  0.00  0.00    -0.013 C 
ATOM      9  C4' I4B d   1       0.210   0.208   0.454  0.00  0.00     0.013 C 
ATOM     10  C3' I4B d   1       0.263  -2.218  -0.057  0.00  0.00     0.013 C 
ENDBRANCH   7   8
ENDBRANCH   1   7
TORSDOF 2
ENDMDL
