MODEL 1
REMARK minimizedAffinity 9.99949646
REMARK minimizedRMSD -1
REMARK  2 active torsions:
REMARK  status: ('A' for Active; 'I' for Inactive)
REMARK    1  A    between atoms: C2'_3  and  C1'_4 
REMARK    2  A    between atoms: C1'_4  and  C1_5 
ROOT
ATOM      1  C1  I4B d   1      -3.252   1.856  -3.622  0.00  0.00    -0.075 A 
ATOM      2  C2  I4B d   1      -3.174   3.092  -4.212  0.00  0.00     0.003 A 
ATOM      3  C3  I4B d   1      -1.943   3.791  -4.243  0.00  0.00     0.002 A 
ATOM      4  C4  I4B d   1      -0.834   3.242  -3.632  0.00  0.00    -0.004 A 
ATOM      5  C5  I4B d   1      -0.909   1.978  -3.054  0.00  0.00     0.002 A 
ATOM      6  C6  I4B d   1      -2.123   1.275  -3.060  0.00  0.00     0.003 A 
ENDROOT
BRANCH   1   7
ATOM      7  C1' I4B d   1      -4.576   1.160  -3.577  0.00  0.00     0.060 C 
BRANCH   7   8
ATOM      8  C2' I4B d   1      -4.497   0.075  -2.523  0.00  0.00    -0.013 C 
ATOM      9  C4' I4B d   1      -5.504   0.306  -1.427  0.00  0.00     0.013 C 
ATOM     10  C3' I4B d   1      -4.726  -1.244  -3.199  0.00  0.00     0.013 C 
ENDBRANCH   7   8
ENDBRANCH   1   7
TORSDOF 2
ENDMDL
