MODEL 1
REMARK minimizedAffinity 4.08643103
REMARK minimizedRMSD -1
REMARK  2 active torsions:
REMARK  status: ('A' for Active; 'I' for Inactive)
REMARK    1  A    between atoms: C2'_3  and  C1'_4 
REMARK    2  A    between atoms: C1'_4  and  C1_5 
ROOT
ATOM      1  C1  I4B d   1      -2.182  -4.847  -2.476  0.00  0.00    -0.075 A 
ATOM      2  C2  I4B d   1      -2.962  -5.160  -3.562  0.00  0.00     0.003 A 
ATOM      3  C3  I4B d   1      -2.360  -5.467  -4.806  0.00  0.00     0.002 A 
ATOM      4  C4  I4B d   1      -0.987  -5.399  -4.933  0.00  0.00    -0.004 A 
ATOM      5  C5  I4B d   1      -0.198  -5.103  -3.825  0.00  0.00     0.002 A 
ATOM      6  C6  I4B d   1      -0.798  -4.837  -2.586  0.00  0.00     0.003 A 
ENDROOT
BRANCH   1   7
ATOM      7  C1' I4B d   1      -2.852  -4.496  -1.186  0.00  0.00     0.060 C 
BRANCH   7   8
ATOM      8  C2' I4B d   1      -1.794  -4.473  -0.102  0.00  0.00    -0.013 C 
ATOM      9  C4' I4B d   1      -0.997  -3.196  -0.145  0.00  0.00     0.013 C 
ATOM     10  C3' I4B d   1      -2.482  -4.638   1.221  0.00  0.00     0.013 C 
ENDBRANCH   7   8
ENDBRANCH   1   7
TORSDOF 2
ENDMDL
