MODEL 1
REMARK minimizedAffinity 5.47940111
REMARK minimizedRMSD -1
REMARK  2 active torsions:
REMARK  status: ('A' for Active; 'I' for Inactive)
REMARK    1  A    between atoms: C2'_3  and  C1'_4 
REMARK    2  A    between atoms: C1'_4  and  C1_5 
ROOT
ATOM      1  C1  I4B d   1       3.171  -0.763   1.321  0.00  0.00    -0.075 A 
ATOM      2  C2  I4B d   1       4.462  -0.360   1.086  0.00  0.00     0.003 A 
ATOM      3  C3  I4B d   1       5.424  -0.409   2.124  0.00  0.00     0.002 A 
ATOM      4  C4  I4B d   1       5.042  -0.816   3.386  0.00  0.00    -0.004 A 
ATOM      5  C5  I4B d   1       3.738  -1.246   3.616  0.00  0.00     0.002 A 
ATOM      6  C6  I4B d   1       2.799  -1.231   2.575  0.00  0.00     0.003 A 
ENDROOT
BRANCH   1   7
ATOM      7  C1' I4B d   1       2.173  -0.667   0.211  0.00  0.00     0.060 C 
BRANCH   7   8
ATOM      8  C2' I4B d   1       0.794  -0.878   0.803  0.00  0.00    -0.013 C 
ATOM      9  C4' I4B d   1      -0.117   0.280   0.489  0.00  0.00     0.013 C 
ATOM     10  C3' I4B d   1       0.246  -2.162   0.256  0.00  0.00     0.013 C 
ENDBRANCH   7   8
ENDBRANCH   1   7
TORSDOF 2
ENDMDL
