MODEL 1
REMARK minimizedAffinity -3.43579173
REMARK minimizedRMSD -1
REMARK  2 active torsions:
REMARK  status: ('A' for Active; 'I' for Inactive)
REMARK    1  A    between atoms: C2'_3  and  C1'_4 
REMARK    2  A    between atoms: C1'_4  and  C1_5 
ROOT
ATOM      1  C1  I4B d   1      -0.085  -0.668  -0.271  0.00  0.00    -0.075 A 
ATOM      2  C2  I4B d   1      -0.673   0.331  -1.007  0.00  0.00     0.003 A 
ATOM      3  C3  I4B d   1      -1.125   1.512  -0.371  0.00  0.00     0.002 A 
ATOM      4  C4  I4B d   1      -1.018   1.630   1.000  0.00  0.00    -0.004 A 
ATOM      5  C5  I4B d   1      -0.401   0.627   1.741  0.00  0.00     0.002 A 
ATOM      6  C6  I4B d   1       0.079  -0.525   1.101  0.00  0.00     0.003 A 
ENDROOT
BRANCH   1   7
ATOM      7  C1' I4B d   1       0.352  -1.916  -0.970  0.00  0.00     0.060 C 
BRANCH   7   8
ATOM      8  C2' I4B d   1      -0.813  -2.885  -0.968  0.00  0.00    -0.013 C 
ATOM      9  C4' I4B d   1      -1.327  -3.122  -2.364  0.00  0.00     0.013 C 
ATOM     10  C3' I4B d   1      -0.352  -4.164  -0.336  0.00  0.00     0.013 C 
ENDBRANCH   7   8
ENDBRANCH   1   7
TORSDOF 2
ENDMDL
