MODEL 1
REMARK minimizedAffinity 2.86181974
REMARK minimizedRMSD -1
REMARK  2 active torsions:
REMARK  status: ('A' for Active; 'I' for Inactive)
REMARK    1  A    between atoms: C2'_3  and  C1'_4 
REMARK    2  A    between atoms: C1'_4  and  C1_5 
ROOT
ATOM      1  C1  I4B d   1       0.354   0.453   1.666  0.00  0.00    -0.075 A 
ATOM      2  C2  I4B d   1       1.316  -0.515   1.516  0.00  0.00     0.003 A 
ATOM      3  C3  I4B d   1       1.971  -0.682   0.271  0.00  0.00     0.002 A 
ATOM      4  C4  I4B d   1       1.600   0.101  -0.803  0.00  0.00    -0.004 A 
ATOM      5  C5  I4B d   1       0.641   1.097  -0.642  0.00  0.00     0.002 A 
ATOM      6  C6  I4B d   1       0.022   1.282   0.603  0.00  0.00     0.003 A 
ENDROOT
BRANCH   1   7
ATOM      7  C1' I4B d   1      -0.341   0.580   2.984  0.00  0.00     0.060 C 
BRANCH   7   8
ATOM      8  C2' I4B d   1      -0.575  -0.816   3.525  0.00  0.00    -0.013 C 
ATOM      9  C4' I4B d   1      -0.029  -0.959   4.921  0.00  0.00     0.013 C 
ATOM     10  C3' I4B d   1      -2.050  -1.085   3.490  0.00  0.00     0.013 C 
ENDBRANCH   7   8
ENDBRANCH   1   7
TORSDOF 2
ENDMDL
