MODEL 1
REMARK minimizedAffinity -2.68330717
REMARK minimizedRMSD -1
REMARK  2 active torsions:
REMARK  status: ('A' for Active; 'I' for Inactive)
REMARK    1  A    between atoms: C2'_3  and  C1'_4 
REMARK    2  A    between atoms: C1'_4  and  C1_5 
ROOT
ATOM      1  C1  I4B d   1       0.042   0.807   0.691  0.00  0.00    -0.075 A 
ATOM      2  C2  I4B d   1      -0.087   1.756   1.675  0.00  0.00     0.003 A 
ATOM      3  C3  I4B d   1      -0.357   3.104   1.334  0.00  0.00     0.002 A 
ATOM      4  C4  I4B d   1      -0.440   3.465   0.005  0.00  0.00    -0.004 A 
ATOM      5  C5  I4B d   1      -0.332   2.498  -0.990  0.00  0.00     0.002 A 
ATOM      6  C6  I4B d   1      -0.102   1.158  -0.645  0.00  0.00     0.003 A 
ENDROOT
BRANCH   1   7
ATOM      7  C1' I4B d   1       0.359  -0.600   1.085  0.00  0.00     0.060 C 
BRANCH   7   8
ATOM      8  C2' I4B d   1      -0.251  -1.523   0.050  0.00  0.00    -0.013 C 
ATOM      9  C4' I4B d   1       0.795  -2.044  -0.901  0.00  0.00     0.013 C 
ATOM     10  C3' I4B d   1      -0.930  -2.647   0.775  0.00  0.00     0.013 C 
ENDBRANCH   7   8
ENDBRANCH   1   7
TORSDOF 2
ENDMDL
