MODEL 1
REMARK minimizedAffinity -5.40584707
REMARK minimizedRMSD -1
REMARK  2 active torsions:
REMARK  status: ('A' for Active; 'I' for Inactive)
REMARK    1  A    between atoms: C2'_3  and  C1'_4 
REMARK    2  A    between atoms: C1'_4  and  C1_5 
ROOT
ATOM      1  C1  I4B d   1      -0.072  -0.354   0.459  0.00  0.00    -0.075 A 
ATOM      2  C2  I4B d   1      -0.015   0.012   1.781  0.00  0.00     0.003 A 
ATOM      3  C3  I4B d   1      -0.431   1.305   2.181  0.00  0.00     0.002 A 
ATOM      4  C4  I4B d   1      -0.846   2.211   1.227  0.00  0.00    -0.004 A 
ATOM      5  C5  I4B d   1      -0.925   1.830  -0.110  0.00  0.00     0.002 A 
ATOM      6  C6  I4B d   1      -0.547   0.536  -0.495  0.00  0.00     0.003 A 
ENDROOT
BRANCH   1   7
ATOM      7  C1' I4B d   1       0.406  -1.717   0.067  0.00  0.00     0.060 C 
BRANCH   7   8
ATOM      8  C2' I4B d   1      -0.589  -2.295  -0.918  0.00  0.00    -0.013 C 
ATOM      9  C4' I4B d   1       0.027  -2.459  -2.283  0.00  0.00     0.013 C 
ATOM     10  C3' I4B d   1      -1.065  -3.610  -0.378  0.00  0.00     0.013 C 
ENDBRANCH   7   8
ENDBRANCH   1   7
TORSDOF 2
ENDMDL
