MODEL 1
REMARK minimizedAffinity 1.38658631
REMARK minimizedRMSD -1
REMARK  2 active torsions:
REMARK  status: ('A' for Active; 'I' for Inactive)
REMARK    1  A    between atoms: C2'_3  and  C1'_4 
REMARK    2  A    between atoms: C1'_4  and  C1_5 
ROOT
ATOM      1  C1  I4B d   1      -0.061  -0.143  -0.476  0.00  0.00    -0.075 A 
ATOM      2  C2  I4B d   1       0.317  -0.006   0.837  0.00  0.00     0.003 A 
ATOM      3  C3  I4B d   1      -0.276   0.992   1.648  0.00  0.00     0.002 A 
ATOM      4  C4  I4B d   1      -1.198   1.857   1.096  0.00  0.00    -0.004 A 
ATOM      5  C5  I4B d   1      -1.597   1.702  -0.228  0.00  0.00     0.002 A 
ATOM      6  C6  I4B d   1      -1.034   0.687  -1.016  0.00  0.00     0.003 A 
ENDROOT
BRANCH   1   7
ATOM      7  C1' I4B d   1       0.609  -1.186  -1.313  0.00  0.00     0.060 C 
BRANCH   7   8
ATOM      8  C2' I4B d   1      -0.023  -2.524  -0.987  0.00  0.00    -0.013 C 
ATOM      9  C4' I4B d   1      -1.183  -2.816  -1.901  0.00  0.00     0.013 C 
ATOM     10  C3' I4B d   1       1.037  -3.578  -1.104  0.00  0.00     0.013 C 
ENDBRANCH   7   8
ENDBRANCH   1   7
TORSDOF 2
ENDMDL
