MODEL 1
REMARK minimizedAffinity -4.52695084
REMARK minimizedRMSD -1
REMARK  2 active torsions:
REMARK  status: ('A' for Active; 'I' for Inactive)
REMARK    1  A    between atoms: C2'_3  and  C1'_4 
REMARK    2  A    between atoms: C1'_4  and  C1_5 
ROOT
ATOM      1  C1  I4B d   1       0.118  -0.437  -0.618  0.00  0.00    -0.075 A 
ATOM      2  C2  I4B d   1      -0.789   0.515  -1.012  0.00  0.00     0.003 A 
ATOM      3  C3  I4B d   1      -1.255   1.482  -0.087  0.00  0.00     0.002 A 
ATOM      4  C4  I4B d   1      -0.828   1.429   1.224  0.00  0.00    -0.004 A 
ATOM      5  C5  I4B d   1       0.109   0.477   1.616  0.00  0.00     0.002 A 
ATOM      6  C6  I4B d   1       0.594  -0.454   0.687  0.00  0.00     0.003 A 
ENDROOT
BRANCH   1   7
ATOM      7  C1' I4B d   1       0.563  -1.463  -1.611  0.00  0.00     0.060 C 
BRANCH   7   8
ATOM      8  C2' I4B d   1       0.129  -2.823  -1.104  0.00  0.00    -0.013 C 
ATOM      9  C4' I4B d   1      -0.998  -3.380  -1.932  0.00  0.00     0.013 C 
ATOM     10  C3' I4B d   1       1.323  -3.731  -1.133  0.00  0.00     0.013 C 
ENDBRANCH   7   8
ENDBRANCH   1   7
TORSDOF 2
ENDMDL
