MODEL 1
REMARK minimizedAffinity -2.01199436
REMARK minimizedRMSD -1
REMARK  2 active torsions:
REMARK  status: ('A' for Active; 'I' for Inactive)
REMARK    1  A    between atoms: C2'_3  and  C1'_4 
REMARK    2  A    between atoms: C1'_4  and  C1_5 
ROOT
ATOM      1  C1  I4B d   1       0.120  -0.676  -1.253  0.00  0.00    -0.075 A 
ATOM      2  C2  I4B d   1      -0.262   0.411  -2.000  0.00  0.00     0.003 A 
ATOM      3  C3  I4B d   1      -0.802   1.556  -1.367  0.00  0.00     0.002 A 
ATOM      4  C4  I4B d   1      -0.989   1.553   0.000  0.00  0.00    -0.004 A 
ATOM      5  C5  I4B d   1      -0.580   0.459   0.758  0.00  0.00     0.002 A 
ATOM      6  C6  I4B d   1      -0.010  -0.658   0.130  0.00  0.00     0.003 A 
ENDROOT
BRANCH   1   7
ATOM      7  C1' I4B d   1       0.657  -1.882  -1.957  0.00  0.00     0.060 C 
BRANCH   7   8
ATOM      8  C2' I4B d   1      -0.111  -3.091  -1.463  0.00  0.00    -0.013 C 
ATOM      9  C4' I4B d   1      -0.873  -3.748  -2.584  0.00  0.00     0.013 C 
ATOM     10  C3' I4B d   1       0.869  -4.042  -0.845  0.00  0.00     0.013 C 
ENDBRANCH   7   8
ENDBRANCH   1   7
TORSDOF 2
ENDMDL
