MODEL 1
REMARK minimizedAffinity 7.65070057
REMARK minimizedRMSD -1
REMARK  0 active torsions:
REMARK  status: ('A' for Active; 'I' for Inactive)
ROOT
ATOM      1  C   UNL d   1       1.676  -4.455  -0.002  0.00  0.00     0.023 A 
ATOM      2  C1  UNL d   1       1.343  -5.150  -1.165  0.00  0.00     0.003 A 
ATOM      3  C2  UNL d   1       2.280  -5.284  -2.192  0.00  0.00     0.048 A 
ATOM      4  C3  UNL d   1       3.548  -4.722  -2.049  0.00  0.00     0.023 A 
ATOM      5  C4  UNL d   1       3.886  -4.026  -0.887  0.00  0.00     0.048 A 
ATOM      6  C5  UNL d   1       2.946  -3.894   0.137  0.00  0.00     0.003 A 
ATOM      7  I   UNL d   1       4.943  -4.920  -3.576  0.00  0.00    -0.146 I 
ENDROOT
TORSDOF 0
ENDMDL
