MODEL 1
REMARK minimizedAffinity 15.6028414
REMARK minimizedRMSD -1
REMARK  0 active torsions:
REMARK  status: ('A' for Active; 'I' for Inactive)
ROOT
ATOM      1  C   UNL d   1       2.094  -3.706   5.954  0.00  0.00     0.023 A 
ATOM      2  C1  UNL d   1       2.699  -4.087   4.756  0.00  0.00     0.003 A 
ATOM      3  C2  UNL d   1       2.500  -3.329   3.600  0.00  0.00     0.048 A 
ATOM      4  C3  UNL d   1       1.697  -2.190   3.650  0.00  0.00     0.023 A 
ATOM      5  C4  UNL d   1       1.091  -1.805   4.847  0.00  0.00     0.048 A 
ATOM      6  C5  UNL d   1       1.292  -2.567   6.000  0.00  0.00     0.003 A 
ATOM      7  I   UNL d   1       1.400  -1.059   1.932  0.00  0.00    -0.146 I 
ENDROOT
TORSDOF 0
ENDMDL
