MODEL 1
REMARK minimizedAffinity 14.8406601
REMARK minimizedRMSD -1
REMARK  0 active torsions:
REMARK  status: ('A' for Active; 'I' for Inactive)
ROOT
ATOM      1  C   UNL d   1      -5.193   5.184  -4.677  0.00  0.00     0.023 A 
ATOM      2  C1  UNL d   1      -5.766   4.612  -3.541  0.00  0.00     0.003 A 
ATOM      3  C2  UNL d   1      -5.288   3.393  -3.056  0.00  0.00     0.048 A 
ATOM      4  C3  UNL d   1      -4.236   2.752  -3.710  0.00  0.00     0.023 A 
ATOM      5  C4  UNL d   1      -3.659   3.322  -4.846  0.00  0.00     0.048 A 
ATOM      6  C5  UNL d   1      -4.141   4.540  -5.329  0.00  0.00     0.003 A 
ATOM      7  I   UNL d   1      -3.524   0.938  -2.990  0.00  0.00    -0.146 I 
ENDROOT
TORSDOF 0
ENDMDL
