MODEL 1
REMARK minimizedAffinity 7.47955132
REMARK minimizedRMSD -1
REMARK  0 active torsions:
REMARK  status: ('A' for Active; 'I' for Inactive)
ROOT
ATOM      1  C   UNL d   1      -4.360   5.040  -4.475  0.00  0.00     0.023 A 
ATOM      2  C1  UNL d   1      -3.544   4.153  -5.176  0.00  0.00     0.003 A 
ATOM      3  C2  UNL d   1      -3.154   2.948  -4.588  0.00  0.00     0.048 A 
ATOM      4  C3  UNL d   1      -3.585   2.636  -3.299  0.00  0.00     0.023 A 
ATOM      5  C4  UNL d   1      -4.402   3.521  -2.594  0.00  0.00     0.048 A 
ATOM      6  C5  UNL d   1      -4.789   4.725  -3.185  0.00  0.00     0.003 A 
ATOM      7  I   UNL d   1      -3.006   0.843  -2.422  0.00  0.00    -0.146 I 
ENDROOT
TORSDOF 0
ENDMDL
