MODEL 1
REMARK minimizedAffinity 10.5690699
REMARK minimizedRMSD -1
REMARK  0 active torsions:
REMARK  status: ('A' for Active; 'I' for Inactive)
ROOT
ATOM      1  C   UNL d   1      -3.002   3.555  -4.088  0.00  0.00     0.023 A 
ATOM      2  C1  UNL d   1      -3.005   2.378  -3.339  0.00  0.00     0.003 A 
ATOM      3  C2  UNL d   1      -3.865   2.246  -2.247  0.00  0.00     0.048 A 
ATOM      4  C3  UNL d   1      -4.720   3.294  -1.909  0.00  0.00     0.023 A 
ATOM      5  C4  UNL d   1      -4.721   4.474  -2.656  0.00  0.00     0.048 A 
ATOM      6  C5  UNL d   1      -3.859   4.601  -3.747  0.00  0.00     0.003 A 
ATOM      7  I   UNL d   1      -6.000   3.100  -0.283  0.00  0.00    -0.146 I 
ENDROOT
TORSDOF 0
ENDMDL
