MODEL 1
REMARK minimizedAffinity 16.4870071
REMARK minimizedRMSD -1
REMARK  0 active torsions:
REMARK  status: ('A' for Active; 'I' for Inactive)
ROOT
ATOM      1  C   UNL d   1       5.943  -2.780   0.285  0.00  0.00     0.023 A 
ATOM      2  C1  UNL d   1       4.729  -2.121   0.483  0.00  0.00     0.003 A 
ATOM      3  C2  UNL d   1       3.552  -2.650  -0.050  0.00  0.00     0.048 A 
ATOM      4  C3  UNL d   1       3.595  -3.839  -0.778  0.00  0.00     0.023 A 
ATOM      5  C4  UNL d   1       4.807  -4.501  -0.978  0.00  0.00     0.048 A 
ATOM      6  C5  UNL d   1       5.982  -3.968  -0.444  0.00  0.00     0.003 A 
ATOM      7  I   UNL d   1       1.844  -4.628  -1.572  0.00  0.00    -0.146 I 
ENDROOT
TORSDOF 0
ENDMDL
