MODEL 1
REMARK minimizedAffinity 3.40158296
REMARK minimizedRMSD -1
REMARK  0 active torsions:
REMARK  status: ('A' for Active; 'I' for Inactive)
ROOT
ATOM      1  C   UNL d   1      -4.302   5.518  -4.022  0.00  0.00     0.023 A 
ATOM      2  C1  UNL d   1      -4.831   4.978  -2.849  0.00  0.00     0.003 A 
ATOM      3  C2  UNL d   1      -4.635   3.628  -2.551  0.00  0.00     0.048 A 
ATOM      4  C3  UNL d   1      -3.909   2.824  -3.429  0.00  0.00     0.023 A 
ATOM      5  C4  UNL d   1      -3.378   3.360  -4.603  0.00  0.00     0.048 A 
ATOM      6  C5  UNL d   1      -3.576   4.710  -4.897  0.00  0.00     0.003 A 
ATOM      7  I   UNL d   1      -3.617   0.814  -2.987  0.00  0.00    -0.146 I 
ENDROOT
TORSDOF 0
ENDMDL
