MODEL 1
REMARK minimizedAffinity 8.63104916
REMARK minimizedRMSD -1
REMARK  0 active torsions:
REMARK  status: ('A' for Active; 'I' for Inactive)
ROOT
ATOM      1  C   UNL d   1       1.508  -2.688   1.293  0.00  0.00     0.023 A 
ATOM      2  C1  UNL d   1       2.459  -1.817   0.761  0.00  0.00     0.003 A 
ATOM      3  C2  UNL d   1       3.748  -2.274   0.482  0.00  0.00     0.048 A 
ATOM      4  C3  UNL d   1       4.080  -3.605   0.736  0.00  0.00     0.023 A 
ATOM      5  C4  UNL d   1       3.132  -4.480   1.267  0.00  0.00     0.048 A 
ATOM      6  C5  UNL d   1       1.844  -4.018   1.546  0.00  0.00     0.003 A 
ATOM      7  I   UNL d   1       5.998  -4.288   0.321  0.00  0.00    -0.146 I 
ENDROOT
TORSDOF 0
ENDMDL
