MODEL 1
REMARK minimizedAffinity 6.30276251
REMARK minimizedRMSD -1
REMARK  0 active torsions:
REMARK  status: ('A' for Active; 'I' for Inactive)
ROOT
ATOM      1  C   UNL d   1      -5.998   0.492   3.850  0.00  0.00     0.172 C 
ATOM      2  N   UNL d   1      -5.406  -0.685   3.261  0.00  0.00    -0.070 N 
ATOM      3  C1  UNL d   1      -4.178  -0.745   2.657  0.00  0.00    -0.004 A 
ATOM      4  C2  UNL d   1      -3.982  -2.039   2.227  0.00  0.00    -0.047 A 
ATOM      5  C3  UNL d   1      -5.131  -2.784   2.585  0.00  0.00    -0.047 A 
ATOM      6  C4  UNL d   1      -5.996  -1.921   3.223  0.00  0.00    -0.004 A 
ENDROOT
TORSDOF 0
ENDMDL
