MODEL 1
REMARK minimizedAffinity -1.07272363
REMARK minimizedRMSD -1
REMARK  0 active torsions:
REMARK  status: ('A' for Active; 'I' for Inactive)
ROOT
ATOM      1  C   UNL d   1       0.238   1.339   1.193  0.00  0.00     0.172 C 
ATOM      2  N   UNL d   1       0.418   2.498   0.350  0.00  0.00    -0.070 N 
ATOM      3  C1  UNL d   1       0.113   2.570  -0.983  0.00  0.00    -0.004 A 
ATOM      4  C2  UNL d   1       0.429   3.839  -1.420  0.00  0.00    -0.047 A 
ATOM      5  C3  UNL d   1       0.943   4.552  -0.311  0.00  0.00    -0.047 A 
ATOM      6  C4  UNL d   1       0.925   3.699   0.771  0.00  0.00    -0.004 A 
ENDROOT
TORSDOF 0
ENDMDL
