MODEL 1
REMARK minimizedAffinity -0.916525662
REMARK minimizedRMSD -1
REMARK  0 active torsions:
REMARK  status: ('A' for Active; 'I' for Inactive)
ROOT
ATOM      1  C   UNL d   1       2.765  -3.431  -4.526  0.00  0.00     0.172 C 
ATOM      2  N   UNL d   1       4.079  -3.071  -4.049  0.00  0.00    -0.070 N 
ATOM      3  C1  UNL d   1       4.797  -1.972  -4.438  0.00  0.00    -0.004 A 
ATOM      4  C2  UNL d   1       5.994  -1.986  -3.756  0.00  0.00    -0.047 A 
ATOM      5  C3  UNL d   1       5.997  -3.134  -2.929  0.00  0.00    -0.047 A 
ATOM      6  C4  UNL d   1       4.799  -3.788  -3.130  0.00  0.00    -0.004 A 
ENDROOT
TORSDOF 0
ENDMDL
