MODEL 1
REMARK minimizedAffinity -2.31807089
REMARK minimizedRMSD -1
REMARK  0 active torsions:
REMARK  status: ('A' for Active; 'I' for Inactive)
ROOT
ATOM      1  C   UNL d   1       1.159   4.505  -1.155  0.00  0.00     0.172 C 
ATOM      2  N   UNL d   1       0.544   3.374  -0.501  0.00  0.00    -0.070 N 
ATOM      3  C1  UNL d   1      -0.311   2.480  -1.088  0.00  0.00    -0.004 A 
ATOM      4  C2  UNL d   1      -0.673   1.554  -0.134  0.00  0.00    -0.047 A 
ATOM      5  C3  UNL d   1      -0.015   1.904   1.068  0.00  0.00    -0.047 A 
ATOM      6  C4  UNL d   1       0.732   3.035   0.813  0.00  0.00    -0.004 A 
ENDROOT
TORSDOF 0
ENDMDL
