MODEL 1
REMARK minimizedAffinity 4.29406786
REMARK minimizedRMSD -1
REMARK  0 active torsions:
REMARK  status: ('A' for Active; 'I' for Inactive)
ROOT
ATOM      1  C   UNL d   1       0.735   2.633  -0.422  0.00  0.00     0.172 C 
ATOM      2  N   UNL d   1       0.449   3.907  -1.039  0.00  0.00    -0.070 N 
ATOM      3  C1  UNL d   1       0.720   4.245  -2.338  0.00  0.00    -0.004 A 
ATOM      4  C2  UNL d   1       0.296   5.541  -2.535  0.00  0.00    -0.047 A 
ATOM      5  C3  UNL d   1      -0.247   5.999  -1.311  0.00  0.00    -0.047 A 
ATOM      6  C4  UNL d   1      -0.140   4.968  -0.402  0.00  0.00    -0.004 A 
ENDROOT
TORSDOF 0
ENDMDL
