MODEL 1
REMARK minimizedAffinity 1.8714689
REMARK minimizedRMSD -1
REMARK  0 active torsions:
REMARK  status: ('A' for Active; 'I' for Inactive)
ROOT
ATOM      1  C   UNL d   1       0.009   2.754  -1.087  0.00  0.00     0.172 C 
ATOM      2  N   UNL d   1      -0.186   1.951   0.097  0.00  0.00    -0.070 N 
ATOM      3  C1  UNL d   1      -1.381   1.440   0.528  0.00  0.00    -0.004 A 
ATOM      4  C2  UNL d   1      -1.145   0.735   1.688  0.00  0.00    -0.047 A 
ATOM      5  C3  UNL d   1       0.239   0.827   1.966  0.00  0.00    -0.047 A 
ATOM      6  C4  UNL d   1       0.809   1.585   0.965  0.00  0.00    -0.004 A 
ENDROOT
TORSDOF 0
ENDMDL
