MODEL 1
REMARK minimizedAffinity 2.38167834
REMARK minimizedRMSD -1
REMARK  0 active torsions:
REMARK  status: ('A' for Active; 'I' for Inactive)
ROOT
ATOM      1  C   UNL d   1       0.703   1.897   1.750  0.00  0.00     0.172 C 
ATOM      2  N   UNL d   1       0.784   2.585   0.483  0.00  0.00    -0.070 N 
ATOM      3  C1  UNL d   1       1.114   3.902   0.310  0.00  0.00    -0.004 A 
ATOM      4  C2  UNL d   1       1.081   4.172  -1.042  0.00  0.00    -0.047 A 
ATOM      5  C3  UNL d   1       0.717   2.975  -1.703  0.00  0.00    -0.047 A 
ATOM      6  C4  UNL d   1       0.539   2.008  -0.735  0.00  0.00    -0.004 A 
ENDROOT
TORSDOF 0
ENDMDL
