MODEL 1
REMARK minimizedAffinity 14.8734951
REMARK minimizedRMSD -1
REMARK  0 active torsions:
REMARK  status: ('A' for Active; 'I' for Inactive)
ROOT
ATOM      1  C   UNL d   1       3.287  -3.134  -0.766  0.00  0.00     0.124 A 
ATOM      2  C1  UNL d   1       2.427  -2.115  -1.153  0.00  0.00     0.062 A 
ATOM      3  C2  UNL d   1       1.315  -2.398  -1.940  0.00  0.00     0.162 A 
ATOM      4  C3  UNL d   1       1.055  -3.707  -2.346  0.00  0.00    -0.034 A 
ATOM      5  C4  UNL d   1       1.925  -4.727  -1.954  0.00  0.00     0.162 A 
ATOM      6  C5  UNL d   1       3.035  -4.439  -1.167  0.00  0.00     0.062 A 
ATOM      7  F   UNL d   1       3.864  -5.424  -0.794  0.00  0.00    -0.097 F 
ATOM      8  F1  UNL d   1       1.705  -5.996  -2.327  0.00  0.00    -0.096 F 
ATOM      9  I   UNL d   1      -0.606  -4.135  -3.524  0.00  0.00    -0.060 I 
ATOM     10  F2  UNL d   1       0.502  -1.394  -2.299  0.00  0.00    -0.096 F 
ATOM     11  F3  UNL d   1       2.669  -0.854  -0.767  0.00  0.00    -0.097 F 
ATOM     12  F4  UNL d   1       4.357  -2.859  -0.009  0.00  0.00    -0.092 F 
ENDROOT
TORSDOF 0
ENDMDL
