MODEL 1
REMARK minimizedAffinity 20.5525532
REMARK minimizedRMSD -1
REMARK  0 active torsions:
REMARK  status: ('A' for Active; 'I' for Inactive)
ROOT
ATOM      1  C   UNL d   1       3.207  -3.215  -0.381  0.00  0.00     0.124 A 
ATOM      2  C1  UNL d   1       2.824  -4.511  -0.700  0.00  0.00     0.062 A 
ATOM      3  C2  UNL d   1       1.890  -4.737  -1.707  0.00  0.00     0.162 A 
ATOM      4  C3  UNL d   1       1.333  -3.665  -2.404  0.00  0.00    -0.034 A 
ATOM      5  C4  UNL d   1       1.721  -2.364  -2.076  0.00  0.00     0.162 A 
ATOM      6  C5  UNL d   1       2.655  -2.143  -1.069  0.00  0.00     0.062 A 
ATOM      7  F   UNL d   1       3.023  -0.891  -0.762  0.00  0.00    -0.097 F 
ATOM      8  F1  UNL d   1       1.205  -1.311  -2.726  0.00  0.00    -0.096 F 
ATOM      9  I   UNL d   1      -0.064  -3.999  -3.910  0.00  0.00    -0.060 I 
ATOM     10  F2  UNL d   1       1.540  -5.999  -1.994  0.00  0.00    -0.096 F 
ATOM     11  F3  UNL d   1       3.355  -5.547  -0.036  0.00  0.00    -0.097 F 
ATOM     12  F4  UNL d   1       4.105  -3.000   0.589  0.00  0.00    -0.092 F 
ENDROOT
TORSDOF 0
ENDMDL
