MODEL 1
REMARK minimizedAffinity 21.1460609
REMARK minimizedRMSD -1
REMARK  0 active torsions:
REMARK  status: ('A' for Active; 'I' for Inactive)
ROOT
ATOM      1  C   UNL d   1       4.037  -0.073   0.005  0.00  0.00     0.124 A 
ATOM      2  C1  UNL d   1       3.091   0.277  -0.949  0.00  0.00     0.062 A 
ATOM      3  C2  UNL d   1       2.386  -0.710  -1.631  0.00  0.00     0.162 A 
ATOM      4  C3  UNL d   1       2.622  -2.058  -1.360  0.00  0.00    -0.034 A 
ATOM      5  C4  UNL d   1       3.576  -2.402  -0.400  0.00  0.00     0.162 A 
ATOM      6  C5  UNL d   1       4.278  -1.412   0.278  0.00  0.00     0.062 A 
ATOM      7  F   UNL d   1       5.191  -1.752   1.200  0.00  0.00    -0.097 F 
ATOM      8  F1  UNL d   1       3.828  -3.689  -0.115  0.00  0.00    -0.096 F 
ATOM      9  I   UNL d   1       1.569  -3.538  -2.377  0.00  0.00    -0.060 I 
ATOM     10  F2  UNL d   1       1.478  -0.343  -2.547  0.00  0.00    -0.096 F 
ATOM     11  F3  UNL d   1       2.857   1.570  -1.216  0.00  0.00    -0.097 F 
ATOM     12  F4  UNL d   1       4.715   0.879   0.658  0.00  0.00    -0.092 F 
ENDROOT
TORSDOF 0
ENDMDL
