MODEL 1
REMARK minimizedAffinity 17.4616966
REMARK minimizedRMSD -1
REMARK  0 active torsions:
REMARK  status: ('A' for Active; 'I' for Inactive)
ROOT
ATOM      1  C   UNL d   1       1.797  -0.316  -3.109  0.00  0.00     0.124 A 
ATOM      2  C1  UNL d   1       1.617  -0.609  -1.764  0.00  0.00     0.062 A 
ATOM      3  C2  UNL d   1       2.019  -1.840  -1.255  0.00  0.00     0.162 A 
ATOM      4  C3  UNL d   1       2.607  -2.789  -2.092  0.00  0.00    -0.034 A 
ATOM      5  C4  UNL d   1       2.785  -2.488  -3.443  0.00  0.00     0.162 A 
ATOM      6  C5  UNL d   1       2.381  -1.256  -3.947  0.00  0.00     0.062 A 
ATOM      7  F   UNL d   1       2.557  -0.975  -5.246  0.00  0.00    -0.097 F 
ATOM      8  F1  UNL d   1       3.347  -3.377  -4.275  0.00  0.00    -0.096 F 
ATOM      9  I   UNL d   1       3.210  -4.632  -1.335  0.00  0.00    -0.060 I 
ATOM     10  F2  UNL d   1       1.832  -2.096   0.048  0.00  0.00    -0.096 F 
ATOM     11  F3  UNL d   1       1.052   0.297  -0.953  0.00  0.00    -0.097 F 
ATOM     12  F4  UNL d   1       1.409   0.869  -3.596  0.00  0.00    -0.092 F 
ENDROOT
TORSDOF 0
ENDMDL
