MODEL 1
REMARK minimizedAffinity 10.1134596
REMARK minimizedRMSD -1
REMARK  0 active torsions:
REMARK  status: ('A' for Active; 'I' for Inactive)
ROOT
ATOM      1  C   UNL d   1       3.366  -3.589  -0.581  0.00  0.00     0.124 A 
ATOM      2  C1  UNL d   1       3.172  -4.778  -1.269  0.00  0.00     0.062 A 
ATOM      3  C2  UNL d   1       2.340  -4.815  -2.384  0.00  0.00     0.162 A 
ATOM      4  C3  UNL d   1       1.695  -3.657  -2.819  0.00  0.00    -0.034 A 
ATOM      5  C4  UNL d   1       1.894  -2.464  -2.121  0.00  0.00     0.162 A 
ATOM      6  C5  UNL d   1       2.727  -2.433  -1.008  0.00  0.00     0.062 A 
ATOM      7  F   UNL d   1       2.913  -1.282  -0.345  0.00  0.00    -0.097 F 
ATOM      8  F1  UNL d   1       1.289  -1.333  -2.512  0.00  0.00    -0.096 F 
ATOM      9  I   UNL d   1       0.449  -3.707  -4.485  0.00  0.00    -0.060 I 
ATOM     10  F2  UNL d   1       2.171  -5.979  -3.030  0.00  0.00    -0.096 F 
ATOM     11  F3  UNL d   1       3.788  -5.896  -0.859  0.00  0.00    -0.097 F 
ATOM     12  F4  UNL d   1       4.167  -3.556   0.491  0.00  0.00    -0.092 F 
ENDROOT
TORSDOF 0
ENDMDL
