MODEL 1
REMARK minimizedAffinity 24.1680393
REMARK minimizedRMSD -1
REMARK  0 active torsions:
REMARK  status: ('A' for Active; 'I' for Inactive)
ROOT
ATOM      1  C   UNL d   1       1.666  -4.317  -1.821  0.00  0.00     0.124 A 
ATOM      2  C1  UNL d   1       1.207  -3.161  -2.435  0.00  0.00     0.062 A 
ATOM      3  C2  UNL d   1       1.568  -1.912  -1.937  0.00  0.00     0.162 A 
ATOM      4  C3  UNL d   1       2.395  -1.814  -0.818  0.00  0.00    -0.034 A 
ATOM      5  C4  UNL d   1       2.852  -2.982  -0.204  0.00  0.00     0.162 A 
ATOM      6  C5  UNL d   1       2.487  -4.227  -0.706  0.00  0.00     0.062 A 
ATOM      7  F   UNL d   1       2.932  -5.343  -0.111  0.00  0.00    -0.097 F 
ATOM      8  F1  UNL d   1       3.648  -2.923   0.874  0.00  0.00    -0.096 F 
ATOM      9  I   UNL d   1       2.938   0.051  -0.070  0.00  0.00    -0.060 I 
ATOM     10  F2  UNL d   1       1.110  -0.811  -2.551  0.00  0.00    -0.096 F 
ATOM     11  F3  UNL d   1       0.412  -3.245  -3.512  0.00  0.00    -0.097 F 
ATOM     12  F4  UNL d   1       1.315  -5.517  -2.301  0.00  0.00    -0.092 F 
ENDROOT
TORSDOF 0
ENDMDL
