MODEL 1
REMARK minimizedAffinity 24.0809898
REMARK minimizedRMSD -1
REMARK  0 active torsions:
REMARK  status: ('A' for Active; 'I' for Inactive)
ROOT
ATOM      1  C   UNL d   1       2.548  -0.421  -0.666  0.00  0.00     0.124 A 
ATOM      2  C1  UNL d   1       3.675  -0.971  -0.070  0.00  0.00     0.062 A 
ATOM      3  C2  UNL d   1       3.734  -2.337   0.188  0.00  0.00     0.162 A 
ATOM      4  C3  UNL d   1       2.663  -3.164  -0.152  0.00  0.00    -0.034 A 
ATOM      5  C4  UNL d   1       1.534  -2.604  -0.750  0.00  0.00     0.162 A 
ATOM      6  C5  UNL d   1       1.479  -1.238  -1.006  0.00  0.00     0.062 A 
ATOM      7  F   UNL d   1       0.390  -0.709  -1.582  0.00  0.00    -0.097 F 
ATOM      8  F1  UNL d   1       0.487  -3.371  -1.090  0.00  0.00    -0.096 F 
ATOM      9  I   UNL d   1       2.748  -5.208   0.232  0.00  0.00    -0.060 I 
ATOM     10  F2  UNL d   1       4.835  -2.841   0.766  0.00  0.00    -0.096 F 
ATOM     11  F3  UNL d   1       4.709  -0.183   0.260  0.00  0.00    -0.097 F 
ATOM     12  F4  UNL d   1       2.494   0.894  -0.912  0.00  0.00    -0.092 F 
ENDROOT
TORSDOF 0
ENDMDL
