MODEL 1
REMARK minimizedAffinity 21.0928478
REMARK minimizedRMSD -1
REMARK  0 active torsions:
REMARK  status: ('A' for Active; 'I' for Inactive)
ROOT
ATOM      1  C   UNL d   1       1.883  -1.595  -1.470  0.00  0.00     0.124 A 
ATOM      2  C1  UNL d   1       1.277  -0.756  -2.394  0.00  0.00     0.062 A 
ATOM      3  C2  UNL d   1       1.785  -0.654  -3.686  0.00  0.00     0.162 A 
ATOM      4  C3  UNL d   1       2.905  -1.395  -4.062  0.00  0.00    -0.034 A 
ATOM      5  C4  UNL d   1       3.510  -2.237  -3.126  0.00  0.00     0.162 A 
ATOM      6  C5  UNL d   1       2.999  -2.335  -1.837  0.00  0.00     0.062 A 
ATOM      7  F   UNL d   1       3.585  -3.147  -0.945  0.00  0.00    -0.097 F 
ATOM      8  F1  UNL d   1       4.589  -2.964  -3.455  0.00  0.00    -0.096 F 
ATOM      9  I   UNL d   1       3.668  -1.247  -5.993  0.00  0.00    -0.060 I 
ATOM     10  F2  UNL d   1       1.179   0.165  -4.558  0.00  0.00    -0.096 F 
ATOM     11  F3  UNL d   1       0.200  -0.039  -2.042  0.00  0.00    -0.097 F 
ATOM     12  F4  UNL d   1       1.393  -1.690  -0.227  0.00  0.00    -0.092 F 
ENDROOT
TORSDOF 0
ENDMDL
