MODEL 1
REMARK minimizedAffinity 20.7872906
REMARK minimizedRMSD -1
REMARK  0 active torsions:
REMARK  status: ('A' for Active; 'I' for Inactive)
ROOT
ATOM      1  C   UNL d   1      -0.210   1.687   4.532  0.00  0.00     0.124 A 
ATOM      2  C1  UNL d   1       1.148   1.843   4.774  0.00  0.00     0.062 A 
ATOM      3  C2  UNL d   1       2.070   1.641   3.751  0.00  0.00     0.162 A 
ATOM      4  C3  UNL d   1       1.637   1.281   2.475  0.00  0.00    -0.034 A 
ATOM      5  C4  UNL d   1       0.269   1.124   2.239  0.00  0.00     0.162 A 
ATOM      6  C5  UNL d   1      -0.648   1.328   3.265  0.00  0.00     0.062 A 
ATOM      7  F   UNL d   1      -1.959   1.177   3.029  0.00  0.00    -0.097 F 
ATOM      8  F1  UNL d   1      -0.181   0.779   1.024  0.00  0.00    -0.096 F 
ATOM      9  I   UNL d   1       3.011   0.977   0.942  0.00  0.00    -0.060 I 
ATOM     10  F2  UNL d   1       3.376   1.799   4.014  0.00  0.00    -0.096 F 
ATOM     11  F3  UNL d   1       1.574   2.189   5.998  0.00  0.00    -0.097 F 
ATOM     12  F4  UNL d   1      -1.094   1.882   5.519  0.00  0.00    -0.092 F 
ENDROOT
TORSDOF 0
ENDMDL
