MODEL 1
REMARK minimizedAffinity 27.622488
REMARK minimizedRMSD -1
REMARK  0 active torsions:
REMARK  status: ('A' for Active; 'I' for Inactive)
ROOT
ATOM      1  C   UNL d   1       1.166  -2.383  -2.324  0.00  0.00     0.124 A 
ATOM      2  C1  UNL d   1       0.749  -3.688  -2.544  0.00  0.00     0.062 A 
ATOM      3  C2  UNL d   1       1.241  -4.723  -1.754  0.00  0.00     0.162 A 
ATOM      4  C3  UNL d   1       2.154  -4.456  -0.734  0.00  0.00    -0.034 A 
ATOM      5  C4  UNL d   1       2.569  -3.140  -0.519  0.00  0.00     0.162 A 
ATOM      6  C5  UNL d   1       2.075  -2.110  -1.312  0.00  0.00     0.062 A 
ATOM      7  F   UNL d   1       2.478  -0.849  -1.097  0.00  0.00    -0.097 F 
ATOM      8  F1  UNL d   1       3.446  -2.848   0.453  0.00  0.00    -0.096 F 
ATOM      9  I   UNL d   1       2.892  -6.000   0.451  0.00  0.00    -0.060 I 
ATOM     10  F2  UNL d   1       0.821  -5.975  -1.989  0.00  0.00    -0.096 F 
ATOM     11  F3  UNL d   1      -0.128  -3.954  -3.522  0.00  0.00    -0.097 F 
ATOM     12  F4  UNL d   1       0.691  -1.389  -3.087  0.00  0.00    -0.092 F 
ENDROOT
TORSDOF 0
ENDMDL
