MODEL 1
REMARK minimizedAffinity 16.2307243
REMARK minimizedRMSD -1
REMARK  0 active torsions:
REMARK  status: ('A' for Active; 'I' for Inactive)
ROOT
ATOM      1  C   UNL d   1       2.492  -2.053  -0.568  0.00  0.00     0.124 A 
ATOM      2  C1  UNL d   1       2.214  -0.772  -1.025  0.00  0.00     0.062 A 
ATOM      3  C2  UNL d   1       3.214   0.196  -1.045  0.00  0.00     0.162 A 
ATOM      4  C3  UNL d   1       4.502  -0.113  -0.606  0.00  0.00    -0.034 A 
ATOM      5  C4  UNL d   1       4.773  -1.403  -0.147  0.00  0.00     0.162 A 
ATOM      6  C5  UNL d   1       3.770  -2.367  -0.130  0.00  0.00     0.062 A 
ATOM      7  F   UNL d   1       4.040  -3.604   0.312  0.00  0.00    -0.097 F 
ATOM      8  F1  UNL d   1       6.000  -1.734   0.281  0.00  0.00    -0.096 F 
ATOM      9  I   UNL d   1       5.999   1.332  -0.634  0.00  0.00    -0.060 I 
ATOM     10  F2  UNL d   1       2.918   1.426  -1.491  0.00  0.00    -0.096 F 
ATOM     11  F3  UNL d   1       0.980  -0.466  -1.449  0.00  0.00    -0.097 F 
ATOM     12  F4  UNL d   1       1.528  -2.982  -0.550  0.00  0.00    -0.092 F 
ENDROOT
TORSDOF 0
ENDMDL
