MODEL 1
REMARK minimizedAffinity 25.1174374
REMARK minimizedRMSD -1
REMARK  0 active torsions:
REMARK  status: ('A' for Active; 'I' for Inactive)
ROOT
ATOM      1  C   UNL d   1       2.310  -2.877  -1.228  0.00  0.00     0.124 A 
ATOM      2  C1  UNL d   1       3.091  -2.856  -0.081  0.00  0.00     0.062 A 
ATOM      3  C2  UNL d   1       3.606  -1.653   0.393  0.00  0.00     0.162 A 
ATOM      4  C3  UNL d   1       3.342  -0.460  -0.280  0.00  0.00    -0.034 A 
ATOM      5  C4  UNL d   1       2.557  -0.490  -1.434  0.00  0.00     0.162 A 
ATOM      6  C5  UNL d   1       2.044  -1.694  -1.904  0.00  0.00     0.062 A 
ATOM      7  F   UNL d   1       1.290  -1.713  -3.013  0.00  0.00    -0.097 F 
ATOM      8  F1  UNL d   1       2.283   0.639  -2.105  0.00  0.00    -0.096 F 
ATOM      9  I   UNL d   1       4.110   1.341   0.426  0.00  0.00    -0.060 I 
ATOM     10  F2  UNL d   1       4.357  -1.662   1.505  0.00  0.00    -0.096 F 
ATOM     11  F3  UNL d   1       3.351  -3.997   0.573  0.00  0.00    -0.097 F 
ATOM     12  F4  UNL d   1       1.817  -4.036  -1.683  0.00  0.00    -0.092 F 
ENDROOT
TORSDOF 0
ENDMDL
