MODEL 1
REMARK minimizedAffinity 31.1682644
REMARK minimizedRMSD -1
REMARK  0 active torsions:
REMARK  status: ('A' for Active; 'I' for Inactive)
ROOT
ATOM      1  C   UNL d   1       3.720  -2.720   0.289  0.00  0.00     0.124 A 
ATOM      2  C1  UNL d   1       4.801  -1.867   0.460  0.00  0.00     0.062 A 
ATOM      3  C2  UNL d   1       4.645  -0.495   0.282  0.00  0.00     0.162 A 
ATOM      4  C3  UNL d   1       3.402   0.032  -0.069  0.00  0.00    -0.034 A 
ATOM      5  C4  UNL d   1       2.320  -0.833  -0.240  0.00  0.00     0.162 A 
ATOM      6  C5  UNL d   1       2.481  -2.203  -0.060  0.00  0.00     0.062 A 
ATOM      7  F   UNL d   1       1.435  -3.026  -0.225  0.00  0.00    -0.097 F 
ATOM      8  F1  UNL d   1       1.111  -0.359  -0.576  0.00  0.00    -0.096 F 
ATOM      9  I   UNL d   1       3.165   2.082  -0.336  0.00  0.00    -0.060 I 
ATOM     10  F2  UNL d   1       5.707   0.306   0.453  0.00  0.00    -0.096 F 
ATOM     11  F3  UNL d   1       6.000  -2.365   0.797  0.00  0.00    -0.097 F 
ATOM     12  F4  UNL d   1       3.873  -4.040   0.461  0.00  0.00    -0.092 F 
ENDROOT
TORSDOF 0
ENDMDL
