MODEL 1
REMARK minimizedAffinity 26.0810966
REMARK minimizedRMSD -1
REMARK  0 active torsions:
REMARK  status: ('A' for Active; 'I' for Inactive)
ROOT
ATOM      1  C   UNL d   1       0.430  -3.259  -1.206  0.00  0.00     0.124 A 
ATOM      2  C1  UNL d   1      -0.007  -3.946  -2.330  0.00  0.00     0.062 A 
ATOM      3  C2  UNL d   1       0.380  -3.528  -3.600  0.00  0.00     0.162 A 
ATOM      4  C3  UNL d   1       1.210  -2.417  -3.753  0.00  0.00    -0.034 A 
ATOM      5  C4  UNL d   1       1.645  -1.731  -2.617  0.00  0.00     0.162 A 
ATOM      6  C5  UNL d   1       1.255  -2.153  -1.350  0.00  0.00     0.062 A 
ATOM      7  F   UNL d   1       1.679  -1.488  -0.265  0.00  0.00    -0.097 F 
ATOM      8  F1  UNL d   1       2.444  -0.660  -2.728  0.00  0.00    -0.096 F 
ATOM      9  I   UNL d   1       1.791  -1.789  -5.650  0.00  0.00    -0.060 I 
ATOM     10  F2  UNL d   1      -0.058  -4.210  -4.668  0.00  0.00    -0.096 F 
ATOM     11  F3  UNL d   1      -0.806  -5.014  -2.193  0.00  0.00    -0.097 F 
ATOM     12  F4  UNL d   1       0.055  -3.663   0.015  0.00  0.00    -0.092 F 
ENDROOT
TORSDOF 0
ENDMDL
