MODEL 1
REMARK minimizedAffinity 16.0854816
REMARK minimizedRMSD -1
REMARK  0 active torsions:
REMARK  status: ('A' for Active; 'I' for Inactive)
ROOT
ATOM      1  C   UNL d   1       1.366  -1.926  -2.063  0.00  0.00     0.124 A 
ATOM      2  C1  UNL d   1       1.721  -1.269  -3.233  0.00  0.00     0.062 A 
ATOM      3  C2  UNL d   1       2.072   0.077  -3.201  0.00  0.00     0.162 A 
ATOM      4  C3  UNL d   1       2.072   0.776  -1.994  0.00  0.00    -0.034 A 
ATOM      5  C4  UNL d   1       1.713   0.109  -0.822  0.00  0.00     0.162 A 
ATOM      6  C5  UNL d   1       1.362  -1.236  -0.859  0.00  0.00     0.062 A 
ATOM      7  F   UNL d   1       1.020  -1.869   0.273  0.00  0.00    -0.097 F 
ATOM      8  F1  UNL d   1       1.701   0.751   0.356  0.00  0.00    -0.096 F 
ATOM      9  I   UNL d   1       2.596   2.790  -1.942  0.00  0.00    -0.060 I 
ATOM     10  F2  UNL d   1       2.411   0.687  -4.347  0.00  0.00    -0.096 F 
ATOM     11  F3  UNL d   1       1.725  -1.933  -4.398  0.00  0.00    -0.097 F 
ATOM     12  F4  UNL d   1       1.028  -3.221  -2.097  0.00  0.00    -0.092 F 
ENDROOT
TORSDOF 0
ENDMDL
