MODEL 1
REMARK minimizedAffinity 32.2869034
REMARK minimizedRMSD -1
REMARK  0 active torsions:
REMARK  status: ('A' for Active; 'I' for Inactive)
ROOT
ATOM      1  C   UNL d   1      -3.014  -4.612  -3.028  0.00  0.00     0.124 A 
ATOM      2  C1  UNL d   1      -3.032  -3.475  -3.823  0.00  0.00     0.062 A 
ATOM      3  C2  UNL d   1      -1.931  -2.624  -3.854  0.00  0.00     0.162 A 
ATOM      4  C3  UNL d   1      -0.801  -2.909  -3.087  0.00  0.00    -0.034 A 
ATOM      5  C4  UNL d   1      -0.790  -4.054  -2.289  0.00  0.00     0.162 A 
ATOM      6  C5  UNL d   1      -1.894  -4.901  -2.263  0.00  0.00     0.062 A 
ATOM      7  F   UNL d   1      -1.874  -6.000  -1.494  0.00  0.00    -0.097 F 
ATOM      8  F1  UNL d   1       0.280  -4.358  -1.540  0.00  0.00    -0.096 F 
ATOM      9  I   UNL d   1       0.848  -1.640  -3.130  0.00  0.00    -0.060 I 
ATOM     10  F2  UNL d   1      -1.976  -1.532  -4.631  0.00  0.00    -0.096 F 
ATOM     11  F3  UNL d   1      -4.114  -3.193  -4.564  0.00  0.00    -0.097 F 
ATOM     12  F4  UNL d   1      -4.076  -5.428  -3.000  0.00  0.00    -0.092 F 
ENDROOT
TORSDOF 0
ENDMDL
