MODEL 1
REMARK minimizedAffinity 26.4190769
REMARK minimizedRMSD -1
REMARK  0 active torsions:
REMARK  status: ('A' for Active; 'I' for Inactive)
ROOT
ATOM      1  C   UNL d   1       2.371   0.358  -2.388  0.00  0.00     0.124 A 
ATOM      2  C1  UNL d   1       2.173  -0.251  -3.620  0.00  0.00     0.062 A 
ATOM      3  C2  UNL d   1       1.692  -1.555  -3.687  0.00  0.00     0.162 A 
ATOM      4  C3  UNL d   1       1.404  -2.260  -2.518  0.00  0.00    -0.034 A 
ATOM      5  C4  UNL d   1       1.607  -1.642  -1.283  0.00  0.00     0.162 A 
ATOM      6  C5  UNL d   1       2.088  -0.338  -1.221  0.00  0.00     0.062 A 
ATOM      7  F   UNL d   1       2.278   0.249  -0.030  0.00  0.00    -0.097 F 
ATOM      8  F1  UNL d   1       1.340  -2.290  -0.139  0.00  0.00    -0.096 F 
ATOM      9  I   UNL d   1       0.685  -4.211  -2.614  0.00  0.00    -0.060 I 
ATOM     10  F2  UNL d   1       1.511  -2.119  -4.890  0.00  0.00    -0.096 F 
ATOM     11  F3  UNL d   1       2.447   0.419  -4.749  0.00  0.00    -0.097 F 
ATOM     12  F4  UNL d   1       2.835   1.613  -2.327  0.00  0.00    -0.092 F 
ENDROOT
TORSDOF 0
ENDMDL
