MODEL 1
REMARK minimizedAffinity 1.95840883
REMARK minimizedRMSD -1
REMARK  0 active torsions:
REMARK  status: ('A' for Active; 'I' for Inactive)
ROOT
ATOM      1  O1  BZF d   1       0.428  -1.224  -0.896  0.00  0.00    -0.204 OA
ATOM      2  C2  BZF d   1       1.772  -1.041  -1.160  0.00  0.00     0.174 A 
ATOM      3  C3  BZF d   1       2.475  -0.942  -0.013  0.00  0.00    -0.012 A 
ATOM      4  C3A BZF d   1       1.524  -1.163   1.032  0.00  0.00    -0.107 A 
ATOM      5  C4  BZF d   1       1.618  -1.205   2.394  0.00  0.00     0.055 A 
ATOM      6  C5  BZF d   1       0.487  -1.370   3.130  0.00  0.00    -0.016 A 
ATOM      7  C6  BZF d   1      -0.753  -1.490   2.538  0.00  0.00     0.022 A 
ATOM      8  C7  BZF d   1      -0.896  -1.460   1.190  0.00  0.00     0.029 A 
ATOM      9  C7A BZF d   1       0.249  -1.327   0.443  0.00  0.00     0.058 A 
ENDROOT
TORSDOF 0
ENDMDL
