MODEL 1
REMARK minimizedAffinity 6.22739267
REMARK minimizedRMSD -1
REMARK  0 active torsions:
REMARK  status: ('A' for Active; 'I' for Inactive)
ROOT
ATOM      1  O1  BZF d   1      -3.340  -0.494  -5.662  0.00  0.00    -0.204 OA
ATOM      2  C2  BZF d   1      -4.110  -1.460  -5.044  0.00  0.00     0.174 A 
ATOM      3  C3  BZF d   1      -5.211  -0.913  -4.489  0.00  0.00    -0.012 A 
ATOM      4  C3A BZF d   1      -5.171   0.469  -4.859  0.00  0.00    -0.107 A 
ATOM      5  C4  BZF d   1      -5.999   1.528  -4.622  0.00  0.00     0.055 A 
ATOM      6  C5  BZF d   1      -5.636   2.762  -5.062  0.00  0.00    -0.016 A 
ATOM      7  C6  BZF d   1      -4.451   2.972  -5.737  0.00  0.00     0.022 A 
ATOM      8  C7  BZF d   1      -3.600   1.951  -6.000  0.00  0.00     0.029 A 
ATOM      9  C7A BZF d   1      -3.979   0.698  -5.586  0.00  0.00     0.058 A 
ENDROOT
TORSDOF 0
ENDMDL
