MODEL 1
REMARK minimizedAffinity 11.7478304
REMARK minimizedRMSD -1
REMARK  0 active torsions:
REMARK  status: ('A' for Active; 'I' for Inactive)
ROOT
ATOM      1  O1  BZF d   1      -2.197  -1.882  -3.615  0.00  0.00    -0.204 OA
ATOM      2  C2  BZF d   1      -1.835  -1.332  -2.400  0.00  0.00     0.174 A 
ATOM      3  C3  BZF d   1      -2.263  -0.057  -2.306  0.00  0.00    -0.012 A 
ATOM      4  C3A BZF d   1      -3.014   0.177  -3.501  0.00  0.00    -0.107 A 
ATOM      5  C4  BZF d   1      -3.703   1.254  -3.981  0.00  0.00     0.055 A 
ATOM      6  C5  BZF d   1      -4.265   1.181  -5.216  0.00  0.00    -0.016 A 
ATOM      7  C6  BZF d   1      -4.153   0.051  -6.000  0.00  0.00     0.022 A 
ATOM      8  C7  BZF d   1      -3.484  -1.044  -5.564  0.00  0.00     0.029 A 
ATOM      9  C7A BZF d   1      -2.943  -0.985  -4.303  0.00  0.00     0.058 A 
ENDROOT
TORSDOF 0
ENDMDL
