MODEL 1
REMARK minimizedAffinity 8.76766396
REMARK minimizedRMSD -1
REMARK  0 active torsions:
REMARK  status: ('A' for Active; 'I' for Inactive)
ROOT
ATOM      1  O1  BZF d   1      -3.203   0.927   2.967  0.00  0.00    -0.204 OA
ATOM      2  C2  BZF d   1      -4.028   0.874   1.860  0.00  0.00     0.174 A 
ATOM      3  C3  BZF d   1      -3.409   0.261   0.831  0.00  0.00    -0.012 A 
ATOM      4  C3A BZF d   1      -2.150  -0.174   1.354  0.00  0.00    -0.107 A 
ATOM      5  C4  BZF d   1      -1.096  -0.857   0.818  0.00  0.00     0.055 A 
ATOM      6  C5  BZF d   1       0.015  -1.057   1.575  0.00  0.00    -0.016 A 
ATOM      7  C6  BZF d   1       0.108  -0.583   2.867  0.00  0.00     0.022 A 
ATOM      8  C7  BZF d   1      -0.913   0.096   3.444  0.00  0.00     0.029 A 
ATOM      9  C7A BZF d   1      -2.050   0.270   2.693  0.00  0.00     0.058 A 
ENDROOT
TORSDOF 0
ENDMDL
