MODEL 1
REMARK minimizedAffinity 1.32155454
REMARK minimizedRMSD -1
REMARK  0 active torsions:
REMARK  status: ('A' for Active; 'I' for Inactive)
ROOT
ATOM      1  O1  BZF d   1      -5.231  -0.321  -5.138  0.00  0.00    -0.204 OA
ATOM      2  C2  BZF d   1      -4.322   0.620  -5.582  0.00  0.00     0.174 A 
ATOM      3  C3  BZF d   1      -3.186   0.568  -4.857  0.00  0.00    -0.012 A 
ATOM      4  C3A BZF d   1      -3.363  -0.532  -3.960  0.00  0.00    -0.107 A 
ATOM      5  C4  BZF d   1      -2.574  -1.095  -2.998  0.00  0.00     0.055 A 
ATOM      6  C5  BZF d   1      -3.071  -2.115  -2.249  0.00  0.00    -0.016 A 
ATOM      7  C6  BZF d   1      -4.353  -2.591  -2.431  0.00  0.00     0.022 A 
ATOM      8  C7  BZF d   1      -5.171  -2.068  -3.377  0.00  0.00     0.029 A 
ATOM      9  C7A BZF d   1      -4.660  -1.060  -4.157  0.00  0.00     0.058 A 
ENDROOT
TORSDOF 0
ENDMDL
