MODEL 1
REMARK minimizedAffinity 5.71418238
REMARK minimizedRMSD -1
REMARK  0 active torsions:
REMARK  status: ('A' for Active; 'I' for Inactive)
ROOT
ATOM      1  O1  BZF d   1      -5.421  -0.409  -5.249  0.00  0.00    -0.204 OA
ATOM      2  C2  BZF d   1      -4.979   0.875  -5.506  0.00  0.00     0.174 A 
ATOM      3  C3  BZF d   1      -4.073   1.262  -4.585  0.00  0.00    -0.012 A 
ATOM      4  C3A BZF d   1      -3.873   0.118  -3.750  0.00  0.00    -0.107 A 
ATOM      5  C4  BZF d   1      -3.078  -0.126  -2.666  0.00  0.00     0.055 A 
ATOM      6  C5  BZF d   1      -3.172  -1.326  -2.035  0.00  0.00    -0.016 A 
ATOM      7  C6  BZF d   1      -4.052  -2.301  -2.456  0.00  0.00     0.022 A 
ATOM      8  C7  BZF d   1      -4.857  -2.107  -3.529  0.00  0.00     0.029 A 
ATOM      9  C7A BZF d   1      -4.741  -0.908  -4.189  0.00  0.00     0.058 A 
ENDROOT
TORSDOF 0
ENDMDL
