MODEL 1
REMARK minimizedAffinity 2.32725906
REMARK minimizedRMSD -1
REMARK  0 active torsions:
REMARK  status: ('A' for Active; 'I' for Inactive)
ROOT
ATOM      1  O1  BZF d   1       2.361  -0.179  -0.375  0.00  0.00    -0.204 OA
ATOM      2  C2  BZF d   1       1.974  -1.306  -1.075  0.00  0.00     0.174 A 
ATOM      3  C3  BZF d   1       1.495  -0.972  -2.291  0.00  0.00    -0.012 A 
ATOM      4  C3A BZF d   1       1.674   0.444  -2.390  0.00  0.00    -0.107 A 
ATOM      5  C4  BZF d   1       1.405   1.358  -3.369  0.00  0.00     0.055 A 
ATOM      6  C5  BZF d   1       1.631   2.675  -3.122  0.00  0.00    -0.016 A 
ATOM      7  C6  BZF d   1       2.120   3.114  -1.909  0.00  0.00     0.022 A 
ATOM      8  C7  BZF d   1       2.406   2.244  -0.909  0.00  0.00     0.029 A 
ATOM      9  C7A BZF d   1       2.209   0.909  -1.167  0.00  0.00     0.058 A 
ENDROOT
TORSDOF 0
ENDMDL
