MODEL 1
REMARK minimizedAffinity 11.9632368
REMARK minimizedRMSD -1
REMARK  0 active torsions:
REMARK  status: ('A' for Active; 'I' for Inactive)
ROOT
ATOM      1  O1  BZF d   1      -1.195  -1.717   1.048  0.00  0.00    -0.204 OA
ATOM      2  C2  BZF d   1       0.077  -2.136   1.385  0.00  0.00     0.174 A 
ATOM      3  C3  BZF d   1       0.559  -1.418   2.419  0.00  0.00    -0.012 A 
ATOM      4  C3A BZF d   1      -0.512  -0.553   2.809  0.00  0.00    -0.107 A 
ATOM      5  C4  BZF d   1      -0.650   0.388   3.789  0.00  0.00     0.055 A 
ATOM      6  C5  BZF d   1      -1.801   1.108   3.856  0.00  0.00    -0.016 A 
ATOM      7  C6  BZF d   1      -2.830   0.917   2.957  0.00  0.00     0.022 A 
ATOM      8  C7  BZF d   1      -2.741  -0.009   1.971  0.00  0.00     0.029 A 
ATOM      9  C7A BZF d   1      -1.593  -0.761   1.921  0.00  0.00     0.058 A 
ENDROOT
TORSDOF 0
ENDMDL
