MODEL 1
REMARK minimizedAffinity 6.75234509
REMARK minimizedRMSD -1
REMARK  0 active torsions:
REMARK  status: ('A' for Active; 'I' for Inactive)
ROOT
ATOM      1  O1  BZF d   1       0.261  -1.297   0.533  0.00  0.00    -0.204 OA
ATOM      2  C2  BZF d   1       0.882  -1.474   1.754  0.00  0.00     0.174 A 
ATOM      3  C3  BZF d   1       2.215  -1.611   1.598  0.00  0.00    -0.012 A 
ATOM      4  C3A BZF d   1       2.451  -1.422   0.200  0.00  0.00    -0.107 A 
ATOM      5  C4  BZF d   1       3.579  -1.423  -0.570  0.00  0.00     0.055 A 
ATOM      6  C5  BZF d   1       3.460  -1.280  -1.916  0.00  0.00    -0.016 A 
ATOM      7  C6  BZF d   1       2.230  -1.138  -2.525  0.00  0.00     0.022 A 
ATOM      8  C7  BZF d   1       1.084  -1.125  -1.803  0.00  0.00     0.029 A 
ATOM      9  C7A BZF d   1       1.203  -1.237  -0.439  0.00  0.00     0.058 A 
ENDROOT
TORSDOF 0
ENDMDL
