MODEL 1
REMARK minimizedAffinity 8.96350288
REMARK minimizedRMSD -1
REMARK  0 active torsions:
REMARK  status: ('A' for Active; 'I' for Inactive)
ROOT
ATOM      1  O1  BZF d   1      -5.478   1.508   2.872  0.00  0.00    -0.204 OA
ATOM      2  C2  BZF d   1      -5.167   1.824   4.181  0.00  0.00     0.174 A 
ATOM      3  C3  BZF d   1      -4.038   1.195   4.569  0.00  0.00    -0.012 A 
ATOM      4  C3A BZF d   1      -3.568   0.512   3.403  0.00  0.00    -0.107 A 
ATOM      5  C4  BZF d   1      -2.480  -0.275   3.151  0.00  0.00     0.055 A 
ATOM      6  C5  BZF d   1      -2.351  -0.849   1.926  0.00  0.00    -0.016 A 
ATOM      7  C6  BZF d   1      -3.290  -0.662   0.933  0.00  0.00     0.022 A 
ATOM      8  C7  BZF d   1      -4.383   0.114   1.135  0.00  0.00     0.029 A 
ATOM      9  C7A BZF d   1      -4.500   0.722   2.361  0.00  0.00     0.058 A 
ENDROOT
TORSDOF 0
ENDMDL
