MODEL 1
REMARK minimizedAffinity -2.77765417
REMARK minimizedRMSD -1
REMARK  0 active torsions:
REMARK  status: ('A' for Active; 'I' for Inactive)
ROOT
ATOM      1  O1  BZF d   1       1.064   0.664  -1.352  0.00  0.00    -0.204 OA
ATOM      2  C2  BZF d   1       2.054  -0.271  -1.121  0.00  0.00     0.174 A 
ATOM      3  C3  BZF d   1       1.722  -1.076  -0.090  0.00  0.00    -0.012 A 
ATOM      4  C3A BZF d   1       0.403  -0.674   0.291  0.00  0.00    -0.107 A 
ATOM      5  C4  BZF d   1      -0.472  -1.108   1.245  0.00  0.00     0.055 A 
ATOM      6  C5  BZF d   1      -1.652  -0.454   1.406  0.00  0.00    -0.016 A 
ATOM      7  C6  BZF d   1      -1.987   0.640   0.635  0.00  0.00     0.022 A 
ATOM      8  C7  BZF d   1      -1.153   1.105  -0.327  0.00  0.00     0.029 A 
ATOM      9  C7A BZF d   1       0.026   0.426  -0.514  0.00  0.00     0.058 A 
ENDROOT
TORSDOF 0
ENDMDL
