MODEL 1
REMARK minimizedAffinity -2.03377151
REMARK minimizedRMSD -1
REMARK  1 active torsions:
REMARK  status: ('A' for Active; 'I' for Inactive)
REMARK    1  A    between atoms: C3_4  and  O_7 
ROOT
ATOM      1  C   UNL d   1       5.998   0.669   4.673  0.00  0.00    -0.033 A 
ATOM      2  C1  UNL d   1       5.989   1.509   5.789  0.00  0.00     0.039 A 
ATOM      3  C2  UNL d   1       5.985   2.895   5.622  0.00  0.00    -0.080 A 
ATOM      4  C3  UNL d   1       5.989   3.428   4.336  0.00  0.00     0.150 A 
ATOM      5  C4  UNL d   1       5.995   2.598   3.220  0.00  0.00    -0.007 A 
ATOM      6  C5  UNL d   1       6.000   1.214   3.389  0.00  0.00     0.039 A 
ENDROOT
BRANCH   4   7
ATOM      7  O   UNL d   1       5.991   4.775   4.122  0.00  0.00    -0.526 OA
ATOM      8  H5  UNL d   1       6.016   5.223   4.984  0.00  0.00     0.418 HD
ENDBRANCH   4   7
TORSDOF 1
ENDMDL
