MODEL 1
REMARK minimizedAffinity -3.68487525
REMARK minimizedRMSD -1
REMARK  1 active torsions:
REMARK  status: ('A' for Active; 'I' for Inactive)
REMARK    1  A    between atoms: C3_4  and  O_7 
ROOT
ATOM      1  C   UNL d   1       5.443   2.204   4.061  0.00  0.00    -0.033 A 
ATOM      2  C1  UNL d   1       6.000   1.315   3.140  0.00  0.00     0.039 A 
ATOM      3  C2  UNL d   1       6.000  -0.056   3.402  0.00  0.00    -0.080 A 
ATOM      4  C3  UNL d   1       5.440  -0.525   4.588  0.00  0.00     0.150 A 
ATOM      5  C4  UNL d   1       4.881   0.354   5.508  0.00  0.00    -0.007 A 
ATOM      6  C5  UNL d   1       4.882   1.723   5.245  0.00  0.00     0.039 A 
ENDROOT
BRANCH   4   7
ATOM      7  O   UNL d   1       5.422  -1.854   4.890  0.00  0.00    -0.526 OA
ATOM      8  H5  UNL d   1       5.868  -2.339   4.176  0.00  0.00     0.418 HD
ENDBRANCH   4   7
TORSDOF 1
ENDMDL
