MODEL 1
REMARK minimizedAffinity -2.75761485
REMARK minimizedRMSD -1
REMARK  1 active torsions:
REMARK  status: ('A' for Active; 'I' for Inactive)
REMARK    1  A    between atoms: C3_4  and  O_7 
ROOT
ATOM      1  C   UNL d   1       5.999  -0.117   4.355  0.00  0.00    -0.033 A 
ATOM      2  C1  UNL d   1       5.999   0.787   3.291  0.00  0.00     0.039 A 
ATOM      3  C2  UNL d   1       5.573   2.102   3.490  0.00  0.00    -0.080 A 
ATOM      4  C3  UNL d   1       5.150   2.500   4.755  0.00  0.00     0.150 A 
ATOM      5  C4  UNL d   1       5.151   1.605   5.821  0.00  0.00    -0.007 A 
ATOM      6  C5  UNL d   1       5.576   0.293   5.620  0.00  0.00     0.039 A 
ENDROOT
BRANCH   4   7
ATOM      7  O   UNL d   1       4.721   3.771   4.997  0.00  0.00    -0.526 OA
ATOM      8  H5  UNL d   1       4.748   4.268   4.162  0.00  0.00     0.418 HD
ENDBRANCH   4   7
TORSDOF 1
ENDMDL
