MODEL 1
REMARK minimizedAffinity -1.13402545
REMARK minimizedRMSD -1
REMARK  1 active torsions:
REMARK  status: ('A' for Active; 'I' for Inactive)
REMARK    1  A    between atoms: C3_4  and  O_7 
ROOT
ATOM      1  C   UNL d   1       5.439   3.376   3.362  0.00  0.00    -0.033 A 
ATOM      2  C1  UNL d   1       5.999   3.375   4.641  0.00  0.00     0.039 A 
ATOM      3  C2  UNL d   1       5.995   2.208   5.406  0.00  0.00    -0.080 A 
ATOM      4  C3  UNL d   1       5.431   1.049   4.882  0.00  0.00     0.150 A 
ATOM      5  C4  UNL d   1       4.874   1.041   3.607  0.00  0.00    -0.007 A 
ATOM      6  C5  UNL d   1       4.878   2.208   2.844  0.00  0.00     0.039 A 
ENDROOT
BRANCH   4   7
ATOM      7  O   UNL d   1       5.399  -0.114   5.593  0.00  0.00    -0.526 OA
ATOM      8  H5  UNL d   1       5.794   0.049   6.466  0.00  0.00     0.418 HD
ENDBRANCH   4   7
TORSDOF 1
ENDMDL
