MODEL 1
REMARK minimizedAffinity -0.459723085
REMARK minimizedRMSD -1
REMARK  1 active torsions:
REMARK  status: ('A' for Active; 'I' for Inactive)
REMARK    1  A    between atoms: C3_4  and  O_7 
ROOT
ATOM      1  C   UNL d   1       5.441   0.162   4.564  0.00  0.00    -0.033 A 
ATOM      2  C1  UNL d   1       5.998   1.120   5.413  0.00  0.00     0.039 A 
ATOM      3  C2  UNL d   1       6.000   2.466   5.043  0.00  0.00    -0.080 A 
ATOM      4  C3  UNL d   1       5.443   2.840   3.823  0.00  0.00     0.150 A 
ATOM      5  C4  UNL d   1       4.884   1.891   2.974  0.00  0.00    -0.007 A 
ATOM      6  C5  UNL d   1       4.883   0.547   3.345  0.00  0.00     0.039 A 
ENDROOT
BRANCH   4   7
ATOM      7  O   UNL d   1       5.426   4.141   3.416  0.00  0.00    -0.526 OA
ATOM      8  H5  UNL d   1       5.873   4.680   4.090  0.00  0.00     0.418 HD
ENDBRANCH   4   7
TORSDOF 1
ENDMDL
