MODEL 1
REMARK minimizedAffinity -0.251917362
REMARK minimizedRMSD -1
REMARK  1 active torsions:
REMARK  status: ('A' for Active; 'I' for Inactive)
REMARK    1  A    between atoms: C3_4  and  O_7 
ROOT
ATOM      1  C   UNL d   1       5.984   1.207   4.610  0.00  0.00    -0.033 A 
ATOM      2  C1  UNL d   1       5.994   0.606   5.870  0.00  0.00     0.039 A 
ATOM      3  C2  UNL d   1       6.000  -0.786   5.981  0.00  0.00    -0.080 A 
ATOM      4  C3  UNL d   1       5.997  -1.563   4.826  0.00  0.00     0.150 A 
ATOM      5  C4  UNL d   1       5.991  -0.971   3.568  0.00  0.00    -0.007 A 
ATOM      6  C5  UNL d   1       5.984   0.419   3.459  0.00  0.00     0.039 A 
ENDROOT
BRANCH   4   7
ATOM      7  O   UNL d   1       5.998  -2.925   4.884  0.00  0.00    -0.526 OA
ATOM      8  H5  UNL d   1       5.973  -3.194   5.818  0.00  0.00     0.418 HD
ENDBRANCH   4   7
TORSDOF 1
ENDMDL
