MODEL 1
REMARK minimizedAffinity -3.13700438
REMARK minimizedRMSD -1
REMARK  1 active torsions:
REMARK  status: ('A' for Active; 'I' for Inactive)
REMARK    1  A    between atoms: C3_4  and  O_7 
ROOT
ATOM      1  C   UNL d   1       5.626  -3.759   4.321  0.00  0.00    -0.033 A 
ATOM      2  C1  UNL d   1       5.996  -3.400   5.618  0.00  0.00     0.039 A 
ATOM      3  C2  UNL d   1       5.996  -2.057   5.999  0.00  0.00    -0.080 A 
ATOM      4  C3  UNL d   1       5.623  -1.084   5.076  0.00  0.00     0.150 A 
ATOM      5  C4  UNL d   1       5.249  -1.436   3.783  0.00  0.00    -0.007 A 
ATOM      6  C5  UNL d   1       5.251  -2.777   3.404  0.00  0.00     0.039 A 
ENDROOT
BRANCH   4   7
ATOM      7  O   UNL d   1       5.612   0.240   5.400  0.00  0.00    -0.526 OA
ATOM      8  H5  UNL d   1       5.921   0.334   6.317  0.00  0.00     0.418 HD
ENDBRANCH   4   7
TORSDOF 1
ENDMDL
