MODEL 1
REMARK minimizedAffinity -2.30623603
REMARK minimizedRMSD -1
REMARK  1 active torsions:
REMARK  status: ('A' for Active; 'I' for Inactive)
REMARK    1  A    between atoms: C3_4  and  O_7 
ROOT
ATOM      1  C   UNL d   1       5.963  -1.152   5.101  0.00  0.00    -0.033 A 
ATOM      2  C1  UNL d   1       5.940  -0.916   3.725  0.00  0.00     0.039 A 
ATOM      3  C2  UNL d   1       5.945   0.393   3.240  0.00  0.00    -0.080 A 
ATOM      4  C3  UNL d   1       5.973   1.455   4.139  0.00  0.00     0.150 A 
ATOM      5  C4  UNL d   1       6.000   1.227   5.511  0.00  0.00    -0.007 A 
ATOM      6  C5  UNL d   1       5.994  -0.080   5.994  0.00  0.00     0.039 A 
ENDROOT
BRANCH   4   7
ATOM      7  O   UNL d   1       5.974   2.750   3.712  0.00  0.00    -0.526 OA
ATOM      8  H5  UNL d   1       5.925   2.754   2.742  0.00  0.00     0.418 HD
ENDBRANCH   4   7
TORSDOF 1
ENDMDL
