MODEL 1
REMARK minimizedAffinity -2.42167425
REMARK minimizedRMSD -1
REMARK  1 active torsions:
REMARK  status: ('A' for Active; 'I' for Inactive)
REMARK    1  A    between atoms: C3_4  and  O_7 
ROOT
ATOM      1  C   UNL d   1       5.628   2.331   5.434  0.00  0.00    -0.033 A 
ATOM      2  C1  UNL d   1       5.995   2.401   4.088  0.00  0.00     0.039 A 
ATOM      3  C2  UNL d   1       6.000   1.246   3.304  0.00  0.00    -0.080 A 
ATOM      4  C3  UNL d   1       5.636   0.030   3.876  0.00  0.00     0.150 A 
ATOM      5  C4  UNL d   1       5.266  -0.046   5.215  0.00  0.00    -0.007 A 
ATOM      6  C5  UNL d   1       5.263   1.108   5.997  0.00  0.00     0.039 A 
ENDROOT
BRANCH   4   7
ATOM      7  O   UNL d   1       5.631  -1.125   3.151  0.00  0.00    -0.526 OA
ATOM      8  H5  UNL d   1       5.936  -0.925   2.251  0.00  0.00     0.418 HD
ENDBRANCH   4   7
TORSDOF 1
ENDMDL
