MODEL 1
REMARK minimizedAffinity -2.48003101
REMARK minimizedRMSD -1
REMARK  1 active torsions:
REMARK  status: ('A' for Active; 'I' for Inactive)
REMARK    1  A    between atoms: C3_4  and  O_7 
ROOT
ATOM      1  C   UNL d   1       5.816  -0.375   3.968  0.00  0.00    -0.033 A 
ATOM      2  C1  UNL d   1       6.000   0.474   5.061  0.00  0.00     0.039 A 
ATOM      3  C2  UNL d   1       5.999   1.859   4.880  0.00  0.00    -0.080 A 
ATOM      4  C3  UNL d   1       5.813   2.380   3.602  0.00  0.00     0.150 A 
ATOM      5  C4  UNL d   1       5.626   1.541   2.510  0.00  0.00    -0.007 A 
ATOM      6  C5  UNL d   1       5.628   0.158   2.692  0.00  0.00     0.039 A 
ENDROOT
BRANCH   4   7
ATOM      7  O   UNL d   1       5.809   3.725   3.375  0.00  0.00    -0.526 OA
ATOM      8  H5  UNL d   1       5.979   4.179   4.217  0.00  0.00     0.418 HD
ENDBRANCH   4   7
TORSDOF 1
ENDMDL
