MODEL 1
REMARK minimizedAffinity -2.66084075
REMARK minimizedRMSD -1
REMARK  1 active torsions:
REMARK  status: ('A' for Active; 'I' for Inactive)
REMARK    1  A    between atoms: C3_4  and  O_7 
ROOT
ATOM      1  C   UNL d   1       5.999   1.454   4.004  0.00  0.00    -0.033 A 
ATOM      2  C1  UNL d   1       5.997   1.345   5.396  0.00  0.00     0.039 A 
ATOM      3  C2  UNL d   1       5.987   0.086   5.999  0.00  0.00    -0.080 A 
ATOM      4  C3  UNL d   1       5.981  -1.054   5.200  0.00  0.00     0.150 A 
ATOM      5  C4  UNL d   1       5.987  -0.953   3.812  0.00  0.00    -0.007 A 
ATOM      6  C5  UNL d   1       5.996   0.306   3.212  0.00  0.00     0.039 A 
ENDROOT
BRANCH   4   7
ATOM      7  O   UNL d   1       5.967  -2.305   5.742  0.00  0.00    -0.526 OA
ATOM      8  H5  UNL d   1       5.934  -2.220   6.710  0.00  0.00     0.418 HD
ENDBRANCH   4   7
TORSDOF 1
ENDMDL
