MODEL 1
REMARK minimizedAffinity 1.76746392
REMARK minimizedRMSD -1
REMARK  1 active torsions:
REMARK  status: ('A' for Active; 'I' for Inactive)
REMARK    1  A    between atoms: C3_4  and  O_7 
ROOT
ATOM      1  C   UNL d   1       5.989   2.328   3.683  0.00  0.00    -0.033 A 
ATOM      2  C1  UNL d   1       5.994   3.501   2.925  0.00  0.00     0.039 A 
ATOM      3  C2  UNL d   1       5.999   4.744   3.561  0.00  0.00    -0.080 A 
ATOM      4  C3  UNL d   1       6.000   4.800   4.952  0.00  0.00     0.150 A 
ATOM      5  C4  UNL d   1       5.999   3.636   5.713  0.00  0.00    -0.007 A 
ATOM      6  C5  UNL d   1       5.993   2.395   5.076  0.00  0.00     0.039 A 
ENDROOT
BRANCH   4   7
ATOM      7  O   UNL d   1       6.000   5.990   5.617  0.00  0.00    -0.526 OA
ATOM      8  H5  UNL d   1       5.971   6.708   4.963  0.00  0.00     0.418 HD
ENDBRANCH   4   7
TORSDOF 1
ENDMDL
