MODEL 1
REMARK minimizedAffinity 0.0164451338
REMARK minimizedRMSD -1
REMARK  1 active torsions:
REMARK  status: ('A' for Active; 'I' for Inactive)
REMARK    1  A    between atoms: C3_4  and  O_7 
ROOT
ATOM      1  C   UNL d   1       5.987   3.897   3.779  0.00  0.00    -0.033 A 
ATOM      2  C1  UNL d   1       5.976   5.293   3.787  0.00  0.00     0.039 A 
ATOM      3  C2  UNL d   1       5.978   6.000   2.582  0.00  0.00    -0.080 A 
ATOM      4  C3  UNL d   1       5.989   5.299   1.379  0.00  0.00     0.150 A 
ATOM      5  C4  UNL d   1       5.996   3.908   1.365  0.00  0.00    -0.007 A 
ATOM      6  C5  UNL d   1       5.995   3.205   2.568  0.00  0.00     0.039 A 
ENDROOT
BRANCH   4   7
ATOM      7  O   UNL d   1       5.996   5.945   0.179  0.00  0.00    -0.526 OA
ATOM      8  H5  UNL d   1       6.020   6.902   0.344  0.00  0.00     0.418 HD
ENDBRANCH   4   7
TORSDOF 1
ENDMDL
