MODEL 1
REMARK minimizedAffinity 7.25908756
REMARK minimizedRMSD -1
REMARK  0 active torsions:
REMARK  status: ('A' for Active; 'I' for Inactive)
ROOT
ATOM      1  C   UNL d   1       5.509   2.182  -1.963  0.00  0.00     0.023 A 
ATOM      2  C1  UNL d   1       6.000   2.170  -0.657  0.00  0.00     0.003 A 
ATOM      3  C2  UNL d   1       5.339   1.438   0.332  0.00  0.00     0.048 A 
ATOM      4  C3  UNL d   1       4.190   0.718   0.007  0.00  0.00     0.023 A 
ATOM      5  C4  UNL d   1       3.696   0.726  -1.298  0.00  0.00     0.048 A 
ATOM      6  C5  UNL d   1       4.359   1.461  -2.283  0.00  0.00     0.003 A 
ATOM      7  I   UNL d   1       3.206  -0.374   1.477  0.00  0.00    -0.146 I 
ENDROOT
TORSDOF 0
ENDMDL
