MODEL 1
REMARK minimizedAffinity 17.4914112
REMARK minimizedRMSD -1
REMARK  0 active torsions:
REMARK  status: ('A' for Active; 'I' for Inactive)
ROOT
ATOM      1  C   UNL d   1       0.331   4.338   2.579  0.00  0.00     0.023 A 
ATOM      2  C1  UNL d   1      -0.153   4.582   1.294  0.00  0.00     0.003 A 
ATOM      3  C2  UNL d   1      -1.167   3.782   0.765  0.00  0.00     0.048 A 
ATOM      4  C3  UNL d   1      -1.694   2.739   1.527  0.00  0.00     0.023 A 
ATOM      5  C4  UNL d   1      -1.213   2.491   2.813  0.00  0.00     0.048 A 
ATOM      6  C5  UNL d   1      -0.198   3.294   3.338  0.00  0.00     0.003 A 
ATOM      7  I   UNL d   1      -3.204   1.546   0.741  0.00  0.00    -0.146 I 
ENDROOT
TORSDOF 0
ENDMDL
