MODEL 1
REMARK minimizedAffinity 11.2277699
REMARK minimizedRMSD -1
REMARK  0 active torsions:
REMARK  status: ('A' for Active; 'I' for Inactive)
ROOT
ATOM      1  C   UNL d   1      -0.588   5.168   1.134  0.00  0.00     0.023 A 
ATOM      2  C1  UNL d   1       0.043   5.822   2.192  0.00  0.00     0.003 A 
ATOM      3  C2  UNL d   1       0.702   5.085   3.178  0.00  0.00     0.048 A 
ATOM      4  C3  UNL d   1       0.726   3.693   3.099  0.00  0.00     0.023 A 
ATOM      5  C4  UNL d   1       0.097   3.033   2.042  0.00  0.00     0.048 A 
ATOM      6  C5  UNL d   1      -0.562   3.775   1.060  0.00  0.00     0.003 A 
ATOM      7  I   UNL d   1       1.706   2.593   4.565  0.00  0.00    -0.146 I 
ENDROOT
TORSDOF 0
ENDMDL
