MODEL 1
REMARK minimizedAffinity 14.0554972
REMARK minimizedRMSD -1
REMARK  0 active torsions:
REMARK  status: ('A' for Active; 'I' for Inactive)
ROOT
ATOM      1  C   UNL d   1       3.004   0.772   0.648  0.00  0.00     0.023 A 
ATOM      2  C1  UNL d   1       2.844   0.756  -0.738  0.00  0.00     0.003 A 
ATOM      3  C2  UNL d   1       3.703   1.499  -1.550  0.00  0.00     0.048 A 
ATOM      4  C3  UNL d   1       4.720   2.256  -0.970  0.00  0.00     0.023 A 
ATOM      5  C4  UNL d   1       4.885   2.275   0.416  0.00  0.00     0.048 A 
ATOM      6  C5  UNL d   1       4.024   1.531   1.224  0.00  0.00     0.003 A 
ATOM      7  I   UNL d   1       6.000   3.363  -2.177  0.00  0.00    -0.146 I 
ENDROOT
TORSDOF 0
ENDMDL
