MODEL 1
REMARK minimizedAffinity 19.8830223
REMARK minimizedRMSD -1
REMARK  0 active torsions:
REMARK  status: ('A' for Active; 'I' for Inactive)
ROOT
ATOM      1  C   UNL d   1       2.562   0.379  -0.006  0.00  0.00     0.023 A 
ATOM      2  C1  UNL d   1       3.481   1.212   0.634  0.00  0.00     0.003 A 
ATOM      3  C2  UNL d   1       4.468   1.864  -0.108  0.00  0.00     0.048 A 
ATOM      4  C3  UNL d   1       4.531   1.679  -1.489  0.00  0.00     0.023 A 
ATOM      5  C4  UNL d   1       3.614   0.848  -2.133  0.00  0.00     0.048 A 
ATOM      6  C5  UNL d   1       2.629   0.197  -1.387  0.00  0.00     0.003 A 
ATOM      7  I   UNL d   1       6.000   2.649  -2.594  0.00  0.00    -0.146 I 
ENDROOT
TORSDOF 0
ENDMDL
