MODEL 1
REMARK minimizedAffinity 13.3305569
REMARK minimizedRMSD -1
REMARK  0 active torsions:
REMARK  status: ('A' for Active; 'I' for Inactive)
ROOT
ATOM      1  C   UNL d   1       3.218   0.368   0.405  0.00  0.00     0.023 A 
ATOM      2  C1  UNL d   1       2.956   0.358  -0.965  0.00  0.00     0.003 A 
ATOM      3  C2  UNL d   1       3.753   1.105  -1.835  0.00  0.00     0.048 A 
ATOM      4  C3  UNL d   1       4.811   1.859  -1.328  0.00  0.00     0.023 A 
ATOM      5  C4  UNL d   1       5.077   1.871   0.042  0.00  0.00     0.048 A 
ATOM      6  C5  UNL d   1       4.277   1.123   0.908  0.00  0.00     0.003 A 
ATOM      7  I   UNL d   1       5.998   2.972  -2.621  0.00  0.00    -0.146 I 
ENDROOT
TORSDOF 0
ENDMDL
