MODEL 1
REMARK minimizedAffinity 13.0263119
REMARK minimizedRMSD -1
REMARK  0 active torsions:
REMARK  status: ('A' for Active; 'I' for Inactive)
ROOT
ATOM      1  C   UNL d   1       2.364   0.492  -0.238  0.00  0.00     0.023 A 
ATOM      2  C1  UNL d   1       1.183   1.047  -0.732  0.00  0.00     0.003 A 
ATOM      3  C2  UNL d   1       0.686   2.233  -0.187  0.00  0.00     0.048 A 
ATOM      4  C3  UNL d   1       1.376   2.859   0.851  0.00  0.00     0.023 A 
ATOM      5  C4  UNL d   1       2.558   2.308   1.348  0.00  0.00     0.048 A 
ATOM      6  C5  UNL d   1       3.050   1.121   0.800  0.00  0.00     0.003 A 
ATOM      7  I   UNL d   1       0.638   4.624   1.664  0.00  0.00    -0.146 I 
ENDROOT
TORSDOF 0
ENDMDL
