MODEL 1
REMARK minimizedAffinity 8.95550346
REMARK minimizedRMSD -1
REMARK  0 active torsions:
REMARK  status: ('A' for Active; 'I' for Inactive)
ROOT
ATOM      1  C   UNL d   1       2.837   0.542   0.634  0.00  0.00     0.023 A 
ATOM      2  C1  UNL d   1       2.722   0.411  -0.750  0.00  0.00     0.003 A 
ATOM      3  C2  UNL d   1       3.628   1.059  -1.592  0.00  0.00     0.048 A 
ATOM      4  C3  UNL d   1       4.648   1.835  -1.043  0.00  0.00     0.023 A 
ATOM      5  C4  UNL d   1       4.768   1.968   0.341  0.00  0.00     0.048 A 
ATOM      6  C5  UNL d   1       3.859   1.319   1.179  0.00  0.00     0.003 A 
ATOM      7  I   UNL d   1       5.999   2.801  -2.294  0.00  0.00    -0.146 I 
ENDROOT
TORSDOF 0
ENDMDL
