MODEL 1
REMARK minimizedAffinity 7.32935572
REMARK minimizedRMSD -1
REMARK  0 active torsions:
REMARK  status: ('A' for Active; 'I' for Inactive)
ROOT
ATOM      1  C   UNL d   1       2.999   0.652   0.985  0.00  0.00     0.023 A 
ATOM      2  C1  UNL d   1       2.828   0.366  -0.370  0.00  0.00     0.003 A 
ATOM      3  C2  UNL d   1       3.688   0.924  -1.317  0.00  0.00     0.048 A 
ATOM      4  C3  UNL d   1       4.718   1.768  -0.903  0.00  0.00     0.023 A 
ATOM      5  C4  UNL d   1       4.893   2.057   0.452  0.00  0.00     0.048 A 
ATOM      6  C5  UNL d   1       4.030   1.497   1.395  0.00  0.00     0.003 A 
ATOM      7  I   UNL d   1       6.000   2.601  -2.311  0.00  0.00    -0.146 I 
ENDROOT
TORSDOF 0
ENDMDL
