MODEL 1
REMARK minimizedAffinity -2.40897751
REMARK minimizedRMSD -1
REMARK  0 active torsions:
REMARK  status: ('A' for Active; 'I' for Inactive)
ROOT
ATOM      1  C   UNL d   1       1.232  -2.116   1.206  0.00  0.00     0.124 A 
ATOM      2  C1  UNL d   1       1.958  -1.098   0.603  0.00  0.00     0.062 A 
ATOM      3  C2  UNL d   1       1.302  -0.092  -0.100  0.00  0.00     0.162 A 
ATOM      4  C3  UNL d   1      -0.089  -0.097  -0.204  0.00  0.00    -0.034 A 
ATOM      5  C4  UNL d   1      -0.813  -1.125   0.404  0.00  0.00     0.162 A 
ATOM      6  C5  UNL d   1      -0.152  -2.129   1.106  0.00  0.00     0.062 A 
ATOM      7  F   UNL d   1      -0.856  -3.111   1.687  0.00  0.00    -0.097 F 
ATOM      8  F1  UNL d   1      -2.151  -1.161   0.324  0.00  0.00    -0.096 F 
ATOM      9  I   UNL d   1      -1.073   1.406  -1.254  0.00  0.00    -0.060 I 
ATOM     10  F2  UNL d   1       2.029   0.879  -0.672  0.00  0.00    -0.096 F 
ATOM     11  F3  UNL d   1       3.295  -1.085   0.697  0.00  0.00    -0.097 F 
ATOM     12  F4  UNL d   1       1.865  -3.084   1.881  0.00  0.00    -0.092 F 
ENDROOT
TORSDOF 0
ENDMDL
