MODEL 1
REMARK minimizedAffinity -2.51032758
REMARK minimizedRMSD -1
REMARK  0 active torsions:
REMARK  status: ('A' for Active; 'I' for Inactive)
ROOT
ATOM      1  C   UNL d   1      -2.074   1.761  -2.445  0.00  0.00     0.124 A 
ATOM      2  C1  UNL d   1      -1.339   2.372  -1.438  0.00  0.00     0.062 A 
ATOM      3  C2  UNL d   1      -0.650   1.599  -0.508  0.00  0.00     0.162 A 
ATOM      4  C3  UNL d   1      -0.691   0.207  -0.580  0.00  0.00    -0.034 A 
ATOM      5  C4  UNL d   1      -1.433  -0.400  -1.596  0.00  0.00     0.162 A 
ATOM      6  C5  UNL d   1      -2.120   0.377  -2.523  0.00  0.00     0.062 A 
ATOM      7  F   UNL d   1      -2.829  -0.215  -3.496  0.00  0.00    -0.097 F 
ATOM      8  F1  UNL d   1      -1.494  -1.736  -1.695  0.00  0.00    -0.096 F 
ATOM      9  I   UNL d   1       0.337  -0.952   0.809  0.00  0.00    -0.060 I 
ATOM     10  F2  UNL d   1       0.052   2.216   0.455  0.00  0.00    -0.096 F 
ATOM     11  F3  UNL d   1      -1.293   3.709  -1.360  0.00  0.00    -0.097 F 
ATOM     12  F4  UNL d   1      -2.736   2.507  -3.339  0.00  0.00    -0.092 F 
ENDROOT
TORSDOF 0
ENDMDL
