MODEL 1
REMARK minimizedAffinity 2.42256713
REMARK minimizedRMSD -1
REMARK  0 active torsions:
REMARK  status: ('A' for Active; 'I' for Inactive)
ROOT
ATOM      1  C   UNL d   1       1.063  -1.670   0.760  0.00  0.00     0.124 A 
ATOM      2  C1  UNL d   1       1.975  -1.008  -0.051  0.00  0.00     0.062 A 
ATOM      3  C2  UNL d   1       1.540  -0.028  -0.938  0.00  0.00     0.162 A 
ATOM      4  C3  UNL d   1       0.186   0.296  -1.020  0.00  0.00    -0.034 A 
ATOM      5  C4  UNL d   1      -0.726  -0.375  -0.203  0.00  0.00     0.162 A 
ATOM      6  C5  UNL d   1      -0.286  -1.353   0.683  0.00  0.00     0.062 A 
ATOM      7  F   UNL d   1      -1.168  -1.992   1.465  0.00  0.00    -0.097 F 
ATOM      8  F1  UNL d   1      -2.035  -0.088  -0.256  0.00  0.00    -0.096 F 
ATOM      9  I   UNL d   1      -0.469   1.760  -2.347  0.00  0.00    -0.060 I 
ATOM     10  F2  UNL d   1       2.443   0.596  -1.709  0.00  0.00    -0.096 F 
ATOM     11  F3  UNL d   1       3.278  -1.313   0.021  0.00  0.00    -0.097 F 
ATOM     12  F4  UNL d   1       1.484  -2.613   1.612  0.00  0.00    -0.092 F 
ENDROOT
TORSDOF 0
ENDMDL
