MODEL 1
REMARK minimizedAffinity -5.82611895
REMARK minimizedRMSD -1
REMARK  0 active torsions:
REMARK  status: ('A' for Active; 'I' for Inactive)
ROOT
ATOM      1  C   UNL d   1       0.539  -2.377   1.888  0.00  0.00     0.124 A 
ATOM      2  C1  UNL d   1       1.254  -2.122   0.727  0.00  0.00     0.062 A 
ATOM      3  C2  UNL d   1       0.992  -0.976  -0.019  0.00  0.00     0.162 A 
ATOM      4  C3  UNL d   1       0.010  -0.076   0.395  0.00  0.00    -0.034 A 
ATOM      5  C4  UNL d   1      -0.707  -0.341   1.564  0.00  0.00     0.162 A 
ATOM      6  C5  UNL d   1      -0.441  -1.487   2.305  0.00  0.00     0.062 A 
ATOM      7  F   UNL d   1      -1.133  -1.733   3.427  0.00  0.00    -0.097 F 
ATOM      8  F1  UNL d   1      -1.658   0.503   1.990  0.00  0.00    -0.096 F 
ATOM      9  I   UNL d   1      -0.386   1.638  -0.718  0.00  0.00    -0.060 I 
ATOM     10  F2  UNL d   1       1.699  -0.754  -1.137  0.00  0.00    -0.096 F 
ATOM     11  F3  UNL d   1       2.200  -2.981   0.321  0.00  0.00    -0.097 F 
ATOM     12  F4  UNL d   1       0.792  -3.481   2.603  0.00  0.00    -0.092 F 
ENDROOT
TORSDOF 0
ENDMDL
