MODEL 1
REMARK minimizedAffinity -4.05880356
REMARK minimizedRMSD -1
REMARK  0 active torsions:
REMARK  status: ('A' for Active; 'I' for Inactive)
ROOT
ATOM      1  C   UNL d   1       1.882  -1.425   0.291  0.00  0.00     0.124 A 
ATOM      2  C1  UNL d   1       1.969  -0.244  -0.432  0.00  0.00     0.062 A 
ATOM      3  C2  UNL d   1       0.909   0.658  -0.430  0.00  0.00     0.162 A 
ATOM      4  C3  UNL d   1      -0.248   0.383   0.300  0.00  0.00    -0.034 A 
ATOM      5  C4  UNL d   1      -0.328  -0.808   1.025  0.00  0.00     0.162 A 
ATOM      6  C5  UNL d   1       0.734  -1.706   1.019  0.00  0.00     0.062 A 
ATOM      7  F   UNL d   1       0.649  -2.847   1.719  0.00  0.00    -0.097 F 
ATOM      8  F1  UNL d   1      -1.425  -1.103   1.738  0.00  0.00    -0.096 F 
ATOM      9  I   UNL d   1      -1.835   1.729   0.307  0.00  0.00    -0.060 I 
ATOM     10  F2  UNL d   1       1.020   1.791  -1.138  0.00  0.00    -0.096 F 
ATOM     11  F3  UNL d   1       3.076   0.029  -1.137  0.00  0.00    -0.097 F 
ATOM     12  F4  UNL d   1       2.903  -2.292   0.286  0.00  0.00    -0.092 F 
ENDROOT
TORSDOF 0
ENDMDL
