MODEL 1
REMARK minimizedAffinity -2.31980109
REMARK minimizedRMSD -1
REMARK  0 active torsions:
REMARK  status: ('A' for Active; 'I' for Inactive)
ROOT
ATOM      1  C   UNL d   1       1.186  -1.356   0.638  0.00  0.00     0.124 A 
ATOM      2  C1  UNL d   1       2.011  -0.736  -0.289  0.00  0.00     0.062 A 
ATOM      3  C2  UNL d   1       1.550   0.360  -1.014  0.00  0.00     0.162 A 
ATOM      4  C3  UNL d   1       0.257   0.842  -0.813  0.00  0.00    -0.034 A 
ATOM      5  C4  UNL d   1      -0.568   0.212   0.121  0.00  0.00     0.162 A 
ATOM      6  C5  UNL d   1      -0.102  -0.882   0.843  0.00  0.00     0.062 A 
ATOM      7  F   UNL d   1      -0.900  -1.481   1.738  0.00  0.00    -0.097 F 
ATOM      8  F1  UNL d   1      -1.816   0.650   0.339  0.00  0.00    -0.096 F 
ATOM      9  I   UNL d   1      -0.437   2.480  -1.894  0.00  0.00    -0.060 I 
ATOM     10  F2  UNL d   1       2.369   0.940  -1.904  0.00  0.00    -0.096 F 
ATOM     11  F3  UNL d   1       3.256  -1.192  -0.489  0.00  0.00    -0.097 F 
ATOM     12  F4  UNL d   1       1.632  -2.411   1.333  0.00  0.00    -0.092 F 
ENDROOT
TORSDOF 0
ENDMDL
