MODEL 1
REMARK minimizedAffinity -3.61811829
REMARK minimizedRMSD -1
REMARK  0 active torsions:
REMARK  status: ('A' for Active; 'I' for Inactive)
ROOT
ATOM      1  C   UNL d   1      -1.407   1.634  -1.121  0.00  0.00     0.124 A 
ATOM      2  C1  UNL d   1      -1.551   1.107   0.154  0.00  0.00     0.062 A 
ATOM      3  C2  UNL d   1      -0.722   0.074   0.583  0.00  0.00     0.162 A 
ATOM      4  C3  UNL d   1       0.260  -0.437  -0.266  0.00  0.00    -0.034 A 
ATOM      5  C4  UNL d   1       0.398   0.098  -1.548  0.00  0.00     0.162 A 
ATOM      6  C5  UNL d   1      -0.433   1.129  -1.971  0.00  0.00     0.062 A 
ATOM      7  F   UNL d   1      -0.293   1.638  -3.204  0.00  0.00    -0.097 F 
ATOM      8  F1  UNL d   1       1.332  -0.371  -2.389  0.00  0.00    -0.096 F 
ATOM      9  I   UNL d   1       1.503  -1.981   0.371  0.00  0.00    -0.060 I 
ATOM     10  F2  UNL d   1      -0.883  -0.416   1.821  0.00  0.00    -0.096 F 
ATOM     11  F3  UNL d   1      -2.493   1.592   0.977  0.00  0.00    -0.097 F 
ATOM     12  F4  UNL d   1      -2.208   2.627  -1.531  0.00  0.00    -0.092 F 
ENDROOT
TORSDOF 0
ENDMDL
