MODEL 1
REMARK minimizedAffinity -0.938057899
REMARK minimizedRMSD -1
REMARK  0 active torsions:
REMARK  status: ('A' for Active; 'I' for Inactive)
ROOT
ATOM      1  C   UNL d   1       1.462  -0.610   0.499  0.00  0.00     0.124 A 
ATOM      2  C1  UNL d   1       1.242   0.759   0.433  0.00  0.00     0.062 A 
ATOM      3  C2  UNL d   1       0.164   1.261  -0.290  0.00  0.00     0.162 A 
ATOM      4  C3  UNL d   1      -0.705   0.393  -0.951  0.00  0.00    -0.034 A 
ATOM      5  C4  UNL d   1      -0.478  -0.982  -0.881  0.00  0.00     0.162 A 
ATOM      6  C5  UNL d   1       0.602  -1.479  -0.158  0.00  0.00     0.062 A 
ATOM      7  F   UNL d   1       0.812  -2.802  -0.095  0.00  0.00    -0.097 F 
ATOM      8  F1  UNL d   1      -1.293  -1.845  -1.505  0.00  0.00    -0.096 F 
ATOM      9  I   UNL d   1      -2.319   1.140  -2.033  0.00  0.00    -0.060 I 
ATOM     10  F2  UNL d   1      -0.024   2.588  -0.337  0.00  0.00    -0.096 F 
ATOM     11  F3  UNL d   1       2.072   1.601   1.065  0.00  0.00    -0.097 F 
ATOM     12  F4  UNL d   1       2.501  -1.090   1.194  0.00  0.00    -0.092 F 
ENDROOT
TORSDOF 0
ENDMDL
