MODEL 1
REMARK minimizedAffinity -0.184808716
REMARK minimizedRMSD -1
REMARK  0 active torsions:
REMARK  status: ('A' for Active; 'I' for Inactive)
ROOT
ATOM      1  C   UNL d   1       1.176  -1.695   1.560  0.00  0.00     0.124 A 
ATOM      2  C1  UNL d   1       1.786  -1.347   0.362  0.00  0.00     0.062 A 
ATOM      3  C2  UNL d   1       1.241  -0.344  -0.434  0.00  0.00     0.162 A 
ATOM      4  C3  UNL d   1       0.081   0.320  -0.035  0.00  0.00    -0.034 A 
ATOM      5  C4  UNL d   1      -0.526  -0.036   1.170  0.00  0.00     0.162 A 
ATOM      6  C5  UNL d   1       0.022  -1.040   1.963  0.00  0.00     0.062 A 
ATOM      7  F   UNL d   1      -0.568  -1.374   3.120  0.00  0.00    -0.097 F 
ATOM      8  F1  UNL d   1      -1.643   0.581   1.584  0.00  0.00    -0.096 F 
ATOM      9  I   UNL d   1      -0.736   1.820  -1.224  0.00  0.00    -0.060 I 
ATOM     10  F2  UNL d   1       1.851  -0.029  -1.587  0.00  0.00    -0.096 F 
ATOM     11  F3  UNL d   1       2.901  -1.980  -0.029  0.00  0.00    -0.097 F 
ATOM     12  F4  UNL d   1       1.702  -2.661   2.324  0.00  0.00    -0.092 F 
ENDROOT
TORSDOF 0
ENDMDL
