MODEL 1
REMARK minimizedAffinity 0.618441701
REMARK minimizedRMSD -1
REMARK  0 active torsions:
REMARK  status: ('A' for Active; 'I' for Inactive)
ROOT
ATOM      1  C   UNL d   1      -1.236   1.605  -1.074  0.00  0.00     0.124 A 
ATOM      2  C1  UNL d   1      -0.385   0.979  -1.974  0.00  0.00     0.062 A 
ATOM      3  C2  UNL d   1       0.364  -0.125  -1.578  0.00  0.00     0.162 A 
ATOM      4  C3  UNL d   1       0.265  -0.611  -0.274  0.00  0.00    -0.034 A 
ATOM      5  C4  UNL d   1      -0.592   0.024   0.626  0.00  0.00     0.162 A 
ATOM      6  C5  UNL d   1      -1.339   1.127   0.225  0.00  0.00     0.062 A 
ATOM      7  F   UNL d   1      -2.160   1.730   1.096  0.00  0.00    -0.097 F 
ATOM      8  F1  UNL d   1      -0.711  -0.417   1.887  0.00  0.00    -0.096 F 
ATOM      9  I   UNL d   1       1.384  -2.262   0.322  0.00  0.00    -0.060 I 
ATOM     10  F2  UNL d   1       1.179  -0.710  -2.469  0.00  0.00    -0.096 F 
ATOM     11  F3  UNL d   1      -0.283   1.439  -3.230  0.00  0.00    -0.097 F 
ATOM     12  F4  UNL d   1      -1.955   2.668  -1.458  0.00  0.00    -0.092 F 
ENDROOT
TORSDOF 0
ENDMDL
