MODEL 1
REMARK minimizedAffinity -2.78239894
REMARK minimizedRMSD -1
REMARK  0 active torsions:
REMARK  status: ('A' for Active; 'I' for Inactive)
ROOT
ATOM      1  C   UNL d   1      -0.988  -1.609   1.657  0.00  0.00     0.124 A 
ATOM      2  C1  UNL d   1      -1.105  -0.337   1.114  0.00  0.00     0.062 A 
ATOM      3  C2  UNL d   1      -0.077   0.190   0.336  0.00  0.00     0.162 A 
ATOM      4  C3  UNL d   1       1.077  -0.556   0.096  0.00  0.00    -0.034 A 
ATOM      5  C4  UNL d   1       1.188  -1.834   0.647  0.00  0.00     0.162 A 
ATOM      6  C5  UNL d   1       0.158  -2.356   1.423  0.00  0.00     0.062 A 
ATOM      7  F   UNL d   1       0.273  -3.585   1.947  0.00  0.00    -0.097 F 
ATOM      8  F1  UNL d   1       2.283  -2.578   0.436  0.00  0.00    -0.096 F 
ATOM      9  I   UNL d   1       2.615   0.228  -1.066  0.00  0.00    -0.060 I 
ATOM     10  F2  UNL d   1      -0.218   1.422  -0.176  0.00  0.00    -0.096 F 
ATOM     11  F3  UNL d   1      -2.210   0.388   1.339  0.00  0.00    -0.097 F 
ATOM     12  F4  UNL d   1      -1.977  -2.112   2.405  0.00  0.00    -0.092 F 
ENDROOT
TORSDOF 0
ENDMDL
