MODEL 1
REMARK minimizedAffinity 1.52834237
REMARK minimizedRMSD -1
REMARK  0 active torsions:
REMARK  status: ('A' for Active; 'I' for Inactive)
ROOT
ATOM      1  C   UNL d   1       1.122  -1.649   0.513  0.00  0.00     0.124 A 
ATOM      2  C1  UNL d   1      -0.246  -1.451   0.384  0.00  0.00     0.062 A 
ATOM      3  C2  UNL d   1      -0.732  -0.418  -0.412  0.00  0.00     0.162 A 
ATOM      4  C3  UNL d   1       0.151   0.425  -1.087  0.00  0.00    -0.034 A 
ATOM      5  C4  UNL d   1       1.525   0.221  -0.952  0.00  0.00     0.162 A 
ATOM      6  C5  UNL d   1       2.006  -0.813  -0.155  0.00  0.00     0.062 A 
ATOM      7  F   UNL d   1       3.328  -1.003  -0.032  0.00  0.00    -0.097 F 
ATOM      8  F1  UNL d   1       2.402   1.013  -1.586  0.00  0.00    -0.096 F 
ATOM      9  I   UNL d   1      -0.572   1.971  -2.278  0.00  0.00    -0.060 I 
ATOM     10  F2  UNL d   1      -2.058  -0.250  -0.518  0.00  0.00    -0.096 F 
ATOM     11  F3  UNL d   1      -1.102  -2.257   1.029  0.00  0.00    -0.097 F 
ATOM     12  F4  UNL d   1       1.587  -2.644   1.280  0.00  0.00    -0.092 F 
ENDROOT
TORSDOF 0
ENDMDL
