MODEL 1
REMARK minimizedAffinity 11.0662374
REMARK minimizedRMSD -1
REMARK  0 active torsions:
REMARK  status: ('A' for Active; 'I' for Inactive)
ROOT
ATOM      1  C   UNL d   1       4.045   5.521   2.580  0.00  0.00     0.020 A 
ATOM      2  C1  UNL d   1       3.973   4.844   3.797  0.00  0.00     0.020 A 
ATOM      3  C2  UNL d   1       2.768   4.268   4.205  0.00  0.00     0.034 A 
ATOM      4  C3  UNL d   1       1.630   4.369   3.397  0.00  0.00     0.017 A 
ATOM      5  C4  UNL d   1       1.703   5.049   2.176  0.00  0.00     0.017 A 
ATOM      6  C5  UNL d   1       2.912   5.623   1.771  0.00  0.00     0.034 A 
ATOM      7 Cl   UNL d   1       0.341   5.214   1.124  0.00  0.00    -0.070 Cl
ATOM      8 Cl1  UNL d   1       0.174   3.633   3.965  0.00  0.00    -0.070 Cl
ENDROOT
TORSDOF 0
ENDMDL
