MODEL 1
REMARK minimizedAffinity 2.58918643
REMARK minimizedRMSD -1
REMARK  0 active torsions:
REMARK  status: ('A' for Active; 'I' for Inactive)
ROOT
ATOM      1  C   UNL d   1       2.427   0.009  -0.439  0.00  0.00     0.020 A 
ATOM      2  C1  UNL d   1       2.506   0.154  -1.823  0.00  0.00     0.020 A 
ATOM      3  C2  UNL d   1       3.512   0.942  -2.387  0.00  0.00     0.034 A 
ATOM      4  C3  UNL d   1       4.443   1.587  -1.566  0.00  0.00     0.017 A 
ATOM      5  C4  UNL d   1       4.364   1.440  -0.176  0.00  0.00     0.017 A 
ATOM      6  C5  UNL d   1       3.355   0.650   0.383  0.00  0.00     0.034 A 
ATOM      7 Cl   UNL d   1       5.478   2.205   0.902  0.00  0.00    -0.070 Cl
ATOM      8 Cl1  UNL d   1       5.661   2.545  -2.331  0.00  0.00    -0.070 Cl
ENDROOT
TORSDOF 0
ENDMDL
