MODEL 1
REMARK minimizedAffinity 6.13072634
REMARK minimizedRMSD -1
REMARK  0 active torsions:
REMARK  status: ('A' for Active; 'I' for Inactive)
ROOT
ATOM      1  C   UNL d   1       2.488   0.304  -0.225  0.00  0.00     0.020 A 
ATOM      2  C1  UNL d   1       3.417   1.233   0.241  0.00  0.00     0.020 A 
ATOM      3  C2  UNL d   1       4.328   1.814  -0.644  0.00  0.00     0.034 A 
ATOM      4  C3  UNL d   1       4.313   1.466  -1.999  0.00  0.00     0.017 A 
ATOM      5  C4  UNL d   1       3.380   0.534  -2.466  0.00  0.00     0.017 A 
ATOM      6  C5  UNL d   1       2.469  -0.045  -1.576  0.00  0.00     0.034 A 
ATOM      7 Cl   UNL d   1       3.299   0.054  -4.125  0.00  0.00    -0.070 Cl
ATOM      8 Cl1  UNL d   1       5.468   2.224  -3.037  0.00  0.00    -0.070 Cl
ENDROOT
TORSDOF 0
ENDMDL
