MODEL 1
REMARK minimizedAffinity -1.95531976
REMARK minimizedRMSD -1
REMARK  0 active torsions:
REMARK  status: ('A' for Active; 'I' for Inactive)
ROOT
ATOM      1  C   UNL d   1      -3.796   2.651  -5.606  0.00  0.00     0.020 A 
ATOM      2  C1  UNL d   1      -5.156   2.462  -5.846  0.00  0.00     0.020 A 
ATOM      3  C2  UNL d   1      -5.817   1.366  -5.289  0.00  0.00     0.034 A 
ATOM      4  C3  UNL d   1      -5.119   0.454  -4.490  0.00  0.00     0.017 A 
ATOM      5  C4  UNL d   1      -3.753   0.644  -4.250  0.00  0.00     0.017 A 
ATOM      6  C5  UNL d   1      -3.096   1.744  -4.810  0.00  0.00     0.034 A 
ATOM      7 Cl   UNL d   1      -2.823  -0.438  -3.274  0.00  0.00    -0.070 Cl
ATOM      8 Cl1  UNL d   1      -6.000  -0.880  -3.833  0.00  0.00    -0.070 Cl
ENDROOT
TORSDOF 0
ENDMDL
