MODEL 1
REMARK minimizedAffinity -1.92300081
REMARK minimizedRMSD -1
REMARK  0 active torsions:
REMARK  status: ('A' for Active; 'I' for Inactive)
ROOT
ATOM      1  C   UNL d   1      -5.562  -0.330  -4.102  0.00  0.00     0.020 A 
ATOM      2  C1  UNL d   1      -5.997   0.503  -5.133  0.00  0.00     0.020 A 
ATOM      3  C2  UNL d   1      -5.251   1.630  -5.482  0.00  0.00     0.034 A 
ATOM      4  C3  UNL d   1      -4.066   1.929  -4.800  0.00  0.00     0.017 A 
ATOM      5  C4  UNL d   1      -3.630   1.093  -3.765  0.00  0.00     0.017 A 
ATOM      6  C5  UNL d   1      -4.381  -0.035  -3.420  0.00  0.00     0.034 A 
ATOM      7 Cl   UNL d   1      -2.178   1.397  -2.878  0.00  0.00    -0.070 Cl
ATOM      8 Cl1  UNL d   1      -3.194   3.340  -5.284  0.00  0.00    -0.070 Cl
ENDROOT
TORSDOF 0
ENDMDL
