MODEL 1
REMARK minimizedAffinity 4.41038227
REMARK minimizedRMSD -1
REMARK  0 active torsions:
REMARK  status: ('A' for Active; 'I' for Inactive)
ROOT
ATOM      1  C   UNL d   1      -1.275   3.878   0.988  0.00  0.00     0.020 A 
ATOM      2  C1  UNL d   1      -0.079   3.714   1.686  0.00  0.00     0.020 A 
ATOM      3  C2  UNL d   1       0.840   2.745   1.277  0.00  0.00     0.034 A 
ATOM      4  C3  UNL d   1       0.565   1.937   0.168  0.00  0.00     0.017 A 
ATOM      5  C4  UNL d   1      -0.635   2.104  -0.532  0.00  0.00     0.017 A 
ATOM      6  C5  UNL d   1      -1.552   3.075  -0.118  0.00  0.00     0.034 A 
ATOM      7 Cl   UNL d   1      -1.045   1.145  -1.911  0.00  0.00    -0.070 Cl
ATOM      8 Cl1  UNL d   1       1.747   0.760  -0.282  0.00  0.00    -0.070 Cl
ENDROOT
TORSDOF 0
ENDMDL
