MODEL 1
REMARK minimizedAffinity 7.208354
REMARK minimizedRMSD -1
REMARK  0 active torsions:
REMARK  status: ('A' for Active; 'I' for Inactive)
ROOT
ATOM      1  C   UNL d   1       2.428   0.048  -1.512  0.00  0.00     0.020 A 
ATOM      2  C1  UNL d   1       2.494   0.117  -0.121  0.00  0.00     0.020 A 
ATOM      3  C2  UNL d   1       3.522   0.833   0.494  0.00  0.00     0.034 A 
ATOM      4  C3  UNL d   1       4.489   1.484  -0.281  0.00  0.00     0.017 A 
ATOM      5  C4  UNL d   1       4.422   1.415  -1.677  0.00  0.00     0.017 A 
ATOM      6  C5  UNL d   1       3.390   0.696  -2.289  0.00  0.00     0.034 A 
ATOM      7 Cl   UNL d   1       5.578   2.192  -2.701  0.00  0.00    -0.070 Cl
ATOM      8 Cl1  UNL d   1       5.732   2.352   0.547  0.00  0.00    -0.070 Cl
ENDROOT
TORSDOF 0
ENDMDL
