MODEL 1
REMARK minimizedAffinity 19.3647385
REMARK minimizedRMSD -1
REMARK  0 active torsions:
REMARK  status: ('A' for Active; 'I' for Inactive)
ROOT
ATOM      1  C   UNL d   1      -5.562   1.389  -5.895  0.00  0.00     0.020 A 
ATOM      2  C1  UNL d   1      -5.976   1.894  -4.663  0.00  0.00     0.020 A 
ATOM      3  C2  UNL d   1      -5.976   1.071  -3.535  0.00  0.00     0.034 A 
ATOM      4  C3  UNL d   1      -5.561  -0.262  -3.637  0.00  0.00     0.017 A 
ATOM      5  C4  UNL d   1      -5.146  -0.768  -4.874  0.00  0.00     0.017 A 
ATOM      6  C5  UNL d   1      -5.148   0.061  -6.000  0.00  0.00     0.034 A 
ATOM      7 Cl   UNL d   1      -4.620  -2.402  -5.078  0.00  0.00    -0.070 Cl
ATOM      8 Cl1  UNL d   1      -5.586  -1.224  -2.201  0.00  0.00    -0.070 Cl
ENDROOT
TORSDOF 0
ENDMDL
