MODEL 1
REMARK minimizedAffinity -0.794605136
REMARK minimizedRMSD -1
REMARK  0 active torsions:
REMARK  status: ('A' for Active; 'I' for Inactive)
ROOT
ATOM      1  C   UNL d   1       0.656  -1.513  -1.256  0.00  0.00     0.124 A 
ATOM      2  C1  UNL d   1       0.207  -2.119  -0.090  0.00  0.00     0.062 A 
ATOM      3  C2  UNL d   1      -0.771  -1.504   0.687  0.00  0.00     0.162 A 
ATOM      4  C3  UNL d   1      -1.307  -0.275   0.300  0.00  0.00    -0.034 A 
ATOM      5  C4  UNL d   1      -0.850   0.328  -0.873  0.00  0.00     0.162 A 
ATOM      6  C5  UNL d   1       0.127  -0.291  -1.646  0.00  0.00     0.062 A 
ATOM      7  F   UNL d   1       0.559   0.296  -2.771  0.00  0.00    -0.097 F 
ATOM      8  F1  UNL d   1      -1.345   1.509  -1.274  0.00  0.00    -0.096 F 
ATOM      9  I   UNL d   1      -2.769   0.647   1.459  0.00  0.00    -0.060 I 
ATOM     10  F2  UNL d   1      -1.186  -2.112   1.808  0.00  0.00    -0.096 F 
ATOM     11  F3  UNL d   1       0.717  -3.299   0.289  0.00  0.00    -0.097 F 
ATOM     12  F4  UNL d   1       1.597  -2.106  -2.001  0.00  0.00    -0.092 F 
ENDROOT
TORSDOF 0
ENDMDL
