MODEL 1
REMARK minimizedAffinity -0.64866221
REMARK minimizedRMSD -1
REMARK  0 active torsions:
REMARK  status: ('A' for Active; 'I' for Inactive)
ROOT
ATOM      1  C   UNL d   1       0.151  -2.844   0.727  0.00  0.00     0.124 A 
ATOM      2  C1  UNL d   1      -0.833  -1.977   1.181  0.00  0.00     0.062 A 
ATOM      3  C2  UNL d   1      -0.809  -0.635   0.810  0.00  0.00     0.162 A 
ATOM      4  C3  UNL d   1       0.203  -0.153  -0.020  0.00  0.00    -0.034 A 
ATOM      5  C4  UNL d   1       1.189  -1.031  -0.472  0.00  0.00     0.162 A 
ATOM      6  C5  UNL d   1       1.161  -2.371  -0.098  0.00  0.00     0.062 A 
ATOM      7  F   UNL d   1       2.113  -3.207  -0.538  0.00  0.00    -0.097 F 
ATOM      8  F1  UNL d   1       2.176  -0.600  -1.271  0.00  0.00    -0.096 F 
ATOM      9  I   UNL d   1       0.242   1.852  -0.577  0.00  0.00    -0.060 I 
ATOM     10  F2  UNL d   1      -1.773   0.180   1.264  0.00  0.00    -0.096 F 
ATOM     11  F3  UNL d   1      -1.809  -2.432   1.980  0.00  0.00    -0.097 F 
ATOM     12  F4  UNL d   1       0.126  -4.134   1.086  0.00  0.00    -0.092 F 
ENDROOT
TORSDOF 0
ENDMDL
