MODEL 1
REMARK minimizedAffinity 0.00442154612
REMARK minimizedRMSD -1
REMARK  0 active torsions:
REMARK  status: ('A' for Active; 'I' for Inactive)
ROOT
ATOM      1  C   UNL d   1      -0.177  -2.218   0.231  0.00  0.00     0.124 A 
ATOM      2  C1  UNL d   1       0.851  -1.530  -0.400  0.00  0.00     0.062 A 
ATOM      3  C2  UNL d   1       0.914  -0.142  -0.323  0.00  0.00     0.162 A 
ATOM      4  C3  UNL d   1      -0.053   0.569   0.388  0.00  0.00    -0.034 A 
ATOM      5  C4  UNL d   1      -1.084  -0.130   1.019  0.00  0.00     0.162 A 
ATOM      6  C5  UNL d   1      -1.142  -1.518   0.940  0.00  0.00     0.062 A 
ATOM      7  F   UNL d   1      -2.136  -2.181   1.550  0.00  0.00    -0.097 F 
ATOM      8  F1  UNL d   1      -2.030   0.521   1.712  0.00  0.00    -0.096 F 
ATOM      9  I   UNL d   1       0.038   2.645   0.505  0.00  0.00    -0.060 I 
ATOM     10  F2  UNL d   1       1.918   0.497  -0.943  0.00  0.00    -0.096 F 
ATOM     11  F3  UNL d   1       1.785  -2.204  -1.086  0.00  0.00    -0.097 F 
ATOM     12  F4  UNL d   1      -0.235  -3.554   0.155  0.00  0.00    -0.092 F 
ENDROOT
TORSDOF 0
ENDMDL
