MODEL 1
REMARK minimizedAffinity -0.798392534
REMARK minimizedRMSD -1
REMARK  0 active torsions:
REMARK  status: ('A' for Active; 'I' for Inactive)
ROOT
ATOM      1  C   UNL d   1       0.000  -2.071  -0.837  0.00  0.00     0.124 A 
ATOM      2  C1  UNL d   1       0.001  -1.075  -1.804  0.00  0.00     0.062 A 
ATOM      3  C2  UNL d   1       0.082   0.263  -1.430  0.00  0.00     0.162 A 
ATOM      4  C3  UNL d   1       0.165   0.614  -0.083  0.00  0.00    -0.034 A 
ATOM      5  C4  UNL d   1       0.163  -0.393   0.884  0.00  0.00     0.162 A 
ATOM      6  C5  UNL d   1       0.082  -1.729   0.506  0.00  0.00     0.062 A 
ATOM      7  F   UNL d   1       0.081  -2.689   1.441  0.00  0.00    -0.097 F 
ATOM      8  F1  UNL d   1       0.242  -0.090   2.188  0.00  0.00    -0.096 F 
ATOM      9  I   UNL d   1       0.288   2.614   0.480  0.00  0.00    -0.060 I 
ATOM     10  F2  UNL d   1       0.081   1.205  -2.386  0.00  0.00    -0.096 F 
ATOM     11  F3  UNL d   1      -0.079  -1.403  -3.102  0.00  0.00    -0.097 F 
ATOM     12  F4  UNL d   1      -0.079  -3.357  -1.199  0.00  0.00    -0.092 F 
ENDROOT
TORSDOF 0
ENDMDL
