MODEL 1
REMARK minimizedAffinity 1.30483556
REMARK minimizedRMSD -1
REMARK  0 active torsions:
REMARK  status: ('A' for Active; 'I' for Inactive)
ROOT
ATOM      1  C   UNL d   1      -0.219  -2.270  -0.011  0.00  0.00     0.124 A 
ATOM      2  C1  UNL d   1      -1.040  -1.663   0.929  0.00  0.00     0.062 A 
ATOM      3  C2  UNL d   1      -1.051  -0.277   1.059  0.00  0.00     0.162 A 
ATOM      4  C3  UNL d   1      -0.239   0.512   0.244  0.00  0.00    -0.034 A 
ATOM      5  C4  UNL d   1       0.585  -0.105  -0.698  0.00  0.00     0.162 A 
ATOM      6  C5  UNL d   1       0.593  -1.491  -0.824  0.00  0.00     0.062 A 
ATOM      7  F   UNL d   1       1.387  -2.075  -1.733  0.00  0.00    -0.097 F 
ATOM      8  F1  UNL d   1       1.379   0.624  -1.497  0.00  0.00    -0.096 F 
ATOM      9  I   UNL d   1      -0.252   2.585   0.434  0.00  0.00    -0.060 I 
ATOM     10  F2  UNL d   1      -1.854   0.282   1.976  0.00  0.00    -0.096 F 
ATOM     11  F3  UNL d   1      -1.824  -2.413   1.717  0.00  0.00    -0.097 F 
ATOM     12  F4  UNL d   1      -0.209  -3.603  -0.132  0.00  0.00    -0.092 F 
ENDROOT
TORSDOF 0
ENDMDL
