MODEL 1
REMARK minimizedAffinity 0.708925068
REMARK minimizedRMSD -1
REMARK  0 active torsions:
REMARK  status: ('A' for Active; 'I' for Inactive)
ROOT
ATOM      1  C   UNL d   1       0.158  -2.470  -0.247  0.00  0.00     0.124 A 
ATOM      2  C1  UNL d   1      -0.779  -1.942   0.630  0.00  0.00     0.062 A 
ATOM      3  C2  UNL d   1      -1.003  -0.569   0.672  0.00  0.00     0.162 A 
ATOM      4  C3  UNL d   1      -0.288   0.287  -0.166  0.00  0.00    -0.034 A 
ATOM      5  C4  UNL d   1       0.654  -0.252  -1.045  0.00  0.00     0.162 A 
ATOM      6  C5  UNL d   1       0.874  -1.625  -1.083  0.00  0.00     0.062 A 
ATOM      7  F   UNL d   1       1.780  -2.133  -1.930  0.00  0.00    -0.097 F 
ATOM      8  F1  UNL d   1       1.358   0.542  -1.865  0.00  0.00    -0.096 F 
ATOM      9  I   UNL d   1      -0.620   2.340  -0.106  0.00  0.00    -0.060 I 
ATOM     10  F2  UNL d   1      -1.915  -0.086   1.529  0.00  0.00    -0.096 F 
ATOM     11  F3  UNL d   1      -1.471  -2.757   1.440  0.00  0.00    -0.097 F 
ATOM     12  F4  UNL d   1       0.372  -3.791  -0.284  0.00  0.00    -0.092 F 
ENDROOT
TORSDOF 0
ENDMDL
