MODEL 1
REMARK minimizedAffinity -2.6041925
REMARK minimizedRMSD -1
REMARK  0 active torsions:
REMARK  status: ('A' for Active; 'I' for Inactive)
ROOT
ATOM      1  C   UNL d   1       0.549  -3.041  -1.246  0.00  0.00     0.124 A 
ATOM      2  C1  UNL d   1       0.816  -2.106  -2.237  0.00  0.00     0.062 A 
ATOM      3  C2  UNL d   1       0.555  -0.757  -2.015  0.00  0.00     0.162 A 
ATOM      4  C3  UNL d   1       0.026  -0.334  -0.795  0.00  0.00    -0.034 A 
ATOM      5  C4  UNL d   1      -0.240  -1.280   0.196  0.00  0.00     0.162 A 
ATOM      6  C5  UNL d   1       0.022  -2.627  -0.031  0.00  0.00     0.062 A 
ATOM      7  F   UNL d   1      -0.236  -3.529   0.928  0.00  0.00    -0.097 F 
ATOM      8  F1  UNL d   1      -0.749  -0.908   1.380  0.00  0.00    -0.096 F 
ATOM      9  I   UNL d   1      -0.365   1.683  -0.459  0.00  0.00    -0.060 I 
ATOM     10  F2  UNL d   1       0.822   0.124  -2.990  0.00  0.00    -0.096 F 
ATOM     11  F3  UNL d   1       1.324  -2.504  -3.412  0.00  0.00    -0.097 F 
ATOM     12  F4  UNL d   1       0.800  -4.339  -1.463  0.00  0.00    -0.092 F 
ENDROOT
TORSDOF 0
ENDMDL
