MODEL 1
REMARK minimizedAffinity -3.30346918
REMARK minimizedRMSD -1
REMARK  0 active torsions:
REMARK  status: ('A' for Active; 'I' for Inactive)
ROOT
ATOM      1  C   UNL d   1      -0.863  -1.871  -0.677  0.00  0.00     0.124 A 
ATOM      2  C1  UNL d   1      -0.443  -1.060  -1.722  0.00  0.00     0.062 A 
ATOM      3  C2  UNL d   1      -0.102   0.268  -1.484  0.00  0.00     0.162 A 
ATOM      4  C3  UNL d   1      -0.179   0.794  -0.195  0.00  0.00    -0.034 A 
ATOM      5  C4  UNL d   1      -0.603  -0.027   0.851  0.00  0.00     0.162 A 
ATOM      6  C5  UNL d   1      -0.943  -1.354   0.608  0.00  0.00     0.062 A 
ATOM      7  F   UNL d   1      -1.348  -2.136   1.619  0.00  0.00    -0.097 F 
ATOM      8  F1  UNL d   1      -0.689   0.447   2.103  0.00  0.00    -0.096 F 
ATOM      9  I   UNL d   1       0.329   2.780   0.165  0.00  0.00    -0.060 I 
ATOM     10  F2  UNL d   1       0.300   1.029  -2.513  0.00  0.00    -0.096 F 
ATOM     11  F3  UNL d   1      -0.366  -1.557  -2.965  0.00  0.00    -0.097 F 
ATOM     12  F4  UNL d   1      -1.191  -3.149  -0.909  0.00  0.00    -0.092 F 
ENDROOT
TORSDOF 0
ENDMDL
