MODEL 1
REMARK minimizedAffinity 1.29083085
REMARK minimizedRMSD -1
REMARK  0 active torsions:
REMARK  status: ('A' for Active; 'I' for Inactive)
ROOT
ATOM      1  C   UNL d   1      -0.891  -1.787   1.476  0.00  0.00     0.124 A 
ATOM      2  C1  UNL d   1      -0.020  -2.463   0.633  0.00  0.00     0.062 A 
ATOM      3  C2  UNL d   1       0.416  -1.867  -0.547  0.00  0.00     0.162 A 
ATOM      4  C3  UNL d   1      -0.018  -0.586  -0.890  0.00  0.00    -0.034 A 
ATOM      5  C4  UNL d   1      -0.895   0.087  -0.038  0.00  0.00     0.162 A 
ATOM      6  C5  UNL d   1      -1.327  -0.513   1.140  0.00  0.00     0.062 A 
ATOM      7  F   UNL d   1      -2.169   0.141   1.953  0.00  0.00    -0.097 F 
ATOM      8  F1  UNL d   1      -1.331   1.319  -0.337  0.00  0.00    -0.096 F 
ATOM      9  I   UNL d   1       0.632   0.309  -2.653  0.00  0.00    -0.060 I 
ATOM     10  F2  UNL d   1       1.258  -2.543  -1.343  0.00  0.00    -0.096 F 
ATOM     11  F3  UNL d   1       0.403  -3.694   0.955  0.00  0.00    -0.097 F 
ATOM     12  F4  UNL d   1      -1.310  -2.363   2.610  0.00  0.00    -0.092 F 
ENDROOT
TORSDOF 0
ENDMDL
