MODEL 1
REMARK minimizedAffinity -0.581395745
REMARK minimizedRMSD -1
REMARK  0 active torsions:
REMARK  status: ('A' for Active; 'I' for Inactive)
ROOT
ATOM      1  C   UNL d   1       0.881  -2.229  -0.764  0.00  0.00     0.124 A 
ATOM      2  C1  UNL d   1       0.389  -1.136  -1.464  0.00  0.00     0.062 A 
ATOM      3  C2  UNL d   1      -0.651  -0.377  -0.937  0.00  0.00     0.162 A 
ATOM      4  C3  UNL d   1      -1.207  -0.707   0.299  0.00  0.00    -0.034 A 
ATOM      5  C4  UNL d   1      -0.708  -1.808   0.997  0.00  0.00     0.162 A 
ATOM      6  C5  UNL d   1       0.331  -2.564   0.466  0.00  0.00     0.062 A 
ATOM      7  F   UNL d   1       0.805  -3.620   1.144  0.00  0.00    -0.097 F 
ATOM      8  F1  UNL d   1      -1.220  -2.154   2.188  0.00  0.00    -0.096 F 
ATOM      9  I   UNL d   1      -2.763   0.426   1.091  0.00  0.00    -0.060 I 
ATOM     10  F2  UNL d   1      -1.106   0.674  -1.635  0.00  0.00    -0.096 F 
ATOM     11  F3  UNL d   1       0.918  -0.811  -2.653  0.00  0.00    -0.097 F 
ATOM     12  F4  UNL d   1       1.881  -2.959  -1.274  0.00  0.00    -0.092 F 
ENDROOT
TORSDOF 0
ENDMDL
