MODEL 1
REMARK minimizedAffinity -2.3973453
REMARK minimizedRMSD -1
REMARK  0 active torsions:
REMARK  status: ('A' for Active; 'I' for Inactive)
ROOT
ATOM      1  C   UNL d   1       0.152  -2.315  -0.680  0.00  0.00     0.124 A 
ATOM      2  C1  UNL d   1       0.172  -1.308  -1.635  0.00  0.00     0.062 A 
ATOM      3  C2  UNL d   1       0.210   0.027  -1.245  0.00  0.00     0.162 A 
ATOM      4  C3  UNL d   1       0.228   0.364   0.109  0.00  0.00    -0.034 A 
ATOM      5  C4  UNL d   1       0.206  -0.654   1.064  0.00  0.00     0.162 A 
ATOM      6  C5  UNL d   1       0.168  -1.987   0.668  0.00  0.00     0.062 A 
ATOM      7  F   UNL d   1       0.148  -2.958   1.593  0.00  0.00    -0.097 F 
ATOM      8  F1  UNL d   1       0.223  -0.366   2.374  0.00  0.00    -0.096 F 
ATOM      9  I   UNL d   1       0.284   2.359   0.697  0.00  0.00    -0.060 I 
ATOM     10  F2  UNL d   1       0.229   0.979  -2.189  0.00  0.00    -0.096 F 
ATOM     11  F3  UNL d   1       0.155  -1.622  -2.939  0.00  0.00    -0.097 F 
ATOM     12  F4  UNL d   1       0.114  -3.599  -1.059  0.00  0.00    -0.092 F 
ENDROOT
TORSDOF 0
ENDMDL
