MODEL 1
REMARK minimizedAffinity -4.43440294
REMARK minimizedRMSD -1
REMARK  0 active torsions:
REMARK  status: ('A' for Active; 'I' for Inactive)
ROOT
ATOM      1  C   UNL d   1       0.307  -3.004  -0.867  0.00  0.00     0.124 A 
ATOM      2  C1  UNL d   1       0.294  -2.484   0.420  0.00  0.00     0.062 A 
ATOM      3  C2  UNL d   1       0.289  -1.106   0.618  0.00  0.00     0.162 A 
ATOM      4  C3  UNL d   1       0.296  -0.238  -0.473  0.00  0.00    -0.034 A 
ATOM      5  C4  UNL d   1       0.310  -0.768  -1.765  0.00  0.00     0.162 A 
ATOM      6  C5  UNL d   1       0.315  -2.146  -1.958  0.00  0.00     0.062 A 
ATOM      7  F   UNL d   1       0.328  -2.646  -3.202  0.00  0.00    -0.097 F 
ATOM      8  F1  UNL d   1       0.318   0.038  -2.837  0.00  0.00    -0.096 F 
ATOM      9  I   UNL d   1       0.289   1.823  -0.181  0.00  0.00    -0.060 I 
ATOM     10  F2  UNL d   1       0.276  -0.632   1.873  0.00  0.00    -0.096 F 
ATOM     11  F3  UNL d   1       0.287  -3.311   1.475  0.00  0.00    -0.097 F 
ATOM     12  F4  UNL d   1       0.313  -4.330  -1.055  0.00  0.00    -0.092 F 
ENDROOT
TORSDOF 0
ENDMDL
