MODEL 1
REMARK minimizedAffinity 1.01405561
REMARK minimizedRMSD -1
REMARK  0 active torsions:
REMARK  status: ('A' for Active; 'I' for Inactive)
ROOT
ATOM      1  C   UNL d   1      -0.194  -2.455   0.145  0.00  0.00     0.124 A 
ATOM      2  C1  UNL d   1      -0.970  -1.839   1.118  0.00  0.00     0.062 A 
ATOM      3  C2  UNL d   1      -1.004  -0.451   1.211  0.00  0.00     0.162 A 
ATOM      4  C3  UNL d   1      -0.259   0.332   0.328  0.00  0.00    -0.034 A 
ATOM      5  C4  UNL d   1       0.519  -0.295  -0.647  0.00  0.00     0.162 A 
ATOM      6  C5  UNL d   1       0.549  -1.683  -0.736  0.00  0.00     0.062 A 
ATOM      7  F   UNL d   1       1.300  -2.276  -1.676  0.00  0.00    -0.097 F 
ATOM      8  F1  UNL d   1       1.247   0.428  -1.511  0.00  0.00    -0.096 F 
ATOM      9  I   UNL d   1      -0.307   2.408   0.464  0.00  0.00    -0.060 I 
ATOM     10  F2  UNL d   1      -1.762   0.117   2.160  0.00  0.00    -0.096 F 
ATOM     11  F3  UNL d   1      -1.689  -2.583   1.970  0.00  0.00    -0.097 F 
ATOM     12  F4  UNL d   1      -0.163  -3.791   0.058  0.00  0.00    -0.092 F 
ENDROOT
TORSDOF 0
ENDMDL
