MODEL 1
REMARK minimizedAffinity 0.882958472
REMARK minimizedRMSD -1
REMARK  0 active torsions:
REMARK  status: ('A' for Active; 'I' for Inactive)
ROOT
ATOM      1  C   UNL d   1      -0.962  -1.663   1.102  0.00  0.00     0.124 A 
ATOM      2  C1  UNL d   1       0.013  -2.212   0.280  0.00  0.00     0.062 A 
ATOM      3  C2  UNL d   1       0.600  -1.442  -0.719  0.00  0.00     0.162 A 
ATOM      4  C3  UNL d   1       0.214  -0.114  -0.903  0.00  0.00    -0.034 A 
ATOM      5  C4  UNL d   1      -0.768   0.430  -0.074  0.00  0.00     0.162 A 
ATOM      6  C5  UNL d   1      -1.352  -0.343   0.924  0.00  0.00     0.062 A 
ATOM      7  F   UNL d   1      -2.294   0.188   1.717  0.00  0.00    -0.097 F 
ATOM      8  F1  UNL d   1      -1.163   1.703  -0.223  0.00  0.00    -0.096 F 
ATOM      9  I   UNL d   1       1.089   1.041  -2.397  0.00  0.00    -0.060 I 
ATOM     10  F2  UNL d   1       1.540  -1.997  -1.498  0.00  0.00    -0.096 F 
ATOM     11  F3  UNL d   1       0.391  -3.487   0.450  0.00  0.00    -0.097 F 
ATOM     12  F4  UNL d   1      -1.526  -2.407   2.063  0.00  0.00    -0.092 F 
ENDROOT
TORSDOF 0
ENDMDL
