MODEL 1
REMARK minimizedAffinity -0.308395922
REMARK minimizedRMSD -1
REMARK  0 active torsions:
REMARK  status: ('A' for Active; 'I' for Inactive)
ROOT
ATOM      1  C   UNL d   1       1.127   4.091   1.652  0.00  0.00     0.124 A 
ATOM      2  C1  UNL d   1      -0.101   3.555   1.289  0.00  0.00     0.062 A 
ATOM      3  C2  UNL d   1      -0.163   2.471   0.419  0.00  0.00     0.162 A 
ATOM      4  C3  UNL d   1       1.009   1.914  -0.095  0.00  0.00    -0.034 A 
ATOM      5  C4  UNL d   1       2.240   2.458   0.274  0.00  0.00     0.162 A 
ATOM      6  C5  UNL d   1       2.296   3.542   1.144  0.00  0.00     0.062 A 
ATOM      7  F   UNL d   1       3.483   4.059   1.493  0.00  0.00    -0.097 F 
ATOM      8  F1  UNL d   1       3.386   1.947  -0.201  0.00  0.00    -0.096 F 
ATOM      9  I   UNL d   1       0.922   0.292  -1.396  0.00  0.00    -0.060 I 
ATOM     10  F2  UNL d   1      -1.363   1.974   0.085  0.00  0.00    -0.096 F 
ATOM     11  F3  UNL d   1      -1.233   4.084   1.777  0.00  0.00    -0.097 F 
ATOM     12  F4  UNL d   1       1.182   5.135   2.488  0.00  0.00    -0.092 F 
ENDROOT
TORSDOF 0
ENDMDL
