MODEL 1
REMARK minimizedAffinity 3.23317337
REMARK minimizedRMSD -1
REMARK  0 active torsions:
REMARK  status: ('A' for Active; 'I' for Inactive)
ROOT
ATOM      1  C   UNL d   1       0.093  -2.205   0.087  0.00  0.00     0.124 A 
ATOM      2  C1  UNL d   1      -0.794  -1.679   1.016  0.00  0.00     0.062 A 
ATOM      3  C2  UNL d   1      -0.959  -0.301   1.124  0.00  0.00     0.162 A 
ATOM      4  C3  UNL d   1      -0.236   0.561   0.299  0.00  0.00    -0.034 A 
ATOM      5  C4  UNL d   1       0.655   0.024  -0.632  0.00  0.00     0.162 A 
ATOM      6  C5  UNL d   1       0.817  -1.354  -0.735  0.00  0.00     0.062 A 
ATOM      7  F   UNL d   1       1.674  -1.860  -1.633  0.00  0.00    -0.097 F 
ATOM      8  F1  UNL d   1       1.366   0.824  -1.440  0.00  0.00    -0.096 F 
ATOM      9  I   UNL d   1      -0.480   2.622   0.457  0.00  0.00    -0.060 I 
ATOM     10  F2  UNL d   1      -1.823   0.179   2.030  0.00  0.00    -0.096 F 
ATOM     11  F3  UNL d   1      -1.493  -2.500   1.813  0.00  0.00    -0.097 F 
ATOM     12  F4  UNL d   1       0.251  -3.531  -0.013  0.00  0.00    -0.092 F 
ENDROOT
TORSDOF 0
ENDMDL
