MODEL 1
REMARK minimizedAffinity -1.2665894
REMARK minimizedRMSD -1
REMARK  0 active torsions:
REMARK  status: ('A' for Active; 'I' for Inactive)
ROOT
ATOM      1  C   UNL d   1      -0.892  -1.179   0.687  0.00  0.00     0.124 A 
ATOM      2  C1  UNL d   1      -1.428   0.101   0.677  0.00  0.00     0.062 A 
ATOM      3  C2  UNL d   1      -0.594   1.208   0.549  0.00  0.00     0.162 A 
ATOM      4  C3  UNL d   1       0.785   1.040   0.430  0.00  0.00    -0.034 A 
ATOM      5  C4  UNL d   1       1.317  -0.250   0.442  0.00  0.00     0.162 A 
ATOM      6  C5  UNL d   1       0.480  -1.354   0.570  0.00  0.00     0.062 A 
ATOM      7  F   UNL d   1       1.000  -2.590   0.580  0.00  0.00    -0.097 F 
ATOM      8  F1  UNL d   1       2.639  -0.448   0.329  0.00  0.00    -0.096 F 
ATOM      9  I   UNL d   1       2.035   2.693   0.239  0.00  0.00    -0.060 I 
ATOM     10  F2  UNL d   1      -1.140   2.433   0.542  0.00  0.00    -0.096 F 
ATOM     11  F3  UNL d   1      -2.753   0.272   0.791  0.00  0.00    -0.097 F 
ATOM     12  F4  UNL d   1      -1.696  -2.243   0.811  0.00  0.00    -0.092 F 
ENDROOT
TORSDOF 0
ENDMDL
