MODEL 1
REMARK minimizedAffinity -3.19920111
REMARK minimizedRMSD -1
REMARK  1 active torsions:
REMARK  status: ('A' for Active; 'I' for Inactive)
REMARK    1  A    between atoms: N_2  and  C1_3 
ROOT
ATOM      1  C1  UNL d   1       0.470   1.136  -0.102  0.00  0.00     0.143 A 
ATOM      2  C2  UNL d   1      -0.016   0.409  -1.195  0.00  0.00    -0.057 A 
ATOM      3  C3  UNL d   1      -0.669  -0.817  -1.019  0.00  0.00     0.033 A 
ATOM      4  C4  UNL d   1      -0.823  -1.354   0.255  0.00  0.00    -0.042 A 
ATOM      5  C5  UNL d   1      -0.326  -0.661   1.353  0.00  0.00     0.033 A 
ATOM      6  C6  UNL d   1       0.319   0.566   1.172  0.00  0.00    -0.057 A 
ENDROOT
BRANCH   1   7
ATOM      7  N   UNL d   1       1.214   2.312  -0.220  0.00  0.00    -0.732 N 
ATOM      8  C   UNL d   1       0.893   3.471   0.585  0.00  0.00     0.284 C 
ATOM      9  H3  UNL d   1       2.211   2.133  -0.311  0.00  0.00     0.395 HD
ENDBRANCH   1   7
TORSDOF 1
ENDMDL
