MODEL 1
REMARK minimizedAffinity -2.67738938
REMARK minimizedRMSD -1
REMARK  1 active torsions:
REMARK  status: ('A' for Active; 'I' for Inactive)
REMARK    1  A    between atoms: N_2  and  C1_3 
ROOT
ATOM      1  C1  UNL d   1      -0.248   0.449  -0.080  0.00  0.00     0.143 A 
ATOM      2  C2  UNL d   1      -0.700  -0.210   1.068  0.00  0.00    -0.057 A 
ATOM      3  C3  UNL d   1      -0.868  -1.600   1.089  0.00  0.00     0.033 A 
ATOM      4  C4  UNL d   1      -0.613  -2.355  -0.051  0.00  0.00    -0.042 A 
ATOM      5  C5  UNL d   1      -0.186  -1.718  -1.211  0.00  0.00     0.033 A 
ATOM      6  C6  UNL d   1      -0.015  -0.330  -1.224  0.00  0.00    -0.057 A 
ENDROOT
BRANCH   1   7
ATOM      7  N   UNL d   1      -0.156   1.838  -0.194  0.00  0.00    -0.732 N 
ATOM      8  C   UNL d   1       1.023   2.539   0.266  0.00  0.00     0.284 C 
ATOM      9  H3  UNL d   1      -0.524   2.181  -1.079  0.00  0.00     0.395 HD
ENDBRANCH   1   7
TORSDOF 1
ENDMDL
