MODEL 1
REMARK minimizedAffinity -2.52917361
REMARK minimizedRMSD -1
REMARK  1 active torsions:
REMARK  status: ('A' for Active; 'I' for Inactive)
REMARK    1  A    between atoms: N_2  and  C1_3 
ROOT
ATOM      1  C1  UNL d   1       0.177   4.484   1.875  0.00  0.00     0.143 A 
ATOM      2  C2  UNL d   1       1.561   4.300   1.799  0.00  0.00    -0.057 A 
ATOM      3  C3  UNL d   1       2.122   3.367   0.917  0.00  0.00     0.033 A 
ATOM      4  C4  UNL d   1       1.303   2.579   0.115  0.00  0.00    -0.042 A 
ATOM      5  C5  UNL d   1      -0.078   2.728   0.193  0.00  0.00     0.033 A 
ATOM      6  C6  UNL d   1      -0.631   3.666   1.070  0.00  0.00    -0.057 A 
ENDROOT
BRANCH   1   7
ATOM      7  N   UNL d   1      -0.446   5.325   2.801  0.00  0.00    -0.732 N 
ATOM      8  C   UNL d   1      -1.799   5.790   2.582  0.00  0.00     0.284 C 
ATOM      9  H3  UNL d   1      -0.249   5.057   3.763  0.00  0.00     0.395 HD
ENDBRANCH   1   7
TORSDOF 1
ENDMDL
