MODEL 1
REMARK minimizedAffinity -3.8321681
REMARK minimizedRMSD -1
REMARK  1 active torsions:
REMARK  status: ('A' for Active; 'I' for Inactive)
REMARK    1  A    between atoms: N_2  and  C1_3 
ROOT
ATOM      1  C1  UNL d   1      -0.012  -0.599  -1.548  0.00  0.00     0.143 A 
ATOM      2  C2  UNL d   1      -0.024   0.798  -1.473  0.00  0.00    -0.057 A 
ATOM      3  C3  UNL d   1      -0.237   1.458  -0.257  0.00  0.00     0.033 A 
ATOM      4  C4  UNL d   1      -0.472   0.730   0.904  0.00  0.00    -0.042 A 
ATOM      5  C5  UNL d   1      -0.491  -0.659   0.849  0.00  0.00     0.033 A 
ATOM      6  C6  UNL d   1      -0.270  -1.313  -0.368  0.00  0.00    -0.057 A 
ENDROOT
BRANCH   1   7
ATOM      7  N   UNL d   1       0.096  -1.313  -2.744  0.00  0.00    -0.732 N 
ATOM      8  C   UNL d   1      -0.209  -2.727  -2.789  0.00  0.00     0.284 C 
ATOM      9  H3  UNL d   1      -0.251  -0.787  -3.543  0.00  0.00     0.395 HD
ENDBRANCH   1   7
TORSDOF 1
ENDMDL
