MODEL 1
REMARK minimizedAffinity -1.57769072
REMARK minimizedRMSD -1
REMARK  1 active torsions:
REMARK  status: ('A' for Active; 'I' for Inactive)
REMARK    1  A    between atoms: N_2  and  C1_3 
ROOT
ATOM      1  C1  UNL d   1       0.262   1.163  -0.185  0.00  0.00     0.143 A 
ATOM      2  C2  UNL d   1       0.740   0.371  -1.234  0.00  0.00    -0.057 A 
ATOM      3  C3  UNL d   1       0.651  -1.026  -1.189  0.00  0.00     0.033 A 
ATOM      4  C4  UNL d   1       0.105  -1.657  -0.076  0.00  0.00    -0.042 A 
ATOM      5  C5  UNL d   1      -0.354  -0.891   0.990  0.00  0.00     0.033 A 
ATOM      6  C6  UNL d   1      -0.267   0.504   0.935  0.00  0.00    -0.057 A 
ENDROOT
BRANCH   1   7
ATOM      7  N   UNL d   1       0.411   2.551  -0.128  0.00  0.00    -0.732 N 
ATOM      8  C   UNL d   1       1.667   3.141   0.285  0.00  0.00     0.284 C 
ATOM      9  H3  UNL d   1      -0.030   3.022  -0.915  0.00  0.00     0.395 HD
ENDBRANCH   1   7
TORSDOF 1
ENDMDL
