MODEL 1
REMARK minimizedAffinity -4.63180637
REMARK minimizedRMSD -1
REMARK  1 active torsions:
REMARK  status: ('A' for Active; 'I' for Inactive)
REMARK    1  A    between atoms: N_2  and  C1_3 
ROOT
ATOM      1  C1  UNL d   1       0.271  -1.025  -0.153  0.00  0.00     0.143 A 
ATOM      2  C2  UNL d   1       0.219  -2.094   0.749  0.00  0.00    -0.057 A 
ATOM      3  C3  UNL d   1       0.131  -3.418   0.301  0.00  0.00     0.033 A 
ATOM      4  C4  UNL d   1       0.063  -3.695  -1.061  0.00  0.00    -0.042 A 
ATOM      5  C5  UNL d   1       0.088  -2.646  -1.974  0.00  0.00     0.033 A 
ATOM      6  C6  UNL d   1       0.183  -1.327  -1.521  0.00  0.00    -0.057 A 
ENDROOT
BRANCH   1   7
ATOM      7  N   UNL d   1       0.259   0.318   0.232  0.00  0.00    -0.732 N 
ATOM      8  C   UNL d   1      -0.514   1.291  -0.510  0.00  0.00     0.284 C 
ATOM      9  H3  UNL d   1       0.212   0.432   1.242  0.00  0.00     0.395 HD
ENDBRANCH   1   7
TORSDOF 1
ENDMDL
