MODEL 1
REMARK minimizedAffinity -4.12661123
REMARK minimizedRMSD -1
REMARK  1 active torsions:
REMARK  status: ('A' for Active; 'I' for Inactive)
REMARK    1  A    between atoms: N_2  and  C1_3 
ROOT
ATOM      1  C1  UNL d   1      -0.811  -0.462   0.649  0.00  0.00     0.143 A 
ATOM      2  C2  UNL d   1      -1.323  -1.739   0.901  0.00  0.00    -0.057 A 
ATOM      3  C3  UNL d   1      -0.601  -2.890   0.562  0.00  0.00     0.033 A 
ATOM      4  C4  UNL d   1       0.636  -2.783  -0.065  0.00  0.00    -0.042 A 
ATOM      5  C5  UNL d   1       1.152  -1.524  -0.348  0.00  0.00     0.033 A 
ATOM      6  C6  UNL d   1       0.430  -0.378  -0.001  0.00  0.00    -0.057 A 
ENDROOT
BRANCH   1   7
ATOM      7  N   UNL d   1      -1.523   0.719   0.873  0.00  0.00    -0.732 N 
ATOM      8  C   UNL d   1      -2.331   0.879   2.063  0.00  0.00     0.284 C 
ATOM      9  H3  UNL d   1      -0.991   1.548   0.617  0.00  0.00     0.395 HD
ENDBRANCH   1   7
TORSDOF 1
ENDMDL
