MODEL 1
REMARK minimizedAffinity -2.19077325
REMARK minimizedRMSD -1
REMARK  1 active torsions:
REMARK  status: ('A' for Active; 'I' for Inactive)
REMARK    1  A    between atoms: N_2  and  C1_3 
ROOT
ATOM      1  C1  UNL d   1       0.326  -1.271   0.553  0.00  0.00     0.143 A 
ATOM      2  C2  UNL d   1       0.911  -0.268  -0.228  0.00  0.00    -0.057 A 
ATOM      3  C3  UNL d   1       0.434   1.048  -0.196  0.00  0.00     0.033 A 
ATOM      4  C4  UNL d   1      -0.658   1.379   0.599  0.00  0.00    -0.042 A 
ATOM      5  C5  UNL d   1      -1.271   0.393   1.364  0.00  0.00     0.033 A 
ATOM      6  C6  UNL d   1      -0.786  -0.918   1.333  0.00  0.00    -0.057 A 
ENDROOT
BRANCH   1   7
ATOM      7  N   UNL d   1       0.692  -2.618   0.491  0.00  0.00    -0.732 N 
ATOM      8  C   UNL d   1      -0.317  -3.653   0.418  0.00  0.00     0.284 C 
ATOM      9  H3  UNL d   1       1.493  -2.775  -0.116  0.00  0.00     0.395 HD
ENDBRANCH   1   7
TORSDOF 1
ENDMDL
