MODEL 1
REMARK minimizedAffinity -4.21571016
REMARK minimizedRMSD -1
REMARK  1 active torsions:
REMARK  status: ('A' for Active; 'I' for Inactive)
REMARK    1  A    between atoms: N_2  and  C1_3 
ROOT
ATOM      1  C1  UNL d   1       0.216  -0.883  -0.483  0.00  0.00     0.143 A 
ATOM      2  C2  UNL d   1      -0.143  -1.975   0.314  0.00  0.00    -0.057 A 
ATOM      3  C3  UNL d   1      -0.269  -3.260  -0.230  0.00  0.00     0.033 A 
ATOM      4  C4  UNL d   1      -0.064  -3.469  -1.589  0.00  0.00    -0.042 A 
ATOM      5  C5  UNL d   1       0.269  -2.394  -2.405  0.00  0.00     0.033 A 
ATOM      6  C6  UNL d   1       0.399  -1.115  -1.855  0.00  0.00    -0.057 A 
ENDROOT
BRANCH   1   7
ATOM      7  N   UNL d   1       0.260   0.435  -0.021  0.00  0.00    -0.732 N 
ATOM      8  C   UNL d   1      -0.038   1.538  -0.909  0.00  0.00     0.284 C 
ATOM      9  H3  UNL d   1      -0.135   0.533   0.911  0.00  0.00     0.395 HD
ENDBRANCH   1   7
TORSDOF 1
ENDMDL
