MODEL 1
REMARK minimizedAffinity -3.51936245
REMARK minimizedRMSD -1
REMARK  1 active torsions:
REMARK  status: ('A' for Active; 'I' for Inactive)
REMARK    1  A    between atoms: N_2  and  C1_3 
ROOT
ATOM      1  C1  UNL d   1      -0.209   0.607   0.158  0.00  0.00     0.143 A 
ATOM      2  C2  UNL d   1      -0.792   0.068   1.310  0.00  0.00    -0.057 A 
ATOM      3  C3  UNL d   1      -1.006  -1.309   1.440  0.00  0.00     0.033 A 
ATOM      4  C4  UNL d   1      -0.668  -2.172   0.403  0.00  0.00    -0.042 A 
ATOM      5  C5  UNL d   1      -0.110  -1.657  -0.762  0.00  0.00     0.033 A 
ATOM      6  C6  UNL d   1       0.108  -0.281  -0.882  0.00  0.00    -0.057 A 
ENDROOT
BRANCH   1   7
ATOM      7  N   UNL d   1      -0.060   1.977  -0.071  0.00  0.00    -0.732 N 
ATOM      8  C   UNL d   1       1.225   2.618   0.107  0.00  0.00     0.284 C 
ATOM      9  H3  UNL d   1      -0.572   2.291  -0.892  0.00  0.00     0.395 HD
ENDBRANCH   1   7
TORSDOF 1
ENDMDL
