MODEL 1
REMARK minimizedAffinity -2.49086714
REMARK minimizedRMSD -1
REMARK  1 active torsions:
REMARK  status: ('A' for Active; 'I' for Inactive)
REMARK    1  A    between atoms: N_2  and  C1_3 
ROOT
ATOM      1  C1  UNL d   1      -0.421  -0.393  -0.559  0.00  0.00     0.143 A 
ATOM      2  C2  UNL d   1      -0.902  -1.292   0.398  0.00  0.00    -0.057 A 
ATOM      3  C3  UNL d   1      -1.061  -2.651   0.103  0.00  0.00     0.033 A 
ATOM      4  C4  UNL d   1      -0.766  -3.132  -1.169  0.00  0.00    -0.042 A 
ATOM      5  C5  UNL d   1      -0.310  -2.252  -2.144  0.00  0.00     0.033 A 
ATOM      6  C6  UNL d   1      -0.147  -0.897  -1.841  0.00  0.00    -0.057 A 
ENDROOT
BRANCH   1   7
ATOM      7  N   UNL d   1      -0.334   0.987  -0.357  0.00  0.00    -0.732 N 
ATOM      8  C   UNL d   1       0.880   1.582   0.157  0.00  0.00     0.284 C 
ATOM      9  H3  UNL d   1      -0.772   1.517  -1.107  0.00  0.00     0.395 HD
ENDBRANCH   1   7
TORSDOF 1
ENDMDL
