MODEL 1
REMARK minimizedAffinity 6.51684141
REMARK minimizedRMSD -1
REMARK  0 active torsions:
REMARK  status: ('A' for Active; 'I' for Inactive)
ROOT
ATOM      1  C   UNL d   1       4.463  -0.216  -1.502  0.00  0.00    -0.002 A 
ATOM      2  C1  UNL d   1       3.599  -0.320  -0.421  0.00  0.00     0.010 A 
ATOM      3  C2  UNL d   1       2.365  -0.958  -0.557  0.00  0.00     0.041 A 
ATOM      4  C3  UNL d   1       2.011  -1.498  -1.809  0.00  0.00    -0.075 A 
ATOM      5  S   UNL d   1       0.552  -2.325  -2.210  0.00  0.00     0.015 SA
ATOM      6  C4  UNL d   1       1.042  -2.561  -3.825  0.00  0.00     0.022 A 
ATOM      7  C5  UNL d   1       2.286  -2.028  -4.070  0.00  0.00     0.026 A 
ATOM      8  C6  UNL d   1       2.865  -1.407  -2.912  0.00  0.00    -0.082 A 
ATOM      9  C7  UNL d   1       4.109  -0.753  -2.742  0.00  0.00     0.045 A 
ENDROOT
TORSDOF 0
ENDMDL
