MODEL 1
REMARK minimizedAffinity -0.523333549
REMARK minimizedRMSD -1
REMARK  0 active torsions:
REMARK  status: ('A' for Active; 'I' for Inactive)
ROOT
ATOM      1  C   UNL d   1       1.488  -1.393  -1.309  0.00  0.00    -0.002 A 
ATOM      2  C1  UNL d   1       1.091  -0.306  -2.075  0.00  0.00     0.010 A 
ATOM      3  C2  UNL d   1       0.340   0.725  -1.508  0.00  0.00     0.041 A 
ATOM      4  C3  UNL d   1      -0.007   0.646  -0.145  0.00  0.00    -0.075 A 
ATOM      5  S   UNL d   1      -0.920   1.792   0.763  0.00  0.00     0.015 SA
ATOM      6  C4  UNL d   1      -0.804   0.866   2.189  0.00  0.00     0.022 A 
ATOM      7  C5  UNL d   1      -0.090  -0.292   1.995  0.00  0.00     0.026 A 
ATOM      8  C6  UNL d   1       0.382  -0.438   0.647  0.00  0.00    -0.082 A 
ATOM      9  C7  UNL d   1       1.142  -1.468   0.042  0.00  0.00     0.045 A 
ENDROOT
TORSDOF 0
ENDMDL
