MODEL 1
REMARK minimizedAffinity 9.65027237
REMARK minimizedRMSD -1
REMARK  0 active torsions:
REMARK  status: ('A' for Active; 'I' for Inactive)
ROOT
ATOM      1  C   UNL d   1      -0.803  -0.372  -0.551  0.00  0.00    -0.002 A 
ATOM      2  C1  UNL d   1      -1.455   0.852  -0.607  0.00  0.00     0.010 A 
ATOM      3  C2  UNL d   1      -0.873   1.938  -1.263  0.00  0.00     0.041 A 
ATOM      4  C3  UNL d   1       0.388   1.771  -1.870  0.00  0.00    -0.075 A 
ATOM      5  S   UNL d   1       1.293   2.960  -2.731  0.00  0.00     0.015 SA
ATOM      6  C4  UNL d   1       2.566   1.872  -3.045  0.00  0.00     0.022 A 
ATOM      7  C5  UNL d   1       2.323   0.627  -2.514  0.00  0.00     0.026 A 
ATOM      8  C6  UNL d   1       1.064   0.548  -1.828  0.00  0.00    -0.082 A 
ATOM      9  C7  UNL d   1       0.447  -0.533  -1.154  0.00  0.00     0.045 A 
ENDROOT
TORSDOF 0
ENDMDL
