MODEL 1
REMARK minimizedAffinity 9.47953987
REMARK minimizedRMSD -1
REMARK  0 active torsions:
REMARK  status: ('A' for Active; 'I' for Inactive)
ROOT
ATOM      1  C   UNL d   1      -0.326   1.624   1.500  0.00  0.00    -0.002 A 
ATOM      2  C1  UNL d   1      -1.121   0.938   0.593  0.00  0.00     0.010 A 
ATOM      3  C2  UNL d   1      -0.626   0.593  -0.666  0.00  0.00     0.041 A 
ATOM      4  C3  UNL d   1       0.695   0.952  -1.001  0.00  0.00    -0.075 A 
ATOM      5  S   UNL d   1       1.514   0.635  -2.485  0.00  0.00     0.015 SA
ATOM      6  C4  UNL d   1       2.938   1.403  -1.949  0.00  0.00     0.022 A 
ATOM      7  C5  UNL d   1       2.809   1.895  -0.672  0.00  0.00     0.026 A 
ATOM      8  C6  UNL d   1       1.515   1.643  -0.104  0.00  0.00    -0.082 A 
ATOM      9  C7  UNL d   1       0.983   1.979   1.164  0.00  0.00     0.045 A 
ENDROOT
TORSDOF 0
ENDMDL
