MODEL 1
REMARK minimizedAffinity 9.14547539
REMARK minimizedRMSD -1
REMARK  0 active torsions:
REMARK  status: ('A' for Active; 'I' for Inactive)
ROOT
ATOM      1  C   UNL d   1       2.923   0.442  -2.573  0.00  0.00    -0.002 A 
ATOM      2  C1  UNL d   1       2.792   1.560  -3.384  0.00  0.00     0.010 A 
ATOM      3  C2  UNL d   1       1.705   2.424  -3.232  0.00  0.00     0.041 A 
ATOM      4  C3  UNL d   1       0.745   2.143  -2.241  0.00  0.00    -0.075 A 
ATOM      5  S   UNL d   1      -0.668   3.060  -1.873  0.00  0.00     0.015 SA
ATOM      6  C4  UNL d   1      -1.130   1.989  -0.630  0.00  0.00     0.022 A 
ATOM      7  C5  UNL d   1      -0.240   0.951  -0.486  0.00  0.00     0.026 A 
ATOM      8  C6  UNL d   1       0.856   1.023  -1.411  0.00  0.00    -0.082 A 
ATOM      9  C7  UNL d   1       1.968   0.166  -1.591  0.00  0.00     0.045 A 
ENDROOT
TORSDOF 0
ENDMDL
