MODEL 1
REMARK minimizedAffinity 6.7817111
REMARK minimizedRMSD -1
REMARK  0 active torsions:
REMARK  status: ('A' for Active; 'I' for Inactive)
ROOT
ATOM      1  C   UNL d   1       2.353   2.682  -3.623  0.00  0.00    -0.002 A 
ATOM      2  C1  UNL d   1       1.216   3.231  -3.046  0.00  0.00     0.010 A 
ATOM      3  C2  UNL d   1       0.556   2.569  -2.009  0.00  0.00     0.041 A 
ATOM      4  C3  UNL d   1       1.063   1.335  -1.557  0.00  0.00    -0.075 A 
ATOM      5  S   UNL d   1       0.420   0.345  -0.299  0.00  0.00     0.015 SA
ATOM      6  C4  UNL d   1       1.640  -0.829  -0.499  0.00  0.00     0.022 A 
ATOM      7  C5  UNL d   1       2.523  -0.491  -1.496  0.00  0.00     0.026 A 
ATOM      8  C6  UNL d   1       2.206   0.762  -2.122  0.00  0.00    -0.082 A 
ATOM      9  C7  UNL d   1       2.852   1.458  -3.172  0.00  0.00     0.045 A 
ENDROOT
TORSDOF 0
ENDMDL
