MODEL 1
REMARK minimizedAffinity 8.95451832
REMARK minimizedRMSD -1
REMARK  0 active torsions:
REMARK  status: ('A' for Active; 'I' for Inactive)
ROOT
ATOM      1  C   UNL d   1       2.981   1.056  -1.326  0.00  0.00    -0.002 A 
ATOM      2  C1  UNL d   1       2.435  -0.110  -1.842  0.00  0.00     0.010 A 
ATOM      3  C2  UNL d   1       1.114  -0.462  -1.559  0.00  0.00     0.041 A 
ATOM      4  C3  UNL d   1       0.342   0.388  -0.742  0.00  0.00    -0.075 A 
ATOM      5  S   UNL d   1      -1.298   0.161  -0.262  0.00  0.00     0.015 SA
ATOM      6  C4  UNL d   1      -1.312   1.608   0.639  0.00  0.00     0.022 A 
ATOM      7  C5  UNL d   1      -0.104   2.260   0.586  0.00  0.00     0.026 A 
ATOM      8  C6  UNL d   1       0.870   1.568  -0.211  0.00  0.00    -0.082 A 
ATOM      9  C7  UNL d   1       2.213   1.897  -0.516  0.00  0.00     0.045 A 
ENDROOT
TORSDOF 0
ENDMDL
