MODEL 1
REMARK minimizedAffinity 16.2590618
REMARK minimizedRMSD -1
REMARK  0 active torsions:
REMARK  status: ('A' for Active; 'I' for Inactive)
ROOT
ATOM      1  C   UNL d   1       2.187  -1.984  -2.004  0.00  0.00    -0.002 A 
ATOM      2  C1  UNL d   1       2.459  -0.680  -1.614  0.00  0.00     0.010 A 
ATOM      3  C2  UNL d   1       1.449   0.131  -1.091  0.00  0.00     0.041 A 
ATOM      4  C3  UNL d   1       0.149  -0.397  -0.964  0.00  0.00    -0.075 A 
ATOM      5  S   UNL d   1      -1.245   0.410  -0.349  0.00  0.00     0.015 SA
ATOM      6  C4  UNL d   1      -2.234  -0.957  -0.589  0.00  0.00     0.022 A 
ATOM      7  C5  UNL d   1      -1.534  -2.013  -1.124  0.00  0.00     0.026 A 
ATOM      8  C6  UNL d   1      -0.149  -1.708  -1.348  0.00  0.00    -0.082 A 
ATOM      9  C7  UNL d   1       0.896  -2.504  -1.876  0.00  0.00     0.045 A 
ENDROOT
TORSDOF 0
ENDMDL
