MODEL 1
REMARK minimizedAffinity -2.76853561
REMARK minimizedRMSD -1
REMARK  0 active torsions:
REMARK  status: ('A' for Active; 'I' for Inactive)
ROOT
ATOM      1  C   UNL d   1       2.676  -0.783  -0.863  0.00  0.00    -0.002 A 
ATOM      2  C1  UNL d   1       2.851   0.494  -0.350  0.00  0.00     0.010 A 
ATOM      3  C2  UNL d   1       1.751   1.255   0.050  0.00  0.00     0.041 A 
ATOM      4  C3  UNL d   1       0.460   0.705  -0.072  0.00  0.00    -0.075 A 
ATOM      5  S   UNL d   1      -1.034   1.452   0.356  0.00  0.00     0.015 SA
ATOM      6  C4  UNL d   1      -1.939   0.092  -0.131  0.00  0.00     0.022 A 
ATOM      7  C5  UNL d   1      -1.137  -0.916  -0.611  0.00  0.00     0.026 A 
ATOM      8  C6  UNL d   1       0.259  -0.580  -0.584  0.00  0.00    -0.082 A 
ATOM      9  C7  UNL d   1       1.394  -1.326  -0.983  0.00  0.00     0.045 A 
ENDROOT
TORSDOF 0
ENDMDL
