MODEL 1
REMARK minimizedAffinity 7.2796073
REMARK minimizedRMSD -1
REMARK  0 active torsions:
REMARK  status: ('A' for Active; 'I' for Inactive)
ROOT
ATOM      1  C   UNL d   1       2.756  -1.518  -1.231  0.00  0.00    -0.002 A 
ATOM      2  C1  UNL d   1       1.757  -0.979  -0.432  0.00  0.00     0.010 A 
ATOM      3  C2  UNL d   1       1.129   0.216  -0.789  0.00  0.00     0.041 A 
ATOM      4  C3  UNL d   1       1.525   0.866  -1.975  0.00  0.00    -0.075 A 
ATOM      5  S   UNL d   1       0.896   2.339  -2.612  0.00  0.00     0.015 SA
ATOM      6  C4  UNL d   1       1.938   2.288  -3.960  0.00  0.00     0.022 A 
ATOM      7  C5  UNL d   1       2.753   1.181  -3.940  0.00  0.00     0.026 A 
ATOM      8  C6  UNL d   1       2.528   0.343  -2.796  0.00  0.00    -0.082 A 
ATOM      9  C7  UNL d   1       3.146  -0.870  -2.406  0.00  0.00     0.045 A 
ENDROOT
TORSDOF 0
ENDMDL
