MODEL 1
REMARK minimizedAffinity 8.4721241
REMARK minimizedRMSD -1
REMARK  0 active torsions:
REMARK  status: ('A' for Active; 'I' for Inactive)
ROOT
ATOM      1  C   UNL d   1       1.120  -3.792   0.920  0.00  0.00    -0.002 A 
ATOM      2  C1  UNL d   1      -0.095  -3.405   0.373  0.00  0.00     0.010 A 
ATOM      3  C2  UNL d   1      -0.165  -2.319  -0.503  0.00  0.00     0.041 A 
ATOM      4  C3  UNL d   1       1.017  -1.624  -0.823  0.00  0.00    -0.075 A 
ATOM      5  S   UNL d   1       1.173  -0.264  -1.872  0.00  0.00     0.015 SA
ATOM      6  C4  UNL d   1       2.855  -0.167  -1.618  0.00  0.00     0.022 A 
ATOM      7  C5  UNL d   1       3.304  -1.139  -0.757  0.00  0.00     0.026 A 
ATOM      8  C6  UNL d   1       2.253  -1.995  -0.284  0.00  0.00    -0.082 A 
ATOM      9  C7  UNL d   1       2.291  -3.100   0.601  0.00  0.00     0.045 A 
ENDROOT
TORSDOF 0
ENDMDL
