MODEL 1
REMARK minimizedAffinity 1.38786137
REMARK minimizedRMSD -1
REMARK  0 active torsions:
REMARK  status: ('A' for Active; 'I' for Inactive)
ROOT
ATOM      1  C4' PXY d   1       2.433  -0.058   1.430  0.00  0.00     0.077 C 
ATOM      2  C1' PXY d   1      -3.056   0.174  -0.368  0.00  0.00     0.077 C 
ATOM      3  C1  PXY d   1      -1.619   0.122   0.112  0.00  0.00    -0.082 A 
ATOM      4  C2  PXY d   1      -0.677  -0.346  -0.691  0.00  0.00     0.003 A 
ATOM      5  C3  PXY d   1       0.622  -0.429  -0.261  0.00  0.00     0.003 A 
ATOM      6  C4  PXY d   1       0.970   0.021   0.984  0.00  0.00    -0.082 A 
ATOM      7  C5  PXY d   1       0.017   0.510   1.806  0.00  0.00     0.003 A 
ATOM      8  C6  PXY d   1      -1.303   0.547   1.366  0.00  0.00     0.003 A 
ENDROOT
TORSDOF 0
ENDMDL
