MODEL 1
REMARK minimizedAffinity -4.68095636
REMARK minimizedRMSD -1
REMARK  0 active torsions:
REMARK  status: ('A' for Active; 'I' for Inactive)
ROOT
ATOM      1  C4' PXY d   1       0.424  -0.760  -1.685  0.00  0.00     0.077 C 
ATOM      2  C1' PXY d   1      -1.009   1.407   3.479  0.00  0.00     0.077 C 
ATOM      3  C1  PXY d   1      -0.645   0.834   2.123  0.00  0.00    -0.082 A 
ATOM      4  C2  PXY d   1       0.619   0.561   1.846  0.00  0.00     0.003 A 
ATOM      5  C3  PXY d   1       0.970   0.072   0.614  0.00  0.00     0.003 A 
ATOM      6  C4  PXY d   1       0.009  -0.190  -0.326  0.00  0.00    -0.082 A 
ATOM      7  C5  PXY d   1      -1.285   0.076  -0.048  0.00  0.00     0.003 A 
ATOM      8  C6  PXY d   1      -1.615   0.610   1.194  0.00  0.00     0.003 A 
ENDROOT
TORSDOF 0
ENDMDL
