MODEL 1
REMARK minimizedAffinity -2.89416265
REMARK minimizedRMSD -1
REMARK  0 active torsions:
REMARK  status: ('A' for Active; 'I' for Inactive)
ROOT
ATOM      1  C4' PXY d   1       0.371  -0.877  -1.923  0.00  0.00     0.077 C 
ATOM      2  C1' PXY d   1      -0.750   1.602   3.177  0.00  0.00     0.077 C 
ATOM      3  C1  PXY d   1      -0.468   0.946   1.839  0.00  0.00    -0.082 A 
ATOM      4  C2  PXY d   1       0.784   0.746   1.460  0.00  0.00     0.003 A 
ATOM      5  C3  PXY d   1       1.057   0.184   0.240  0.00  0.00     0.003 A 
ATOM      6  C4  PXY d   1       0.038  -0.227  -0.578  0.00  0.00    -0.082 A 
ATOM      7  C5  PXY d   1      -1.241  -0.036  -0.193  0.00  0.00     0.003 A 
ATOM      8  C6  PXY d   1      -1.498   0.574   1.031  0.00  0.00     0.003 A 
ENDROOT
TORSDOF 0
ENDMDL
