MODEL 1
REMARK minimizedAffinity -4.3132515
REMARK minimizedRMSD -1
REMARK  0 active torsions:
REMARK  status: ('A' for Active; 'I' for Inactive)
ROOT
ATOM      1  C4' PXY d   1       0.354  -1.111  -1.818  0.00  0.00     0.077 C 
ATOM      2  C1' PXY d   1      -0.683   2.012   2.935  0.00  0.00     0.077 C 
ATOM      3  C1  PXY d   1      -0.422   1.186   1.691  0.00  0.00    -0.082 A 
ATOM      4  C2  PXY d   1       0.803   1.118   1.196  0.00  0.00     0.003 A 
ATOM      5  C3  PXY d   1       1.052   0.401   0.054  0.00  0.00     0.003 A 
ATOM      6  C4  PXY d   1       0.045  -0.297  -0.559  0.00  0.00    -0.082 A 
ATOM      7  C5  PXY d   1      -1.206  -0.241  -0.054  0.00  0.00     0.003 A 
ATOM      8  C6  PXY d   1      -1.445   0.525   1.083  0.00  0.00     0.003 A 
ENDROOT
TORSDOF 0
ENDMDL
