MODEL 1
REMARK minimizedAffinity -0.276018232
REMARK minimizedRMSD -1
REMARK  0 active torsions:
REMARK  status: ('A' for Active; 'I' for Inactive)
ROOT
ATOM      1  C4' PXY d   1      -0.021  -0.815  -2.353  0.00  0.00     0.077 C 
ATOM      2  C1' PXY d   1      -1.060   0.504   3.178  0.00  0.00     0.077 C 
ATOM      3  C1  PXY d   1      -0.776   0.162   1.729  0.00  0.00    -0.082 A 
ATOM      4  C2  PXY d   1      -1.778   0.067   0.870  0.00  0.00     0.003 A 
ATOM      5  C3  PXY d   1      -1.541  -0.272  -0.437  0.00  0.00     0.003 A 
ATOM      6  C4  PXY d   1      -0.261  -0.464  -0.882  0.00  0.00    -0.082 A 
ATOM      7  C5  PXY d   1       0.768  -0.358  -0.015  0.00  0.00     0.003 A 
ATOM      8  C6  PXY d   1       0.503  -0.053   1.317  0.00  0.00     0.003 A 
ENDROOT
TORSDOF 0
ENDMDL
