MODEL 1
REMARK minimizedAffinity -3.09675813
REMARK minimizedRMSD -1
REMARK  0 active torsions:
REMARK  status: ('A' for Active; 'I' for Inactive)
ROOT
ATOM      1  C4' PXY d   1       0.508  -1.228  -1.728  0.00  0.00     0.077 C 
ATOM      2  C1' PXY d   1      -0.619   1.407   3.293  0.00  0.00     0.077 C 
ATOM      3  C1  PXY d   1      -0.336   0.711   1.976  0.00  0.00    -0.082 A 
ATOM      4  C2  PXY d   1       0.914   0.451   1.629  0.00  0.00     0.003 A 
ATOM      5  C3  PXY d   1       1.191  -0.149   0.428  0.00  0.00     0.003 A 
ATOM      6  C4  PXY d   1       0.174  -0.536  -0.404  0.00  0.00    -0.082 A 
ATOM      7  C5  PXY d   1      -1.105  -0.284  -0.052  0.00  0.00     0.003 A 
ATOM      8  C6  PXY d   1      -1.362   0.363   1.153  0.00  0.00     0.003 A 
ENDROOT
TORSDOF 0
ENDMDL
