MODEL 1
REMARK minimizedAffinity -5.89510393
REMARK minimizedRMSD -1
REMARK  0 active torsions:
REMARK  status: ('A' for Active; 'I' for Inactive)
ROOT
ATOM      1  C4' PXY d   1       0.403  -0.409  -1.798  0.00  0.00     0.077 C 
ATOM      2  C1' PXY d   1      -0.162   0.869   3.811  0.00  0.00     0.077 C 
ATOM      3  C1  PXY d   1      -0.027   0.532   2.339  0.00  0.00    -0.082 A 
ATOM      4  C2  PXY d   1       1.120   0.060   1.879  0.00  0.00     0.003 A 
ATOM      5  C3  PXY d   1       1.270  -0.220   0.545  0.00  0.00     0.003 A 
ATOM      6  C4  PXY d   1       0.218  -0.064  -0.318  0.00  0.00    -0.082 A 
ATOM      7  C5  PXY d   1      -0.959   0.407   0.146  0.00  0.00     0.003 A 
ATOM      8  C6  PXY d   1      -1.077   0.724   1.496  0.00  0.00     0.003 A 
ENDROOT
TORSDOF 0
ENDMDL
