MODEL 1
REMARK minimizedAffinity -6.45201349
REMARK minimizedRMSD -1
REMARK  0 active torsions:
REMARK  status: ('A' for Active; 'I' for Inactive)
ROOT
ATOM      1  C4' PXY d   1      -2.939   0.252  -0.361  0.00  0.00     0.077 C 
ATOM      2  C1' PXY d   1       1.827  -0.075   2.894  0.00  0.00     0.077 C 
ATOM      3  C1  PXY d   1       0.584   0.010   2.029  0.00  0.00    -0.082 A 
ATOM      4  C2  PXY d   1      -0.504   0.595   2.503  0.00  0.00     0.003 A 
ATOM      5  C3  PXY d   1      -1.646   0.652   1.747  0.00  0.00     0.003 A 
ATOM      6  C4  PXY d   1      -1.659   0.152   0.473  0.00  0.00    -0.082 A 
ATOM      7  C5  PXY d   1      -0.550  -0.437  -0.022  0.00  0.00     0.003 A 
ATOM      8  C6  PXY d   1       0.587  -0.521   0.777  0.00  0.00     0.003 A 
ENDROOT
TORSDOF 0
ENDMDL
