MODEL 1
REMARK minimizedAffinity -4.56805658
REMARK minimizedRMSD -1
REMARK  0 active torsions:
REMARK  status: ('A' for Active; 'I' for Inactive)
ROOT
ATOM      1  C4' PXY d   1       0.380  -0.665  -1.524  0.00  0.00     0.077 C 
ATOM      2  C1' PXY d   1      -0.879   1.183   3.807  0.00  0.00     0.077 C 
ATOM      3  C1  PXY d   1      -0.562   0.696   2.407  0.00  0.00    -0.082 A 
ATOM      4  C2  PXY d   1       0.653   0.251   2.129  0.00  0.00     0.003 A 
ATOM      5  C3  PXY d   1       0.966  -0.164   0.860  0.00  0.00     0.003 A 
ATOM      6  C4  PXY d   1       0.012  -0.172  -0.122  0.00  0.00    -0.082 A 
ATOM      7  C5  PXY d   1      -1.233   0.271   0.157  0.00  0.00     0.003 A 
ATOM      8  C6  PXY d   1      -1.519   0.726   1.440  0.00  0.00     0.003 A 
ENDROOT
TORSDOF 0
ENDMDL
