MODEL 1
REMARK minimizedAffinity -5.79322624
REMARK minimizedRMSD -1
REMARK  0 active torsions:
REMARK  status: ('A' for Active; 'I' for Inactive)
ROOT
ATOM      1  C4' PXY d   1       1.831  -0.129   3.003  0.00  0.00     0.077 C 
ATOM      2  C1' PXY d   1      -2.781   0.899  -0.327  0.00  0.00     0.077 C 
ATOM      3  C1  PXY d   1      -1.569   0.619   0.539  0.00  0.00    -0.082 A 
ATOM      4  C2  PXY d   1      -1.531   1.077   1.780  0.00  0.00     0.003 A 
ATOM      5  C3  PXY d   1      -0.429   0.860   2.566  0.00  0.00     0.003 A 
ATOM      6  C4  PXY d   1       0.623   0.122   2.096  0.00  0.00    -0.082 A 
ATOM      7  C5  PXY d   1       0.588  -0.358   0.834  0.00  0.00     0.003 A 
ATOM      8  C6  PXY d   1      -0.522  -0.092   0.038  0.00  0.00     0.003 A 
ENDROOT
TORSDOF 0
ENDMDL
