MODEL 1
REMARK minimizedAffinity -5.3331027
REMARK minimizedRMSD -1
REMARK  0 active torsions:
REMARK  status: ('A' for Active; 'I' for Inactive)
ROOT
ATOM      1  C4' PXY d   1      -2.404   1.169  -0.417  0.00  0.00     0.077 C 
ATOM      2  C1' PXY d   1       1.308   0.136   3.892  0.00  0.00     0.077 C 
ATOM      3  C1  PXY d   1       0.344   0.406   2.753  0.00  0.00    -0.082 A 
ATOM      4  C2  PXY d   1      -0.758   1.100   2.980  0.00  0.00     0.003 A 
ATOM      5  C3  PXY d   1      -1.657   1.326   1.969  0.00  0.00     0.003 A 
ATOM      6  C4  PXY d   1      -1.398   0.881   0.700  0.00  0.00    -0.082 A 
ATOM      7  C5  PXY d   1      -0.269   0.181   0.458  0.00  0.00     0.003 A 
ATOM      8  C6  PXY d   1       0.610  -0.073   1.507  0.00  0.00     0.003 A 
ENDROOT
TORSDOF 0
ENDMDL
