MODEL 1
REMARK minimizedAffinity -4.31759787
REMARK minimizedRMSD -1
REMARK  0 active torsions:
REMARK  status: ('A' for Active; 'I' for Inactive)
ROOT
ATOM      1  C4' PXY d   1      -2.614   0.951   0.777  0.00  0.00     0.077 C 
ATOM      2  C1' PXY d   1       2.591  -0.426   2.881  0.00  0.00     0.077 C 
ATOM      3  C1  PXY d   1       1.231  -0.064   2.317  0.00  0.00    -0.082 A 
ATOM      4  C2  PXY d   1       0.323   0.490   3.105  0.00  0.00     0.003 A 
ATOM      5  C3  PXY d   1      -0.923   0.794   2.619  0.00  0.00     0.003 A 
ATOM      6  C4  PXY d   1      -1.224   0.578   1.301  0.00  0.00    -0.082 A 
ATOM      7  C5  PXY d   1      -0.300   0.024   0.489  0.00  0.00     0.003 A 
ATOM      8  C6  PXY d   1       0.945  -0.316   1.011  0.00  0.00     0.003 A 
ENDROOT
TORSDOF 0
ENDMDL
