MODEL 1
REMARK minimizedAffinity -4.32513046
REMARK minimizedRMSD -1
REMARK  0 active torsions:
REMARK  status: ('A' for Active; 'I' for Inactive)
ROOT
ATOM      1  C4' PXY d   1      -0.016  -0.631  -1.750  0.00  0.00     0.077 C 
ATOM      2  C1' PXY d   1       0.906   0.322   3.876  0.00  0.00     0.077 C 
ATOM      3  C1  PXY d   1       0.651   0.072   2.403  0.00  0.00    -0.082 A 
ATOM      4  C2  PXY d   1       1.601  -0.469   1.658  0.00  0.00     0.003 A 
ATOM      5  C3  PXY d   1       1.399  -0.673   0.317  0.00  0.00     0.003 A 
ATOM      6  C4  PXY d   1       0.194  -0.369  -0.256  0.00  0.00    -0.082 A 
ATOM      7  C5  PXY d   1      -0.784   0.173   0.500  0.00  0.00     0.003 A 
ATOM      8  C6  PXY d   1      -0.545   0.410   1.850  0.00  0.00     0.003 A 
ENDROOT
TORSDOF 0
ENDMDL
