MODEL 1
REMARK minimizedAffinity 5.67200613
REMARK minimizedRMSD -1
REMARK  0 active torsions:
REMARK  status: ('A' for Active; 'I' for Inactive)
ROOT
ATOM      1  C   UNL d   1      -1.083   1.780   1.076  0.00  0.00     0.020 A 
ATOM      2  C1  UNL d   1       0.274   1.913   1.371  0.00  0.00     0.020 A 
ATOM      3  C2  UNL d   1       1.031   0.787   1.699  0.00  0.00     0.034 A 
ATOM      4  C3  UNL d   1       0.432  -0.478   1.732  0.00  0.00     0.017 A 
ATOM      5  C4  UNL d   1      -0.929  -0.611   1.436  0.00  0.00     0.017 A 
ATOM      6  C5  UNL d   1      -1.682   0.521   1.108  0.00  0.00     0.034 A 
ATOM      7 Cl   UNL d   1      -1.738  -2.138   1.456  0.00  0.00    -0.070 Cl
ATOM      8 Cl1  UNL d   1       1.429  -1.828   2.145  0.00  0.00    -0.070 Cl
ENDROOT
TORSDOF 0
ENDMDL
