MODEL 1
REMARK minimizedAffinity 5.81943321
REMARK minimizedRMSD -1
REMARK  0 active torsions:
REMARK  status: ('A' for Active; 'I' for Inactive)
ROOT
ATOM      1  C   UNL d   1      -1.014   1.585   0.768  0.00  0.00     0.020 A 
ATOM      2  C1  UNL d   1      -0.421   0.532   1.463  0.00  0.00     0.020 A 
ATOM      3  C2  UNL d   1      -0.922  -0.765   1.327  0.00  0.00     0.034 A 
ATOM      4  C3  UNL d   1      -2.019  -1.011   0.494  0.00  0.00     0.017 A 
ATOM      5  C4  UNL d   1      -2.614   0.047  -0.203  0.00  0.00     0.017 A 
ATOM      6  C5  UNL d   1      -2.108   1.343  -0.063  0.00  0.00     0.034 A 
ATOM      7 Cl   UNL d   1      -3.971  -0.179  -1.250  0.00  0.00    -0.070 Cl
ATOM      8 Cl1  UNL d   1      -2.586  -2.639   0.372  0.00  0.00    -0.070 Cl
ENDROOT
TORSDOF 0
ENDMDL
