MODEL 1
REMARK minimizedAffinity 2.81608486
REMARK minimizedRMSD -1
REMARK  0 active torsions:
REMARK  status: ('A' for Active; 'I' for Inactive)
ROOT
ATOM      1  C   UNL d   1      -1.741  -2.807   0.650  0.00  0.00     0.020 A 
ATOM      2  C1  UNL d   1      -0.552  -3.409   1.061  0.00  0.00     0.020 A 
ATOM      3  C2  UNL d   1       0.477  -2.630   1.593  0.00  0.00     0.034 A 
ATOM      4  C3  UNL d   1       0.319  -1.245   1.717  0.00  0.00     0.017 A 
ATOM      5  C4  UNL d   1      -0.875  -0.642   1.304  0.00  0.00     0.017 A 
ATOM      6  C5  UNL d   1      -1.902  -1.427   0.772  0.00  0.00     0.034 A 
ATOM      7 Cl   UNL d   1      -1.143   1.062   1.425  0.00  0.00    -0.070 Cl
ATOM      8 Cl1  UNL d   1       1.633  -0.343   2.385  0.00  0.00    -0.070 Cl
ENDROOT
TORSDOF 0
ENDMDL
