MODEL 1
REMARK minimizedAffinity 11.6623468
REMARK minimizedRMSD -1
REMARK  0 active torsions:
REMARK  status: ('A' for Active; 'I' for Inactive)
ROOT
ATOM      1  C   UNL d   1       1.495  -0.218   3.159  0.00  0.00     0.020 A 
ATOM      2  C1  UNL d   1       1.835  -0.907   1.995  0.00  0.00     0.020 A 
ATOM      3  C2  UNL d   1       2.155  -2.265   2.055  0.00  0.00     0.034 A 
ATOM      4  C3  UNL d   1       2.136  -2.939   3.282  0.00  0.00     0.017 A 
ATOM      5  C4  UNL d   1       1.795  -2.247   4.450  0.00  0.00     0.017 A 
ATOM      6  C5  UNL d   1       1.475  -0.887   4.384  0.00  0.00     0.034 A 
ATOM      7 Cl   UNL d   1       1.750  -3.010   5.999  0.00  0.00    -0.070 Cl
ATOM      8 Cl1  UNL d   1       2.543  -4.618   3.282  0.00  0.00    -0.070 Cl
ENDROOT
TORSDOF 0
ENDMDL
