MODEL 1
REMARK minimizedAffinity 9.00773048
REMARK minimizedRMSD -1
REMARK  0 active torsions:
REMARK  status: ('A' for Active; 'I' for Inactive)
ROOT
ATOM      1  C   UNL d   1       1.859  -1.226   1.796  0.00  0.00     0.020 A 
ATOM      2  C1  UNL d   1       1.172  -0.568   2.816  0.00  0.00     0.020 A 
ATOM      3  C2  UNL d   1       0.957  -1.207   4.039  0.00  0.00     0.034 A 
ATOM      4  C3  UNL d   1       1.429  -2.508   4.245  0.00  0.00     0.017 A 
ATOM      5  C4  UNL d   1       2.118  -3.168   3.221  0.00  0.00     0.017 A 
ATOM      6  C5  UNL d   1       2.331  -2.524   1.999  0.00  0.00     0.034 A 
ATOM      7 Cl   UNL d   1       2.730  -4.775   3.402  0.00  0.00    -0.070 Cl
ATOM      8 Cl1  UNL d   1       1.127  -3.238   5.782  0.00  0.00    -0.070 Cl
ENDROOT
TORSDOF 0
ENDMDL
