MODEL 1
REMARK minimizedAffinity 3.05493498
REMARK minimizedRMSD -1
REMARK  0 active torsions:
REMARK  status: ('A' for Active; 'I' for Inactive)
ROOT
ATOM      1  C   UNL d   1      -2.483  -1.960  -0.606  0.00  0.00     0.020 A 
ATOM      2  C1  UNL d   1      -2.872  -0.752  -0.029  0.00  0.00     0.020 A 
ATOM      3  C2  UNL d   1      -2.000  -0.074   0.826  0.00  0.00     0.034 A 
ATOM      4  C3  UNL d   1      -0.735  -0.603   1.106  0.00  0.00     0.017 A 
ATOM      5  C4  UNL d   1      -0.345  -1.816   0.525  0.00  0.00     0.017 A 
ATOM      6  C5  UNL d   1      -1.222  -2.490  -0.330  0.00  0.00     0.034 A 
ATOM      7 Cl   UNL d   1       1.200  -2.531   0.822  0.00  0.00    -0.070 Cl
ATOM      8 Cl1  UNL d   1       0.292   0.289   2.171  0.00  0.00    -0.070 Cl
ENDROOT
TORSDOF 0
ENDMDL
