MODEL 1
REMARK minimizedAffinity 4.62997198
REMARK minimizedRMSD -1
REMARK  0 active torsions:
REMARK  status: ('A' for Active; 'I' for Inactive)
ROOT
ATOM      1  C   UNL d   1      -0.681   1.908   0.438  0.00  0.00     0.020 A 
ATOM      2  C1  UNL d   1      -1.975   1.446   0.202  0.00  0.00     0.020 A 
ATOM      3  C2  UNL d   1      -2.259   0.083   0.309  0.00  0.00     0.034 A 
ATOM      4  C3  UNL d   1      -1.249  -0.822   0.653  0.00  0.00     0.017 A 
ATOM      5  C4  UNL d   1       0.050  -0.357   0.889  0.00  0.00     0.017 A 
ATOM      6  C5  UNL d   1       0.329   1.008   0.781  0.00  0.00     0.034 A 
ATOM      7 Cl   UNL d   1       1.349  -1.414   1.317  0.00  0.00    -0.070 Cl
ATOM      8 Cl1  UNL d   1      -1.672  -2.494   0.767  0.00  0.00    -0.070 Cl
ENDROOT
TORSDOF 0
ENDMDL
