MODEL 1
REMARK minimizedAffinity 3.46745157
REMARK minimizedRMSD -1
REMARK  0 active torsions:
REMARK  status: ('A' for Active; 'I' for Inactive)
ROOT
ATOM      1  C   UNL d   1       4.303   4.126  -0.745  0.00  0.00     0.020 A 
ATOM      2  C1  UNL d   1       5.496   4.725  -1.147  0.00  0.00     0.020 A 
ATOM      3  C2  UNL d   1       6.000   4.488  -2.427  0.00  0.00     0.034 A 
ATOM      4  C3  UNL d   1       5.310   3.649  -3.311  0.00  0.00     0.017 A 
ATOM      5  C4  UNL d   1       4.113   3.049  -2.907  0.00  0.00     0.017 A 
ATOM      6  C5  UNL d   1       3.613   3.290  -1.623  0.00  0.00     0.034 A 
ATOM      7 Cl   UNL d   1       3.205   2.002  -3.941  0.00  0.00    -0.070 Cl
ATOM      8 Cl1  UNL d   1       5.991   3.401  -4.879  0.00  0.00    -0.070 Cl
ENDROOT
TORSDOF 0
ENDMDL
