MODEL 1
REMARK minimizedAffinity -2.22696352
REMARK minimizedRMSD -1
REMARK  0 active torsions:
REMARK  status: ('A' for Active; 'I' for Inactive)
ROOT
ATOM      1  O1  BZF d   1       2.432   5.160  -5.538  0.00  0.00    -0.204 OA
ATOM      2  C2  BZF d   1       1.609   4.127  -5.131  0.00  0.00     0.174 A 
ATOM      3  C3  BZF d   1       2.309   2.982  -4.999  0.00  0.00    -0.012 A 
ATOM      4  C3A BZF d   1       3.670   3.340  -5.256  0.00  0.00    -0.107 A 
ATOM      5  C4  BZF d   1       4.841   2.638  -5.262  0.00  0.00     0.055 A 
ATOM      6  C5  BZF d   1       5.988   3.269  -5.625  0.00  0.00    -0.016 A 
ATOM      7  C6  BZF d   1       6.000   4.599  -5.994  0.00  0.00     0.022 A 
ATOM      8  C7  BZF d   1       4.864   5.338  -5.999  0.00  0.00     0.029 A 
ATOM      9  C7A BZF d   1       3.709   4.711  -5.601  0.00  0.00     0.058 A 
ENDROOT
TORSDOF 0
ENDMDL
