MODEL 1
REMARK minimizedAffinity 2.59431458
REMARK minimizedRMSD -1
REMARK  0 active torsions:
REMARK  status: ('A' for Active; 'I' for Inactive)
ROOT
ATOM      1  O1  BZF d   1       4.528  -0.456   1.886  0.00  0.00    -0.204 OA
ATOM      2  C2  BZF d   1       5.788  -0.035   2.266  0.00  0.00     0.174 A 
ATOM      3  C3  BZF d   1       5.999   1.243   1.890  0.00  0.00    -0.012 A 
ATOM      4  C3A BZF d   1       4.762   1.675   1.316  0.00  0.00    -0.107 A 
ATOM      5  C4  BZF d   1       4.341   2.856   0.774  0.00  0.00     0.055 A 
ATOM      6  C5  BZF d   1       3.096   2.928   0.235  0.00  0.00    -0.016 A 
ATOM      7  C6  BZF d   1       2.249   1.839   0.215  0.00  0.00     0.022 A 
ATOM      8  C7  BZF d   1       2.621   0.648   0.745  0.00  0.00     0.029 A 
ATOM      9  C7A BZF d   1       3.866   0.581   1.320  0.00  0.00     0.058 A 
ENDROOT
TORSDOF 0
ENDMDL
