MODEL 1
REMARK minimizedAffinity 0.913244486
REMARK minimizedRMSD -1
REMARK  0 active torsions:
REMARK  status: ('A' for Active; 'I' for Inactive)
ROOT
ATOM      1  O1  BZF d   1       2.275   5.599  -4.538  0.00  0.00    -0.204 OA
ATOM      2  C2  BZF d   1       1.065   5.456  -5.189  0.00  0.00     0.174 A 
ATOM      3  C3  BZF d   1       1.033   4.304  -5.891  0.00  0.00    -0.012 A 
ATOM      4  C3A BZF d   1       2.266   3.645  -5.589  0.00  0.00    -0.107 A 
ATOM      5  C4  BZF d   1       2.811   2.453  -5.971  0.00  0.00     0.055 A 
ATOM      6  C5  BZF d   1       4.067   2.137  -5.557  0.00  0.00    -0.016 A 
ATOM      7  C6  BZF d   1       4.806   2.992  -4.765  0.00  0.00     0.022 A 
ATOM      8  C7  BZF d   1       4.305   4.183  -4.356  0.00  0.00     0.029 A 
ATOM      9  C7A BZF d   1       3.025   4.490  -4.746  0.00  0.00     0.058 A 
ENDROOT
TORSDOF 0
ENDMDL
