MODEL 1
REMARK minimizedAffinity -0.486091584
REMARK minimizedRMSD -1
REMARK  0 active torsions:
REMARK  status: ('A' for Active; 'I' for Inactive)
ROOT
ATOM      1  O1  BZF d   1       1.346   2.926  -5.918  0.00  0.00    -0.204 OA
ATOM      2  C2  BZF d   1       0.688   4.141  -5.889  0.00  0.00     0.174 A 
ATOM      3  C3  BZF d   1       1.570   5.161  -5.848  0.00  0.00    -0.012 A 
ATOM      4  C3A BZF d   1       2.859   4.548  -5.945  0.00  0.00    -0.107 A 
ATOM      5  C4  BZF d   1       4.133   5.040  -5.973  0.00  0.00     0.055 A 
ATOM      6  C5  BZF d   1       5.176   4.170  -6.000  0.00  0.00    -0.016 A 
ATOM      7  C6  BZF d   1       4.984   2.804  -5.993  0.00  0.00     0.022 A 
ATOM      8  C7  BZF d   1       3.739   2.269  -5.970  0.00  0.00     0.029 A 
ATOM      9  C7A BZF d   1       2.681   3.145  -5.977  0.00  0.00     0.058 A 
ENDROOT
TORSDOF 0
ENDMDL
