MODEL 1
REMARK minimizedAffinity -2.00278258
REMARK minimizedRMSD -1
REMARK  0 active torsions:
REMARK  status: ('A' for Active; 'I' for Inactive)
ROOT
ATOM      1  O1  BZF d   1       0.887   3.756  -5.837  0.00  0.00    -0.204 OA
ATOM      2  C2  BZF d   1       0.594   5.100  -5.968  0.00  0.00     0.174 A 
ATOM      3  C3  BZF d   1       1.725   5.834  -6.000  0.00  0.00    -0.012 A 
ATOM      4  C3A BZF d   1       2.793   4.883  -5.973  0.00  0.00    -0.107 A 
ATOM      5  C4  BZF d   1       4.153   4.997  -5.999  0.00  0.00     0.055 A 
ATOM      6  C5  BZF d   1       4.913   3.876  -5.886  0.00  0.00    -0.016 A 
ATOM      7  C6  BZF d   1       4.346   2.627  -5.739  0.00  0.00     0.022 A 
ATOM      8  C7  BZF d   1       3.001   2.463  -5.713  0.00  0.00     0.029 A 
ATOM      9  C7A BZF d   1       2.231   3.590  -5.861  0.00  0.00     0.058 A 
ENDROOT
TORSDOF 0
ENDMDL
