MODEL 1
REMARK minimizedAffinity -2.75941133
REMARK minimizedRMSD -1
REMARK  0 active torsions:
REMARK  status: ('A' for Active; 'I' for Inactive)
ROOT
ATOM      1  O1  BZF d   1       2.216   5.999  -5.977  0.00  0.00    -0.204 OA
ATOM      2  C2  BZF d   1       1.005   5.335  -5.959  0.00  0.00     0.174 A 
ATOM      3  C3  BZF d   1       1.190   4.000  -5.995  0.00  0.00    -0.012 A 
ATOM      4  C3A BZF d   1       2.608   3.815  -5.945  0.00  0.00    -0.107 A 
ATOM      5  C4  BZF d   1       3.411   2.711  -5.934  0.00  0.00     0.055 A 
ATOM      6  C5  BZF d   1       4.760   2.875  -5.955  0.00  0.00    -0.016 A 
ATOM      7  C6  BZF d   1       5.339   4.127  -5.992  0.00  0.00     0.022 A 
ATOM      8  C7  BZF d   1       4.583   5.252  -5.999  0.00  0.00     0.029 A 
ATOM      9  C7A BZF d   1       3.220   5.090  -5.944  0.00  0.00     0.058 A 
ENDROOT
TORSDOF 0
ENDMDL
