MODEL 1
REMARK minimizedAffinity -4.61173487
REMARK minimizedRMSD -1
REMARK  0 active torsions:
REMARK  status: ('A' for Active; 'I' for Inactive)
ROOT
ATOM      1  O1  BZF d   1       0.612   3.995  -5.999  0.00  0.00    -0.204 OA
ATOM      2  C2  BZF d   1       0.368   5.349  -5.885  0.00  0.00     0.174 A 
ATOM      3  C3  BZF d   1       1.468   5.999  -5.453  0.00  0.00    -0.012 A 
ATOM      4  C3A BZF d   1       2.489   5.000  -5.374  0.00  0.00    -0.107 A 
ATOM      5  C4  BZF d   1       3.808   5.031  -5.022  0.00  0.00     0.055 A 
ATOM      6  C5  BZF d   1       4.508   3.867  -4.981  0.00  0.00    -0.016 A 
ATOM      7  C6  BZF d   1       3.920   2.655  -5.280  0.00  0.00     0.022 A 
ATOM      8  C7  BZF d   1       2.616   2.575  -5.639  0.00  0.00     0.029 A 
ATOM      9  C7A BZF d   1       1.914   3.753  -5.714  0.00  0.00     0.058 A 
ENDROOT
TORSDOF 0
ENDMDL
