MODEL 1
REMARK minimizedAffinity 1.56210411
REMARK minimizedRMSD -1
REMARK  0 active torsions:
REMARK  status: ('A' for Active; 'I' for Inactive)
ROOT
ATOM      1  O1  BZF d   1       2.075   5.293  -5.201  0.00  0.00    -0.204 OA
ATOM      2  C2  BZF d   1       1.088   4.637  -4.492  0.00  0.00     0.174 A 
ATOM      3  C3  BZF d   1       1.456   3.368  -4.222  0.00  0.00    -0.012 A 
ATOM      4  C3A BZF d   1       2.792   3.250  -4.718  0.00  0.00    -0.107 A 
ATOM      5  C4  BZF d   1       3.703   2.232  -4.731  0.00  0.00     0.055 A 
ATOM      6  C5  BZF d   1       4.893   2.419  -5.359  0.00  0.00    -0.016 A 
ATOM      7  C6  BZF d   1       5.204   3.607  -5.987  0.00  0.00     0.022 A 
ATOM      8  C7  BZF d   1       4.336   4.647  -5.997  0.00  0.00     0.029 A 
ATOM      9  C7A BZF d   1       3.145   4.473  -5.335  0.00  0.00     0.058 A 
ENDROOT
TORSDOF 0
ENDMDL
