MODEL 1
REMARK minimizedAffinity -1.59022641
REMARK minimizedRMSD -1
REMARK  0 active torsions:
REMARK  status: ('A' for Active; 'I' for Inactive)
ROOT
ATOM      1  O1  BZF d   1       2.415   5.991  -5.991  0.00  0.00    -0.204 OA
ATOM      2  C2  BZF d   1       1.135   5.556  -5.709  0.00  0.00     0.174 A 
ATOM      3  C3  BZF d   1       1.133   4.241  -5.408  0.00  0.00    -0.012 A 
ATOM      4  C3A BZF d   1       2.509   3.850  -5.418  0.00  0.00    -0.107 A 
ATOM      5  C4  BZF d   1       3.151   2.669  -5.180  0.00  0.00     0.055 A 
ATOM      6  C5  BZF d   1       4.498   2.604  -5.345  0.00  0.00    -0.016 A 
ATOM      7  C6  BZF d   1       5.233   3.698  -5.752  0.00  0.00     0.022 A 
ATOM      8  C7  BZF d   1       4.641   4.893  -5.996  0.00  0.00     0.029 A 
ATOM      9  C7A BZF d   1       3.284   4.970  -5.798  0.00  0.00     0.058 A 
ENDROOT
TORSDOF 0
ENDMDL
