MODEL 1
REMARK minimizedAffinity -3.09937739
REMARK minimizedRMSD -1
REMARK  0 active torsions:
REMARK  status: ('A' for Active; 'I' for Inactive)
ROOT
ATOM      1  O1  BZF d   1       4.910   3.779  -5.987  0.00  0.00    -0.204 OA
ATOM      2  C2  BZF d   1       4.750   2.418  -5.813  0.00  0.00     0.174 A 
ATOM      3  C3  BZF d   1       3.459   2.116  -5.566  0.00  0.00    -0.012 A 
ATOM      4  C3A BZF d   1       2.754   3.356  -5.680  0.00  0.00    -0.107 A 
ATOM      5  C4  BZF d   1       1.439   3.702  -5.559  0.00  0.00     0.055 A 
ATOM      6  C5  BZF d   1       1.089   5.012  -5.657  0.00  0.00    -0.016 A 
ATOM      7  C6  BZF d   1       2.027   6.000  -5.869  0.00  0.00     0.022 A 
ATOM      8  C7  BZF d   1       3.344   5.705  -6.000  0.00  0.00     0.029 A 
ATOM      9  C7A BZF d   1       3.696   4.379  -5.935  0.00  0.00     0.058 A 
ENDROOT
TORSDOF 0
ENDMDL
