MODEL 1
REMARK minimizedAffinity 1.66485441
REMARK minimizedRMSD -1
REMARK  0 active torsions:
REMARK  status: ('A' for Active; 'I' for Inactive)
ROOT
ATOM      1  O1  BZF d   1       3.208   1.653  -5.997  0.00  0.00    -0.204 OA
ATOM      2  C2  BZF d   1       4.463   1.886  -5.467  0.00  0.00     0.174 A 
ATOM      3  C3  BZF d   1       4.509   3.088  -4.858  0.00  0.00    -0.012 A 
ATOM      4  C3A BZF d   1       3.176   3.602  -4.937  0.00  0.00    -0.107 A 
ATOM      5  C4  BZF d   1       2.585   4.752  -4.497  0.00  0.00     0.055 A 
ATOM      6  C5  BZF d   1       1.281   4.982  -4.800  0.00  0.00    -0.016 A 
ATOM      7  C6  BZF d   1       0.540   4.088  -5.545  0.00  0.00     0.022 A 
ATOM      8  C7  BZF d   1       1.081   2.932  -6.000  0.00  0.00     0.029 A 
ATOM      9  C7A BZF d   1       2.390   2.680  -5.666  0.00  0.00     0.058 A 
ENDROOT
TORSDOF 0
ENDMDL
