MODEL 1
REMARK minimizedAffinity 4.82973051
REMARK minimizedRMSD -1
REMARK  0 active torsions:
REMARK  status: ('A' for Active; 'I' for Inactive)
ROOT
ATOM      1  O1  BZF d   1       4.647  -0.670   2.402  0.00  0.00    -0.204 OA
ATOM      2  C2  BZF d   1       5.954  -0.274   2.191  0.00  0.00     0.174 A 
ATOM      3  C3  BZF d   1       6.000   0.836   1.426  0.00  0.00    -0.012 A 
ATOM      4  C3A BZF d   1       4.634   1.206   1.218  0.00  0.00    -0.107 A 
ATOM      5  C4  BZF d   1       4.031   2.234   0.550  0.00  0.00     0.055 A 
ATOM      6  C5  BZF d   1       2.674   2.268   0.476  0.00  0.00    -0.016 A 
ATOM      7  C6  BZF d   1       1.891   1.290   1.053  0.00  0.00     0.022 A 
ATOM      8  C7  BZF d   1       2.443   0.254   1.731  0.00  0.00     0.029 A 
ATOM      9  C7A BZF d   1       3.813   0.235   1.835  0.00  0.00     0.058 A 
ENDROOT
TORSDOF 0
ENDMDL
