MODEL 1
REMARK minimizedAffinity -2.42984772
REMARK minimizedRMSD -1
REMARK  0 active torsions:
REMARK  status: ('A' for Active; 'I' for Inactive)
ROOT
ATOM      1  O1  BZF d   1       3.523   2.497  -5.804  0.00  0.00    -0.204 OA
ATOM      2  C2  BZF d   1       4.829   2.944  -5.861  0.00  0.00     0.174 A 
ATOM      3  C3  BZF d   1       4.870   4.285  -5.999  0.00  0.00    -0.012 A 
ATOM      4  C3A BZF d   1       3.505   4.711  -5.938  0.00  0.00    -0.107 A 
ATOM      5  C4  BZF d   1       2.900   5.934  -6.000  0.00  0.00     0.055 A 
ATOM      6  C5  BZF d   1       1.542   6.000  -5.983  0.00  0.00    -0.016 A 
ATOM      7  C6  BZF d   1       0.761   4.865  -5.911  0.00  0.00     0.022 A 
ATOM      8  C7  BZF d   1       1.316   3.631  -5.843  0.00  0.00     0.029 A 
ATOM      9  C7A BZF d   1       2.688   3.563  -5.826  0.00  0.00     0.058 A 
ENDROOT
TORSDOF 0
ENDMDL
