MODEL 1
REMARK minimizedAffinity -0.615030348
REMARK minimizedRMSD -1
REMARK  0 active torsions:
REMARK  status: ('A' for Active; 'I' for Inactive)
ROOT
ATOM      1  O1  BZF d   1       4.962   5.621  -5.993  0.00  0.00    -0.204 OA
ATOM      2  C2  BZF d   1       5.999   4.716  -5.877  0.00  0.00     0.174 A 
ATOM      3  C3  BZF d   1       5.526   3.466  -5.696  0.00  0.00    -0.012 A 
ATOM      4  C3A BZF d   1       4.103   3.585  -5.792  0.00  0.00    -0.107 A 
ATOM      5  C4  BZF d   1       3.079   2.686  -5.713  0.00  0.00     0.055 A 
ATOM      6  C5  BZF d   1       1.798   3.136  -5.776  0.00  0.00    -0.016 A 
ATOM      7  C6  BZF d   1       1.506   4.478  -5.911  0.00  0.00     0.022 A 
ATOM      8  C7  BZF d   1       2.489   5.407  -5.998  0.00  0.00     0.029 A 
ATOM      9  C7A BZF d   1       3.785   4.951  -5.968  0.00  0.00     0.058 A 
ENDROOT
TORSDOF 0
ENDMDL
