MODEL 1
REMARK minimizedAffinity -3.4129324
REMARK minimizedRMSD -1
REMARK  0 active torsions:
REMARK  status: ('A' for Active; 'I' for Inactive)
ROOT
ATOM      1  O1  BZF d   1       2.320   5.968  -5.916  0.00  0.00    -0.204 OA
ATOM      2  C2  BZF d   1       1.091   5.337  -5.915  0.00  0.00     0.174 A 
ATOM      3  C3  BZF d   1       1.241   3.999  -5.993  0.00  0.00    -0.012 A 
ATOM      4  C3A BZF d   1       2.654   3.775  -5.953  0.00  0.00    -0.107 A 
ATOM      5  C4  BZF d   1       3.428   2.650  -5.979  0.00  0.00     0.055 A 
ATOM      6  C5  BZF d   1       4.780   2.780  -6.000  0.00  0.00    -0.016 A 
ATOM      7  C6  BZF d   1       5.392   4.016  -6.000  0.00  0.00     0.022 A 
ATOM      8  C7  BZF d   1       4.666   5.160  -5.969  0.00  0.00     0.029 A 
ATOM      9  C7A BZF d   1       3.300   5.033  -5.915  0.00  0.00     0.058 A 
ENDROOT
TORSDOF 0
ENDMDL
