MODEL 1
REMARK minimizedAffinity -2.22653866
REMARK minimizedRMSD -1
REMARK  0 active torsions:
REMARK  status: ('A' for Active; 'I' for Inactive)
ROOT
ATOM      1  O1  BZF d   1       1.819   3.374  -5.448  0.00  0.00    -0.204 OA
ATOM      2  C2  BZF d   1       1.673   4.707  -5.783  0.00  0.00     0.174 A 
ATOM      3  C3  BZF d   1       2.874   5.280  -6.000  0.00  0.00    -0.012 A 
ATOM      4  C3A BZF d   1       3.825   4.219  -5.877  0.00  0.00    -0.107 A 
ATOM      5  C4  BZF d   1       5.184   4.157  -5.999  0.00  0.00     0.055 A 
ATOM      6  C5  BZF d   1       5.818   2.982  -5.745  0.00  0.00    -0.016 A 
ATOM      7  C6  BZF d   1       5.125   1.852  -5.362  0.00  0.00     0.022 A 
ATOM      8  C7  BZF d   1       3.776   1.863  -5.233  0.00  0.00     0.029 A 
ATOM      9  C7A BZF d   1       3.130   3.040  -5.521  0.00  0.00     0.058 A 
ENDROOT
TORSDOF 0
ENDMDL
