MODEL 1
REMARK minimizedAffinity 0.705948532
REMARK minimizedRMSD -1
REMARK  0 active torsions:
REMARK  status: ('A' for Active; 'I' for Inactive)
ROOT
ATOM      1  O1  BZF d   1       1.372   5.122  -3.864  0.00  0.00    -0.204 OA
ATOM      2  C2  BZF d   1       0.573   5.320  -4.974  0.00  0.00     0.174 A 
ATOM      3  C3  BZF d   1       0.978   4.542  -5.999  0.00  0.00    -0.012 A 
ATOM      4  C3A BZF d   1       2.042   3.745  -5.469  0.00  0.00    -0.107 A 
ATOM      5  C4  BZF d   1       2.837   2.770  -5.999  0.00  0.00     0.055 A 
ATOM      6  C5  BZF d   1       3.831   2.242  -5.237  0.00  0.00    -0.016 A 
ATOM      7  C6  BZF d   1       4.061   2.670  -3.946  0.00  0.00     0.022 A 
ATOM      8  C7  BZF d   1       3.295   3.631  -3.375  0.00  0.00     0.029 A 
ATOM      9  C7A BZF d   1       2.268   4.143  -4.131  0.00  0.00     0.058 A 
ENDROOT
TORSDOF 0
ENDMDL
