MODEL 1
REMARK minimizedAffinity -0.859095573
REMARK minimizedRMSD -1
REMARK  0 active torsions:
REMARK  status: ('A' for Active; 'I' for Inactive)
ROOT
ATOM      1  O1  BZF d   1       1.377   3.377  -5.157  0.00  0.00    -0.204 OA
ATOM      2  C2  BZF d   1       0.752   4.510  -5.640  0.00  0.00     0.174 A 
ATOM      3  C3  BZF d   1       1.659   5.442  -5.996  0.00  0.00    -0.012 A 
ATOM      4  C3A BZF d   1       2.933   4.820  -5.804  0.00  0.00    -0.107 A 
ATOM      5  C4  BZF d   1       4.219   5.235  -5.999  0.00  0.00     0.055 A 
ATOM      6  C5  BZF d   1       5.240   4.411  -5.645  0.00  0.00    -0.016 A 
ATOM      7  C6  BZF d   1       5.011   3.170  -5.088  0.00  0.00     0.022 A 
ATOM      8  C7  BZF d   1       3.753   2.713  -4.879  0.00  0.00     0.029 A 
ATOM      9  C7A BZF d   1       2.719   3.529  -5.267  0.00  0.00     0.058 A 
ENDROOT
TORSDOF 0
ENDMDL
