MODEL 1
REMARK minimizedAffinity 5.69529343
REMARK minimizedRMSD -1
REMARK  0 active torsions:
REMARK  status: ('A' for Active; 'I' for Inactive)
ROOT
ATOM      1  C   UNL d   1       2.017  -2.935  -0.317  0.00  0.00     0.078 C 
ATOM      2  C1  UNL d   1       1.280  -1.938   0.526  0.00  0.00    -0.077 A 
ATOM      3  C2  UNL d   1      -0.035  -2.178   0.943  0.00  0.00    -0.001 A 
ATOM      4  C3  UNL d   1      -0.713  -1.236   1.719  0.00  0.00     0.003 A 
ATOM      5  C4  UNL d   1      -0.084  -0.048   2.085  0.00  0.00    -0.005 A 
ATOM      6  C5  UNL d   1       1.224   0.201   1.673  0.00  0.00     0.003 A 
ATOM      7  C6  UNL d   1       1.903  -0.740   0.897  0.00  0.00    -0.001 A 
ENDROOT
TORSDOF 0
ENDMDL
