MODEL 1
REMARK minimizedAffinity -1.51080596
REMARK minimizedRMSD -1
REMARK  0 active torsions:
REMARK  status: ('A' for Active; 'I' for Inactive)
ROOT
ATOM      1  C   UNL d   1       2.194  -4.619   0.873  0.00  0.00     0.078 C 
ATOM      2  C1  UNL d   1       1.498  -3.291   0.854  0.00  0.00    -0.077 A 
ATOM      3  C2  UNL d   1       0.585  -2.941   1.855  0.00  0.00    -0.001 A 
ATOM      4  C3  UNL d   1      -0.063  -1.705   1.820  0.00  0.00     0.003 A 
ATOM      5  C4  UNL d   1       0.196  -0.809   0.785  0.00  0.00    -0.005 A 
ATOM      6  C5  UNL d   1       1.102  -1.149  -0.218  0.00  0.00     0.003 A 
ATOM      7  C6  UNL d   1       1.750  -2.385  -0.184  0.00  0.00    -0.001 A 
ENDROOT
TORSDOF 0
ENDMDL
