MODEL 1
REMARK minimizedAffinity 6.14955044
REMARK minimizedRMSD -1
REMARK  0 active torsions:
REMARK  status: ('A' for Active; 'I' for Inactive)
ROOT
ATOM      1  C   UNL d   1       2.530  -3.097   0.106  0.00  0.00     0.078 C 
ATOM      2  C1  UNL d   1       1.511  -2.223   0.774  0.00  0.00    -0.077 A 
ATOM      3  C2  UNL d   1       0.176  -2.629   0.888  0.00  0.00    -0.001 A 
ATOM      4  C3  UNL d   1      -0.764  -1.802   1.504  0.00  0.00     0.003 A 
ATOM      5  C4  UNL d   1      -0.379  -0.562   2.010  0.00  0.00    -0.005 A 
ATOM      6  C5  UNL d   1       0.947  -0.148   1.900  0.00  0.00     0.003 A 
ATOM      7  C6  UNL d   1       1.888  -0.974   1.284  0.00  0.00    -0.001 A 
ENDROOT
TORSDOF 0
ENDMDL
