MODEL 1
REMARK minimizedAffinity 1.88910663
REMARK minimizedRMSD -1
REMARK  0 active torsions:
REMARK  status: ('A' for Active; 'I' for Inactive)
ROOT
ATOM      1  C   UNL d   1      -0.240  -0.385   1.764  0.00  0.00     0.078 C 
ATOM      2  C1  UNL d   1       0.363  -1.657   1.247  0.00  0.00    -0.077 A 
ATOM      3  C2  UNL d   1       1.585  -1.649   0.563  0.00  0.00    -0.001 A 
ATOM      4  C3  UNL d   1       2.130  -2.840   0.078  0.00  0.00     0.003 A 
ATOM      5  C4  UNL d   1       1.459  -4.046   0.271  0.00  0.00    -0.005 A 
ATOM      6  C5  UNL d   1       0.241  -4.062   0.948  0.00  0.00     0.003 A 
ATOM      7  C6  UNL d   1      -0.305  -2.873   1.434  0.00  0.00    -0.001 A 
ENDROOT
TORSDOF 0
ENDMDL
