MODEL 1
REMARK minimizedAffinity -0.942150831
REMARK minimizedRMSD -1
REMARK  0 active torsions:
REMARK  status: ('A' for Active; 'I' for Inactive)
ROOT
ATOM      1  C   UNL d   1       1.289  -0.503   0.220  0.00  0.00     0.078 C 
ATOM      2  C1  UNL d   1       0.788  -1.662   1.029  0.00  0.00    -0.077 A 
ATOM      3  C2  UNL d   1       1.393  -2.922   0.936  0.00  0.00    -0.001 A 
ATOM      4  C3  UNL d   1       0.909  -3.994   1.688  0.00  0.00     0.003 A 
ATOM      5  C4  UNL d   1      -0.181  -3.818   2.537  0.00  0.00    -0.005 A 
ATOM      6  C5  UNL d   1      -0.790  -2.569   2.635  0.00  0.00     0.003 A 
ATOM      7  C6  UNL d   1      -0.309  -1.496   1.884  0.00  0.00    -0.001 A 
ENDROOT
TORSDOF 0
ENDMDL
