MODEL 1
REMARK minimizedAffinity -0.647863567
REMARK minimizedRMSD -1
REMARK  0 active torsions:
REMARK  status: ('A' for Active; 'I' for Inactive)
ROOT
ATOM      1  C   UNL d   1      -5.978   0.199  -6.000  0.00  0.00     0.078 C 
ATOM      2  C1  UNL d   1      -4.835  -0.770  -5.937  0.00  0.00    -0.077 A 
ATOM      3  C2  UNL d   1      -5.062  -2.149  -5.847  0.00  0.00    -0.001 A 
ATOM      4  C3  UNL d   1      -3.989  -3.039  -5.779  0.00  0.00     0.003 A 
ATOM      5  C4  UNL d   1      -2.681  -2.559  -5.801  0.00  0.00    -0.005 A 
ATOM      6  C5  UNL d   1      -2.444  -1.189  -5.889  0.00  0.00     0.003 A 
ATOM      7  C6  UNL d   1      -3.517  -0.298  -5.956  0.00  0.00    -0.001 A 
ENDROOT
TORSDOF 0
ENDMDL
