MODEL 1
REMARK minimizedAffinity 5.53258419
REMARK minimizedRMSD -1
REMARK  0 active torsions:
REMARK  status: ('A' for Active; 'I' for Inactive)
ROOT
ATOM      1  C2' OXE d   1       1.699  -1.176   2.821  0.00  0.00     0.078 C 
ATOM      2  C1' OXE d   1       4.392  -0.890   2.083  0.00  0.00     0.078 C 
ATOM      3  C1  OXE d   1       3.409   0.130   1.565  0.00  0.00    -0.078 A 
ATOM      4  C2  OXE d   1       2.086  -0.044   1.893  0.00  0.00    -0.078 A 
ATOM      5  C3  OXE d   1       1.145   0.898   1.487  0.00  0.00     0.003 A 
ATOM      6  C4  OXE d   1       1.510   1.936   0.621  0.00  0.00    -0.002 A 
ATOM      7  C5  OXE d   1       2.846   2.108   0.243  0.00  0.00    -0.002 A 
ATOM      8  C6  OXE d   1       3.812   1.241   0.739  0.00  0.00     0.003 A 
ENDROOT
TORSDOF 0
ENDMDL
