MODEL 1
REMARK minimizedAffinity 2.38093519
REMARK minimizedRMSD -1
REMARK  0 active torsions:
REMARK  status: ('A' for Active; 'I' for Inactive)
ROOT
ATOM      1  C2' OXE d   1       5.399  -5.999  -4.637  0.00  0.00     0.078 C 
ATOM      2  C1' OXE d   1       2.803  -5.627  -5.640  0.00  0.00     0.078 C 
ATOM      3  C1  OXE d   1       2.975  -5.704  -4.143  0.00  0.00    -0.078 A 
ATOM      4  C2  OXE d   1       4.242  -5.933  -3.664  0.00  0.00    -0.078 A 
ATOM      5  C3  OXE d   1       4.465  -5.958  -2.290  0.00  0.00     0.003 A 
ATOM      6  C4  OXE d   1       3.388  -5.906  -1.396  0.00  0.00    -0.002 A 
ATOM      7  C5  OXE d   1       2.085  -5.713  -1.866  0.00  0.00    -0.002 A 
ATOM      8  C6  OXE d   1       1.867  -5.568  -3.231  0.00  0.00     0.003 A 
ENDROOT
TORSDOF 0
ENDMDL
