MODEL 1
REMARK minimizedAffinity 14.5853281
REMARK minimizedRMSD -1
REMARK  0 active torsions:
REMARK  status: ('A' for Active; 'I' for Inactive)
ROOT
ATOM      1  C2' OXE d   1      -3.023   2.847   0.619  0.00  0.00     0.078 C 
ATOM      2  C1' OXE d   1      -2.084   0.212   0.387  0.00  0.00     0.078 C 
ATOM      3  C1  OXE d   1      -2.628   0.877  -0.853  0.00  0.00    -0.078 A 
ATOM      4  C2  OXE d   1      -3.128   2.149  -0.720  0.00  0.00    -0.078 A 
ATOM      5  C3  OXE d   1      -3.592   2.828  -1.843  0.00  0.00     0.003 A 
ATOM      6  C4  OXE d   1      -3.695   2.172  -3.076  0.00  0.00    -0.002 A 
ATOM      7  C5  OXE d   1      -3.228   0.862  -3.224  0.00  0.00    -0.002 A 
ATOM      8  C6  OXE d   1      -2.653   0.216  -2.135  0.00  0.00     0.003 A 
ENDROOT
TORSDOF 0
ENDMDL
