MODEL 1
REMARK minimizedAffinity 5.66122532
REMARK minimizedRMSD -1
REMARK  0 active torsions:
REMARK  status: ('A' for Active; 'I' for Inactive)
ROOT
ATOM      1  C2' OXE d   1       2.705  -5.641   2.171  0.00  0.00     0.078 C 
ATOM      2  C1' OXE d   1       1.895  -4.317   4.510  0.00  0.00     0.078 C 
ATOM      3  C1  OXE d   1       3.339  -4.190   4.095  0.00  0.00    -0.078 A 
ATOM      4  C2  OXE d   1       3.737  -4.879   2.975  0.00  0.00    -0.078 A 
ATOM      5  C3  OXE d   1       5.046  -4.753   2.517  0.00  0.00     0.003 A 
ATOM      6  C4  OXE d   1       5.997  -4.055   3.271  0.00  0.00    -0.002 A 
ATOM      7  C5  OXE d   1       5.621  -3.378   4.436  0.00  0.00    -0.002 A 
ATOM      8  C6  OXE d   1       4.290  -3.401   4.838  0.00  0.00     0.003 A 
ENDROOT
TORSDOF 0
ENDMDL
