MODEL 1
REMARK minimizedAffinity 4.3887887
REMARK minimizedRMSD -1
REMARK  0 active torsions:
REMARK  status: ('A' for Active; 'I' for Inactive)
ROOT
ATOM      1  C2' OXE d   1       2.704  -4.089   5.272  0.00  0.00     0.078 C 
ATOM      2  C1' OXE d   1       4.925  -3.231   3.786  0.00  0.00     0.078 C 
ATOM      3  C1  OXE d   1       3.581  -2.636   3.449  0.00  0.00    -0.078 A 
ATOM      4  C2  OXE d   1       2.492  -3.096   4.150  0.00  0.00    -0.078 A 
ATOM      5  C3  OXE d   1       1.238  -2.541   3.917  0.00  0.00     0.003 A 
ATOM      6  C4  OXE d   1       1.049  -1.630   2.870  0.00  0.00    -0.002 A 
ATOM      7  C5  OXE d   1       2.138  -1.177   2.118  0.00  0.00    -0.002 A 
ATOM      8  C6  OXE d   1       3.414  -1.638   2.422  0.00  0.00     0.003 A 
ENDROOT
TORSDOF 0
ENDMDL
