MODEL 1
REMARK minimizedAffinity 11.188448
REMARK minimizedRMSD -1
REMARK  0 active torsions:
REMARK  status: ('A' for Active; 'I' for Inactive)
ROOT
ATOM      1  C2' OXE d   1       3.805  -3.224   4.348  0.00  0.00     0.078 C 
ATOM      2  C1' OXE d   1       1.157  -4.149   4.228  0.00  0.00     0.078 C 
ATOM      3  C1  OXE d   1       1.520  -2.945   3.395  0.00  0.00    -0.078 A 
ATOM      4  C2  OXE d   1       2.806  -2.472   3.496  0.00  0.00    -0.078 A 
ATOM      5  C3  OXE d   1       3.209  -1.397   2.708  0.00  0.00     0.003 A 
ATOM      6  C4  OXE d   1       2.276  -0.700   1.929  0.00  0.00    -0.002 A 
ATOM      7  C5  OXE d   1       0.952  -1.142   1.843  0.00  0.00    -0.002 A 
ATOM      8  C6  OXE d   1       0.569  -2.286   2.535  0.00  0.00     0.003 A 
ENDROOT
TORSDOF 0
ENDMDL
