MODEL 1
REMARK minimizedAffinity 3.94893098
REMARK minimizedRMSD -1
REMARK  0 active torsions:
REMARK  status: ('A' for Active; 'I' for Inactive)
ROOT
ATOM      1  C2' OXE d   1      -3.384   2.066  -0.596  0.00  0.00     0.078 C 
ATOM      2  C1' OXE d   1      -5.647   3.724  -0.509  0.00  0.00     0.078 C 
ATOM      3  C1  OXE d   1      -5.248   3.147  -1.844  0.00  0.00    -0.078 A 
ATOM      4  C2  OXE d   1      -4.113   2.375  -1.886  0.00  0.00    -0.078 A 
ATOM      5  C3  OXE d   1      -3.731   1.774  -3.082  0.00  0.00     0.003 A 
ATOM      6  C4  OXE d   1      -4.405   2.073  -4.272  0.00  0.00    -0.002 A 
ATOM      7  C5  OXE d   1      -5.541   2.889  -4.259  0.00  0.00    -0.002 A 
ATOM      8  C6  OXE d   1      -6.000   3.399  -3.049  0.00  0.00     0.003 A 
ENDROOT
TORSDOF 0
ENDMDL
