MODEL 1
REMARK minimizedAffinity 12.3930025
REMARK minimizedRMSD -1
REMARK  1 active torsions:
REMARK  status: ('A' for Active; 'I' for Inactive)
REMARK    1  A    between atoms: C1_2  and  C2_3 
ROOT
ATOM      1  C2  UNL d   1       3.928  -1.611   0.206  0.00  0.00    -0.073 A 
ATOM      2  C3  UNL d   1       4.293  -0.386   0.776  0.00  0.00    -0.002 A 
ATOM      3  C4  UNL d   1       3.646   0.790   0.393  0.00  0.00     0.004 A 
ATOM      4  C5  UNL d   1       2.625   0.752  -0.557  0.00  0.00    -0.004 A 
ATOM      5  C6  UNL d   1       2.238  -0.464  -1.128  0.00  0.00    -0.075 A 
ATOM      6  C7  UNL d   1       1.143  -0.522  -2.153  0.00  0.00     0.076 C 
ATOM      7  C8  UNL d   1       2.894  -1.640  -0.740  0.00  0.00     0.001 A 
ENDROOT
BRANCH   1   8
ATOM      8  C1  UNL d   1       4.619  -2.884   0.622  0.00  0.00     0.053 C 
ATOM      9  C   UNL d   1       6.000  -3.012  -0.002  0.00  0.00     0.018 C 
ENDBRANCH   1   8
TORSDOF 1
ENDMDL
