MODEL 1
REMARK minimizedAffinity 7.52017117
REMARK minimizedRMSD -1
REMARK  1 active torsions:
REMARK  status: ('A' for Active; 'I' for Inactive)
REMARK    1  A    between atoms: C1_2  and  C2_3 
ROOT
ATOM      1  C2  UNL d   1       3.635  -1.418   0.190  0.00  0.00    -0.073 A 
ATOM      2  C3  UNL d   1       3.834  -0.256   0.944  0.00  0.00    -0.002 A 
ATOM      3  C4  UNL d   1       3.184   0.930   0.598  0.00  0.00     0.004 A 
ATOM      4  C5  UNL d   1       2.324   0.964  -0.500  0.00  0.00    -0.004 A 
ATOM      5  C6  UNL d   1       2.103  -0.190  -1.259  0.00  0.00    -0.075 A 
ATOM      6  C7  UNL d   1       1.183  -0.170  -2.444  0.00  0.00     0.076 C 
ATOM      7  C8  UNL d   1       2.762  -1.376  -0.907  0.00  0.00     0.001 A 
ENDROOT
BRANCH   1   8
ATOM      8  C1  UNL d   1       4.331  -2.701   0.563  0.00  0.00     0.053 C 
ATOM      9  C   UNL d   1       5.791  -2.703   0.140  0.00  0.00     0.018 C 
ENDBRANCH   1   8
TORSDOF 1
ENDMDL
