MODEL 1
REMARK minimizedAffinity 14.9477711
REMARK minimizedRMSD -1
REMARK  1 active torsions:
REMARK  status: ('A' for Active; 'I' for Inactive)
REMARK    1  A    between atoms: C1_2  and  C2_3 
ROOT
ATOM      1  C2  UNL d   1       3.596  -1.116  -0.337  0.00  0.00    -0.073 A 
ATOM      2  C3  UNL d   1       4.289  -0.016   0.179  0.00  0.00    -0.002 A 
ATOM      3  C4  UNL d   1       4.106   1.254  -0.371  0.00  0.00     0.004 A 
ATOM      4  C5  UNL d   1       3.225   1.437  -1.436  0.00  0.00    -0.004 A 
ATOM      5  C6  UNL d   1       2.514   0.351  -1.958  0.00  0.00    -0.075 A 
ATOM      6  C7  UNL d   1       1.563   0.531  -3.105  0.00  0.00     0.076 C 
ATOM      7  C8  UNL d   1       2.705  -0.921  -1.402  0.00  0.00     0.001 A 
ENDROOT
BRANCH   1   8
ATOM      8  C1  UNL d   1       3.786  -2.488   0.258  0.00  0.00     0.053 C 
ATOM      9  C   UNL d   1       5.254  -2.871   0.351  0.00  0.00     0.018 C 
ENDBRANCH   1   8
TORSDOF 1
ENDMDL
