MODEL 1
REMARK minimizedAffinity 15.8053455
REMARK minimizedRMSD -1
REMARK  1 active torsions:
REMARK  status: ('A' for Active; 'I' for Inactive)
REMARK    1  A    between atoms: C1_2  and  C2_3 
ROOT
ATOM      1  C2  UNL d   1       0.867  -2.794  -2.331  0.00  0.00    -0.073 A 
ATOM      2  C3  UNL d   1       0.595  -1.421  -2.324  0.00  0.00    -0.002 A 
ATOM      3  C4  UNL d   1       1.246  -0.578  -1.422  0.00  0.00     0.004 A 
ATOM      4  C5  UNL d   1       2.179  -1.097  -0.524  0.00  0.00    -0.004 A 
ATOM      5  C6  UNL d   1       2.472  -2.465  -0.524  0.00  0.00    -0.075 A 
ATOM      6  C7  UNL d   1       3.471  -3.039   0.438  0.00  0.00     0.076 C 
ATOM      7  C8  UNL d   1       1.813  -3.305  -1.431  0.00  0.00     0.001 A 
ENDROOT
BRANCH   1   8
ATOM      8  C1  UNL d   1       0.171  -3.707  -3.307  0.00  0.00     0.053 C 
ATOM      9  C   UNL d   1      -1.241  -4.050  -2.860  0.00  0.00     0.018 C 
ENDBRANCH   1   8
TORSDOF 1
ENDMDL
