MODEL 1
REMARK minimizedAffinity 9.56670666
REMARK minimizedRMSD -1
REMARK  1 active torsions:
REMARK  status: ('A' for Active; 'I' for Inactive)
REMARK    1  A    between atoms: C1_2  and  C2_3 
ROOT
ATOM      1  C2  UNL d   1       1.861   0.858   0.329  0.00  0.00    -0.073 A 
ATOM      2  C3  UNL d   1       2.265   1.294  -0.938  0.00  0.00    -0.002 A 
ATOM      3  C4  UNL d   1       2.605   0.369  -1.926  0.00  0.00     0.004 A 
ATOM      4  C5  UNL d   1       2.538  -0.998  -1.661  0.00  0.00    -0.004 A 
ATOM      5  C6  UNL d   1       2.125  -1.454  -0.405  0.00  0.00    -0.075 A 
ATOM      6  C7  UNL d   1       2.050  -2.922  -0.103  0.00  0.00     0.076 C 
ATOM      7  C8  UNL d   1       1.788  -0.519   0.583  0.00  0.00     0.001 A 
ENDROOT
BRANCH   1   8
ATOM      8  C1  UNL d   1       1.486   1.852   1.397  0.00  0.00     0.053 C 
ATOM      9  C   UNL d   1       0.301   1.381   2.225  0.00  0.00     0.018 C 
ENDBRANCH   1   8
TORSDOF 1
ENDMDL
