MODEL 1
REMARK minimizedAffinity 6.73165703
REMARK minimizedRMSD -1
REMARK  1 active torsions:
REMARK  status: ('A' for Active; 'I' for Inactive)
REMARK    1  A    between atoms: C1_2  and  C2_3 
ROOT
ATOM      1  C2  UNL d   1       0.362   1.338   1.930  0.00  0.00    -0.073 A 
ATOM      2  C3  UNL d   1       1.609   1.830   2.331  0.00  0.00    -0.002 A 
ATOM      3  C4  UNL d   1       2.749   1.562   1.573  0.00  0.00     0.004 A 
ATOM      4  C5  UNL d   1       2.654   0.807   0.404  0.00  0.00    -0.004 A 
ATOM      5  C6  UNL d   1       1.414   0.317  -0.020  0.00  0.00    -0.075 A 
ATOM      6  C7  UNL d   1       1.295  -0.499  -1.274  0.00  0.00     0.076 C 
ATOM      7  C8  UNL d   1       0.274   0.588   0.748  0.00  0.00     0.001 A 
ENDROOT
BRANCH   1   8
ATOM      8  C1  UNL d   1      -0.874   1.631   2.742  0.00  0.00     0.053 C 
ATOM      9  C   UNL d   1      -2.145   1.236   2.008  0.00  0.00     0.018 C 
ENDBRANCH   1   8
TORSDOF 1
ENDMDL
