MODEL 1
REMARK minimizedAffinity -6.33743811
REMARK minimizedRMSD -1
REMARK  2 active torsions:
REMARK  status: ('A' for Active; 'I' for Inactive)
REMARK    1  A    between atoms: C2'_3  and  C1'_4 
REMARK    2  A    between atoms: C1'_4  and  C1_5 
ROOT
ATOM      1  C1  I4B d   1      -0.014  -0.226  -0.257  0.00  0.00    -0.075 A 
ATOM      2  C2  I4B d   1       1.036   0.603  -0.562  0.00  0.00     0.003 A 
ATOM      3  C3  I4B d   1       1.283   1.758   0.219  0.00  0.00     0.002 A 
ATOM      4  C4  I4B d   1       0.430   2.070   1.258  0.00  0.00    -0.004 A 
ATOM      5  C5  I4B d   1      -0.621   1.216   1.580  0.00  0.00     0.002 A 
ATOM      6  C6  I4B d   1      -0.838   0.054   0.826  0.00  0.00     0.003 A 
ENDROOT
BRANCH   1   7
ATOM      7  C1' I4B d   1      -0.266  -1.420  -1.123  0.00  0.00     0.060 C 
BRANCH   7   8
ATOM      8  C2' I4B d   1      -1.655  -1.284  -1.713  0.00  0.00    -0.013 C 
ATOM      9  C4' I4B d   1      -1.594  -0.888  -3.164  0.00  0.00     0.013 C 
ATOM     10  C3' I4B d   1      -2.361  -2.595  -1.539  0.00  0.00     0.013 C 
ENDBRANCH   7   8
ENDBRANCH   1   7
TORSDOF 2
ENDMDL
