MODEL 1
REMARK minimizedAffinity -4.59204769
REMARK minimizedRMSD -1
REMARK  2 active torsions:
REMARK  status: ('A' for Active; 'I' for Inactive)
REMARK    1  A    between atoms: C2'_3  and  C1'_4 
REMARK    2  A    between atoms: C1'_4  and  C1_5 
ROOT
ATOM      1  C1  I4B d   1       0.216  -0.157  -0.077  0.00  0.00    -0.075 A 
ATOM      2  C2  I4B d   1      -0.571   0.024   1.032  0.00  0.00     0.003 A 
ATOM      3  C3  I4B d   1      -0.393   1.163   1.855  0.00  0.00     0.002 A 
ATOM      4  C4  I4B d   1       0.610   2.063   1.561  0.00  0.00    -0.004 A 
ATOM      5  C5  I4B d   1       1.393   1.890   0.423  0.00  0.00     0.002 A 
ATOM      6  C6  I4B d   1       1.187   0.780  -0.409  0.00  0.00     0.003 A 
ENDROOT
BRANCH   1   7
ATOM      7  C1' I4B d   1       0.023  -1.388  -0.905  0.00  0.00     0.060 C 
BRANCH   7   8
ATOM      8  C2' I4B d   1      -1.250  -1.215  -1.708  0.00  0.00    -0.013 C 
ATOM      9  C4' I4B d   1      -0.958  -1.130  -3.183  0.00  0.00     0.013 C 
ATOM     10  C3' I4B d   1      -2.152  -2.374  -1.401  0.00  0.00     0.013 C 
ENDBRANCH   7   8
ENDBRANCH   1   7
TORSDOF 2
ENDMDL
