MODEL 1
REMARK minimizedAffinity -6.44064903
REMARK minimizedRMSD -1
REMARK  2 active torsions:
REMARK  status: ('A' for Active; 'I' for Inactive)
REMARK    1  A    between atoms: C2'_3  and  C1'_4 
REMARK    2  A    between atoms: C1'_4  and  C1_5 
ROOT
ATOM      1  C1  I4B d   1       0.008   0.028  -0.005  0.00  0.00    -0.075 A 
ATOM      2  C2  I4B d   1      -0.773   0.257   1.101  0.00  0.00     0.003 A 
ATOM      3  C3  I4B d   1      -0.675   1.483   1.801  0.00  0.00     0.002 A 
ATOM      4  C4  I4B d   1       0.247   2.427   1.395  0.00  0.00    -0.004 A 
ATOM      5  C5  I4B d   1       1.021   2.202   0.260  0.00  0.00     0.002 A 
ATOM      6  C6  I4B d   1       0.893   1.001  -0.451  0.00  0.00     0.003 A 
ENDROOT
BRANCH   1   7
ATOM      7  C1' I4B d   1      -0.097  -1.292  -0.701  0.00  0.00     0.060 C 
BRANCH   7   8
ATOM      8  C2' I4B d   1      -1.034  -1.124  -1.880  0.00  0.00    -0.013 C 
ATOM      9  C4' I4B d   1      -0.290  -1.223  -3.186  0.00  0.00     0.013 C 
ATOM     10  C3' I4B d   1      -2.097  -2.177  -1.781  0.00  0.00     0.013 C 
ENDBRANCH   7   8
ENDBRANCH   1   7
TORSDOF 2
ENDMDL
