MODEL 1
REMARK minimizedAffinity -3.63154316
REMARK minimizedRMSD -1
REMARK  2 active torsions:
REMARK  status: ('A' for Active; 'I' for Inactive)
REMARK    1  A    between atoms: C2'_3  and  C1'_4 
REMARK    2  A    between atoms: C1'_4  and  C1_5 
ROOT
ATOM      1  C1  I4B d   1      -0.139   0.545   0.485  0.00  0.00    -0.075 A 
ATOM      2  C2  I4B d   1      -0.705  -0.023   1.599  0.00  0.00     0.003 A 
ATOM      3  C3  I4B d   1      -0.330   0.416   2.892  0.00  0.00     0.002 A 
ATOM      4  C4  I4B d   1       0.644   1.385   3.025  0.00  0.00    -0.004 A 
ATOM      5  C5  I4B d   1       1.200   1.976   1.894  0.00  0.00     0.002 A 
ATOM      6  C6  I4B d   1       0.797   1.563   0.616  0.00  0.00     0.003 A 
ENDROOT
BRANCH   1   7
ATOM      7  C1' I4B d   1      -0.534   0.034  -0.864  0.00  0.00     0.060 C 
BRANCH   7   8
ATOM      8  C2' I4B d   1      -0.465  -1.479  -0.829  0.00  0.00    -0.013 C 
ATOM      9  C4' I4B d   1      -1.407  -2.092  -1.831  0.00  0.00     0.013 C 
ATOM     10  C3' I4B d   1       0.954  -1.884  -1.101  0.00  0.00     0.013 C 
ENDBRANCH   7   8
ENDBRANCH   1   7
TORSDOF 2
ENDMDL
