MODEL 1
REMARK minimizedAffinity -4.40305948
REMARK minimizedRMSD -1
REMARK  2 active torsions:
REMARK  status: ('A' for Active; 'I' for Inactive)
REMARK    1  A    between atoms: C2'_3  and  C1'_4 
REMARK    2  A    between atoms: C1'_4  and  C1_5 
ROOT
ATOM      1  C1  I4B d   1      -0.126  -0.118  -0.189  0.00  0.00    -0.075 A 
ATOM      2  C2  I4B d   1       0.946   0.684  -0.490  0.00  0.00     0.003 A 
ATOM      3  C3  I4B d   1       1.199   1.851   0.270  0.00  0.00     0.002 A 
ATOM      4  C4  I4B d   1       0.331   2.203   1.283  0.00  0.00    -0.004 A 
ATOM      5  C5  I4B d   1      -0.742   1.377   1.602  0.00  0.00     0.002 A 
ATOM      6  C6  I4B d   1      -0.966   0.202   0.870  0.00  0.00     0.003 A 
ENDROOT
BRANCH   1   7
ATOM      7  C1' I4B d   1      -0.382  -1.326  -1.034  0.00  0.00     0.060 C 
BRANCH   7   8
ATOM      8  C2' I4B d   1      -1.685  -1.108  -1.777  0.00  0.00    -0.013 C 
ATOM      9  C4' I4B d   1      -1.469  -1.116  -3.268  0.00  0.00     0.013 C 
ATOM     10  C3' I4B d   1      -2.641  -2.186  -1.363  0.00  0.00     0.013 C 
ENDBRANCH   7   8
ENDBRANCH   1   7
TORSDOF 2
ENDMDL
