MODEL 1
REMARK minimizedAffinity -5.69187498
REMARK minimizedRMSD -1
REMARK  2 active torsions:
REMARK  status: ('A' for Active; 'I' for Inactive)
REMARK    1  A    between atoms: C2'_3  and  C1'_4 
REMARK    2  A    between atoms: C1'_4  and  C1_5 
ROOT
ATOM      1  C1  I4B d   1      -0.492   0.031  -0.569  0.00  0.00    -0.075 A 
ATOM      2  C2  I4B d   1       0.657   0.160   0.171  0.00  0.00     0.003 A 
ATOM      3  C3  I4B d   1       0.636   0.851   1.407  0.00  0.00     0.002 A 
ATOM      4  C4  I4B d   1      -0.537   1.437   1.837  0.00  0.00    -0.004 A 
ATOM      5  C5  I4B d   1      -1.706   1.287   1.097  0.00  0.00     0.002 A 
ATOM      6  C6  I4B d   1      -1.687   0.569  -0.107  0.00  0.00     0.003 A 
ENDROOT
BRANCH   1   7
ATOM      7  C1' I4B d   1      -0.427  -0.677  -1.885  0.00  0.00     0.060 C 
BRANCH   7   8
ATOM      8  C2' I4B d   1      -1.629  -1.593  -1.982  0.00  0.00    -0.013 C 
ATOM      9  C4' I4B d   1      -2.280  -1.497  -3.337  0.00  0.00     0.013 C 
ATOM     10  C3' I4B d   1      -1.169  -2.992  -1.701  0.00  0.00     0.013 C 
ENDBRANCH   7   8
ENDBRANCH   1   7
TORSDOF 2
ENDMDL
