MODEL 1
REMARK minimizedAffinity -5.51086569
REMARK minimizedRMSD -1
REMARK  2 active torsions:
REMARK  status: ('A' for Active; 'I' for Inactive)
REMARK    1  A    between atoms: C2'_3  and  C1'_4 
REMARK    2  A    between atoms: C1'_4  and  C1_5 
ROOT
ATOM      1  C1  I4B d   1       0.089   0.621   0.263  0.00  0.00    -0.075 A 
ATOM      2  C2  I4B d   1       1.071   1.171  -0.522  0.00  0.00     0.003 A 
ATOM      3  C3  I4B d   1       2.128   1.904   0.069  0.00  0.00     0.002 A 
ATOM      4  C4  I4B d   1       2.137   2.105   1.434  0.00  0.00    -0.004 A 
ATOM      5  C5  I4B d   1       1.153   1.527   2.231  0.00  0.00     0.002 A 
ATOM      6  C6  I4B d   1       0.129   0.770   1.643  0.00  0.00     0.003 A 
ENDROOT
BRANCH   1   7
ATOM      7  C1' I4B d   1      -1.031  -0.120  -0.397  0.00  0.00     0.060 C 
BRANCH   7   8
ATOM      8  C2' I4B d   1      -0.426  -1.113  -1.367  0.00  0.00    -0.013 C 
ATOM      9  C4' I4B d   1       0.360  -2.174  -0.642  0.00  0.00     0.013 C 
ATOM     10  C3' I4B d   1      -1.541  -1.717  -2.167  0.00  0.00     0.013 C 
ENDBRANCH   7   8
ENDBRANCH   1   7
TORSDOF 2
ENDMDL
