MODEL 1
REMARK minimizedAffinity -4.82240295
REMARK minimizedRMSD -1
REMARK  2 active torsions:
REMARK  status: ('A' for Active; 'I' for Inactive)
REMARK    1  A    between atoms: C2'_3  and  C1'_4 
REMARK    2  A    between atoms: C1'_4  and  C1_5 
ROOT
ATOM      1  C1  I4B d   1       0.014  -0.116  -0.171  0.00  0.00    -0.075 A 
ATOM      2  C2  I4B d   1       1.119   0.681  -0.329  0.00  0.00     0.003 A 
ATOM      3  C3  I4B d   1       1.308   1.812   0.503  0.00  0.00     0.002 A 
ATOM      4  C4  I4B d   1       0.347   2.134   1.440  0.00  0.00    -0.004 A 
ATOM      5  C5  I4B d   1      -0.762   1.311   1.614  0.00  0.00     0.002 A 
ATOM      6  C6  I4B d   1      -0.924   0.172   0.812  0.00  0.00     0.003 A 
ENDROOT
BRANCH   1   7
ATOM      7  C1' I4B d   1      -0.171  -1.283  -1.088  0.00  0.00     0.060 C 
BRANCH   7   8
ATOM      8  C2' I4B d   1      -1.452  -1.067  -1.867  0.00  0.00    -0.013 C 
ATOM      9  C4' I4B d   1      -1.167  -0.775  -3.316  0.00  0.00     0.013 C 
ATOM     10  C3' I4B d   1      -2.297  -2.297  -1.718  0.00  0.00     0.013 C 
ENDBRANCH   7   8
ENDBRANCH   1   7
TORSDOF 2
ENDMDL
