MODEL 1
REMARK minimizedAffinity -2.69978642
REMARK minimizedRMSD -1
REMARK  2 active torsions:
REMARK  status: ('A' for Active; 'I' for Inactive)
REMARK    1  A    between atoms: C2'_3  and  C1'_4 
REMARK    2  A    between atoms: C1'_4  and  C1_5 
ROOT
ATOM      1  C1  I4B d   1       0.596  -0.426  -0.322  0.00  0.00    -0.075 A 
ATOM      2  C2  I4B d   1       1.716   0.333  -0.552  0.00  0.00     0.003 A 
ATOM      3  C3  I4B d   1       1.936   1.521   0.186  0.00  0.00     0.002 A 
ATOM      4  C4  I4B d   1       0.991   1.936   1.103  0.00  0.00    -0.004 A 
ATOM      5  C5  I4B d   1      -0.132   1.153   1.351  0.00  0.00     0.002 A 
ATOM      6  C6  I4B d   1      -0.325  -0.042   0.643  0.00  0.00     0.003 A 
ENDROOT
BRANCH   1   7
ATOM      7  C1' I4B d   1       0.379  -1.658  -1.143  0.00  0.00     0.060 C 
BRANCH   7   8
ATOM      8  C2' I4B d   1      -0.861  -1.444  -1.987  0.00  0.00    -0.013 C 
ATOM      9  C4' I4B d   1      -0.553  -1.584  -3.454  0.00  0.00     0.013 C 
ATOM     10  C3' I4B d   1      -1.894  -2.441  -1.552  0.00  0.00     0.013 C 
ENDBRANCH   7   8
ENDBRANCH   1   7
TORSDOF 2
ENDMDL
