MODEL 1
REMARK minimizedAffinity -2.18914366
REMARK minimizedRMSD -1
REMARK  2 active torsions:
REMARK  status: ('A' for Active; 'I' for Inactive)
REMARK    1  A    between atoms: C2'_3  and  C1'_4 
REMARK    2  A    between atoms: C1'_4  and  C1_5 
ROOT
ATOM      1  C1  I4B d   1      -0.266   0.714   0.827  0.00  0.00    -0.075 A 
ATOM      2  C2  I4B d   1       0.108   0.814   2.143  0.00  0.00     0.003 A 
ATOM      3  C3  I4B d   1       0.770   1.976   2.610  0.00  0.00     0.002 A 
ATOM      4  C4  I4B d   1       1.081   2.984   1.721  0.00  0.00    -0.004 A 
ATOM      5  C5  I4B d   1       0.680   2.891   0.391  0.00  0.00     0.002 A 
ATOM      6  C6  I4B d   1      -0.008   1.754  -0.057  0.00  0.00     0.003 A 
ENDROOT
BRANCH   1   7
ATOM      7  C1' I4B d   1      -0.933  -0.541   0.361  0.00  0.00     0.060 C 
BRANCH   7   8
ATOM      8  C2' I4B d   1      -0.379  -0.884  -1.007  0.00  0.00    -0.013 C 
ATOM      9  C4' I4B d   1       0.887  -1.692  -0.896  0.00  0.00     0.013 C 
ATOM     10  C3' I4B d   1      -1.436  -1.637  -1.759  0.00  0.00     0.013 C 
ENDBRANCH   7   8
ENDBRANCH   1   7
TORSDOF 2
ENDMDL
