MODEL 1
REMARK minimizedAffinity -3.40855956
REMARK minimizedRMSD -1
REMARK  2 active torsions:
REMARK  status: ('A' for Active; 'I' for Inactive)
REMARK    1  A    between atoms: C2'_3  and  C1'_4 
REMARK    2  A    between atoms: C1'_4  and  C1_5 
ROOT
ATOM      1  C1  I4B d   1      -0.130  -0.247  -0.079  0.00  0.00    -0.075 A 
ATOM      2  C2  I4B d   1       0.955   0.565  -0.300  0.00  0.00     0.003 A 
ATOM      3  C3  I4B d   1       1.180   1.694   0.524  0.00  0.00     0.002 A 
ATOM      4  C4  I4B d   1       0.274   2.001   1.519  0.00  0.00    -0.004 A 
ATOM      5  C5  I4B d   1      -0.812   1.164   1.756  0.00  0.00     0.002 A 
ATOM      6  C6  I4B d   1      -1.010   0.026   0.960  0.00  0.00     0.003 A 
ENDROOT
BRANCH   1   7
ATOM      7  C1' I4B d   1      -0.355  -1.412  -0.989  0.00  0.00     0.060 C 
BRANCH   7   8
ATOM      8  C2' I4B d   1      -1.755  -1.297  -1.557  0.00  0.00    -0.013 C 
ATOM      9  C4' I4B d   1      -1.723  -1.008  -3.034  0.00  0.00     0.013 C 
ATOM     10  C3' I4B d   1      -2.477  -2.580  -1.272  0.00  0.00     0.013 C 
ENDBRANCH   7   8
ENDBRANCH   1   7
TORSDOF 2
ENDMDL
