MODEL 1
REMARK minimizedAffinity -0.0625084937
REMARK minimizedRMSD -1
REMARK  2 active torsions:
REMARK  status: ('A' for Active; 'I' for Inactive)
REMARK    1  A    between atoms: C2'_3  and  C1'_4 
REMARK    2  A    between atoms: C1'_4  and  C1_5 
ROOT
ATOM      1  C1  I4B d   1       0.684   1.235   0.093  0.00  0.00    -0.075 A 
ATOM      2  C2  I4B d   1      -0.320   0.299   0.069  0.00  0.00     0.003 A 
ATOM      3  C3  I4B d   1      -1.091   0.050   1.230  0.00  0.00     0.002 A 
ATOM      4  C4  I4B d   1      -0.793   0.718   2.400  0.00  0.00    -0.004 A 
ATOM      5  C5  I4B d   1       0.210   1.683   2.417  0.00  0.00     0.002 A 
ATOM      6  C6  I4B d   1       0.945   1.952   1.254  0.00  0.00     0.003 A 
ENDROOT
BRANCH   1   7
ATOM      7  C1' I4B d   1       1.500   1.450  -1.142  0.00  0.00     0.060 C 
BRANCH   7   8
ATOM      8  C2' I4B d   1       2.855   0.809  -0.923  0.00  0.00    -0.013 C 
ATOM      9  C4' I4B d   1       2.763  -0.693  -0.974  0.00  0.00     0.013 C 
ATOM     10  C3' I4B d   1       3.789   1.331  -1.974  0.00  0.00     0.013 C 
ENDBRANCH   7   8
ENDBRANCH   1   7
TORSDOF 2
ENDMDL
