MODEL 1
REMARK minimizedAffinity -2.95849276
REMARK minimizedRMSD -1
REMARK  0 active torsions:
REMARK  status: ('A' for Active; 'I' for Inactive)
ROOT
ATOM      1  N1  IND d   1       2.594   2.666   1.588  0.00  0.00    -0.196 N 
ATOM      2  C2  IND d   1       2.593   3.885   0.970  0.00  0.00     0.054 A 
ATOM      3  C3  IND d   1       1.809   3.853  -0.131  0.00  0.00    -0.031 A 
ATOM      4  C4  IND d   1       0.355   1.936  -1.048  0.00  0.00     0.051 A 
ATOM      5  C5  IND d   1       0.058   0.618  -0.845  0.00  0.00    -0.031 A 
ATOM      6  C6  IND d   1       0.599  -0.099   0.202  0.00  0.00     0.015 A 
ATOM      7  C7  IND d   1       1.454   0.482   1.096  0.00  0.00    -0.016 A 
ATOM      8  C8  IND d   1       1.764   1.818   0.889  0.00  0.00    -0.047 A 
ATOM      9  C9  IND d   1       1.250   2.540  -0.197  0.00  0.00    -0.096 A 
ATOM     10  HN1 IND d   1       3.040   2.463   2.295  0.00  0.00     0.298 HD
ENDROOT
TORSDOF 0
ENDMDL
