MODEL 1
REMARK minimizedAffinity 0.178995088
REMARK minimizedRMSD -1
REMARK  0 active torsions:
REMARK  status: ('A' for Active; 'I' for Inactive)
ROOT
ATOM      1  N1  IND d   1       0.599   1.134  -2.100  0.00  0.00    -0.196 N 
ATOM      2  C2  IND d   1       0.733   0.028  -2.892  0.00  0.00     0.054 A 
ATOM      3  C3  IND d   1       0.367  -1.083  -2.214  0.00  0.00    -0.031 A 
ATOM      4  C4  IND d   1      -0.579  -1.307   0.170  0.00  0.00     0.051 A 
ATOM      5  C5  IND d   1      -0.849  -0.578   1.294  0.00  0.00    -0.031 A 
ATOM      6  C6  IND d   1      -0.648   0.786   1.345  0.00  0.00     0.015 A 
ATOM      7  C7  IND d   1      -0.178   1.477   0.264  0.00  0.00    -0.016 A 
ATOM      8  C8  IND d   1       0.103   0.740  -0.877  0.00  0.00    -0.047 A 
ATOM      9  C9  IND d   1      -0.059  -0.651  -0.921  0.00  0.00    -0.096 A 
ATOM     10  HN1 IND d   1       0.793   1.940  -2.328  0.00  0.00     0.298 HD
ENDROOT
TORSDOF 0
ENDMDL
