MODEL 1
REMARK minimizedAffinity -2.16062617
REMARK minimizedRMSD -1
REMARK  0 active torsions:
REMARK  status: ('A' for Active; 'I' for Inactive)
ROOT
ATOM      1  N1  IND d   1       0.389   2.181  -1.656  0.00  0.00    -0.196 N 
ATOM      2  C2  IND d   1       0.158   2.871  -0.498  0.00  0.00     0.054 A 
ATOM      3  C3  IND d   1       0.100   2.021   0.552  0.00  0.00    -0.031 A 
ATOM      4  C4  IND d   1       0.457  -0.528   0.615  0.00  0.00     0.051 A 
ATOM      5  C5  IND d   1       0.658  -1.608  -0.198  0.00  0.00    -0.031 A 
ATOM      6  C6  IND d   1       0.785  -1.477  -1.566  0.00  0.00     0.015 A 
ATOM      7  C7  IND d   1       0.727  -0.255  -2.173  0.00  0.00    -0.016 A 
ATOM      8  C8  IND d   1       0.516   0.843  -1.351  0.00  0.00    -0.047 A 
ATOM      9  C9  IND d   1       0.344   0.712   0.033  0.00  0.00    -0.096 A 
ATOM     10  HN1 IND d   1       0.446   2.525  -2.442  0.00  0.00     0.298 HD
ENDROOT
TORSDOF 0
ENDMDL
