MODEL 1
REMARK minimizedAffinity -4.03485537
REMARK minimizedRMSD -1
REMARK  0 active torsions:
REMARK  status: ('A' for Active; 'I' for Inactive)
ROOT
ATOM      1  N1  IND d   1      -1.357   0.628   0.831  0.00  0.00    -0.196 N 
ATOM      2  C2  IND d   1      -0.588   1.666   0.384  0.00  0.00     0.054 A 
ATOM      3  C3  IND d   1       0.570   1.203  -0.138  0.00  0.00    -0.031 A 
ATOM      4  C4  IND d   1       1.366  -1.224  -0.454  0.00  0.00     0.051 A 
ATOM      5  C5  IND d   1       1.024  -2.516  -0.169  0.00  0.00    -0.031 A 
ATOM      6  C6  IND d   1      -0.155  -2.833   0.475  0.00  0.00     0.015 A 
ATOM      7  C7  IND d   1      -1.044  -1.865   0.850  0.00  0.00    -0.016 A 
ATOM      8  C8  IND d   1      -0.697  -0.552   0.567  0.00  0.00    -0.047 A 
ATOM      9  C9  IND d   1       0.518  -0.221  -0.048  0.00  0.00    -0.096 A 
ATOM     10  HN1 IND d   1      -2.124   0.700   1.213  0.00  0.00     0.298 HD
ENDROOT
TORSDOF 0
ENDMDL
