MODEL 1
REMARK minimizedAffinity -4.47897196
REMARK minimizedRMSD -1
REMARK  0 active torsions:
REMARK  status: ('A' for Active; 'I' for Inactive)
ROOT
ATOM      1  N1  IND d   1      -1.275   0.664   0.462  0.00  0.00    -0.196 N 
ATOM      2  C2  IND d   1      -0.428   1.479  -0.237  0.00  0.00     0.054 A 
ATOM      3  C3  IND d   1       0.585   0.759  -0.770  0.00  0.00    -0.031 A 
ATOM      4  C4  IND d   1       0.994  -1.782  -0.707  0.00  0.00     0.051 A 
ATOM      5  C5  IND d   1       0.513  -2.937  -0.160  0.00  0.00    -0.031 A 
ATOM      6  C6  IND d   1      -0.614  -2.952   0.637  0.00  0.00     0.015 A 
ATOM      7  C7  IND d   1      -1.310  -1.808   0.908  0.00  0.00    -0.016 A 
ATOM      8  C8  IND d   1      -0.820  -0.632   0.359  0.00  0.00    -0.047 A 
ATOM      9  C9  IND d   1       0.347  -0.604  -0.415  0.00  0.00    -0.096 A 
ATOM     10  HN1 IND d   1      -1.974   0.919   0.893  0.00  0.00     0.298 HD
ENDROOT
TORSDOF 0
ENDMDL
