MODEL 1
REMARK minimizedAffinity -3.3026731
REMARK minimizedRMSD -1
REMARK  0 active torsions:
REMARK  status: ('A' for Active; 'I' for Inactive)
ROOT
ATOM      1  N1  IND d   1       1.947   3.080   1.735  0.00  0.00    -0.196 N 
ATOM      2  C2  IND d   1       2.124   4.238   1.030  0.00  0.00     0.054 A 
ATOM      3  C3  IND d   1       1.538   4.144  -0.184  0.00  0.00    -0.031 A 
ATOM      4  C4  IND d   1       0.147   2.222  -1.184  0.00  0.00     0.051 A 
ATOM      5  C5  IND d   1      -0.260   0.942  -0.932  0.00  0.00    -0.031 A 
ATOM      6  C6  IND d   1       0.051   0.297   0.248  0.00  0.00     0.015 A 
ATOM      7  C7  IND d   1       0.776   0.916   1.228  0.00  0.00    -0.016 A 
ATOM      8  C8  IND d   1       1.197   2.213   0.972  0.00  0.00    -0.047 A 
ATOM      9  C9  IND d   1       0.919   2.857  -0.241  0.00  0.00    -0.096 A 
ATOM     10  HN1 IND d   1       2.252   2.921   2.523  0.00  0.00     0.298 HD
ENDROOT
TORSDOF 0
ENDMDL
