MODEL 1
REMARK minimizedAffinity -3.43515134
REMARK minimizedRMSD -1
REMARK  0 active torsions:
REMARK  status: ('A' for Active; 'I' for Inactive)
ROOT
ATOM      1  N1  IND d   1      -0.689  -2.609   0.931  0.00  0.00    -0.196 N 
ATOM      2  C2  IND d   1       0.153  -3.289   0.096  0.00  0.00     0.054 A 
ATOM      3  C3  IND d   1       0.806  -2.428  -0.717  0.00  0.00    -0.031 A 
ATOM      4  C4  IND d   1       0.721   0.144  -0.781  0.00  0.00     0.051 A 
ATOM      5  C5  IND d   1       0.070   1.215  -0.234  0.00  0.00    -0.031 A 
ATOM      6  C6  IND d   1      -0.884   1.062   0.751  0.00  0.00     0.015 A 
ATOM      7  C7  IND d   1      -1.216  -0.171   1.236  0.00  0.00    -0.016 A 
ATOM      8  C8  IND d   1      -0.563  -1.261   0.678  0.00  0.00    -0.047 A 
ATOM      9  C9  IND d   1       0.376  -1.115  -0.352  0.00  0.00    -0.096 A 
ATOM     10  HN1 IND d   1      -1.210  -2.964   1.516  0.00  0.00     0.298 HD
ENDROOT
TORSDOF 0
ENDMDL
