MODEL 1
REMARK minimizedAffinity -4.60224009
REMARK minimizedRMSD -1
REMARK  0 active torsions:
REMARK  status: ('A' for Active; 'I' for Inactive)
ROOT
ATOM      1  N1  IND d   1       0.276   0.710  -1.848  0.00  0.00    -0.196 N 
ATOM      2  C2  IND d   1       1.020  -0.113  -2.646  0.00  0.00     0.054 A 
ATOM      3  C3  IND d   1       1.173  -1.323  -2.062  0.00  0.00    -0.031 A 
ATOM      4  C4  IND d   1       0.201  -2.204   0.154  0.00  0.00     0.051 A 
ATOM      5  C5  IND d   1      -0.512  -1.807   1.250  0.00  0.00    -0.031 A 
ATOM      6  C6  IND d   1      -1.012  -0.527   1.371  0.00  0.00     0.015 A 
ATOM      7  C7  IND d   1      -0.825   0.406   0.391  0.00  0.00    -0.016 A 
ATOM      8  C8  IND d   1      -0.095   0.009  -0.721  0.00  0.00    -0.047 A 
ATOM      9  C9  IND d   1       0.450  -1.276  -0.830  0.00  0.00    -0.096 A 
ATOM     10  HN1 IND d   1       0.074   1.528  -2.020  0.00  0.00     0.298 HD
ENDROOT
TORSDOF 0
ENDMDL
