MODEL 1
REMARK minimizedAffinity -0.677188516
REMARK minimizedRMSD -1
REMARK  0 active torsions:
REMARK  status: ('A' for Active; 'I' for Inactive)
ROOT
ATOM      1  N1  IND d   1      -1.141  -2.142   1.166  0.00  0.00    -0.196 N 
ATOM      2  C2  IND d   1      -0.404  -3.087   0.508  0.00  0.00     0.054 A 
ATOM      3  C3  IND d   1       0.487  -2.496  -0.320  0.00  0.00    -0.031 A 
ATOM      4  C4  IND d   1       0.977   0.006  -0.678  0.00  0.00     0.051 A 
ATOM      5  C5  IND d   1       0.536   1.251  -0.327  0.00  0.00    -0.031 A 
ATOM      6  C6  IND d   1      -0.506   1.432   0.559  0.00  0.00     0.015 A 
ATOM      7  C7  IND d   1      -1.141   0.371   1.139  0.00  0.00    -0.016 A 
ATOM      8  C8  IND d   1      -0.701  -0.895   0.780  0.00  0.00    -0.047 A 
ATOM      9  C9  IND d   1       0.328  -1.086  -0.151  0.00  0.00    -0.096 A 
ATOM     10  HN1 IND d   1      -1.774  -2.300   1.726  0.00  0.00     0.298 HD
ENDROOT
TORSDOF 0
ENDMDL
