MODEL 1
REMARK minimizedAffinity -1.4259764
REMARK minimizedRMSD -1
REMARK  0 active torsions:
REMARK  status: ('A' for Active; 'I' for Inactive)
ROOT
ATOM      1  N1  IND d   1       1.209   0.666  -0.607  0.00  0.00    -0.196 N 
ATOM      2  C2  IND d   1      -0.037   0.111  -0.520  0.00  0.00     0.054 A 
ATOM      3  C3  IND d   1      -0.871   0.929   0.161  0.00  0.00    -0.031 A 
ATOM      4  C4  IND d   1      -0.429   3.271   1.135  0.00  0.00     0.051 A 
ATOM      5  C5  IND d   1       0.568   4.183   1.337  0.00  0.00    -0.031 A 
ATOM      6  C6  IND d   1       1.856   3.966   0.890  0.00  0.00     0.015 A 
ATOM      7  C7  IND d   1       2.192   2.829   0.211  0.00  0.00    -0.016 A 
ATOM      8  C8  IND d   1       1.184   1.898   0.011  0.00  0.00    -0.047 A 
ATOM      9  C9  IND d   1      -0.115   2.093   0.499  0.00  0.00    -0.096 A 
ATOM     10  HN1 IND d   1       1.893   0.307  -0.983  0.00  0.00     0.298 HD
ENDROOT
TORSDOF 0
ENDMDL
