MODEL 1
REMARK minimizedAffinity -3.3147614
REMARK minimizedRMSD -1
REMARK  0 active torsions:
REMARK  status: ('A' for Active; 'I' for Inactive)
ROOT
ATOM      1  N1  IND d   1       0.231   4.996   3.664  0.00  0.00    -0.196 N 
ATOM      2  C2  IND d   1      -1.052   5.428   3.478  0.00  0.00     0.054 A 
ATOM      3  C3  IND d   1      -1.540   4.963   2.306  0.00  0.00    -0.031 A 
ATOM      4  C4  IND d   1      -0.443   3.394   0.585  0.00  0.00     0.051 A 
ATOM      5  C5  IND d   1       0.736   2.764   0.300  0.00  0.00    -0.031 A 
ATOM      6  C6  IND d   1       1.828   2.845   1.140  0.00  0.00     0.015 A 
ATOM      7  C7  IND d   1       1.778   3.553   2.307  0.00  0.00    -0.016 A 
ATOM      8  C8  IND d   1       0.585   4.200   2.596  0.00  0.00    -0.047 A 
ATOM      9  C9  IND d   1      -0.513   4.156   1.727  0.00  0.00    -0.096 A 
ATOM     10  HN1 IND d   1       0.734   5.189   4.334  0.00  0.00     0.298 HD
ENDROOT
TORSDOF 0
ENDMDL
