MODEL 1
REMARK minimizedAffinity -3.11757278
REMARK minimizedRMSD -1
REMARK  0 active torsions:
REMARK  status: ('A' for Active; 'I' for Inactive)
ROOT
ATOM      1  N1  IND d   1       0.229  -0.508  -2.165  0.00  0.00    -0.196 N 
ATOM      2  C2  IND d   1       0.164   0.755  -1.645  0.00  0.00     0.054 A 
ATOM      3  C3  IND d   1      -0.100   0.705  -0.320  0.00  0.00    -0.031 A 
ATOM      4  C4  IND d   1      -0.363  -1.342   1.219  0.00  0.00     0.051 A 
ATOM      5  C5  IND d   1      -0.422  -2.707   1.195  0.00  0.00    -0.031 A 
ATOM      6  C6  IND d   1      -0.261  -3.424   0.026  0.00  0.00     0.015 A 
ATOM      7  C7  IND d   1      -0.023  -2.799  -1.165  0.00  0.00    -0.016 A 
ATOM      8  C8  IND d   1       0.031  -1.413  -1.146  0.00  0.00    -0.047 A 
ATOM      9  C9  IND d   1      -0.174  -0.678   0.029  0.00  0.00    -0.096 A 
ATOM     10  HN1 IND d   1       0.370  -0.704  -2.991  0.00  0.00     0.298 HD
ENDROOT
TORSDOF 0
ENDMDL
