MODEL 1
REMARK minimizedAffinity -4.68758774
REMARK minimizedRMSD -1
REMARK  0 active torsions:
REMARK  status: ('A' for Active; 'I' for Inactive)
ROOT
ATOM      1  N1  IND d   1       1.504   0.699  -0.670  0.00  0.00    -0.196 N 
ATOM      2  C2  IND d   1       0.211   0.303  -0.876  0.00  0.00     0.054 A 
ATOM      3  C3  IND d   1      -0.646   1.198  -0.336  0.00  0.00    -0.031 A 
ATOM      4  C4  IND d   1      -0.151   3.433   0.842  0.00  0.00     0.051 A 
ATOM      5  C5  IND d   1       0.880   4.204   1.299  0.00  0.00    -0.031 A 
ATOM      6  C6  IND d   1       2.199   3.841   1.116  0.00  0.00     0.015 A 
ATOM      7  C7  IND d   1       2.537   2.693   0.457  0.00  0.00    -0.016 A 
ATOM      8  C8  IND d   1       1.492   1.904  -0.001  0.00  0.00    -0.047 A 
ATOM      9  C9  IND d   1       0.151   2.246   0.218  0.00  0.00    -0.096 A 
ATOM     10  HN1 IND d   1       2.206   0.268  -0.917  0.00  0.00     0.298 HD
ENDROOT
TORSDOF 0
ENDMDL
