MODEL 1
REMARK minimizedAffinity -4.05884075
REMARK minimizedRMSD -1
REMARK  0 active torsions:
REMARK  status: ('A' for Active; 'I' for Inactive)
ROOT
ATOM      1  N1  IND d   1      -1.345   0.912   0.109  0.00  0.00    -0.196 N 
ATOM      2  C2  IND d   1      -0.415   1.651  -0.567  0.00  0.00     0.054 A 
ATOM      3  C3  IND d   1       0.686   0.907  -0.817  0.00  0.00    -0.031 A 
ATOM      4  C4  IND d   1       1.135  -1.574  -0.298  0.00  0.00     0.051 A 
ATOM      5  C5  IND d   1       0.597  -2.656   0.340  0.00  0.00    -0.031 A 
ATOM      6  C6  IND d   1      -0.643  -2.604   0.944  0.00  0.00     0.015 A 
ATOM      7  C7  IND d   1      -1.398  -1.465   0.922  0.00  0.00    -0.016 A 
ATOM      8  C8  IND d   1      -0.852  -0.363   0.281  0.00  0.00    -0.047 A 
ATOM      9  C9  IND d   1       0.424  -0.398  -0.297  0.00  0.00    -0.096 A 
ATOM     10  HN1 IND d   1      -2.110   1.195   0.381  0.00  0.00     0.298 HD
ENDROOT
TORSDOF 0
ENDMDL
