MODEL 1
REMARK minimizedAffinity -2.65023208
REMARK minimizedRMSD -1
REMARK  0 active torsions:
REMARK  status: ('A' for Active; 'I' for Inactive)
ROOT
ATOM      1  N1  IND d   1       0.780   5.977   1.848  0.00  0.00    -0.196 N 
ATOM      2  C2  IND d   1      -0.520   6.000   2.270  0.00  0.00     0.054 A 
ATOM      3  C3  IND d   1      -1.142   4.846   1.939  0.00  0.00    -0.031 A 
ATOM      4  C4  IND d   1      -0.191   2.745   0.796  0.00  0.00     0.051 A 
ATOM      5  C5  IND d   1       0.938   2.264   0.194  0.00  0.00    -0.031 A 
ATOM      6  C6  IND d   1       2.096   3.010   0.113  0.00  0.00     0.015 A 
ATOM      7  C7  IND d   1       2.172   4.266   0.644  0.00  0.00    -0.016 A 
ATOM      8  C8  IND d   1       1.026   4.761   1.250  0.00  0.00    -0.047 A 
ATOM      9  C9  IND d   1      -0.165   4.025   1.297  0.00  0.00    -0.096 A 
ATOM     10  HN1 IND d   1       1.349   6.616   1.941  0.00  0.00     0.298 HD
ENDROOT
TORSDOF 0
ENDMDL
