MODEL 1
REMARK minimizedAffinity -2.64375949
REMARK minimizedRMSD -1
REMARK  0 active torsions:
REMARK  status: ('A' for Active; 'I' for Inactive)
ROOT
ATOM      1  N1  IND d   1      -0.470  -0.564  -0.925  0.00  0.00    -0.196 N 
ATOM      2  C2  IND d   1      -1.155   0.618  -0.985  0.00  0.00     0.054 A 
ATOM      3  C3  IND d   1      -0.619   1.516  -0.127  0.00  0.00    -0.031 A 
ATOM      4  C4  IND d   1       1.444   1.294   1.396  0.00  0.00     0.051 A 
ATOM      5  C5  IND d   1       2.377   0.390   1.821  0.00  0.00    -0.031 A 
ATOM      6  C6  IND d   1       2.410  -0.904   1.342  0.00  0.00     0.015 A 
ATOM      7  C7  IND d   1       1.515  -1.340   0.406  0.00  0.00    -0.016 A 
ATOM      8  C8  IND d   1       0.563  -0.427  -0.023  0.00  0.00    -0.047 A 
ATOM      9  C9  IND d   1       0.497   0.875   0.491  0.00  0.00    -0.096 A 
ATOM     10  HN1 IND d   1      -0.654  -1.273  -1.374  0.00  0.00     0.298 HD
ENDROOT
TORSDOF 0
ENDMDL
