MODEL 1
REMARK minimizedAffinity -3.83780551
REMARK minimizedRMSD -1
REMARK  0 active torsions:
REMARK  status: ('A' for Active; 'I' for Inactive)
ROOT
ATOM      1  N1  IND d   1       2.578  -1.081   1.093  0.00  0.00    -0.196 N 
ATOM      2  C2  IND d   1       2.588   0.110   1.765  0.00  0.00     0.054 A 
ATOM      3  C3  IND d   1       1.506   0.848   1.431  0.00  0.00    -0.031 A 
ATOM      4  C4  IND d   1      -0.462   0.258  -0.120  0.00  0.00     0.051 A 
ATOM      5  C5  IND d   1      -0.898  -0.704  -0.988  0.00  0.00    -0.031 A 
ATOM      6  C6  IND d   1      -0.186  -1.864  -1.209  0.00  0.00     0.015 A 
ATOM      7  C7  IND d   1       0.990  -2.113  -0.559  0.00  0.00    -0.016 A 
ATOM      8  C8  IND d   1       1.440  -1.136   0.318  0.00  0.00    -0.047 A 
ATOM      9  C9  IND d   1       0.742   0.063   0.514  0.00  0.00    -0.096 A 
ATOM     10  HN1 IND d   1       3.180  -1.692   1.145  0.00  0.00     0.298 HD
ENDROOT
TORSDOF 0
ENDMDL
