MODEL 1
REMARK minimizedAffinity -2.50507569
REMARK minimizedRMSD -1
REMARK  0 active torsions:
REMARK  status: ('A' for Active; 'I' for Inactive)
ROOT
ATOM      1  N1  IND d   1      -0.667   0.408  -0.746  0.00  0.00    -0.196 N 
ATOM      2  C2  IND d   1      -0.578   1.614  -0.109  0.00  0.00     0.054 A 
ATOM      3  C3  IND d   1       0.437   1.600   0.784  0.00  0.00    -0.031 A 
ATOM      4  C4  IND d   1       2.143  -0.260   1.293  0.00  0.00     0.051 A 
ATOM      5  C5  IND d   1       2.442  -1.559   0.991  0.00  0.00    -0.031 A 
ATOM      6  C6  IND d   1       1.708  -2.282   0.073  0.00  0.00     0.015 A 
ATOM      7  C7  IND d   1       0.648  -1.728  -0.587  0.00  0.00    -0.016 A 
ATOM      8  C8  IND d   1       0.336  -0.411  -0.277  0.00  0.00    -0.047 A 
ATOM      9  C9  IND d   1       1.052   0.314   0.684  0.00  0.00    -0.096 A 
ATOM     10  HN1 IND d   1      -1.253   0.196  -1.339  0.00  0.00     0.298 HD
ENDROOT
TORSDOF 0
ENDMDL
