MODEL 1
REMARK minimizedAffinity -3.48887634
REMARK minimizedRMSD -1
REMARK  0 active torsions:
REMARK  status: ('A' for Active; 'I' for Inactive)
ROOT
ATOM      1  N1  IND d   1      -3.134   0.740  -0.503  0.00  0.00    -0.196 N 
ATOM      2  C2  IND d   1      -3.799   0.482   0.664  0.00  0.00     0.054 A 
ATOM      3  C3  IND d   1      -3.061  -0.329   1.456  0.00  0.00    -0.031 A 
ATOM      4  C4  IND d   1      -0.694  -1.268   1.082  0.00  0.00     0.051 A 
ATOM      5  C5  IND d   1       0.303  -1.337   0.150  0.00  0.00    -0.031 A 
ATOM      6  C6  IND d   1       0.204  -0.703  -1.071  0.00  0.00     0.015 A 
ATOM      7  C7  IND d   1      -0.895   0.038  -1.402  0.00  0.00    -0.016 A 
ATOM      8  C8  IND d   1      -1.912   0.105  -0.461  0.00  0.00    -0.047 A 
ATOM      9  C9  IND d   1      -1.836  -0.572   0.763  0.00  0.00    -0.096 A 
ATOM     10  HN1 IND d   1      -3.429   1.219  -1.153  0.00  0.00     0.298 HD
ENDROOT
TORSDOF 0
ENDMDL
