MODEL 1
REMARK minimizedAffinity -5.46618271
REMARK minimizedRMSD -1
REMARK  0 active torsions:
REMARK  status: ('A' for Active; 'I' for Inactive)
ROOT
ATOM      1  N1  IND d   1       2.565   1.696  -0.050  0.00  0.00    -0.196 N 
ATOM      2  C2  IND d   1       3.893   1.374  -0.091  0.00  0.00     0.054 A 
ATOM      3  C3  IND d   1       4.052   0.032  -0.068  0.00  0.00    -0.031 A 
ATOM      4  C4  IND d   1       2.271  -1.827  -0.067  0.00  0.00     0.051 A 
ATOM      5  C5  IND d   1       0.921  -2.025   0.007  0.00  0.00    -0.031 A 
ATOM      6  C6  IND d   1       0.032  -0.971   0.065  0.00  0.00     0.015 A 
ATOM      7  C7  IND d   1       0.461   0.325   0.039  0.00  0.00    -0.016 A 
ATOM      8  C8  IND d   1       1.832   0.530  -0.030  0.00  0.00    -0.047 A 
ATOM      9  C9  IND d   1       2.741  -0.535  -0.046  0.00  0.00    -0.096 A 
ATOM     10  HN1 IND d   1       2.242   2.493  -0.038  0.00  0.00     0.298 HD
ENDROOT
TORSDOF 0
ENDMDL
