MODEL 1
REMARK minimizedAffinity -5.03433943
REMARK minimizedRMSD -1
REMARK  0 active torsions:
REMARK  status: ('A' for Active; 'I' for Inactive)
ROOT
ATOM      1  N1  IND d   1      -0.297   0.763  -0.285  0.00  0.00    -0.196 N 
ATOM      2  C2  IND d   1      -0.921  -0.443  -0.442  0.00  0.00     0.054 A 
ATOM      3  C3  IND d   1      -0.009  -1.424  -0.628  0.00  0.00    -0.031 A 
ATOM      4  C4  IND d   1       2.562  -1.292  -0.609  0.00  0.00     0.051 A 
ATOM      5  C5  IND d   1       3.594  -0.399  -0.539  0.00  0.00    -0.031 A 
ATOM      6  C6  IND d   1       3.378   0.954  -0.374  0.00  0.00     0.015 A 
ATOM      7  C7  IND d   1       2.116   1.465  -0.262  0.00  0.00    -0.016 A 
ATOM      8  C8  IND d   1       1.065   0.562  -0.340  0.00  0.00    -0.047 A 
ATOM      9  C9  IND d   1       1.277  -0.806  -0.550  0.00  0.00    -0.096 A 
ATOM     10  HN1 IND d   1      -0.689   1.520  -0.171  0.00  0.00     0.298 HD
ENDROOT
TORSDOF 0
ENDMDL
