MODEL 1
REMARK minimizedAffinity -5.00991821
REMARK minimizedRMSD -1
REMARK  0 active torsions:
REMARK  status: ('A' for Active; 'I' for Inactive)
ROOT
ATOM      1  N1  IND d   1      -0.101   0.722   1.125  0.00  0.00    -0.196 N 
ATOM      2  C2  IND d   1      -1.346   0.805   0.566  0.00  0.00     0.054 A 
ATOM      3  C3  IND d   1      -1.499  -0.146  -0.383  0.00  0.00    -0.031 A 
ATOM      4  C4  IND d   1       0.123  -2.008  -1.111  0.00  0.00     0.051 A 
ATOM      5  C5  IND d   1       1.395  -2.466  -0.913  0.00  0.00    -0.031 A 
ATOM      6  C6  IND d   1       2.250  -1.875  -0.005  0.00  0.00     0.015 A 
ATOM      7  C7  IND d   1       1.859  -0.806   0.750  0.00  0.00    -0.016 A 
ATOM      8  C8  IND d   1       0.570  -0.333   0.547  0.00  0.00    -0.047 A 
ATOM      9  C9  IND d   1      -0.288  -0.902  -0.404  0.00  0.00    -0.096 A 
ATOM     10  HN1 IND d   1       0.210   1.241   1.735  0.00  0.00     0.298 HD
ENDROOT
TORSDOF 0
ENDMDL
