MODEL 1
REMARK minimizedAffinity -3.53907943
REMARK minimizedRMSD -1
REMARK  0 active torsions:
REMARK  status: ('A' for Active; 'I' for Inactive)
ROOT
ATOM      1  C   UNL d   1       1.311   0.387   0.382  0.00  0.00     0.172 C 
ATOM      2  N   UNL d   1       0.195   0.167   1.271  0.00  0.00    -0.070 N 
ATOM      3  C1  UNL d   1       0.110   0.598   2.568  0.00  0.00    -0.004 A 
ATOM      4  C2  UNL d   1      -1.107   0.190   3.070  0.00  0.00    -0.047 A 
ATOM      5  C3  UNL d   1      -1.777  -0.511   2.039  0.00  0.00    -0.047 A 
ATOM      6  C4  UNL d   1      -0.948  -0.510   0.936  0.00  0.00    -0.004 A 
ENDROOT
TORSDOF 0
ENDMDL
