MODEL 1
REMARK minimizedAffinity -3.91788435
REMARK minimizedRMSD -1
REMARK  0 active torsions:
REMARK  status: ('A' for Active; 'I' for Inactive)
ROOT
ATOM      1  C   UNL d   1      -0.046   0.405  -0.851  0.00  0.00     0.172 C 
ATOM      2  N   UNL d   1      -0.527   0.155   0.488  0.00  0.00    -0.070 N 
ATOM      3  C1  UNL d   1       0.255  -0.102   1.582  0.00  0.00    -0.004 A 
ATOM      4  C2  UNL d   1      -0.579  -0.283   2.664  0.00  0.00    -0.047 A 
ATOM      5  C3  UNL d   1      -1.909  -0.131   2.204  0.00  0.00    -0.047 A 
ATOM      6  C4  UNL d   1      -1.847   0.140   0.853  0.00  0.00    -0.004 A 
ENDROOT
TORSDOF 0
ENDMDL
