MODEL 1
REMARK minimizedAffinity -4.16652679
REMARK minimizedRMSD -1
REMARK  0 active torsions:
REMARK  status: ('A' for Active; 'I' for Inactive)
ROOT
ATOM      1  C   UNL d   1      -0.621  -0.109  -0.104  0.00  0.00     0.172 C 
ATOM      2  N   UNL d   1      -1.005  -0.215   1.284  0.00  0.00    -0.070 N 
ATOM      3  C1  UNL d   1      -2.265  -0.015   1.781  0.00  0.00    -0.004 A 
ATOM      4  C2  UNL d   1      -2.217  -0.211   3.144  0.00  0.00    -0.047 A 
ATOM      5  C3  UNL d   1      -0.882  -0.539   3.478  0.00  0.00    -0.047 A 
ATOM      6  C4  UNL d   1      -0.153  -0.535   2.308  0.00  0.00    -0.004 A 
ENDROOT
TORSDOF 0
ENDMDL
