MODEL 1
REMARK minimizedAffinity -2.21921682
REMARK minimizedRMSD -1
REMARK  0 active torsions:
REMARK  status: ('A' for Active; 'I' for Inactive)
ROOT
ATOM      1  C   UNL d   1       0.199  -0.012  -1.352  0.00  0.00     0.172 C 
ATOM      2  N   UNL d   1       0.372  -0.074   0.081  0.00  0.00    -0.070 N 
ATOM      3  C1  UNL d   1      -0.555  -0.535   0.977  0.00  0.00    -0.004 A 
ATOM      4  C2  UNL d   1      -0.010  -0.430   2.239  0.00  0.00    -0.047 A 
ATOM      5  C3  UNL d   1       1.288   0.115   2.096  0.00  0.00    -0.047 A 
ATOM      6  C4  UNL d   1       1.499   0.326   0.750  0.00  0.00    -0.004 A 
ENDROOT
TORSDOF 0
ENDMDL
