MODEL 1
REMARK minimizedAffinity -3.68402195
REMARK minimizedRMSD -1
REMARK  0 active torsions:
REMARK  status: ('A' for Active; 'I' for Inactive)
ROOT
ATOM      1  C   UNL d   1      -0.309  -0.292  -0.650  0.00  0.00     0.172 C 
ATOM      2  N   UNL d   1      -0.780  -0.471   0.703  0.00  0.00    -0.070 N 
ATOM      3  C1  UNL d   1      -2.089  -0.427   1.106  0.00  0.00    -0.004 A 
ATOM      4  C2  UNL d   1      -2.119  -0.644   2.466  0.00  0.00    -0.047 A 
ATOM      5  C3  UNL d   1      -0.783  -0.825   2.897  0.00  0.00    -0.047 A 
ATOM      6  C4  UNL d   1       0.025  -0.713   1.785  0.00  0.00    -0.004 A 
ENDROOT
TORSDOF 0
ENDMDL
