MODEL 1
REMARK minimizedAffinity -2.68722725
REMARK minimizedRMSD -1
REMARK  0 active torsions:
REMARK  status: ('A' for Active; 'I' for Inactive)
ROOT
ATOM      1  C   UNL d   1      -3.367   0.097   1.344  0.00  0.00     0.172 C 
ATOM      2  N   UNL d   1      -1.981  -0.008   1.734  0.00  0.00    -0.070 N 
ATOM      3  C1  UNL d   1      -1.517  -0.089   3.020  0.00  0.00    -0.004 A 
ATOM      4  C2  UNL d   1      -0.143  -0.176   2.968  0.00  0.00    -0.047 A 
ATOM      5  C3  UNL d   1       0.233  -0.145   1.604  0.00  0.00    -0.047 A 
ATOM      6  C4  UNL d   1      -0.925  -0.040   0.862  0.00  0.00    -0.004 A 
ENDROOT
TORSDOF 0
ENDMDL
