MODEL 1
REMARK minimizedAffinity -3.9381547
REMARK minimizedRMSD -1
REMARK  0 active torsions:
REMARK  status: ('A' for Active; 'I' for Inactive)
ROOT
ATOM      1  C   UNL d   1      -1.589  -0.295   2.723  0.00  0.00     0.172 C 
ATOM      2  N   UNL d   1      -0.547  -0.099   1.742  0.00  0.00    -0.070 N 
ATOM      3  C1  UNL d   1      -0.703  -0.178   0.384  0.00  0.00    -0.004 A 
ATOM      4  C2  UNL d   1       0.521   0.072  -0.197  0.00  0.00    -0.047 A 
ATOM      5  C3  UNL d   1       1.446   0.309   0.848  0.00  0.00    -0.047 A 
ATOM      6  C4  UNL d   1       0.758   0.197   2.038  0.00  0.00    -0.004 A 
ENDROOT
TORSDOF 0
ENDMDL
