MODEL 1
REMARK minimizedAffinity -4.28238201
REMARK minimizedRMSD -1
REMARK  0 active torsions:
REMARK  status: ('A' for Active; 'I' for Inactive)
ROOT
ATOM      1  C   UNL d   1       0.019  -0.044  -0.511  0.00  0.00     0.172 C 
ATOM      2  N   UNL d   1      -0.487  -0.123   0.839  0.00  0.00    -0.070 N 
ATOM      3  C1  UNL d   1       0.271  -0.285   1.968  0.00  0.00    -0.004 A 
ATOM      4  C2  UNL d   1      -0.582  -0.311   3.050  0.00  0.00    -0.047 A 
ATOM      5  C3  UNL d   1      -1.899  -0.161   2.554  0.00  0.00    -0.047 A 
ATOM      6  C4  UNL d   1      -1.811  -0.047   1.183  0.00  0.00    -0.004 A 
ENDROOT
TORSDOF 0
ENDMDL
