MODEL 1
REMARK minimizedAffinity -1.56556118
REMARK minimizedRMSD -1
REMARK  0 active torsions:
REMARK  status: ('A' for Active; 'I' for Inactive)
ROOT
ATOM      1  C   UNL d   1       0.493   0.612  -0.491  0.00  0.00     0.172 C 
ATOM      2  N   UNL d   1       0.525  -0.282  -1.624  0.00  0.00    -0.070 N 
ATOM      3  C1  UNL d   1      -0.438  -1.201  -1.944  0.00  0.00    -0.004 A 
ATOM      4  C2  UNL d   1      -0.037  -1.852  -3.090  0.00  0.00    -0.047 A 
ATOM      5  C3  UNL d   1       1.211  -1.306  -3.473  0.00  0.00    -0.047 A 
ATOM      6  C4  UNL d   1       1.536  -0.336  -2.548  0.00  0.00    -0.004 A 
ENDROOT
TORSDOF 0
ENDMDL
