MODEL 1
REMARK minimizedAffinity -4.1044879
REMARK minimizedRMSD -1
REMARK  0 active torsions:
REMARK  status: ('A' for Active; 'I' for Inactive)
ROOT
ATOM      1  C   UNL d   1      -0.070   0.151  -0.914  0.00  0.00     0.172 C 
ATOM      2  N   UNL d   1      -0.192  -0.152   0.492  0.00  0.00    -0.070 N 
ATOM      3  C1  UNL d   1      -1.337  -0.557   1.125  0.00  0.00    -0.004 A 
ATOM      4  C2  UNL d   1      -1.040  -0.742   2.458  0.00  0.00    -0.047 A 
ATOM      5  C3  UNL d   1       0.331  -0.437   2.632  0.00  0.00    -0.047 A 
ATOM      6  C4  UNL d   1       0.831  -0.075   1.400  0.00  0.00    -0.004 A 
ENDROOT
TORSDOF 0
ENDMDL
