MODEL 1
REMARK minimizedAffinity -4.07771492
REMARK minimizedRMSD -1
REMARK  0 active torsions:
REMARK  status: ('A' for Active; 'I' for Inactive)
ROOT
ATOM      1  C   UNL d   1      -0.222  -0.017  -0.222  0.00  0.00     0.172 C 
ATOM      2  N   UNL d   1      -0.979  -0.206   0.994  0.00  0.00    -0.070 N 
ATOM      3  C1  UNL d   1      -2.333  -0.050   1.123  0.00  0.00    -0.004 A 
ATOM      4  C2  UNL d   1      -2.665  -0.321   2.433  0.00  0.00    -0.047 A 
ATOM      5  C3  UNL d   1      -1.470  -0.651   3.114  0.00  0.00    -0.047 A 
ATOM      6  C4  UNL d   1      -0.441  -0.572   2.199  0.00  0.00    -0.004 A 
ENDROOT
TORSDOF 0
ENDMDL
