MODEL 1
REMARK minimizedAffinity -0.500802219
REMARK minimizedRMSD -1
REMARK  0 active torsions:
REMARK  status: ('A' for Active; 'I' for Inactive)
ROOT
ATOM      1  C   UNL d   1      -0.403   0.661  -1.876  0.00  0.00     0.172 C 
ATOM      2  N   UNL d   1       0.529  -0.263  -2.477  0.00  0.00    -0.070 N 
ATOM      3  C1  UNL d   1       1.894  -0.158  -2.440  0.00  0.00    -0.004 A 
ATOM      4  C2  UNL d   1       2.419  -1.231  -3.126  0.00  0.00    -0.047 A 
ATOM      5  C3  UNL d   1       1.332  -2.008  -3.593  0.00  0.00    -0.047 A 
ATOM      6  C4  UNL d   1       0.174  -1.386  -3.177  0.00  0.00    -0.004 A 
ENDROOT
TORSDOF 0
ENDMDL
