MODEL 1
REMARK minimizedAffinity -1.49414587
REMARK minimizedRMSD -1
REMARK  0 active torsions:
REMARK  status: ('A' for Active; 'I' for Inactive)
ROOT
ATOM      1  C   UNL d   1       0.374   0.375  -0.936  0.00  0.00     0.172 C 
ATOM      2  N   UNL d   1       0.565   0.294   0.493  0.00  0.00    -0.070 N 
ATOM      3  C1  UNL d   1       1.538  -0.429   1.129  0.00  0.00    -0.004 A 
ATOM      4  C2  UNL d   1       1.383  -0.244   2.486  0.00  0.00    -0.047 A 
ATOM      5  C3  UNL d   1       0.277   0.619   2.672  0.00  0.00    -0.047 A 
ATOM      6  C4  UNL d   1      -0.211   0.937   1.422  0.00  0.00    -0.004 A 
ENDROOT
TORSDOF 0
ENDMDL
