MODEL 1
REMARK minimizedAffinity -4.0964098
REMARK minimizedRMSD -1
REMARK  0 active torsions:
REMARK  status: ('A' for Active; 'I' for Inactive)
ROOT
ATOM      1  C   UNL d   1      -0.039  -0.624  -0.744  0.00  0.00     0.172 C 
ATOM      2  N   UNL d   1      -0.206  -0.460   0.681  0.00  0.00    -0.070 N 
ATOM      3  C1  UNL d   1       0.753  -0.016   1.551  0.00  0.00    -0.004 A 
ATOM      4  C2  UNL d   1       0.202  -0.001   2.814  0.00  0.00    -0.047 A 
ATOM      5  C3  UNL d   1      -1.134  -0.452   2.699  0.00  0.00    -0.047 A 
ATOM      6  C4  UNL d   1      -1.360  -0.730   1.368  0.00  0.00    -0.004 A 
ENDROOT
TORSDOF 0
ENDMDL
