MODEL 1
REMARK minimizedAffinity -2.70524001
REMARK minimizedRMSD -1
REMARK  0 active torsions:
REMARK  status: ('A' for Active; 'I' for Inactive)
ROOT
ATOM      1  C   UNL d   1       1.231  -1.877  -3.145  0.00  0.00     0.172 C 
ATOM      2  N   UNL d   1       0.585  -0.831  -2.388  0.00  0.00    -0.070 N 
ATOM      3  C1  UNL d   1      -0.310   0.078  -2.885  0.00  0.00    -0.004 A 
ATOM      4  C2  UNL d   1      -0.693   0.903  -1.850  0.00  0.00    -0.047 A 
ATOM      5  C3  UNL d   1      -0.004   0.476  -0.691  0.00  0.00    -0.047 A 
ATOM      6  C4  UNL d   1       0.781  -0.599  -1.052  0.00  0.00    -0.004 A 
ENDROOT
TORSDOF 0
ENDMDL
