MODEL 1
REMARK minimizedAffinity -3.69602609
REMARK minimizedRMSD -1
REMARK  0 active torsions:
REMARK  status: ('A' for Active; 'I' for Inactive)
ROOT
ATOM      1  C   UNL d   1       0.398   0.396   0.295  0.00  0.00     0.172 C 
ATOM      2  N   UNL d   1      -0.457   0.073   1.414  0.00  0.00    -0.070 N 
ATOM      3  C1  UNL d   1      -0.032  -0.325   2.654  0.00  0.00    -0.004 A 
ATOM      4  C2  UNL d   1      -1.148  -0.535   3.435  0.00  0.00    -0.047 A 
ATOM      5  C3  UNL d   1      -2.282  -0.254   2.637  0.00  0.00    -0.047 A 
ATOM      6  C4  UNL d   1      -1.825   0.120   1.390  0.00  0.00    -0.004 A 
ENDROOT
TORSDOF 0
ENDMDL
