MODEL 1
REMARK minimizedAffinity -4.10304546
REMARK minimizedRMSD -1
REMARK  0 active torsions:
REMARK  status: ('A' for Active; 'I' for Inactive)
ROOT
ATOM      1  C   UNL d   1       0.399   0.070  -0.066  0.00  0.00     0.172 C 
ATOM      2  N   UNL d   1      -0.597  -0.043   0.974  0.00  0.00    -0.070 N 
ATOM      3  C1  UNL d   1      -0.346  -0.303   2.294  0.00  0.00    -0.004 A 
ATOM      4  C2  UNL d   1      -1.554  -0.330   2.956  0.00  0.00    -0.047 A 
ATOM      5  C3  UNL d   1      -2.567  -0.079   2.000  0.00  0.00    -0.047 A 
ATOM      6  C4  UNL d   1      -1.946   0.095   0.781  0.00  0.00    -0.004 A 
ENDROOT
TORSDOF 0
ENDMDL
