MODEL 1
REMARK minimizedAffinity 4.88727808
REMARK minimizedRMSD -1
REMARK  0 active torsions:
REMARK  status: ('A' for Active; 'I' for Inactive)
ROOT
ATOM      1  C   UNL d   1      -5.884   0.280  -5.007  0.00  0.00     0.078 C 
ATOM      2  C1  UNL d   1      -5.602   1.506  -4.191  0.00  0.00    -0.077 A 
ATOM      3  C2  UNL d   1      -5.871   1.536  -2.817  0.00  0.00    -0.001 A 
ATOM      4  C3  UNL d   1      -5.613   2.688  -2.073  0.00  0.00     0.003 A 
ATOM      5  C4  UNL d   1      -5.086   3.819  -2.693  0.00  0.00    -0.005 A 
ATOM      6  C5  UNL d   1      -4.817   3.800  -4.060  0.00  0.00     0.003 A 
ATOM      7  C6  UNL d   1      -5.075   2.649  -4.807  0.00  0.00    -0.001 A 
ENDROOT
TORSDOF 0
ENDMDL
