MODEL 1
REMARK minimizedAffinity -3.18479943
REMARK minimizedRMSD -1
REMARK  0 active torsions:
REMARK  status: ('A' for Active; 'I' for Inactive)
ROOT
ATOM      1  C   UNL d   1      -5.937   3.091  -0.886  0.00  0.00     0.078 C 
ATOM      2  C1  UNL d   1      -5.943   2.979  -2.382  0.00  0.00    -0.077 A 
ATOM      3  C2  UNL d   1      -5.919   4.122  -3.191  0.00  0.00    -0.001 A 
ATOM      4  C3  UNL d   1      -5.934   4.003  -4.581  0.00  0.00     0.003 A 
ATOM      5  C4  UNL d   1      -5.974   2.743  -5.175  0.00  0.00    -0.005 A 
ATOM      6  C5  UNL d   1      -6.000   1.600  -4.379  0.00  0.00     0.003 A 
ATOM      7  C6  UNL d   1      -5.985   1.717  -2.988  0.00  0.00    -0.001 A 
ENDROOT
TORSDOF 0
ENDMDL
