MODEL 1
REMARK minimizedAffinity 6.30237484
REMARK minimizedRMSD -1
REMARK  0 active torsions:
REMARK  status: ('A' for Active; 'I' for Inactive)
ROOT
ATOM      1  C   UNL d   1      -5.410   3.062  -2.223  0.00  0.00     0.078 C 
ATOM      2  C1  UNL d   1      -5.232   2.264  -0.967  0.00  0.00    -0.077 A 
ATOM      3  C2  UNL d   1      -4.295   2.643   0.002  0.00  0.00    -0.001 A 
ATOM      4  C3  UNL d   1      -4.133   1.885   1.162  0.00  0.00     0.003 A 
ATOM      5  C4  UNL d   1      -4.903   0.741   1.364  0.00  0.00    -0.005 A 
ATOM      6  C5  UNL d   1      -5.836   0.355   0.405  0.00  0.00     0.003 A 
ATOM      7  C6  UNL d   1      -6.000   1.112  -0.756  0.00  0.00    -0.001 A 
ENDROOT
TORSDOF 0
ENDMDL
