MODEL 1
REMARK minimizedAffinity 2.66504812
REMARK minimizedRMSD -1
REMARK  0 active torsions:
REMARK  status: ('A' for Active; 'I' for Inactive)
ROOT
ATOM      1  C   UNL d   1      -4.296   2.228   0.994  0.00  0.00     0.078 C 
ATOM      2  C1  UNL d   1      -4.679   1.124   1.935  0.00  0.00    -0.077 A 
ATOM      3  C2  UNL d   1      -4.114  -0.152   1.818  0.00  0.00    -0.001 A 
ATOM      4  C3  UNL d   1      -4.487  -1.172   2.695  0.00  0.00     0.003 A 
ATOM      5  C4  UNL d   1      -5.429  -0.927   3.692  0.00  0.00    -0.005 A 
ATOM      6  C5  UNL d   1      -5.999   0.338   3.814  0.00  0.00     0.003 A 
ATOM      7  C6  UNL d   1      -5.626   1.360   2.939  0.00  0.00    -0.001 A 
ENDROOT
TORSDOF 0
ENDMDL
