MODEL 1
REMARK minimizedAffinity -3.61707234
REMARK minimizedRMSD -1
REMARK  0 active torsions:
REMARK  status: ('A' for Active; 'I' for Inactive)
ROOT
ATOM      1  C   UNL d   1      -5.975   4.431  -5.643  0.00  0.00     0.078 C 
ATOM      2  C1  UNL d   1      -5.972   4.001  -4.207  0.00  0.00    -0.077 A 
ATOM      3  C2  UNL d   1      -5.960   2.645  -3.860  0.00  0.00    -0.001 A 
ATOM      4  C3  UNL d   1      -5.967   2.259  -2.519  0.00  0.00     0.003 A 
ATOM      5  C4  UNL d   1      -5.986   3.223  -1.513  0.00  0.00    -0.005 A 
ATOM      6  C5  UNL d   1      -6.000   4.575  -1.848  0.00  0.00     0.003 A 
ATOM      7  C6  UNL d   1      -5.993   4.963  -3.189  0.00  0.00    -0.001 A 
ENDROOT
TORSDOF 0
ENDMDL
