MODEL 1
REMARK minimizedAffinity 3.15201473
REMARK minimizedRMSD -1
REMARK  1 active torsions:
REMARK  status: ('A' for Active; 'I' for Inactive)
REMARK    1  A    between atoms: C1_2  and  C2_3 
ROOT
ATOM      1  C2  UNL d   1       3.202   1.325   1.015  0.00  0.00    -0.073 A 
ATOM      2  C3  UNL d   1       3.937   2.378   0.456  0.00  0.00    -0.002 A 
ATOM      3  C4  UNL d   1       5.329   2.306   0.385  0.00  0.00     0.004 A 
ATOM      4  C5  UNL d   1       5.999   1.180   0.864  0.00  0.00    -0.004 A 
ATOM      5  C6  UNL d   1       5.282   0.113   1.415  0.00  0.00    -0.075 A 
ATOM      6  C7  UNL d   1       5.988  -1.104   1.936  0.00  0.00     0.076 C 
ATOM      7  C8  UNL d   1       3.885   0.194   1.485  0.00  0.00     0.001 A 
ENDROOT
BRANCH   1   8
ATOM      8  C1  UNL d   1       1.699   1.396   1.088  0.00  0.00     0.053 C 
ATOM      9  C   UNL d   1       1.109   0.208   1.832  0.00  0.00     0.018 C 
ENDBRANCH   1   8
TORSDOF 1
ENDMDL
