MODEL 1
REMARK minimizedAffinity -2.62932062
REMARK minimizedRMSD -1
REMARK  1 active torsions:
REMARK  status: ('A' for Active; 'I' for Inactive)
REMARK    1  A    between atoms: C1_2  and  C2_3 
ROOT
ATOM      1  C2  UNL d   1      -3.276   2.089   3.690  0.00  0.00    -0.073 A 
ATOM      2  C3  UNL d   1      -4.047   1.130   3.023  0.00  0.00    -0.002 A 
ATOM      3  C4  UNL d   1      -5.401   0.981   3.325  0.00  0.00     0.004 A 
ATOM      4  C5  UNL d   1      -5.999   1.792   4.289  0.00  0.00    -0.004 A 
ATOM      5  C6  UNL d   1      -5.248   2.765   4.957  0.00  0.00    -0.075 A 
ATOM      6  C7  UNL d   1      -5.877   3.644   5.998  0.00  0.00     0.076 C 
ATOM      7  C8  UNL d   1      -3.888   2.907   4.651  0.00  0.00     0.001 A 
ENDROOT
BRANCH   1   8
ATOM      8  C1  UNL d   1      -1.815   2.259   3.363  0.00  0.00     0.053 C 
ATOM      9  C   UNL d   1      -1.288   1.123   2.500  0.00  0.00     0.018 C 
ENDBRANCH   1   8
TORSDOF 1
ENDMDL
