MODEL 1
REMARK minimizedAffinity -0.4359245
REMARK minimizedRMSD -1
REMARK  1 active torsions:
REMARK  status: ('A' for Active; 'I' for Inactive)
REMARK    1  A    between atoms: C1_2  and  C2_3 
ROOT
ATOM      1  C2  UNL d   1      -4.412   1.602   4.242  0.00  0.00    -0.073 A 
ATOM      2  C3  UNL d   1      -4.468   0.205   4.162  0.00  0.00    -0.002 A 
ATOM      3  C4  UNL d   1      -3.417  -0.510   3.585  0.00  0.00     0.004 A 
ATOM      4  C5  UNL d   1      -2.300   0.162   3.090  0.00  0.00    -0.004 A 
ATOM      5  C6  UNL d   1      -2.220   1.555   3.172  0.00  0.00    -0.075 A 
ATOM      6  C7  UNL d   1      -1.025   2.293   2.642  0.00  0.00     0.076 C 
ATOM      7  C8  UNL d   1      -3.280   2.267   3.750  0.00  0.00     0.001 A 
ENDROOT
BRANCH   1   8
ATOM      8  C1  UNL d   1      -5.541   2.378   4.870  0.00  0.00     0.053 C 
ATOM      9  C   UNL d   1      -5.057   3.275   5.998  0.00  0.00     0.018 C 
ENDBRANCH   1   8
TORSDOF 1
ENDMDL
