MODEL 1
REMARK minimizedAffinity 6.2412715
REMARK minimizedRMSD -1
REMARK  1 active torsions:
REMARK  status: ('A' for Active; 'I' for Inactive)
REMARK    1  A    between atoms: C1_2  and  C2_3 
ROOT
ATOM      1  C2  UNL d   1       2.659  -2.214  -2.387  0.00  0.00    -0.073 A 
ATOM      2  C3  UNL d   1       2.545  -2.711  -3.690  0.00  0.00    -0.002 A 
ATOM      3  C4  UNL d   1       1.636  -3.730  -3.979  0.00  0.00     0.004 A 
ATOM      4  C5  UNL d   1       0.829  -4.257  -2.972  0.00  0.00    -0.004 A 
ATOM      5  C6  UNL d   1       0.920  -3.766  -1.665  0.00  0.00    -0.075 A 
ATOM      6  C7  UNL d   1       0.060  -4.324  -0.569  0.00  0.00     0.076 C 
ATOM      7  C8  UNL d   1       1.836  -2.745  -1.382  0.00  0.00     0.001 A 
ENDROOT
BRANCH   1   8
ATOM      8  C1  UNL d   1       3.634  -1.110  -2.071  0.00  0.00     0.053 C 
ATOM      9  C   UNL d   1       3.220   0.212  -2.698  0.00  0.00     0.018 C 
ENDBRANCH   1   8
TORSDOF 1
ENDMDL
