MODEL 1
REMARK minimizedAffinity 5.41408968
REMARK minimizedRMSD -1
REMARK  1 active torsions:
REMARK  status: ('A' for Active; 'I' for Inactive)
REMARK    1  A    between atoms: C1_2  and  C2_3 
ROOT
ATOM      1  C2  UNL d   1      -2.541   2.784   0.572  0.00  0.00    -0.073 A 
ATOM      2  C3  UNL d   1      -1.173   2.828   0.862  0.00  0.00    -0.002 A 
ATOM      3  C4  UNL d   1      -0.692   2.320   2.070  0.00  0.00     0.004 A 
ATOM      4  C5  UNL d   1      -1.571   1.757   2.994  0.00  0.00    -0.004 A 
ATOM      5  C6  UNL d   1      -2.941   1.692   2.717  0.00  0.00    -0.075 A 
ATOM      6  C7  UNL d   1      -3.900   1.092   3.702  0.00  0.00     0.076 C 
ATOM      7  C8  UNL d   1      -3.416   2.207   1.504  0.00  0.00     0.001 A 
ENDROOT
BRANCH   1   8
ATOM      8  C1  UNL d   1      -3.065   3.325  -0.733  0.00  0.00     0.053 C 
ATOM      9  C   UNL d   1      -2.865   2.345  -1.878  0.00  0.00     0.018 C 
ENDBRANCH   1   8
TORSDOF 1
ENDMDL
