MODEL 1
REMARK minimizedAffinity 0.411225945
REMARK minimizedRMSD -1
REMARK  1 active torsions:
REMARK  status: ('A' for Active; 'I' for Inactive)
REMARK    1  A    between atoms: C1_2  and  C2_3 
ROOT
ATOM      1  C2  UNL d   1      -2.130   1.558   2.493  0.00  0.00    -0.073 A 
ATOM      2  C3  UNL d   1      -2.511   0.226   2.690  0.00  0.00    -0.002 A 
ATOM      3  C4  UNL d   1      -1.690  -0.815   2.254  0.00  0.00     0.004 A 
ATOM      4  C5  UNL d   1      -0.477  -0.535   1.625  0.00  0.00    -0.004 A 
ATOM      5  C6  UNL d   1      -0.072   0.789   1.430  0.00  0.00    -0.075 A 
ATOM      6  C7  UNL d   1       1.229   1.107   0.753  0.00  0.00     0.076 C 
ATOM      7  C8  UNL d   1      -0.904   1.829   1.867  0.00  0.00     0.001 A 
ENDROOT
BRANCH   1   8
ATOM      8  C1  UNL d   1      -3.010   2.685   2.966  0.00  0.00     0.053 C 
ATOM      9  C   UNL d   1      -3.882   2.272   4.141  0.00  0.00     0.018 C 
ENDBRANCH   1   8
TORSDOF 1
ENDMDL
