MODEL 1
REMARK minimizedAffinity 4.06327343
REMARK minimizedRMSD -1
REMARK  1 active torsions:
REMARK  status: ('A' for Active; 'I' for Inactive)
REMARK    1  A    between atoms: C1_2  and  C2_3 
ROOT
ATOM      1  C2  UNL d   1      -4.079   1.946   4.148  0.00  0.00    -0.073 A 
ATOM      2  C3  UNL d   1      -4.433   0.597   4.029  0.00  0.00    -0.002 A 
ATOM      3  C4  UNL d   1      -3.671  -0.264   3.238  0.00  0.00     0.004 A 
ATOM      4  C5  UNL d   1      -2.547   0.212   2.564  0.00  0.00    -0.004 A 
ATOM      5  C6  UNL d   1      -2.170   1.554   2.680  0.00  0.00    -0.075 A 
ATOM      6  C7  UNL d   1      -0.964   2.082   1.960  0.00  0.00     0.076 C 
ATOM      7  C8  UNL d   1      -2.942   2.413   3.475  0.00  0.00     0.001 A 
ENDROOT
BRANCH   1   8
ATOM      8  C1  UNL d   1      -4.895   2.878   5.007  0.00  0.00     0.053 C 
ATOM      9  C   UNL d   1      -5.765   2.123   6.000  0.00  0.00     0.018 C 
ENDBRANCH   1   8
TORSDOF 1
ENDMDL
