MODEL 1
REMARK minimizedAffinity -1.2188338
REMARK minimizedRMSD -1
REMARK  1 active torsions:
REMARK  status: ('A' for Active; 'I' for Inactive)
REMARK    1  A    between atoms: C1_2  and  C2_3 
ROOT
ATOM      1  C2  UNL d   1      -3.108   2.174   4.298  0.00  0.00    -0.073 A 
ATOM      2  C3  UNL d   1      -3.907   2.624   3.241  0.00  0.00    -0.002 A 
ATOM      3  C4  UNL d   1      -3.372   2.751   1.958  0.00  0.00     0.004 A 
ATOM      4  C5  UNL d   1      -2.038   2.423   1.718  0.00  0.00    -0.004 A 
ATOM      5  C6  UNL d   1      -1.227   1.960   2.759  0.00  0.00    -0.075 A 
ATOM      6  C7  UNL d   1       0.211   1.604   2.517  0.00  0.00     0.076 C 
ATOM      7  C8  UNL d   1      -1.770   1.837   4.045  0.00  0.00     0.001 A 
ENDROOT
BRANCH   1   8
ATOM      8  C1  UNL d   1      -3.682   2.029   5.684  0.00  0.00     0.053 C 
ATOM      9  C   UNL d   1      -4.796   3.030   5.946  0.00  0.00     0.018 C 
ENDBRANCH   1   8
TORSDOF 1
ENDMDL
