MODEL 1
REMARK minimizedAffinity 1.81672645
REMARK minimizedRMSD -1
REMARK  1 active torsions:
REMARK  status: ('A' for Active; 'I' for Inactive)
REMARK    1  A    between atoms: C1_2  and  C2_3 
ROOT
ATOM      1  C2  UNL d   1       0.018  -4.009  -1.769  0.00  0.00    -0.073 A 
ATOM      2  C3  UNL d   1      -0.347  -4.755  -0.643  0.00  0.00    -0.002 A 
ATOM      3  C4  UNL d   1      -1.669  -4.755  -0.195  0.00  0.00     0.004 A 
ATOM      4  C5  UNL d   1      -2.639  -4.015  -0.872  0.00  0.00    -0.004 A 
ATOM      5  C6  UNL d   1      -2.295  -3.272  -2.006  0.00  0.00    -0.075 A 
ATOM      6  C7  UNL d   1      -3.326  -2.469  -2.743  0.00  0.00     0.076 C 
ATOM      7  C8  UNL d   1      -0.965  -3.276  -2.447  0.00  0.00     0.001 A 
ENDROOT
BRANCH   1   8
ATOM      8  C1  UNL d   1       1.443  -4.011  -2.259  0.00  0.00     0.053 C 
ATOM      9  C   UNL d   1       1.523  -4.071  -3.776  0.00  0.00     0.018 C 
ENDBRANCH   1   8
TORSDOF 1
ENDMDL
