MODEL 1
REMARK minimizedAffinity 5.92243433
REMARK minimizedRMSD -1
REMARK  1 active torsions:
REMARK  status: ('A' for Active; 'I' for Inactive)
REMARK    1  A    between atoms: C1_2  and  C2_3 
ROOT
ATOM      1  C2  UNL d   1      -4.034  -1.384  -0.286  0.00  0.00    -0.073 A 
ATOM      2  C3  UNL d   1      -3.959  -2.294  -1.346  0.00  0.00    -0.002 A 
ATOM      3  C4  UNL d   1      -3.486  -1.884  -2.594  0.00  0.00     0.004 A 
ATOM      4  C5  UNL d   1      -3.078  -0.565  -2.792  0.00  0.00    -0.004 A 
ATOM      5  C6  UNL d   1      -3.135   0.356  -1.741  0.00  0.00    -0.075 A 
ATOM      6  C7  UNL d   1      -2.703   1.779  -1.939  0.00  0.00     0.076 C 
ATOM      7  C8  UNL d   1      -3.614  -0.062  -0.492  0.00  0.00     0.001 A 
ENDROOT
BRANCH   1   8
ATOM      8  C1  UNL d   1      -4.538  -1.823   1.065  0.00  0.00     0.053 C 
ATOM      9  C   UNL d   1      -6.000  -2.239   1.020  0.00  0.00     0.018 C 
ENDBRANCH   1   8
TORSDOF 1
ENDMDL
