MODEL 1
REMARK minimizedAffinity 12.8458366
REMARK minimizedRMSD -1
REMARK  0 active torsions:
REMARK  status: ('A' for Active; 'I' for Inactive)
ROOT
ATOM      1  C   UNL d   1      -0.527   2.410   3.770  0.00  0.00     0.172 C 
ATOM      2  N   UNL d   1      -1.917   2.023   3.709  0.00  0.00    -0.070 N 
ATOM      3  C1  UNL d   1      -2.987   2.870   3.813  0.00  0.00    -0.004 A 
ATOM      4  C2  UNL d   1      -4.136   2.116   3.704  0.00  0.00    -0.047 A 
ATOM      5  C3  UNL d   1      -3.742   0.768   3.528  0.00  0.00    -0.047 A 
ATOM      6  C4  UNL d   1      -2.363   0.739   3.535  0.00  0.00    -0.004 A 
ENDROOT
TORSDOF 0
ENDMDL
