MODEL 1
REMARK minimizedAffinity 13.137434
REMARK minimizedRMSD -1
REMARK  0 active torsions:
REMARK  status: ('A' for Active; 'I' for Inactive)
ROOT
ATOM      1  C   UNL d   1      -0.059  -0.267   2.308  0.00  0.00     0.172 C 
ATOM      2  N   UNL d   1      -0.914  -1.345   1.869  0.00  0.00    -0.070 N 
ATOM      3  C1  UNL d   1      -0.852  -2.641   2.307  0.00  0.00    -0.004 A 
ATOM      4  C2  UNL d   1      -1.831  -3.355   1.651  0.00  0.00    -0.047 A 
ATOM      5  C3  UNL d   1      -2.504  -2.458   0.788  0.00  0.00    -0.047 A 
ATOM      6  C4  UNL d   1      -1.916  -1.220   0.944  0.00  0.00    -0.004 A 
ENDROOT
TORSDOF 0
ENDMDL
