MODEL 1
REMARK minimizedAffinity 2.81744623
REMARK minimizedRMSD -1
REMARK  0 active torsions:
REMARK  status: ('A' for Active; 'I' for Inactive)
ROOT
ATOM      1  C   UNL d   1      -1.121  -2.395   1.488  0.00  0.00     0.172 C 
ATOM      2  N   UNL d   1      -1.485  -3.792   1.443  0.00  0.00    -0.070 N 
ATOM      3  C1  UNL d   1      -2.675  -4.293   0.989  0.00  0.00    -0.004 A 
ATOM      4  C2  UNL d   1      -2.630  -5.665   1.111  0.00  0.00    -0.047 A 
ATOM      5  C3  UNL d   1      -1.369  -6.000   1.659  0.00  0.00    -0.047 A 
ATOM      6  C4  UNL d   1      -0.680  -4.822   1.855  0.00  0.00    -0.004 A 
ENDROOT
TORSDOF 0
ENDMDL
