MODEL 1
REMARK minimizedAffinity 8.21969891
REMARK minimizedRMSD -1
REMARK  0 active torsions:
REMARK  status: ('A' for Active; 'I' for Inactive)
ROOT
ATOM      1  C   UNL d   1      -1.125  -2.798   0.770  0.00  0.00     0.172 C 
ATOM      2  N   UNL d   1      -1.604  -4.099   1.172  0.00  0.00    -0.070 N 
ATOM      3  C1  UNL d   1      -2.590  -4.815   0.548  0.00  0.00    -0.004 A 
ATOM      4  C2  UNL d   1      -2.751  -5.999   1.235  0.00  0.00    -0.047 A 
ATOM      5  C3  UNL d   1      -1.831  -5.994   2.310  0.00  0.00    -0.047 A 
ATOM      6  C4  UNL d   1      -1.133  -4.806   2.247  0.00  0.00    -0.004 A 
ENDROOT
TORSDOF 0
ENDMDL
