MODEL 1
REMARK minimizedAffinity 11.5301361
REMARK minimizedRMSD -1
REMARK  0 active torsions:
REMARK  status: ('A' for Active; 'I' for Inactive)
ROOT
ATOM      1  C   UNL d   1      -5.910  -5.776  -2.774  0.00  0.00     0.172 C 
ATOM      2  N   UNL d   1      -4.895  -4.749  -2.755  0.00  0.00    -0.070 N 
ATOM      3  C1  UNL d   1      -4.960  -3.551  -3.415  0.00  0.00    -0.004 A 
ATOM      4  C2  UNL d   1      -3.801  -2.856  -3.143  0.00  0.00    -0.047 A 
ATOM      5  C3  UNL d   1      -3.013  -3.665  -2.291  0.00  0.00    -0.047 A 
ATOM      6  C4  UNL d   1      -3.714  -4.831  -2.067  0.00  0.00    -0.004 A 
ENDROOT
TORSDOF 0
ENDMDL
