MODEL 1
REMARK minimizedAffinity 7.35205221
REMARK minimizedRMSD -1
REMARK  0 active torsions:
REMARK  status: ('A' for Active; 'I' for Inactive)
ROOT
ATOM      1  C   UNL d   1       4.328   5.998  -6.000  0.00  0.00     0.172 C 
ATOM      2  N   UNL d   1       3.034   5.392  -5.790  0.00  0.00    -0.070 N 
ATOM      3  C1  UNL d   1       1.825   5.999  -6.000  0.00  0.00    -0.004 A 
ATOM      4  C2  UNL d   1       0.837   5.092  -5.686  0.00  0.00    -0.047 A 
ATOM      5  C3  UNL d   1       1.474   3.898  -5.272  0.00  0.00    -0.047 A 
ATOM      6  C4  UNL d   1       2.834   4.112  -5.346  0.00  0.00    -0.004 A 
ENDROOT
TORSDOF 0
ENDMDL
