MODEL 1
REMARK minimizedAffinity 2.84915495
REMARK minimizedRMSD -1
REMARK  0 active torsions:
REMARK  status: ('A' for Active; 'I' for Inactive)
ROOT
ATOM      1  C   UNL d   1       4.316   1.726  -1.450  0.00  0.00     0.172 C 
ATOM      2  N   UNL d   1       3.791   1.144  -0.238  0.00  0.00    -0.070 N 
ATOM      3  C1  UNL d   1       4.230  -0.014   0.347  0.00  0.00    -0.004 A 
ATOM      4  C2  UNL d   1       3.476  -0.225   1.482  0.00  0.00    -0.047 A 
ATOM      5  C3  UNL d   1       2.552   0.842   1.582  0.00  0.00    -0.047 A 
ATOM      6  C4  UNL d   1       2.769   1.675   0.504  0.00  0.00    -0.004 A 
ENDROOT
TORSDOF 0
ENDMDL
