MODEL 1
REMARK minimizedAffinity 7.13981867
REMARK minimizedRMSD -1
REMARK  0 active torsions:
REMARK  status: ('A' for Active; 'I' for Inactive)
ROOT
ATOM      1  C   UNL d   1      -1.724  -4.754   2.577  0.00  0.00     0.172 C 
ATOM      2  N   UNL d   1      -1.498  -3.384   2.183  0.00  0.00    -0.070 N 
ATOM      3  C1  UNL d   1      -1.608  -2.891   0.910  0.00  0.00    -0.004 A 
ATOM      4  C2  UNL d   1      -1.314  -1.545   0.952  0.00  0.00    -0.047 A 
ATOM      5  C3  UNL d   1      -1.017  -1.218   2.297  0.00  0.00    -0.047 A 
ATOM      6  C4  UNL d   1      -1.139  -2.375   3.037  0.00  0.00    -0.004 A 
ENDROOT
TORSDOF 0
ENDMDL
