MODEL 1
REMARK minimizedAffinity 9.80319405
REMARK minimizedRMSD -1
REMARK  0 active torsions:
REMARK  status: ('A' for Active; 'I' for Inactive)
ROOT
ATOM      1  C   UNL d   1       3.569  -0.866   3.065  0.00  0.00     0.172 C 
ATOM      2  N   UNL d   1       2.990  -0.230   1.905  0.00  0.00    -0.070 N 
ATOM      3  C1  UNL d   1       1.925   0.630   1.914  0.00  0.00    -0.004 A 
ATOM      4  C2  UNL d   1       1.683   1.016   0.614  0.00  0.00    -0.047 A 
ATOM      5  C3  UNL d   1       2.635   0.365  -0.206  0.00  0.00    -0.047 A 
ATOM      6  C4  UNL d   1       3.432  -0.400   0.620  0.00  0.00    -0.004 A 
ENDROOT
TORSDOF 0
ENDMDL
