MODEL 1
REMARK minimizedAffinity 8.72146893
REMARK minimizedRMSD -1
REMARK  0 active torsions:
REMARK  status: ('A' for Active; 'I' for Inactive)
ROOT
ATOM      1  C   UNL d   1       3.750   2.311  -4.135  0.00  0.00     0.172 C 
ATOM      2  N   UNL d   1       3.633   3.571  -4.831  0.00  0.00    -0.070 N 
ATOM      3  C1  UNL d   1       4.630   4.499  -4.975  0.00  0.00    -0.004 A 
ATOM      4  C2  UNL d   1       4.122   5.555  -5.699  0.00  0.00    -0.047 A 
ATOM      5  C3  UNL d   1       2.772   5.252  -6.000  0.00  0.00    -0.047 A 
ATOM      6  C4  UNL d   1       2.496   4.018  -5.451  0.00  0.00    -0.004 A 
ENDROOT
TORSDOF 0
ENDMDL
