MODEL 1
REMARK minimizedAffinity 3.48857856
REMARK minimizedRMSD -1
REMARK  0 active torsions:
REMARK  status: ('A' for Active; 'I' for Inactive)
ROOT
ATOM      1  C   UNL d   1      -5.748  -3.461  -3.435  0.00  0.00     0.172 C 
ATOM      2  N   UNL d   1      -4.394  -3.773  -3.042  0.00  0.00    -0.070 N 
ATOM      3  C1  UNL d   1      -3.313  -2.942  -3.172  0.00  0.00    -0.004 A 
ATOM      4  C2  UNL d   1      -2.209  -3.606  -2.683  0.00  0.00    -0.047 A 
ATOM      5  C3  UNL d   1      -2.641  -4.880  -2.243  0.00  0.00    -0.047 A 
ATOM      6  C4  UNL d   1      -3.998  -4.957  -2.478  0.00  0.00    -0.004 A 
ENDROOT
TORSDOF 0
ENDMDL
