MODEL 1
REMARK minimizedAffinity 2.21374798
REMARK minimizedRMSD -1
REMARK  0 active torsions:
REMARK  status: ('A' for Active; 'I' for Inactive)
ROOT
ATOM      1  C   UNL d   1      -5.882   5.465   4.084  0.00  0.00     0.172 C 
ATOM      2  N   UNL d   1      -5.820   5.117   2.684  0.00  0.00    -0.070 N 
ATOM      3  C1  UNL d   1      -5.577   3.866   2.182  0.00  0.00    -0.004 A 
ATOM      4  C2  UNL d   1      -5.601   3.952   0.807  0.00  0.00    -0.047 A 
ATOM      5  C3  UNL d   1      -5.867   5.300   0.470  0.00  0.00    -0.047 A 
ATOM      6  C4  UNL d   1      -5.999   5.999   1.651  0.00  0.00    -0.004 A 
ENDROOT
TORSDOF 0
ENDMDL
