MODEL 1
REMARK minimizedAffinity 3.55253696
REMARK minimizedRMSD -1
REMARK  0 active torsions:
REMARK  status: ('A' for Active; 'I' for Inactive)
ROOT
ATOM      1  C   UNL d   1       3.086  -0.151  -0.065  0.00  0.00     0.172 C 
ATOM      2  N   UNL d   1       2.215   0.741   0.663  0.00  0.00    -0.070 N 
ATOM      3  C1  UNL d   1       1.359   0.377   1.668  0.00  0.00    -0.004 A 
ATOM      4  C2  UNL d   1       0.709   1.513   2.101  0.00  0.00    -0.047 A 
ATOM      5  C3  UNL d   1       1.192   2.597   1.330  0.00  0.00    -0.047 A 
ATOM      6  C4  UNL d   1       2.123   2.091   0.447  0.00  0.00    -0.004 A 
ENDROOT
TORSDOF 0
ENDMDL
