MODEL 1
REMARK minimizedAffinity 5.15692806
REMARK minimizedRMSD -1
REMARK  0 active torsions:
REMARK  status: ('A' for Active; 'I' for Inactive)
ROOT
ATOM      1  C   UNL d   1       1.742   4.248  -4.848  0.00  0.00     0.172 C 
ATOM      2  N   UNL d   1       3.006   3.669  -4.458  0.00  0.00    -0.070 N 
ATOM      3  C1  UNL d   1       4.229   4.272  -4.571  0.00  0.00    -0.004 A 
ATOM      4  C2  UNL d   1       5.178   3.396  -4.091  0.00  0.00    -0.047 A 
ATOM      5  C3  UNL d   1       4.501   2.225  -3.675  0.00  0.00    -0.047 A 
ATOM      6  C4  UNL d   1       3.157   2.421  -3.913  0.00  0.00    -0.004 A 
ENDROOT
TORSDOF 0
ENDMDL
