MODEL 1
REMARK minimizedAffinity 4.88200808
REMARK minimizedRMSD -1
REMARK  0 active torsions:
REMARK  status: ('A' for Active; 'I' for Inactive)
ROOT
ATOM      1  C   UNL d   1       1.963   4.009  -4.511  0.00  0.00     0.172 C 
ATOM      2  N   UNL d   1       3.260   3.451  -4.211  0.00  0.00    -0.070 N 
ATOM      3  C1  UNL d   1       3.499   2.387  -3.382  0.00  0.00    -0.004 A 
ATOM      4  C2  UNL d   1       4.859   2.166  -3.361  0.00  0.00    -0.047 A 
ATOM      5  C3  UNL d   1       5.458   3.131  -4.205  0.00  0.00    -0.047 A 
ATOM      6  C4  UNL d   1       4.445   3.913  -4.718  0.00  0.00    -0.004 A 
ENDROOT
TORSDOF 0
ENDMDL
