MODEL 1
REMARK minimizedAffinity -2.18100166
REMARK minimizedRMSD -1
REMARK  0 active torsions:
REMARK  status: ('A' for Active; 'I' for Inactive)
ROOT
ATOM      1  O1  BZF d   1       1.924   1.897   1.077  0.00  0.00    -0.204 OA
ATOM      2  C2  BZF d   1       0.648   2.409   0.942  0.00  0.00     0.174 A 
ATOM      3  C3  BZF d   1      -0.169   1.508   0.360  0.00  0.00    -0.012 A 
ATOM      4  C3A BZF d   1       0.624   0.328   0.200  0.00  0.00    -0.107 A 
ATOM      5  C4  BZF d   1       0.367  -0.915  -0.305  0.00  0.00     0.055 A 
ATOM      6  C5  BZF d   1       1.379  -1.817  -0.384  0.00  0.00    -0.016 A 
ATOM      7  C6  BZF d   1       2.660  -1.510   0.026  0.00  0.00     0.022 A 
ATOM      8  C7  BZF d   1       2.962  -0.292   0.538  0.00  0.00     0.029 A 
ATOM      9  C7A BZF d   1       1.934   0.611   0.651  0.00  0.00     0.058 A 
ENDROOT
TORSDOF 0
ENDMDL
