MODEL 1
REMARK minimizedAffinity -4.86865807
REMARK minimizedRMSD -1
REMARK  0 active torsions:
REMARK  status: ('A' for Active; 'I' for Inactive)
ROOT
ATOM      1  O1  BZF d   1      -0.277  -1.233  -0.196  0.00  0.00    -0.204 OA
ATOM      2  C2  BZF d   1      -1.349  -0.429  -0.533  0.00  0.00     0.174 A 
ATOM      3  C3  BZF d   1      -0.991   0.871  -0.532  0.00  0.00    -0.012 A 
ATOM      4  C3A BZF d   1       0.414   0.875  -0.262  0.00  0.00    -0.107 A 
ATOM      5  C4  BZF d   1       1.346   1.866  -0.149  0.00  0.00     0.055 A 
ATOM      6  C5  BZF d   1       2.620   1.540   0.194  0.00  0.00    -0.016 A 
ATOM      7  C6  BZF d   1       2.995   0.235   0.436  0.00  0.00     0.022 A 
ATOM      8  C7  BZF d   1       2.107  -0.784   0.332  0.00  0.00     0.029 A 
ATOM      9  C7A BZF d   1       0.827  -0.461  -0.047  0.00  0.00     0.058 A 
ENDROOT
TORSDOF 0
ENDMDL
