MODEL 1
REMARK minimizedAffinity -0.942626536
REMARK minimizedRMSD -1
REMARK  0 active torsions:
REMARK  status: ('A' for Active; 'I' for Inactive)
ROOT
ATOM      1  O1  BZF d   1       1.760   1.195   0.047  0.00  0.00    -0.204 OA
ATOM      2  C2  BZF d   1       2.830   0.583   0.670  0.00  0.00     0.174 A 
ATOM      3  C3  BZF d   1       2.431  -0.528   1.323  0.00  0.00    -0.012 A 
ATOM      4  C3A BZF d   1       1.040  -0.666   1.017  0.00  0.00    -0.107 A 
ATOM      5  C4  BZF d   1       0.090  -1.586   1.360  0.00  0.00     0.055 A 
ATOM      6  C5  BZF d   1      -1.192  -1.392   0.955  0.00  0.00    -0.016 A 
ATOM      7  C6  BZF d   1      -1.561  -0.290   0.212  0.00  0.00     0.022 A 
ATOM      8  C7  BZF d   1      -0.653   0.647  -0.157  0.00  0.00     0.029 A 
ATOM      9  C7A BZF d   1       0.651   0.437   0.223  0.00  0.00     0.058 A 
ENDROOT
TORSDOF 0
ENDMDL
