MODEL 1
REMARK minimizedAffinity -4.16726685
REMARK minimizedRMSD -1
REMARK  0 active torsions:
REMARK  status: ('A' for Active; 'I' for Inactive)
ROOT
ATOM      1  O1  BZF d   1      -0.960  -1.004  -0.425  0.00  0.00    -0.204 OA
ATOM      2  C2  BZF d   1      -1.595   0.199  -0.669  0.00  0.00     0.174 A 
ATOM      3  C3  BZF d   1      -0.756   1.234  -0.456  0.00  0.00    -0.012 A 
ATOM      4  C3A BZF d   1       0.506   0.637  -0.144  0.00  0.00    -0.107 A 
ATOM      5  C4  BZF d   1       1.739   1.148   0.149  0.00  0.00     0.055 A 
ATOM      6  C5  BZF d   1       2.745   0.296   0.478  0.00  0.00    -0.016 A 
ATOM      7  C6  BZF d   1       2.553  -1.070   0.529  0.00  0.00     0.022 A 
ATOM      8  C7  BZF d   1       1.350  -1.623   0.241  0.00  0.00     0.029 A 
ATOM      9  C7A BZF d   1       0.339  -0.767  -0.124  0.00  0.00     0.058 A 
ENDROOT
TORSDOF 0
ENDMDL
