MODEL 1
REMARK minimizedAffinity -1.58068669
REMARK minimizedRMSD -1
REMARK  0 active torsions:
REMARK  status: ('A' for Active; 'I' for Inactive)
ROOT
ATOM      1  O1  BZF d   1       2.857   1.161   0.974  0.00  0.00    -0.204 OA
ATOM      2  C2  BZF d   1       3.396  -0.100   0.808  0.00  0.00     0.174 A 
ATOM      3  C3  BZF d   1       2.479  -0.949   0.303  0.00  0.00    -0.012 A 
ATOM      4  C3A BZF d   1       1.320  -0.148   0.055  0.00  0.00    -0.107 A 
ATOM      5  C4  BZF d   1       0.084  -0.418  -0.459  0.00  0.00     0.055 A 
ATOM      6  C5  BZF d   1      -0.846   0.572  -0.498  0.00  0.00    -0.016 A 
ATOM      7  C6  BZF d   1      -0.576   1.841  -0.028  0.00  0.00     0.022 A 
ATOM      8  C7  BZF d   1       0.637   2.158   0.486  0.00  0.00     0.029 A 
ATOM      9  C7A BZF d   1       1.589   1.168   0.497  0.00  0.00     0.058 A 
ENDROOT
TORSDOF 0
ENDMDL
