MODEL 1
REMARK minimizedAffinity -0.54163444
REMARK minimizedRMSD -1
REMARK  0 active torsions:
REMARK  status: ('A' for Active; 'I' for Inactive)
ROOT
ATOM      1  O1  BZF d   1      -1.693   0.309  -3.308  0.00  0.00    -0.204 OA
ATOM      2  C2  BZF d   1      -2.976  -0.056  -3.665  0.00  0.00     0.174 A 
ATOM      3  C3  BZF d   1      -3.651  -0.534  -2.601  0.00  0.00    -0.012 A 
ATOM      4  C3A BZF d   1      -2.763  -0.378  -1.490  0.00  0.00    -0.107 A 
ATOM      5  C4  BZF d   1      -2.867  -0.656  -0.157  0.00  0.00     0.055 A 
ATOM      6  C5  BZF d   1      -1.791  -0.452   0.647  0.00  0.00    -0.016 A 
ATOM      7  C6  BZF d   1      -0.594   0.024   0.151  0.00  0.00     0.022 A 
ATOM      8  C7  BZF d   1      -0.444   0.318  -1.163  0.00  0.00     0.029 A 
ATOM      9  C7A BZF d   1      -1.540   0.145  -1.972  0.00  0.00     0.058 A 
ENDROOT
TORSDOF 0
ENDMDL
