MODEL 1
REMARK minimizedAffinity -5.54123974
REMARK minimizedRMSD -1
REMARK  0 active torsions:
REMARK  status: ('A' for Active; 'I' for Inactive)
ROOT
ATOM      1  O1  BZF d   1      -1.079  -0.378   0.434  0.00  0.00    -0.204 OA
ATOM      2  C2  BZF d   1      -0.900   0.920  -0.004  0.00  0.00     0.174 A 
ATOM      3  C3  BZF d   1       0.365   1.330   0.221  0.00  0.00    -0.012 A 
ATOM      4  C3A BZF d   1       1.042   0.188   0.753  0.00  0.00    -0.107 A 
ATOM      5  C4  BZF d   1       2.326  -0.037   1.159  0.00  0.00     0.055 A 
ATOM      6  C5  BZF d   1       2.647  -1.243   1.698  0.00  0.00    -0.016 A 
ATOM      7  C6  BZF d   1       1.708  -2.243   1.850  0.00  0.00     0.022 A 
ATOM      8  C7  BZF d   1       0.423  -2.068   1.458  0.00  0.00     0.029 A 
ATOM      9  C7A BZF d   1       0.104  -0.862   0.882  0.00  0.00     0.058 A 
ENDROOT
TORSDOF 0
ENDMDL
