MODEL 1
REMARK minimizedAffinity -3.26882935
REMARK minimizedRMSD -1
REMARK  0 active torsions:
REMARK  status: ('A' for Active; 'I' for Inactive)
ROOT
ATOM      1  O1  BZF d   1      -0.680   1.112   0.486  0.00  0.00    -0.204 OA
ATOM      2  C2  BZF d   1      -1.556   0.049   0.590  0.00  0.00     0.174 A 
ATOM      3  C3  BZF d   1      -0.886  -1.122   0.603  0.00  0.00    -0.012 A 
ATOM      4  C3A BZF d   1       0.499  -0.764   0.595  0.00  0.00    -0.107 A 
ATOM      5  C4  BZF d   1       1.656  -1.488   0.616  0.00  0.00     0.055 A 
ATOM      6  C5  BZF d   1       2.845  -0.836   0.525  0.00  0.00    -0.016 A 
ATOM      7  C6  BZF d   1       2.914   0.537   0.407  0.00  0.00     0.022 A 
ATOM      8  C7  BZF d   1       1.793   1.298   0.386  0.00  0.00     0.029 A 
ATOM      9  C7A BZF d   1       0.591   0.645   0.511  0.00  0.00     0.058 A 
ENDROOT
TORSDOF 0
ENDMDL
