MODEL 1
REMARK minimizedAffinity -3.88900161
REMARK minimizedRMSD -1
REMARK  0 active torsions:
REMARK  status: ('A' for Active; 'I' for Inactive)
ROOT
ATOM      1  O1  BZF d   1       2.517  -1.858   0.993  0.00  0.00    -0.204 OA
ATOM      2  C2  BZF d   1       1.432  -2.600   1.419  0.00  0.00     0.174 A 
ATOM      3  C3  BZF d   1       0.288  -1.902   1.272  0.00  0.00    -0.012 A 
ATOM      4  C3A BZF d   1       0.672  -0.680   0.634  0.00  0.00    -0.107 A 
ATOM      5  C4  BZF d   1      -0.023   0.417   0.212  0.00  0.00     0.055 A 
ATOM      6  C5  BZF d   1       0.660   1.472  -0.306  0.00  0.00    -0.016 A 
ATOM      7  C6  BZF d   1       2.035   1.466  -0.411  0.00  0.00     0.022 A 
ATOM      8  C7  BZF d   1       2.767   0.398  -0.010  0.00  0.00     0.029 A 
ATOM      9  C7A BZF d   1       2.078  -0.682   0.484  0.00  0.00     0.058 A 
ENDROOT
TORSDOF 0
ENDMDL
