MODEL 1
REMARK minimizedAffinity -4.51717281
REMARK minimizedRMSD -1
REMARK  0 active torsions:
REMARK  status: ('A' for Active; 'I' for Inactive)
ROOT
ATOM      1  C   UNL d   1      -0.963   1.429   2.787  0.00  0.00     0.023 A 
ATOM      2  C1  UNL d   1      -1.930   0.788   2.012  0.00  0.00     0.003 A 
ATOM      3  C2  UNL d   1      -1.557   0.097   0.858  0.00  0.00     0.048 A 
ATOM      4  C3  UNL d   1      -0.214   0.049   0.485  0.00  0.00     0.023 A 
ATOM      5  C4  UNL d   1       0.758   0.687   1.257  0.00  0.00     0.048 A 
ATOM      6  C5  UNL d   1       0.379   1.378   2.410  0.00  0.00     0.003 A 
ATOM      7  I   UNL d   1       0.344  -0.980  -1.233  0.00  0.00    -0.146 I 
ENDROOT
TORSDOF 0
ENDMDL
