MODEL 1
REMARK minimizedAffinity -3.61722827
REMARK minimizedRMSD -1
REMARK  0 active torsions:
REMARK  status: ('A' for Active; 'I' for Inactive)
ROOT
ATOM      1  C   UNL d   1      -1.068   1.295   2.834  0.00  0.00     0.023 A 
ATOM      2  C1  UNL d   1      -1.932   0.504   2.077  0.00  0.00     0.003 A 
ATOM      3  C2  UNL d   1      -1.475  -0.109   0.908  0.00  0.00     0.048 A 
ATOM      4  C3  UNL d   1      -0.153   0.072   0.504  0.00  0.00     0.023 A 
ATOM      5  C4  UNL d   1       0.715   0.862   1.259  0.00  0.00     0.048 A 
ATOM      6  C5  UNL d   1       0.254   1.473   2.426  0.00  0.00     0.003 A 
ATOM      7  I   UNL d   1       0.530  -0.839  -1.235  0.00  0.00    -0.146 I 
ENDROOT
TORSDOF 0
ENDMDL
