MODEL 1
REMARK minimizedAffinity -4.37764406
REMARK minimizedRMSD -1
REMARK  0 active torsions:
REMARK  status: ('A' for Active; 'I' for Inactive)
ROOT
ATOM      1  C   UNL d   1      -1.399   1.393   2.906  0.00  0.00     0.023 A 
ATOM      2  C1  UNL d   1      -2.092   0.501   2.088  0.00  0.00     0.003 A 
ATOM      3  C2  UNL d   1      -1.463  -0.062   0.976  0.00  0.00     0.048 A 
ATOM      4  C3  UNL d   1      -0.139   0.271   0.688  0.00  0.00     0.023 A 
ATOM      5  C4  UNL d   1       0.559   1.162   1.505  0.00  0.00     0.048 A 
ATOM      6  C5  UNL d   1      -0.075   1.723   2.616  0.00  0.00     0.003 A 
ATOM      7  I   UNL d   1       0.800  -0.565  -0.966  0.00  0.00    -0.146 I 
ENDROOT
TORSDOF 0
ENDMDL
