MODEL 1
REMARK minimizedAffinity -3.50944853
REMARK minimizedRMSD -1
REMARK  0 active torsions:
REMARK  status: ('A' for Active; 'I' for Inactive)
ROOT
ATOM      1  C   UNL d   1      -1.541   0.820   2.756  0.00  0.00     0.023 A 
ATOM      2  C1  UNL d   1      -0.149   0.795   2.678  0.00  0.00     0.003 A 
ATOM      3  C2  UNL d   1       0.479   0.481   1.471  0.00  0.00     0.048 A 
ATOM      4  C3  UNL d   1      -0.292   0.195   0.345  0.00  0.00     0.023 A 
ATOM      5  C4  UNL d   1      -1.685   0.220   0.417  0.00  0.00     0.048 A 
ATOM      6  C5  UNL d   1      -2.309   0.533   1.627  0.00  0.00     0.003 A 
ATOM      7  I   UNL d   1       0.640  -0.272  -1.454  0.00  0.00    -0.146 I 
ENDROOT
TORSDOF 0
ENDMDL
