MODEL 1
REMARK minimizedAffinity -4.07828522
REMARK minimizedRMSD -1
REMARK  0 active torsions:
REMARK  status: ('A' for Active; 'I' for Inactive)
ROOT
ATOM      1  C   UNL d   1      -0.926   0.880   2.837  0.00  0.00     0.023 A 
ATOM      2  C1  UNL d   1       0.386   0.881   2.364  0.00  0.00     0.003 A 
ATOM      3  C2  UNL d   1       0.660   0.470   1.058  0.00  0.00     0.048 A 
ATOM      4  C3  UNL d   1      -0.384   0.060   0.229  0.00  0.00     0.023 A 
ATOM      5  C4  UNL d   1      -1.699   0.059   0.698  0.00  0.00     0.048 A 
ATOM      6  C5  UNL d   1      -1.968   0.470   2.004  0.00  0.00     0.003 A 
ATOM      7  I   UNL d   1       0.020  -0.552  -1.715  0.00  0.00    -0.146 I 
ENDROOT
TORSDOF 0
ENDMDL
