MODEL 1
REMARK minimizedAffinity -3.22534466
REMARK minimizedRMSD -1
REMARK  0 active torsions:
REMARK  status: ('A' for Active; 'I' for Inactive)
ROOT
ATOM      1  C   UNL d   1      -1.450   1.512   2.964  0.00  0.00     0.023 A 
ATOM      2  C1  UNL d   1      -2.091   0.336   2.572  0.00  0.00     0.003 A 
ATOM      3  C2  UNL d   1      -1.535  -0.464   1.572  0.00  0.00     0.048 A 
ATOM      4  C3  UNL d   1      -0.337  -0.083   0.968  0.00  0.00     0.023 A 
ATOM      5  C4  UNL d   1       0.309   1.092   1.357  0.00  0.00     0.048 A 
ATOM      6  C5  UNL d   1      -0.252   1.889   2.357  0.00  0.00     0.003 A 
ATOM      7  I   UNL d   1       0.492  -1.272  -0.521  0.00  0.00    -0.146 I 
ENDROOT
TORSDOF 0
ENDMDL
