MODEL 1
REMARK minimizedAffinity -4.14713955
REMARK minimizedRMSD -1
REMARK  0 active torsions:
REMARK  status: ('A' for Active; 'I' for Inactive)
ROOT
ATOM      1  C   UNL d   1      -0.066   0.709   3.420  0.00  0.00     0.023 A 
ATOM      2  C1  UNL d   1       1.107  -0.014   3.201  0.00  0.00     0.003 A 
ATOM      3  C2  UNL d   1       1.387  -0.525   1.932  0.00  0.00     0.048 A 
ATOM      4  C3  UNL d   1       0.490  -0.309   0.887  0.00  0.00     0.023 A 
ATOM      5  C4  UNL d   1      -0.684   0.414   1.101  0.00  0.00     0.048 A 
ATOM      6  C5  UNL d   1      -0.960   0.923   2.371  0.00  0.00     0.003 A 
ATOM      7  I   UNL d   1       0.905  -1.070  -1.003  0.00  0.00    -0.146 I 
ENDROOT
TORSDOF 0
ENDMDL
