MODEL 1
REMARK minimizedAffinity 8.81256008
REMARK minimizedRMSD -1
REMARK  0 active torsions:
REMARK  status: ('A' for Active; 'I' for Inactive)
ROOT
ATOM      1  C   UNL d   1       2.249  -0.024   1.285  0.00  0.00     0.078 C 
ATOM      2  C1  UNL d   1       1.157  -1.051   1.274  0.00  0.00    -0.077 A 
ATOM      3  C2  UNL d   1      -0.189  -0.675   1.372  0.00  0.00    -0.001 A 
ATOM      4  C3  UNL d   1      -1.194  -1.643   1.370  0.00  0.00     0.003 A 
ATOM      5  C4  UNL d   1      -0.865  -2.993   1.271  0.00  0.00    -0.005 A 
ATOM      6  C5  UNL d   1       0.470  -3.377   1.175  0.00  0.00     0.003 A 
ATOM      7  C6  UNL d   1       1.477  -2.411   1.177  0.00  0.00    -0.001 A 
ENDROOT
TORSDOF 0
ENDMDL
