MODEL 1
REMARK minimizedAffinity 7.91808891
REMARK minimizedRMSD -1
REMARK  0 active torsions:
REMARK  status: ('A' for Active; 'I' for Inactive)
ROOT
ATOM      1  C   UNL d   1       1.134  -2.378   4.270  0.00  0.00     0.078 C 
ATOM      2  C1  UNL d   1       1.464  -1.653   2.999  0.00  0.00    -0.077 A 
ATOM      3  C2  UNL d   1       2.592  -1.998   2.244  0.00  0.00    -0.001 A 
ATOM      4  C3  UNL d   1       2.892  -1.309   1.068  0.00  0.00     0.003 A 
ATOM      5  C4  UNL d   1       2.070  -0.270   0.637  0.00  0.00    -0.005 A 
ATOM      6  C5  UNL d   1       0.947   0.082   1.383  0.00  0.00     0.003 A 
ATOM      7  C6  UNL d   1       0.645  -0.606   2.559  0.00  0.00    -0.001 A 
ENDROOT
TORSDOF 0
ENDMDL
