MODEL 1
REMARK minimizedAffinity 9.87078381
REMARK minimizedRMSD -1
REMARK  0 active torsions:
REMARK  status: ('A' for Active; 'I' for Inactive)
ROOT
ATOM      1  C   UNL d   1       0.760   1.941   2.235  0.00  0.00     0.078 C 
ATOM      2  C1  UNL d   1       1.115   0.489   2.119  0.00  0.00    -0.077 A 
ATOM      3  C2  UNL d   1       0.411  -0.485   2.838  0.00  0.00    -0.001 A 
ATOM      4  C3  UNL d   1       0.758  -1.832   2.728  0.00  0.00     0.003 A 
ATOM      5  C4  UNL d   1       1.811  -2.218   1.901  0.00  0.00    -0.005 A 
ATOM      6  C5  UNL d   1       2.519  -1.256   1.184  0.00  0.00     0.003 A 
ATOM      7  C6  UNL d   1       2.173   0.092   1.292  0.00  0.00    -0.001 A 
ENDROOT
TORSDOF 0
ENDMDL
