MODEL 1
REMARK minimizedAffinity 1.35926306
REMARK minimizedRMSD -1
REMARK  0 active torsions:
REMARK  status: ('A' for Active; 'I' for Inactive)
ROOT
ATOM      1  C   UNL d   1      -5.462  -1.729  -5.129  0.00  0.00     0.078 C 
ATOM      2  C1  UNL d   1      -5.196  -3.204  -5.188  0.00  0.00    -0.077 A 
ATOM      3  C2  UNL d   1      -6.000  -4.110  -4.486  0.00  0.00    -0.001 A 
ATOM      4  C3  UNL d   1      -5.735  -5.480  -4.543  0.00  0.00     0.003 A 
ATOM      5  C4  UNL d   1      -4.666  -5.955  -5.299  0.00  0.00    -0.005 A 
ATOM      6  C5  UNL d   1      -3.859  -5.060  -6.000  0.00  0.00     0.003 A 
ATOM      7  C6  UNL d   1      -4.122  -3.691  -5.944  0.00  0.00    -0.001 A 
ENDROOT
TORSDOF 0
ENDMDL
