MODEL 1
REMARK minimizedAffinity 13.1141768
REMARK minimizedRMSD -1
REMARK  0 active torsions:
REMARK  status: ('A' for Active; 'I' for Inactive)
ROOT
ATOM      1  C   UNL d   1       0.716  -2.624   4.464  0.00  0.00     0.078 C 
ATOM      2  C1  UNL d   1       1.145  -1.813   3.278  0.00  0.00    -0.077 A 
ATOM      3  C2  UNL d   1       2.087  -2.309   2.368  0.00  0.00    -0.001 A 
ATOM      4  C3  UNL d   1       2.485  -1.538   1.274  0.00  0.00     0.003 A 
ATOM      5  C4  UNL d   1       1.947  -0.268   1.080  0.00  0.00    -0.005 A 
ATOM      6  C5  UNL d   1       1.011   0.235   1.982  0.00  0.00     0.003 A 
ATOM      7  C6  UNL d   1       0.612  -0.534   3.076  0.00  0.00    -0.001 A 
ENDROOT
TORSDOF 0
ENDMDL
