MODEL 1
REMARK minimizedAffinity 11.5830212
REMARK minimizedRMSD -1
REMARK  0 active torsions:
REMARK  status: ('A' for Active; 'I' for Inactive)
ROOT
ATOM      1  C   UNL d   1      -5.062   2.360  -5.428  0.00  0.00     0.078 C 
ATOM      2  C1  UNL d   1      -5.178   1.712  -4.080  0.00  0.00    -0.077 A 
ATOM      3  C2  UNL d   1      -4.628   0.448  -3.839  0.00  0.00    -0.001 A 
ATOM      4  C3  UNL d   1      -4.751  -0.148  -2.582  0.00  0.00     0.003 A 
ATOM      5  C4  UNL d   1      -5.426   0.514  -1.558  0.00  0.00    -0.005 A 
ATOM      6  C5  UNL d   1      -5.978   1.772  -1.790  0.00  0.00     0.003 A 
ATOM      7  C6  UNL d   1      -5.856   2.369  -3.045  0.00  0.00    -0.001 A 
ENDROOT
TORSDOF 0
ENDMDL
