MODEL 1
REMARK minimizedAffinity 13.7668257
REMARK minimizedRMSD -1
REMARK  0 active torsions:
REMARK  status: ('A' for Active; 'I' for Inactive)
ROOT
ATOM      1  C   UNL d   1       0.704  -3.195   5.370  0.00  0.00     0.078 C 
ATOM      2  C1  UNL d   1       1.209  -2.642   4.072  0.00  0.00    -0.077 A 
ATOM      3  C2  UNL d   1       2.353  -3.169   3.459  0.00  0.00    -0.001 A 
ATOM      4  C3  UNL d   1       2.817  -2.638   2.255  0.00  0.00     0.003 A 
ATOM      5  C4  UNL d   1       2.145  -1.575   1.654  0.00  0.00    -0.005 A 
ATOM      6  C5  UNL d   1       1.008  -1.043   2.257  0.00  0.00     0.003 A 
ATOM      7  C6  UNL d   1       0.541  -1.573   3.461  0.00  0.00    -0.001 A 
ENDROOT
TORSDOF 0
ENDMDL
