MODEL 1
REMARK minimizedAffinity 7.77742004
REMARK minimizedRMSD -1
REMARK  0 active torsions:
REMARK  status: ('A' for Active; 'I' for Inactive)
ROOT
ATOM      1  C   UNL d   1       0.839  -2.582   3.774  0.00  0.00     0.078 C 
ATOM      2  C1  UNL d   1       1.288  -1.808   2.570  0.00  0.00    -0.077 A 
ATOM      3  C2  UNL d   1       1.920  -2.447   1.497  0.00  0.00    -0.001 A 
ATOM      4  C3  UNL d   1       2.341  -1.713   0.387  0.00  0.00     0.003 A 
ATOM      5  C4  UNL d   1       2.136  -0.335   0.341  0.00  0.00    -0.005 A 
ATOM      6  C5  UNL d   1       1.510   0.310   1.405  0.00  0.00     0.003 A 
ATOM      7  C6  UNL d   1       1.088  -0.423   2.516  0.00  0.00    -0.001 A 
ENDROOT
TORSDOF 0
ENDMDL
