MODEL 1
REMARK minimizedAffinity 9.84437752
REMARK minimizedRMSD -1
REMARK  0 active torsions:
REMARK  status: ('A' for Active; 'I' for Inactive)
ROOT
ATOM      1  C   UNL d   1      -2.356   1.830   0.709  0.00  0.00     0.078 C 
ATOM      2  C1  UNL d   1      -3.632   2.513   1.101  0.00  0.00    -0.077 A 
ATOM      3  C2  UNL d   1      -4.816   2.294   0.387  0.00  0.00    -0.001 A 
ATOM      4  C3  UNL d   1      -5.994   2.944   0.757  0.00  0.00     0.003 A 
ATOM      5  C4  UNL d   1      -6.000   3.819   1.841  0.00  0.00    -0.005 A 
ATOM      6  C5  UNL d   1      -4.825   4.046   2.556  0.00  0.00     0.003 A 
ATOM      7  C6  UNL d   1      -3.646   3.396   2.188  0.00  0.00    -0.001 A 
ENDROOT
TORSDOF 0
ENDMDL
