MODEL 1
REMARK minimizedAffinity 4.01621962
REMARK minimizedRMSD -1
REMARK  0 active torsions:
REMARK  status: ('A' for Active; 'I' for Inactive)
ROOT
ATOM      1  C   UNL d   1       5.995   5.744  -5.996  0.00  0.00     0.078 C 
ATOM      2  C1  UNL d   1       5.388   5.432  -4.661  0.00  0.00    -0.077 A 
ATOM      3  C2  UNL d   1       4.204   4.690  -4.562  0.00  0.00    -0.001 A 
ATOM      4  C3  UNL d   1       3.645   4.416  -3.312  0.00  0.00     0.003 A 
ATOM      5  C4  UNL d   1       4.263   4.880  -2.153  0.00  0.00    -0.005 A 
ATOM      6  C5  UNL d   1       5.440   5.621  -2.241  0.00  0.00     0.003 A 
ATOM      7  C6  UNL d   1       6.000   5.896  -3.489  0.00  0.00    -0.001 A 
ENDROOT
TORSDOF 0
ENDMDL
