MODEL 1
REMARK minimizedAffinity 2.39302826
REMARK minimizedRMSD -1
REMARK  0 active torsions:
REMARK  status: ('A' for Active; 'I' for Inactive)
ROOT
ATOM      1  C   UNL d   1       2.545  -0.273   1.293  0.00  0.00     0.078 C 
ATOM      2  C1  UNL d   1       1.356  -1.178   1.170  0.00  0.00    -0.077 A 
ATOM      3  C2  UNL d   1       0.091  -0.669   0.850  0.00  0.00    -0.001 A 
ATOM      4  C3  UNL d   1      -1.009  -1.522   0.749  0.00  0.00     0.003 A 
ATOM      5  C4  UNL d   1      -0.856  -2.890   0.966  0.00  0.00    -0.005 A 
ATOM      6  C5  UNL d   1       0.398  -3.406   1.287  0.00  0.00     0.003 A 
ATOM      7  C6  UNL d   1       1.499  -2.554   1.389  0.00  0.00    -0.001 A 
ENDROOT
TORSDOF 0
ENDMDL
