MODEL 1
REMARK minimizedAffinity 4.05582952
REMARK minimizedRMSD -1
REMARK  1 active torsions:
REMARK  status: ('A' for Active; 'I' for Inactive)
REMARK    1  A    between atoms: C1_2  and  C2_3 
ROOT
ATOM      1  C2  UNL d   1       0.215  -1.181  -0.699  0.00  0.00    -0.076 A 
ATOM      2  C3  UNL d   1       0.392  -1.686   0.601  0.00  0.00     0.004 A 
ATOM      3  C4  UNL d   1       1.233  -1.047   1.510  0.00  0.00    -0.003 A 
ATOM      4  C5  UNL d   1       1.909   0.109   1.134  0.00  0.00     0.000 A 
ATOM      5  C6  UNL d   1       1.731   0.634  -0.145  0.00  0.00     0.000 A 
ATOM      6  C7  UNL d   1       0.874   0.010  -1.069  0.00  0.00    -0.073 A 
ATOM      7  C8  UNL d   1       0.724   0.616  -2.437  0.00  0.00     0.078 C 
ENDROOT
BRANCH   1   8
ATOM      8  C1  UNL d   1      -0.689  -1.933  -1.651  0.00  0.00     0.053 C 
ATOM      9  C   UNL d   1      -0.872  -3.389  -1.252  0.00  0.00     0.018 C 
ENDBRANCH   1   8
TORSDOF 1
ENDMDL
