MODEL 1
REMARK minimizedAffinity 5.48183632
REMARK minimizedRMSD -1
REMARK  1 active torsions:
REMARK  status: ('A' for Active; 'I' for Inactive)
REMARK    1  A    between atoms: C1_2  and  C2_3 
ROOT
ATOM      1  C2  UNL d   1       3.239  -0.608  -4.526  0.00  0.00    -0.076 A 
ATOM      2  C3  UNL d   1       4.142   0.468  -4.512  0.00  0.00     0.004 A 
ATOM      3  C4  UNL d   1       3.693   1.783  -4.618  0.00  0.00    -0.003 A 
ATOM      4  C5  UNL d   1       2.332   2.043  -4.740  0.00  0.00     0.000 A 
ATOM      5  C6  UNL d   1       1.420   0.988  -4.737  0.00  0.00     0.000 A 
ATOM      6  C7  UNL d   1       1.856  -0.343  -4.615  0.00  0.00    -0.073 A 
ATOM      7  C8  UNL d   1       0.829  -1.442  -4.624  0.00  0.00     0.078 C 
ENDROOT
BRANCH   1   8
ATOM      8  C1  UNL d   1       3.787  -2.015  -4.435  0.00  0.00     0.053 C 
ATOM      9  C   UNL d   1       3.634  -2.785  -5.737  0.00  0.00     0.018 C 
ENDBRANCH   1   8
TORSDOF 1
ENDMDL
