MODEL 1
REMARK minimizedAffinity 1.97573161
REMARK minimizedRMSD -1
REMARK  1 active torsions:
REMARK  status: ('A' for Active; 'I' for Inactive)
REMARK    1  A    between atoms: C1_2  and  C2_3 
ROOT
ATOM      1  C2  UNL d   1       2.023  -0.394  -0.268  0.00  0.00    -0.076 A 
ATOM      2  C3  UNL d   1       2.755   0.414   0.619  0.00  0.00     0.004 A 
ATOM      3  C4  UNL d   1       2.108   1.240   1.537  0.00  0.00    -0.003 A 
ATOM      4  C5  UNL d   1       0.719   1.270   1.584  0.00  0.00     0.000 A 
ATOM      5  C6  UNL d   1      -0.023   0.462   0.724  0.00  0.00     0.000 A 
ATOM      6  C7  UNL d   1       0.613  -0.389  -0.197  0.00  0.00    -0.073 A 
ATOM      7  C8  UNL d   1      -0.237  -1.235  -1.105  0.00  0.00     0.078 C 
ENDROOT
BRANCH   1   8
ATOM      8  C1  UNL d   1       2.778  -1.249  -1.260  0.00  0.00     0.053 C 
ATOM      9  C   UNL d   1       3.168  -0.480  -2.513  0.00  0.00     0.018 C 
ENDBRANCH   1   8
TORSDOF 1
ENDMDL
