MODEL 1
REMARK minimizedAffinity 7.6948781
REMARK minimizedRMSD -1
REMARK  1 active torsions:
REMARK  status: ('A' for Active; 'I' for Inactive)
REMARK    1  A    between atoms: C1_2  and  C2_3 
ROOT
ATOM      1  C2  UNL d   1       3.548   2.254   2.556  0.00  0.00    -0.076 A 
ATOM      2  C3  UNL d   1       3.745   2.294   3.948  0.00  0.00     0.004 A 
ATOM      3  C4  UNL d   1       4.961   2.709   4.488  0.00  0.00    -0.003 A 
ATOM      4  C5  UNL d   1       5.999   3.091   3.647  0.00  0.00     0.000 A 
ATOM      5  C6  UNL d   1       5.815   3.074   2.264  0.00  0.00     0.000 A 
ATOM      6  C7  UNL d   1       4.590   2.675   1.703  0.00  0.00    -0.073 A 
ATOM      7  C8  UNL d   1       4.449   2.670   0.206  0.00  0.00     0.078 C 
ENDROOT
BRANCH   1   8
ATOM      8  C1  UNL d   1       2.217   1.770   2.027  0.00  0.00     0.053 C 
ATOM      9  C   UNL d   1       1.048   2.216   2.893  0.00  0.00     0.018 C 
ENDBRANCH   1   8
TORSDOF 1
ENDMDL
