MODEL 1
REMARK minimizedAffinity 4.4336133
REMARK minimizedRMSD -1
REMARK  0 active torsions:
REMARK  status: ('A' for Active; 'I' for Inactive)
ROOT
ATOM      1  N1  IND d   1      -5.999   2.630  -3.434  0.00  0.00    -0.196 N 
ATOM      2  C2  IND d   1      -5.978   1.649  -4.386  0.00  0.00     0.054 A 
ATOM      3  C3  IND d   1      -5.400   2.107  -5.520  0.00  0.00    -0.031 A 
ATOM      4  C4  IND d   1      -4.328   4.398  -5.999  0.00  0.00     0.051 A 
ATOM      5  C5  IND d   1      -4.138   5.635  -5.449  0.00  0.00    -0.031 A 
ATOM      6  C6  IND d   1      -4.564   5.938  -4.172  0.00  0.00     0.015 A 
ATOM      7  C7  IND d   1      -5.189   5.008  -3.390  0.00  0.00    -0.016 A 
ATOM      8  C8  IND d   1      -5.391   3.754  -3.948  0.00  0.00    -0.047 A 
ATOM      9  C9  IND d   1      -4.999   3.453  -5.259  0.00  0.00    -0.096 A 
ATOM     10  HN1 IND d   1      -6.336   2.557  -2.646  0.00  0.00     0.298 HD
ENDROOT
TORSDOF 0
ENDMDL
