MODEL 1
REMARK minimizedAffinity 1.49742734
REMARK minimizedRMSD -1
REMARK  0 active torsions:
REMARK  status: ('A' for Active; 'I' for Inactive)
ROOT
ATOM      1  N1  IND d   1      -0.434   0.848  -0.594  0.00  0.00    -0.196 N 
ATOM      2  C2  IND d   1      -1.173   0.453  -1.674  0.00  0.00     0.054 A 
ATOM      3  C3  IND d   1      -1.555   1.527  -2.401  0.00  0.00    -0.031 A 
ATOM      4  C4  IND d   1      -0.995   4.016  -2.059  0.00  0.00     0.051 A 
ATOM      5  C5  IND d   1      -0.380   4.872  -1.190  0.00  0.00    -0.031 A 
ATOM      6  C6  IND d   1       0.264   4.422  -0.055  0.00  0.00     0.015 A 
ATOM      7  C7  IND d   1       0.327   3.091   0.247  0.00  0.00    -0.016 A 
ATOM      8  C8  IND d   1      -0.303   2.219  -0.630  0.00  0.00    -0.047 A 
ATOM      9  C9  IND d   1      -0.994   2.674  -1.760  0.00  0.00    -0.096 A 
ATOM     10  HN1 IND d   1      -0.106   0.328   0.007  0.00  0.00     0.298 HD
ENDROOT
TORSDOF 0
ENDMDL
