MODEL 1
REMARK minimizedAffinity 13.785408
REMARK minimizedRMSD -1
REMARK  0 active torsions:
REMARK  status: ('A' for Active; 'I' for Inactive)
ROOT
ATOM      1  N1  IND d   1       3.722  -1.485  -1.017  0.00  0.00    -0.196 N 
ATOM      2  C2  IND d   1       4.420  -2.625  -0.729  0.00  0.00     0.054 A 
ATOM      3  C3  IND d   1       3.580  -3.681  -0.639  0.00  0.00    -0.031 A 
ATOM      4  C4  IND d   1       1.038  -3.786  -1.029  0.00  0.00     0.051 A 
ATOM      5  C5  IND d   1      -0.047  -2.994  -1.278  0.00  0.00    -0.031 A 
ATOM      6  C6  IND d   1       0.071  -1.631  -1.460  0.00  0.00     0.015 A 
ATOM      7  C7  IND d   1       1.286  -1.009  -1.410  0.00  0.00    -0.016 A 
ATOM      8  C8  IND d   1       2.390  -1.809  -1.149  0.00  0.00    -0.047 A 
ATOM      9  C9  IND d   1       2.270  -3.186  -0.922  0.00  0.00    -0.096 A 
ATOM     10  HN1 IND d   1       4.059  -0.699  -1.101  0.00  0.00     0.298 HD
ENDROOT
TORSDOF 0
ENDMDL
