MODEL 1
REMARK minimizedAffinity 4.32075596
REMARK minimizedRMSD -1
REMARK  0 active torsions:
REMARK  status: ('A' for Active; 'I' for Inactive)
ROOT
ATOM      1  N1  IND d   1      -1.283   3.037   1.246  0.00  0.00    -0.196 N 
ATOM      2  C2  IND d   1      -0.090   2.552   1.705  0.00  0.00     0.054 A 
ATOM      3  C3  IND d   1       0.907   2.867   0.848  0.00  0.00    -0.031 A 
ATOM      4  C4  IND d   1       0.823   4.259  -1.317  0.00  0.00     0.051 A 
ATOM      5  C5  IND d   1      -0.050   4.884  -2.163  0.00  0.00    -0.031 A 
ATOM      6  C6  IND d   1      -1.405   4.928  -1.909  0.00  0.00     0.015 A 
ATOM      7  C7  IND d   1      -1.939   4.357  -0.789  0.00  0.00    -0.016 A 
ATOM      8  C8  IND d   1      -1.057   3.715   0.069  0.00  0.00    -0.047 A 
ATOM      9  C9  IND d   1       0.314   3.630  -0.205  0.00  0.00    -0.096 A 
ATOM     10  HN1 IND d   1      -2.046   2.935   1.629  0.00  0.00     0.298 HD
ENDROOT
TORSDOF 0
ENDMDL
