MODEL 1
REMARK minimizedAffinity 4.1398201
REMARK minimizedRMSD -1
REMARK  0 active torsions:
REMARK  status: ('A' for Active; 'I' for Inactive)
ROOT
ATOM      1  N1  IND d   1      -5.970   0.517  -4.495  0.00  0.00    -0.196 N 
ATOM      2  C2  IND d   1      -5.972   1.231  -5.661  0.00  0.00     0.054 A 
ATOM      3  C3  IND d   1      -5.999   2.557  -5.400  0.00  0.00    -0.031 A 
ATOM      4  C4  IND d   1      -5.939   3.780  -3.136  0.00  0.00     0.051 A 
ATOM      5  C5  IND d   1      -5.970   3.555  -1.788  0.00  0.00    -0.031 A 
ATOM      6  C6  IND d   1      -6.000   2.279  -1.263  0.00  0.00     0.015 A 
ATOM      7  C7  IND d   1      -5.989   1.176  -2.070  0.00  0.00    -0.016 A 
ATOM      8  C8  IND d   1      -5.965   1.402  -3.439  0.00  0.00    -0.047 A 
ATOM      9  C9  IND d   1      -5.978   2.695  -3.978  0.00  0.00    -0.096 A 
ATOM     10  HN1 IND d   1      -5.972  -0.341  -4.432  0.00  0.00     0.298 HD
ENDROOT
TORSDOF 0
ENDMDL
