MODEL 1
REMARK minimizedAffinity 16.6118145
REMARK minimizedRMSD -1
REMARK  0 active torsions:
REMARK  status: ('A' for Active; 'I' for Inactive)
ROOT
ATOM      1  N1  IND d   1       1.040   4.761  -0.066  0.00  0.00    -0.196 N 
ATOM      2  C2  IND d   1       0.141   4.086  -0.845  0.00  0.00     0.054 A 
ATOM      3  C3  IND d   1      -0.419   3.073  -0.148  0.00  0.00    -0.031 A 
ATOM      4  C4  IND d   1      -0.085   2.402   2.315  0.00  0.00     0.051 A 
ATOM      5  C5  IND d   1       0.662   2.698   3.421  0.00  0.00    -0.031 A 
ATOM      6  C6  IND d   1       1.590   3.720   3.421  0.00  0.00     0.015 A 
ATOM      7  C7  IND d   1       1.798   4.494   2.315  0.00  0.00    -0.016 A 
ATOM      8  C8  IND d   1       1.046   4.191   1.188  0.00  0.00    -0.047 A 
ATOM      9  C9  IND d   1       0.134   3.129   1.169  0.00  0.00    -0.096 A 
ATOM     10  HN1 IND d   1       1.520   5.429  -0.317  0.00  0.00     0.298 HD
ENDROOT
TORSDOF 0
ENDMDL
