MODEL 1
REMARK minimizedAffinity 7.69743919
REMARK minimizedRMSD -1
REMARK  0 active torsions:
REMARK  status: ('A' for Active; 'I' for Inactive)
ROOT
ATOM      1  N1  IND d   1      -5.999   0.677   4.951  0.00  0.00    -0.196 N 
ATOM      2  C2  IND d   1      -6.000  -0.510   5.629  0.00  0.00     0.054 A 
ATOM      3  C3  IND d   1      -5.280  -1.436   4.957  0.00  0.00    -0.031 A 
ATOM      4  C4  IND d   1      -3.931  -1.193   2.778  0.00  0.00     0.051 A 
ATOM      5  C5  IND d   1      -3.657  -0.307   1.773  0.00  0.00    -0.031 A 
ATOM      6  C6  IND d   1      -4.159   0.978   1.778  0.00  0.00     0.015 A 
ATOM      7  C7  IND d   1      -4.946   1.432   2.798  0.00  0.00    -0.016 A 
ATOM      8  C8  IND d   1      -5.232   0.533   3.816  0.00  0.00    -0.047 A 
ATOM      9  C9  IND d   1      -4.761  -0.786   3.795  0.00  0.00    -0.096 A 
ATOM     10  HN1 IND d   1      -6.409   1.393   5.193  0.00  0.00     0.298 HD
ENDROOT
TORSDOF 0
ENDMDL
