MODEL 1
REMARK minimizedAffinity 3.68004155
REMARK minimizedRMSD -1
REMARK  0 active torsions:
REMARK  status: ('A' for Active; 'I' for Inactive)
ROOT
ATOM      1  N1  IND d   1      -0.205   3.578   1.707  0.00  0.00    -0.196 N 
ATOM      2  C2  IND d   1      -0.074   2.239   1.468  0.00  0.00     0.054 A 
ATOM      3  C3  IND d   1      -0.220   1.980   0.149  0.00  0.00    -0.031 A 
ATOM      4  C4  IND d   1      -0.578   3.614  -1.808  0.00  0.00     0.051 A 
ATOM      5  C5  IND d   1      -0.798   4.935  -2.082  0.00  0.00    -0.031 A 
ATOM      6  C6  IND d   1      -0.830   5.890  -1.087  0.00  0.00     0.015 A 
ATOM      7  C7  IND d   1      -0.631   5.561   0.223  0.00  0.00    -0.016 A 
ATOM      8  C8  IND d   1      -0.414   4.220   0.506  0.00  0.00    -0.047 A 
ATOM      9  C9  IND d   1      -0.422   3.240  -0.494  0.00  0.00    -0.096 A 
ATOM     10  HN1 IND d   1      -0.165   3.956   2.479  0.00  0.00     0.298 HD
ENDROOT
TORSDOF 0
ENDMDL
