MODEL 1
REMARK minimizedAffinity -0.932741702
REMARK minimizedRMSD -1
REMARK  0 active torsions:
REMARK  status: ('A' for Active; 'I' for Inactive)
ROOT
ATOM      1  C1  DEN d   1      -1.496   2.315   1.454  0.00  0.00     0.130 A 
ATOM      2  C2  DEN d   1      -1.306   2.461   2.895  0.00  0.00    -0.031 A 
ATOM      3  C3  DEN d   1      -0.527   1.301   3.372  0.00  0.00     0.027 A 
ATOM      4  C4  DEN d   1       0.401  -0.695   2.027  0.00  0.00     0.027 A 
ATOM      5  C5  DEN d   1       0.484  -1.263   0.775  0.00  0.00    -0.003 A 
ATOM      6  C6  DEN d   1      -0.111  -0.701  -0.323  0.00  0.00     0.001 A 
ATOM      7  C7  DEN d   1      -0.778   0.489  -0.199  0.00  0.00     0.017 A 
ATOM      8  C8  DEN d   1      -0.873   1.065   1.062  0.00  0.00    -0.094 A 
ATOM      9  C9  DEN d   1      -0.254   0.487   2.157  0.00  0.00    -0.072 A 
ENDROOT
TORSDOF 0
ENDMDL
