MODEL 1
REMARK minimizedAffinity -3.34160995
REMARK minimizedRMSD -1
REMARK  0 active torsions:
REMARK  status: ('A' for Active; 'I' for Inactive)
ROOT
ATOM      1  C1  DEN d   1      -1.835   1.715   0.125  0.00  0.00     0.130 A 
ATOM      2  C2  DEN d   1      -1.878   2.149   1.519  0.00  0.00    -0.031 A 
ATOM      3  C3  DEN d   1      -0.825   1.423   2.255  0.00  0.00     0.027 A 
ATOM      4  C4  DEN d   1       0.864  -0.317   1.377  0.00  0.00     0.027 A 
ATOM      5  C5  DEN d   1       1.280  -1.016   0.265  0.00  0.00    -0.003 A 
ATOM      6  C6  DEN d   1       0.670  -0.880  -0.953  0.00  0.00     0.001 A 
ATOM      7  C7  DEN d   1      -0.362   0.009  -1.100  0.00  0.00     0.017 A 
ATOM      8  C8  DEN d   1      -0.791   0.712   0.018  0.00  0.00    -0.094 A 
ATOM      9  C9  DEN d   1      -0.154   0.569   1.238  0.00  0.00    -0.072 A 
ENDROOT
TORSDOF 0
ENDMDL
