MODEL 1
REMARK minimizedAffinity -0.0278590899
REMARK minimizedRMSD -1
REMARK  0 active torsions:
REMARK  status: ('A' for Active; 'I' for Inactive)
ROOT
ATOM      1  C1  DEN d   1       0.157   1.518  -0.829  0.00  0.00     0.130 A 
ATOM      2  C2  DEN d   1       0.566   0.374  -1.639  0.00  0.00    -0.031 A 
ATOM      3  C3  DEN d   1       0.443  -0.841  -0.809  0.00  0.00     0.027 A 
ATOM      4  C4  DEN d   1      -0.341  -1.062   1.638  0.00  0.00     0.027 A 
ATOM      5  C5  DEN d   1      -0.780  -0.367   2.743  0.00  0.00    -0.003 A 
ATOM      6  C6  DEN d   1      -0.904   0.997   2.746  0.00  0.00     0.001 A 
ATOM      7  C7  DEN d   1      -0.628   1.706   1.607  0.00  0.00     0.017 A 
ATOM      8  C8  DEN d   1      -0.178   1.013   0.491  0.00  0.00    -0.094 A 
ATOM      9  C9  DEN d   1      -0.071  -0.367   0.504  0.00  0.00    -0.072 A 
ENDROOT
TORSDOF 0
ENDMDL
