MODEL 1
REMARK minimizedAffinity -0.0175152253
REMARK minimizedRMSD -1
REMARK  0 active torsions:
REMARK  status: ('A' for Active; 'I' for Inactive)
ROOT
ATOM      1  C1  DEN d   1      -0.786   1.656   3.074  0.00  0.00     0.130 A 
ATOM      2  C2  DEN d   1      -1.984   2.293   2.535  0.00  0.00    -0.031 A 
ATOM      3  C3  DEN d   1      -2.208   1.767   1.173  0.00  0.00     0.027 A 
ATOM      4  C4  DEN d   1      -0.826   0.034  -0.144  0.00  0.00     0.027 A 
ATOM      5  C5  DEN d   1       0.286  -0.779  -0.106  0.00  0.00    -0.003 A 
ATOM      6  C6  DEN d   1       1.130  -0.811   0.972  0.00  0.00     0.001 A 
ATOM      7  C7  DEN d   1       0.851  -0.050   2.076  0.00  0.00     0.017 A 
ATOM      8  C8  DEN d   1      -0.264   0.778   2.042  0.00  0.00    -0.094 A 
ATOM      9  C9  DEN d   1      -1.112   0.787   0.947  0.00  0.00    -0.072 A 
ENDROOT
TORSDOF 0
ENDMDL
