MODEL 1
REMARK minimizedAffinity 0.882849336
REMARK minimizedRMSD -1
REMARK  0 active torsions:
REMARK  status: ('A' for Active; 'I' for Inactive)
ROOT
ATOM      1  C1  DEN d   1      -4.058  -2.215   5.798  0.00  0.00     0.130 A 
ATOM      2  C2  DEN d   1      -2.613  -2.272   6.000  0.00  0.00    -0.031 A 
ATOM      3  C3  DEN d   1      -1.965  -2.229   4.674  0.00  0.00     0.027 A 
ATOM      4  C4  DEN d   1      -3.053  -2.075   2.340  0.00  0.00     0.027 A 
ATOM      5  C5  DEN d   1      -4.250  -2.014   1.662  0.00  0.00    -0.003 A 
ATOM      6  C6  DEN d   1      -5.458  -2.050   2.307  0.00  0.00     0.001 A 
ATOM      7  C7  DEN d   1      -5.495  -2.104   3.675  0.00  0.00     0.017 A 
ATOM      8  C8  DEN d   1      -4.292  -2.173   4.366  0.00  0.00    -0.094 A 
ATOM      9  C9  DEN d   1      -3.081  -2.123   3.696  0.00  0.00    -0.072 A 
ENDROOT
TORSDOF 0
ENDMDL
