MODEL 1
REMARK minimizedAffinity -3.065871
REMARK minimizedRMSD -1
REMARK  0 active torsions:
REMARK  status: ('A' for Active; 'I' for Inactive)
ROOT
ATOM      1  C1  DEN d   1       1.088  -1.925  -2.255  0.00  0.00     0.130 A 
ATOM      2  C2  DEN d   1       0.290  -3.117  -2.525  0.00  0.00    -0.031 A 
ATOM      3  C3  DEN d   1      -0.849  -3.126  -1.585  0.00  0.00     0.027 A 
ATOM      4  C4  DEN d   1      -1.454  -1.415   0.248  0.00  0.00     0.027 A 
ATOM      5  C5  DEN d   1      -1.068  -0.243   0.861  0.00  0.00    -0.003 A 
ATOM      6  C6  DEN d   1       0.072   0.427   0.504  0.00  0.00     0.001 A 
ATOM      7  C7  DEN d   1       0.843  -0.046  -0.525  0.00  0.00     0.017 A 
ATOM      8  C8  DEN d   1       0.465  -1.231  -1.142  0.00  0.00    -0.094 A 
ATOM      9  C9  DEN d   1      -0.697  -1.887  -0.775  0.00  0.00    -0.072 A 
ENDROOT
TORSDOF 0
ENDMDL
