MODEL 1
REMARK minimizedAffinity -3.0845468
REMARK minimizedRMSD -1
REMARK  0 active torsions:
REMARK  status: ('A' for Active; 'I' for Inactive)
ROOT
ATOM      1  C1  DEN d   1       0.129   0.040   2.605  0.00  0.00     0.130 A 
ATOM      2  C2  DEN d   1      -0.614   1.176   3.143  0.00  0.00    -0.031 A 
ATOM      3  C3  DEN d   1      -1.362   1.800   2.033  0.00  0.00     0.027 A 
ATOM      4  C4  DEN d   1      -1.444   1.117  -0.453  0.00  0.00     0.027 A 
ATOM      5  C5  DEN d   1      -0.970   0.224  -1.388  0.00  0.00    -0.003 A 
ATOM      6  C6  DEN d   1      -0.077  -0.764  -1.067  0.00  0.00     0.001 A 
ATOM      7  C7  DEN d   1       0.335  -0.911   0.231  0.00  0.00     0.017 A 
ATOM      8  C8  DEN d   1      -0.133  -0.010   1.178  0.00  0.00    -0.094 A 
ATOM      9  C9  DEN d   1      -1.045   0.975   0.836  0.00  0.00    -0.072 A 
ENDROOT
TORSDOF 0
ENDMDL
