MODEL 1
REMARK minimizedAffinity -2.19468498
REMARK minimizedRMSD -1
REMARK  0 active torsions:
REMARK  status: ('A' for Active; 'I' for Inactive)
ROOT
ATOM      1  C1  DEN d   1       0.179  -1.731   0.055  0.00  0.00     0.130 A 
ATOM      2  C2  DEN d   1      -0.035  -1.388  -1.349  0.00  0.00    -0.031 A 
ATOM      3  C3  DEN d   1      -0.552  -0.006  -1.408  0.00  0.00     0.027 A 
ATOM      4  C4  DEN d   1      -1.036   1.629   0.527  0.00  0.00     0.027 A 
ATOM      5  C5  DEN d   1      -1.022   1.785   1.895  0.00  0.00    -0.003 A 
ATOM      6  C6  DEN d   1      -0.642   0.776   2.741  0.00  0.00     0.001 A 
ATOM      7  C7  DEN d   1      -0.217  -0.419   2.224  0.00  0.00     0.017 A 
ATOM      8  C8  DEN d   1      -0.236  -0.586   0.845  0.00  0.00    -0.094 A 
ATOM      9  C9  DEN d   1      -0.612   0.450   0.007  0.00  0.00    -0.072 A 
ENDROOT
TORSDOF 0
ENDMDL
