MODEL 1
REMARK minimizedAffinity -4.2065115
REMARK minimizedRMSD -1
REMARK  0 active torsions:
REMARK  status: ('A' for Active; 'I' for Inactive)
ROOT
ATOM      1  C1  DEN d   1      -0.126   0.541  -0.980  0.00  0.00     0.130 A 
ATOM      2  C2  DEN d   1       0.709  -0.656  -0.937  0.00  0.00    -0.031 A 
ATOM      3  C3  DEN d   1       0.763  -1.126   0.462  0.00  0.00     0.027 A 
ATOM      4  C4  DEN d   1      -0.361  -0.122   2.555  0.00  0.00     0.027 A 
ATOM      5  C5  DEN d   1      -1.159   0.900   3.019  0.00  0.00    -0.003 A 
ATOM      6  C6  DEN d   1      -1.636   1.886   2.196  0.00  0.00     0.001 A 
ATOM      7  C7  DEN d   1      -1.357   1.845   0.856  0.00  0.00     0.017 A 
ATOM      8  C8  DEN d   1      -0.548   0.821   0.381  0.00  0.00    -0.094 A 
ATOM      9  C9  DEN d   1      -0.085  -0.173   1.227  0.00  0.00    -0.072 A 
ENDROOT
TORSDOF 0
ENDMDL
