MODEL 1
REMARK minimizedAffinity -0.0135935843
REMARK minimizedRMSD -1
REMARK  3 active torsions:
REMARK  status: ('A' for Active; 'I' for Inactive)
REMARK    1  A    between atoms: C3'_2  and  C2'_3 
REMARK    2  A    between atoms: C2'_3  and  C1'_4 
REMARK    3  A    between atoms: C1'_4  and  C1_5 
ROOT
ATOM      1  C1  N4B d   1      -1.408   0.166   2.559  0.00  0.00    -0.075 A 
ATOM      2  C2  N4B d   1      -2.613   0.402   3.256  0.00  0.00     0.002 A 
ATOM      3  C3  N4B d   1      -3.762   0.696   2.563  0.00  0.00     0.002 A 
ATOM      4  C4  N4B d   1      -3.725   0.778   1.179  0.00  0.00    -0.004 A 
ATOM      5  C5  N4B d   1      -2.563   0.523   0.511  0.00  0.00     0.002 A 
ATOM      6  C6  N4B d   1      -1.402   0.223   1.195  0.00  0.00     0.002 A 
ENDROOT
BRANCH   1   7
ATOM      7  C1' N4B d   1      -0.108  -0.074   3.277  0.00  0.00     0.057 C 
BRANCH   7   8
ATOM      8  C2' N4B d   1       1.047   0.109   2.297  0.00  0.00     0.009 C 
BRANCH   8   9
ATOM      9  C3' N4B d   1       2.363  -0.385   2.872  0.00  0.00     0.004 C 
ATOM     10  C4' N4B d   1       3.503  -0.257   1.906  0.00  0.00     0.003 C 
ENDBRANCH   8   9
ENDBRANCH   7   8
ENDBRANCH   1   7
TORSDOF 3
ENDMDL
