MODEL 1
REMARK minimizedAffinity 2.23644757
REMARK minimizedRMSD -1
REMARK  3 active torsions:
REMARK  status: ('A' for Active; 'I' for Inactive)
REMARK    1  A    between atoms: C3'_2  and  C2'_3 
REMARK    2  A    between atoms: C2'_3  and  C1'_4 
REMARK    3  A    between atoms: C1'_4  and  C1_5 
ROOT
ATOM      1  C1  N4B d   1       1.329   1.538  -3.574  0.00  0.00    -0.075 A 
ATOM      2  C2  N4B d   1       2.288   1.236  -4.566  0.00  0.00     0.002 A 
ATOM      3  C3  N4B d   1       2.268   1.906  -5.765  0.00  0.00     0.002 A 
ATOM      4  C4  N4B d   1       1.293   2.864  -6.000  0.00  0.00    -0.004 A 
ATOM      5  C5  N4B d   1       0.387   3.167  -5.026  0.00  0.00     0.002 A 
ATOM      6  C6  N4B d   1       0.397   2.505  -3.815  0.00  0.00     0.002 A 
ENDROOT
BRANCH   1   7
ATOM      7  C1' N4B d   1       1.257   0.772  -2.281  0.00  0.00     0.057 C 
BRANCH   7   8
ATOM      8  C2' N4B d   1       0.030   1.227  -1.497  0.00  0.00     0.009 C 
BRANCH   8   9
ATOM      9  C3' N4B d   1      -0.660   0.068  -0.798  0.00  0.00     0.004 C 
ATOM     10  C4' N4B d   1      -0.286  -1.264  -1.375  0.00  0.00     0.003 C 
ENDBRANCH   8   9
ENDBRANCH   7   8
ENDBRANCH   1   7
TORSDOF 3
ENDMDL
