MODEL 1
REMARK minimizedAffinity 7.36965847
REMARK minimizedRMSD -1
REMARK  3 active torsions:
REMARK  status: ('A' for Active; 'I' for Inactive)
REMARK    1  A    between atoms: C3'_2  and  C2'_3 
REMARK    2  A    between atoms: C2'_3  and  C1'_4 
REMARK    3  A    between atoms: C1'_4  and  C1_5 
ROOT
ATOM      1  C1  N4B d   1      -1.373  -0.188   2.244  0.00  0.00    -0.075 A 
ATOM      2  C2  N4B d   1      -1.255   0.046   0.856  0.00  0.00     0.002 A 
ATOM      3  C3  N4B d   1      -2.361   0.405   0.125  0.00  0.00     0.002 A 
ATOM      4  C4  N4B d   1      -3.592   0.516   0.753  0.00  0.00    -0.004 A 
ATOM      5  C5  N4B d   1      -3.692   0.314   2.098  0.00  0.00     0.002 A 
ATOM      6  C6  N4B d   1      -2.589  -0.044   2.847  0.00  0.00     0.002 A 
ENDROOT
BRANCH   1   7
ATOM      7  C1' N4B d   1      -0.210  -0.666   3.070  0.00  0.00     0.057 C 
BRANCH   7   8
ATOM      8  C2' N4B d   1       0.956   0.304   2.902  0.00  0.00     0.009 C 
BRANCH   8   9
ATOM      9  C3' N4B d   1       2.298  -0.380   3.102  0.00  0.00     0.004 C 
ATOM     10  C4' N4B d   1       3.390   0.231   2.275  0.00  0.00     0.003 C 
ENDBRANCH   8   9
ENDBRANCH   7   8
ENDBRANCH   1   7
TORSDOF 3
ENDMDL
