MODEL 1
REMARK minimizedAffinity 4.59312296
REMARK minimizedRMSD -1
REMARK  3 active torsions:
REMARK  status: ('A' for Active; 'I' for Inactive)
REMARK    1  A    between atoms: C3'_2  and  C2'_3 
REMARK    2  A    between atoms: C2'_3  and  C1'_4 
REMARK    3  A    between atoms: C1'_4  and  C1_5 
ROOT
ATOM      1  C1  N4B d   1      -2.006   0.183   0.378  0.00  0.00    -0.075 A 
ATOM      2  C2  N4B d   1      -0.915   0.005   1.257  0.00  0.00     0.002 A 
ATOM      3  C3  N4B d   1      -1.064   0.266   2.597  0.00  0.00     0.002 A 
ATOM      4  C4  N4B d   1      -2.283   0.722   3.076  0.00  0.00    -0.004 A 
ATOM      5  C5  N4B d   1      -3.339   0.867   2.224  0.00  0.00     0.002 A 
ATOM      6  C6  N4B d   1      -3.205   0.604   0.876  0.00  0.00     0.002 A 
ENDROOT
BRANCH   1   7
ATOM      7  C1' N4B d   1      -1.868  -0.008  -1.108  0.00  0.00     0.057 C 
BRANCH   7   8
ATOM      8  C2' N4B d   1      -0.456  -0.492  -1.421  0.00  0.00     0.009 C 
BRANCH   8   9
ATOM      9  C3' N4B d   1      -0.459  -1.842  -2.119  0.00  0.00     0.004 C 
ATOM     10  C4' N4B d   1      -0.394  -2.992  -1.159  0.00  0.00     0.003 C 
ENDBRANCH   8   9
ENDBRANCH   7   8
ENDBRANCH   1   7
TORSDOF 3
ENDMDL
