MODEL 1
REMARK minimizedAffinity 5.57852554
REMARK minimizedRMSD -1
REMARK  3 active torsions:
REMARK  status: ('A' for Active; 'I' for Inactive)
REMARK    1  A    between atoms: C3'_2  and  C2'_3 
REMARK    2  A    between atoms: C2'_3  and  C1'_4 
REMARK    3  A    between atoms: C1'_4  and  C1_5 
ROOT
ATOM      1  C1  N4B d   1       1.604   0.372   2.492  0.00  0.00    -0.075 A 
ATOM      2  C2  N4B d   1       1.577   1.495   1.635  0.00  0.00     0.002 A 
ATOM      3  C3  N4B d   1       2.718   1.882   0.976  0.00  0.00     0.002 A 
ATOM      4  C4  N4B d   1       3.896   1.177   1.171  0.00  0.00    -0.004 A 
ATOM      5  C5  N4B d   1       3.907   0.079   1.980  0.00  0.00     0.002 A 
ATOM      6  C6  N4B d   1       2.767  -0.324   2.646  0.00  0.00     0.002 A 
ENDROOT
BRANCH   1   7
ATOM      7  C1' N4B d   1       0.403  -0.038   3.300  0.00  0.00     0.057 C 
BRANCH   7   8
ATOM      8  C2' N4B d   1      -0.594   1.117   3.338  0.00  0.00     0.009 C 
BRANCH   8   9
ATOM      9  C3' N4B d   1      -1.881   0.780   2.604  0.00  0.00     0.004 C 
ATOM     10  C4' N4B d   1      -2.932   1.838   2.762  0.00  0.00     0.003 C 
ENDBRANCH   8   9
ENDBRANCH   7   8
ENDBRANCH   1   7
TORSDOF 3
ENDMDL
