MODEL 1
REMARK minimizedAffinity 6.68316984
REMARK minimizedRMSD -1
REMARK  3 active torsions:
REMARK  status: ('A' for Active; 'I' for Inactive)
REMARK    1  A    between atoms: C3'_2  and  C2'_3 
REMARK    2  A    between atoms: C2'_3  and  C1'_4 
REMARK    3  A    between atoms: C1'_4  and  C1_5 
ROOT
ATOM      1  C1  N4B d   1       0.723  -4.534   2.111  0.00  0.00    -0.075 A 
ATOM      2  C2  N4B d   1       2.004  -4.550   1.517  0.00  0.00     0.002 A 
ATOM      3  C3  N4B d   1       3.014  -5.288   2.083  0.00  0.00     0.002 A 
ATOM      4  C4  N4B d   1       2.773  -6.000   3.249  0.00  0.00    -0.004 A 
ATOM      5  C5  N4B d   1       1.526  -5.999   3.803  0.00  0.00     0.002 A 
ATOM      6  C6  N4B d   1       0.500  -5.265   3.242  0.00  0.00     0.002 A 
ENDROOT
BRANCH   1   7
ATOM      7  C1' N4B d   1      -0.389  -3.673   1.576  0.00  0.00     0.057 C 
BRANCH   7   8
ATOM      8  C2' N4B d   1      -1.265  -4.508   0.647  0.00  0.00     0.009 C 
BRANCH   8   9
ATOM      9  C3' N4B d   1      -2.737  -4.403   1.007  0.00  0.00     0.004 C 
ATOM     10  C4' N4B d   1      -3.350  -5.731   1.340  0.00  0.00     0.003 C 
ENDBRANCH   8   9
ENDBRANCH   7   8
ENDBRANCH   1   7
TORSDOF 3
ENDMDL
