MODEL 1
REMARK minimizedAffinity 2.76862478
REMARK minimizedRMSD -1
REMARK  3 active torsions:
REMARK  status: ('A' for Active; 'I' for Inactive)
REMARK    1  A    between atoms: C3'_2  and  C2'_3 
REMARK    2  A    between atoms: C2'_3  and  C1'_4 
REMARK    3  A    between atoms: C1'_4  and  C1_5 
ROOT
ATOM      1  C1  N4B d   1      -2.563  -0.077  -0.856  0.00  0.00    -0.075 A 
ATOM      2  C2  N4B d   1      -3.853   0.058  -0.298  0.00  0.00     0.002 A 
ATOM      3  C3  N4B d   1      -4.010   0.643   0.935  0.00  0.00     0.002 A 
ATOM      4  C4  N4B d   1      -2.894   1.081   1.633  0.00  0.00    -0.004 A 
ATOM      5  C5  N4B d   1      -1.654   0.971   1.075  0.00  0.00     0.002 A 
ATOM      6  C6  N4B d   1      -1.483   0.389  -0.165  0.00  0.00     0.002 A 
ENDROOT
BRANCH   1   7
ATOM      7  C1' N4B d   1      -2.334  -0.786  -2.163  0.00  0.00     0.057 C 
BRANCH   7   8
ATOM      8  C2' N4B d   1      -1.157  -1.745  -2.012  0.00  0.00     0.009 C 
BRANCH   8   9
ATOM      9  C3' N4B d   1      -1.580  -3.074  -1.408  0.00  0.00     0.004 C 
ATOM     10  C4' N4B d   1      -0.942  -3.336  -0.077  0.00  0.00     0.003 C 
ENDBRANCH   8   9
ENDBRANCH   7   8
ENDBRANCH   1   7
TORSDOF 3
ENDMDL
