MODEL 1
REMARK minimizedAffinity 8.46986294
REMARK minimizedRMSD -1
REMARK  3 active torsions:
REMARK  status: ('A' for Active; 'I' for Inactive)
REMARK    1  A    between atoms: C3'_2  and  C2'_3 
REMARK    2  A    between atoms: C2'_3  and  C1'_4 
REMARK    3  A    between atoms: C1'_4  and  C1_5 
ROOT
ATOM      1  C1  N4B d   1      -1.420  -2.825  -0.172  0.00  0.00    -0.075 A 
ATOM      2  C2  N4B d   1      -1.956  -1.524  -0.047  0.00  0.00     0.002 A 
ATOM      3  C3  N4B d   1      -1.939  -0.669  -1.121  0.00  0.00     0.002 A 
ATOM      4  C4  N4B d   1      -1.376  -1.083  -2.319  0.00  0.00    -0.004 A 
ATOM      5  C5  N4B d   1      -0.883  -2.349  -2.439  0.00  0.00     0.002 A 
ATOM      6  C6  N4B d   1      -0.897  -3.221  -1.369  0.00  0.00     0.002 A 
ENDROOT
BRANCH   1   7
ATOM      7  C1' N4B d   1      -1.338  -3.766   0.999  0.00  0.00     0.057 C 
BRANCH   7   8
ATOM      8  C2' N4B d   1       0.126  -3.967   1.378  0.00  0.00     0.009 C 
BRANCH   8   9
ATOM      9  C3' N4B d   1       0.276  -4.775   2.656  0.00  0.00     0.004 C 
ATOM     10  C4' N4B d   1       1.462  -5.692   2.627  0.00  0.00     0.003 C 
ENDBRANCH   8   9
ENDBRANCH   7   8
ENDBRANCH   1   7
TORSDOF 3
ENDMDL
