MODEL 1
REMARK minimizedAffinity 9.06318855
REMARK minimizedRMSD -1
REMARK  0 active torsions:
REMARK  status: ('A' for Active; 'I' for Inactive)
ROOT
ATOM      1  C1  DEN d   1       4.722   0.828  -1.038  0.00  0.00     0.130 A 
ATOM      2  C2  DEN d   1       3.696   0.091  -1.770  0.00  0.00    -0.031 A 
ATOM      3  C3  DEN d   1       2.523  -0.060  -0.885  0.00  0.00     0.027 A 
ATOM      4  C4  DEN d   1       2.197   0.775   1.534  0.00  0.00     0.027 A 
ATOM      5  C5  DEN d   1       2.794   1.441   2.581  0.00  0.00    -0.003 A 
ATOM      6  C6  DEN d   1       4.077   1.915   2.509  0.00  0.00     0.001 A 
ATOM      7  C7  DEN d   1       4.790   1.770   1.348  0.00  0.00     0.017 A 
ATOM      8  C8  DEN d   1       4.197   1.094   0.290  0.00  0.00    -0.094 A 
ATOM      9  C9  DEN d   1       2.895   0.633   0.378  0.00  0.00    -0.072 A 
ENDROOT
TORSDOF 0
ENDMDL
