MODEL 1
REMARK minimizedAffinity 6.75351286
REMARK minimizedRMSD -1
REMARK  0 active torsions:
REMARK  status: ('A' for Active; 'I' for Inactive)
ROOT
ATOM      1  C1  DEN d   1       2.450  -0.126  -0.311  0.00  0.00     0.130 A 
ATOM      2  C2  DEN d   1       2.934  -1.499  -0.421  0.00  0.00    -0.031 A 
ATOM      3  C3  DEN d   1       4.397  -1.454  -0.617  0.00  0.00     0.027 A 
ATOM      4  C4  DEN d   1       5.952   0.599  -0.752  0.00  0.00     0.027 A 
ATOM      5  C5  DEN d   1       6.000   1.976  -0.724  0.00  0.00    -0.003 A 
ATOM      6  C6  DEN d   1       4.873   2.742  -0.591  0.00  0.00     0.001 A 
ATOM      7  C7  DEN d   1       3.654   2.136  -0.436  0.00  0.00     0.017 A 
ATOM      8  C8  DEN d   1       3.597   0.749  -0.471  0.00  0.00    -0.094 A 
ATOM      9  C9  DEN d   1       4.749  -0.008  -0.594  0.00  0.00    -0.072 A 
ENDROOT
TORSDOF 0
ENDMDL
