MODEL 1
REMARK minimizedAffinity 20.3138504
REMARK minimizedRMSD -1
REMARK  0 active torsions:
REMARK  status: ('A' for Active; 'I' for Inactive)
ROOT
ATOM      1  C1  DEN d   1       2.135   0.002  -1.594  0.00  0.00     0.130 A 
ATOM      2  C2  DEN d   1       3.294  -0.505  -0.865  0.00  0.00    -0.031 A 
ATOM      3  C3  DEN d   1       2.996  -0.425   0.579  0.00  0.00     0.027 A 
ATOM      4  C4  DEN d   1       0.862   0.427   1.750  0.00  0.00     0.027 A 
ATOM      5  C5  DEN d   1      -0.389   0.968   1.549  0.00  0.00    -0.003 A 
ATOM      6  C6  DEN d   1      -0.868   1.255   0.299  0.00  0.00     0.001 A 
ATOM      7  C7  DEN d   1      -0.110   0.959  -0.803  0.00  0.00     0.017 A 
ATOM      8  C8  DEN d   1       1.155   0.420  -0.609  0.00  0.00    -0.094 A 
ATOM      9  C9  DEN d   1       1.617   0.126   0.663  0.00  0.00    -0.072 A 
ENDROOT
TORSDOF 0
ENDMDL
