MODEL 1
REMARK minimizedAffinity 5.54340553
REMARK minimizedRMSD -1
REMARK  0 active torsions:
REMARK  status: ('A' for Active; 'I' for Inactive)
ROOT
ATOM      1  C1  DEN d   1      -4.003   0.477  -1.013  0.00  0.00     0.130 A 
ATOM      2  C2  DEN d   1      -5.279   1.082  -0.643  0.00  0.00    -0.031 A 
ATOM      3  C3  DEN d   1      -5.784   1.832  -1.811  0.00  0.00     0.027 A 
ATOM      4  C4  DEN d   1      -4.721   2.108  -4.145  0.00  0.00     0.027 A 
ATOM      5  C5  DEN d   1      -3.635   1.788  -4.928  0.00  0.00    -0.003 A 
ATOM      6  C6  DEN d   1      -2.587   1.044  -4.455  0.00  0.00     0.001 A 
ATOM      7  C7  DEN d   1      -2.625   0.555  -3.175  0.00  0.00     0.017 A 
ATOM      8  C8  DEN d   1      -3.714   0.880  -2.377  0.00  0.00    -0.094 A 
ATOM      9  C9  DEN d   1      -4.768   1.624  -2.878  0.00  0.00    -0.072 A 
ENDROOT
TORSDOF 0
ENDMDL
