MODEL 1
REMARK minimizedAffinity 18.9065247
REMARK minimizedRMSD -1
REMARK  0 active torsions:
REMARK  status: ('A' for Active; 'I' for Inactive)
ROOT
ATOM      1  C1  DEN d   1       5.405   0.385  -2.711  0.00  0.00     0.130 A 
ATOM      2  C2  DEN d   1       5.666   1.792  -2.419  0.00  0.00    -0.031 A 
ATOM      3  C3  DEN d   1       4.751   2.211  -1.338  0.00  0.00     0.027 A 
ATOM      4  C4  DEN d   1       2.969   0.824  -0.092  0.00  0.00     0.027 A 
ATOM      5  C5  DEN d   1       2.373  -0.414   0.001  0.00  0.00    -0.003 A 
ATOM      6  C6  DEN d   1       2.720  -1.455  -0.819  0.00  0.00     0.001 A 
ATOM      7  C7  DEN d   1       3.721  -1.289  -1.740  0.00  0.00     0.017 A 
ATOM      8  C8  DEN d   1       4.321  -0.041  -1.845  0.00  0.00    -0.094 A 
ATOM      9  C9  DEN d   1       3.965   0.995  -0.998  0.00  0.00    -0.072 A 
ENDROOT
TORSDOF 0
ENDMDL
