MODEL 1
REMARK minimizedAffinity 16.1810284
REMARK minimizedRMSD -1
REMARK  0 active torsions:
REMARK  status: ('A' for Active; 'I' for Inactive)
ROOT
ATOM      1  C1  DEN d   1      -4.767   1.042  -2.097  0.00  0.00     0.130 A 
ATOM      2  C2  DEN d   1      -6.000   1.570  -2.674  0.00  0.00    -0.031 A 
ATOM      3  C3  DEN d   1      -5.957   1.339  -4.131  0.00  0.00     0.027 A 
ATOM      4  C4  DEN d   1      -4.114   0.216  -5.543  0.00  0.00     0.027 A 
ATOM      5  C5  DEN d   1      -2.874  -0.381  -5.499  0.00  0.00    -0.003 A 
ATOM      6  C6  DEN d   1      -2.168  -0.514  -4.333  0.00  0.00     0.001 A 
ATOM      7  C7  DEN d   1      -2.718  -0.083  -3.154  0.00  0.00     0.017 A 
ATOM      8  C8  DEN d   1      -3.965   0.526  -3.192  0.00  0.00    -0.094 A 
ATOM      9  C9  DEN d   1      -4.668   0.640  -4.379  0.00  0.00    -0.072 A 
ENDROOT
TORSDOF 0
ENDMDL
