MODEL 1
REMARK minimizedAffinity 12.8424397
REMARK minimizedRMSD -1
REMARK  0 active torsions:
REMARK  status: ('A' for Active; 'I' for Inactive)
ROOT
ATOM      1  C1  DEN d   1       5.930   0.166  -0.364  0.00  0.00     0.130 A 
ATOM      2  C2  DEN d   1       6.000   1.605  -0.604  0.00  0.00    -0.031 A 
ATOM      3  C3  DEN d   1       4.621   2.108  -0.767  0.00  0.00     0.027 A 
ATOM      4  C4  DEN d   1       2.397   0.807  -0.666  0.00  0.00     0.027 A 
ATOM      5  C5  DEN d   1       1.831  -0.438  -0.498  0.00  0.00    -0.003 A 
ATOM      6  C6  DEN d   1       2.587  -1.564  -0.309  0.00  0.00     0.001 A 
ATOM      7  C7  DEN d   1       3.951  -1.462  -0.238  0.00  0.00     0.017 A 
ATOM      8  C8  DEN d   1       4.529  -0.212  -0.414  0.00  0.00    -0.094 A 
ATOM      9  C9  DEN d   1       3.747   0.917  -0.592  0.00  0.00    -0.072 A 
ENDROOT
TORSDOF 0
ENDMDL
