MODEL 1
REMARK minimizedAffinity 12.3839483
REMARK minimizedRMSD -1
REMARK  0 active torsions:
REMARK  status: ('A' for Active; 'I' for Inactive)
ROOT
ATOM      1  C1  DEN d   1      -3.205  -0.661  -2.303  0.00  0.00     0.130 A 
ATOM      2  C2  DEN d   1      -1.769  -0.516  -2.077  0.00  0.00    -0.031 A 
ATOM      3  C3  DEN d   1      -1.211   0.284  -3.185  0.00  0.00     0.027 A 
ATOM      4  C4  DEN d   1      -2.424   1.312  -5.216  0.00  0.00     0.027 A 
ATOM      5  C5  DEN d   1      -3.642   1.448  -5.845  0.00  0.00    -0.003 A 
ATOM      6  C6  DEN d   1      -4.783   0.867  -5.360  0.00  0.00     0.001 A 
ATOM      7  C7  DEN d   1      -4.740   0.160  -4.188  0.00  0.00     0.017 A 
ATOM      8  C8  DEN d   1      -3.514   0.012  -3.552  0.00  0.00    -0.094 A 
ATOM      9  C9  DEN d   1      -2.374   0.617  -4.051  0.00  0.00    -0.072 A 
ENDROOT
TORSDOF 0
ENDMDL
