MODEL 1
REMARK minimizedAffinity 18.4599018
REMARK minimizedRMSD -1
REMARK  0 active torsions:
REMARK  status: ('A' for Active; 'I' for Inactive)
ROOT
ATOM      1  C1  DEN d   1       4.210   0.403  -0.017  0.00  0.00     0.130 A 
ATOM      2  C2  DEN d   1       4.926   1.231  -0.983  0.00  0.00    -0.031 A 
ATOM      3  C3  DEN d   1       4.834   0.576  -2.303  0.00  0.00     0.027 A 
ATOM      4  C4  DEN d   1       3.654  -1.626  -2.943  0.00  0.00     0.027 A 
ATOM      5  C5  DEN d   1       2.921  -2.688  -2.461  0.00  0.00    -0.003 A 
ATOM      6  C6  DEN d   1       2.598  -2.811  -1.136  0.00  0.00     0.001 A 
ATOM      7  C7  DEN d   1       2.970  -1.832  -0.253  0.00  0.00     0.017 A 
ATOM      8  C8  DEN d   1       3.716  -0.762  -0.730  0.00  0.00    -0.094 A 
ATOM      9  C9  DEN d   1       4.022  -0.650  -2.076  0.00  0.00    -0.072 A 
ENDROOT
TORSDOF 0
ENDMDL
