MODEL 1
REMARK minimizedAffinity 2.50861478
REMARK minimizedRMSD -1
REMARK  0 active torsions:
REMARK  status: ('A' for Active; 'I' for Inactive)
ROOT
ATOM      1  C1  DEN d   1       1.601  -2.633   3.881  0.00  0.00     0.130 A 
ATOM      2  C2  DEN d   1       0.315  -2.188   3.350  0.00  0.00    -0.031 A 
ATOM      3  C3  DEN d   1      -0.723  -3.127   3.819  0.00  0.00     0.027 A 
ATOM      4  C4  DEN d   1      -0.467  -5.214   5.313  0.00  0.00     0.027 A 
ATOM      5  C5  DEN d   1       0.433  -6.000   5.999  0.00  0.00    -0.003 A 
ATOM      6  C6  DEN d   1       1.778  -5.740   6.000  0.00  0.00     0.001 A 
ATOM      7  C7  DEN d   1       2.257  -4.641   5.337  0.00  0.00     0.017 A 
ATOM      8  C8  DEN d   1       1.357  -3.849   4.637  0.00  0.00    -0.094 A 
ATOM      9  C9  DEN d   1      -0.000  -4.121   4.659  0.00  0.00    -0.072 A 
ENDROOT
TORSDOF 0
ENDMDL
