MODEL 1
REMARK minimizedAffinity 8.86763477
REMARK minimizedRMSD -1
REMARK  0 active torsions:
REMARK  status: ('A' for Active; 'I' for Inactive)
ROOT
ATOM      1  C1  DEN d   1      -5.630   1.838  -2.526  0.00  0.00     0.130 A 
ATOM      2  C2  DEN d   1      -6.000   2.949  -3.397  0.00  0.00    -0.031 A 
ATOM      3  C3  DEN d   1      -5.025   3.004  -4.505  0.00  0.00     0.027 A 
ATOM      4  C4  DEN d   1      -2.993   1.481  -4.956  0.00  0.00     0.027 A 
ATOM      5  C5  DEN d   1      -2.269   0.407  -4.487  0.00  0.00    -0.003 A 
ATOM      6  C6  DEN d   1      -2.592  -0.238  -3.323  0.00  0.00     0.001 A 
ATOM      7  C7  DEN d   1      -3.694   0.156  -2.612  0.00  0.00     0.017 A 
ATOM      8  C8  DEN d   1      -4.425   1.242  -3.074  0.00  0.00    -0.094 A 
ATOM      9  C9  DEN d   1      -4.090   1.874  -4.260  0.00  0.00    -0.072 A 
ENDROOT
TORSDOF 0
ENDMDL
