MODEL 1
REMARK minimizedAffinity 0.519019842
REMARK minimizedRMSD -1
REMARK  0 active torsions:
REMARK  status: ('A' for Active; 'I' for Inactive)
ROOT
ATOM      1  C1  DEN d   1      -2.868  -2.240  -5.932  0.00  0.00     0.130 A 
ATOM      2  C2  DEN d   1      -4.048  -1.379  -5.966  0.00  0.00    -0.031 A 
ATOM      3  C3  DEN d   1      -5.244  -2.244  -5.998  0.00  0.00     0.027 A 
ATOM      4  C4  DEN d   1      -5.384  -4.820  -5.994  0.00  0.00     0.027 A 
ATOM      5  C5  DEN d   1      -4.648  -5.984  -5.983  0.00  0.00    -0.003 A 
ATOM      6  C6  DEN d   1      -3.278  -5.982  -5.989  0.00  0.00     0.001 A 
ATOM      7  C7  DEN d   1      -2.601  -4.791  -5.960  0.00  0.00     0.017 A 
ATOM      8  C8  DEN d   1      -3.336  -3.613  -5.978  0.00  0.00    -0.094 A 
ATOM      9  C9  DEN d   1      -4.720  -3.636  -5.960  0.00  0.00    -0.072 A 
ENDROOT
TORSDOF 0
ENDMDL
