MODEL 1
REMARK minimizedAffinity -3.64012337
REMARK minimizedRMSD -1
REMARK  0 active torsions:
REMARK  status: ('A' for Active; 'I' for Inactive)
ROOT
ATOM      1  C1  DEN d   1      -5.668  -1.040  -5.860  0.00  0.00     0.130 A 
ATOM      2  C2  DEN d   1      -4.756  -2.173  -5.999  0.00  0.00    -0.031 A 
ATOM      3  C3  DEN d   1      -3.375  -1.650  -5.994  0.00  0.00     0.027 A 
ATOM      4  C4  DEN d   1      -2.563   0.789  -5.780  0.00  0.00     0.027 A 
ATOM      5  C5  DEN d   1      -2.968   2.099  -5.651  0.00  0.00    -0.003 A 
ATOM      6  C6  DEN d   1      -4.290   2.455  -5.618  0.00  0.00     0.001 A 
ATOM      7  C7  DEN d   1      -5.256   1.485  -5.668  0.00  0.00     0.017 A 
ATOM      8  C8  DEN d   1      -4.856   0.162  -5.806  0.00  0.00    -0.094 A 
ATOM      9  C9  DEN d   1      -3.514  -0.178  -5.826  0.00  0.00    -0.072 A 
ENDROOT
TORSDOF 0
ENDMDL
