MODEL 1
REMARK minimizedAffinity 0.637696385
REMARK minimizedRMSD -1
REMARK  0 active torsions:
REMARK  status: ('A' for Active; 'I' for Inactive)
ROOT
ATOM      1  C1  DEN d   1      -3.217   0.024  -6.000  0.00  0.00     0.130 A 
ATOM      2  C2  DEN d   1      -4.532  -0.610  -5.996  0.00  0.00    -0.031 A 
ATOM      3  C3  DEN d   1      -5.553   0.457  -5.982  0.00  0.00     0.027 A 
ATOM      4  C4  DEN d   1      -5.226   3.016  -5.971  0.00  0.00     0.027 A 
ATOM      5  C5  DEN d   1      -4.292   4.028  -5.959  0.00  0.00    -0.003 A 
ATOM      6  C6  DEN d   1      -2.946   3.779  -5.926  0.00  0.00     0.001 A 
ATOM      7  C7  DEN d   1      -2.494   2.486  -5.949  0.00  0.00     0.017 A 
ATOM      8  C8  DEN d   1      -3.430   1.460  -5.954  0.00  0.00    -0.094 A 
ATOM      9  C9  DEN d   1      -4.787   1.732  -5.999  0.00  0.00    -0.072 A 
ENDROOT
TORSDOF 0
ENDMDL
