MODEL 1
REMARK minimizedAffinity -3.45249391
REMARK minimizedRMSD -1
REMARK  0 active torsions:
REMARK  status: ('A' for Active; 'I' for Inactive)
ROOT
ATOM      1  C1  DEN d   1      -2.942   0.564  -5.994  0.00  0.00     0.130 A 
ATOM      2  C2  DEN d   1      -3.999  -0.443  -5.959  0.00  0.00    -0.031 A 
ATOM      3  C3  DEN d   1      -5.299   0.259  -5.946  0.00  0.00     0.027 A 
ATOM      4  C4  DEN d   1      -5.774   2.794  -5.981  0.00  0.00     0.027 A 
ATOM      5  C5  DEN d   1      -5.196   4.044  -6.000  0.00  0.00    -0.003 A 
ATOM      6  C6  DEN d   1      -3.838   4.221  -5.983  0.00  0.00     0.001 A 
ATOM      7  C7  DEN d   1      -3.011   3.129  -5.993  0.00  0.00     0.017 A 
ATOM      8  C8  DEN d   1      -3.586   1.865  -5.967  0.00  0.00    -0.094 A 
ATOM      9  C9  DEN d   1      -4.961   1.707  -5.996  0.00  0.00    -0.072 A 
ENDROOT
TORSDOF 0
ENDMDL
