MODEL 1
REMARK minimizedAffinity -1.40128946
REMARK minimizedRMSD -1
REMARK  0 active torsions:
REMARK  status: ('A' for Active; 'I' for Inactive)
ROOT
ATOM      1  C1  DEN d   1      -2.621   3.030  -5.971  0.00  0.00     0.130 A 
ATOM      2  C2  DEN d   1      -3.721   3.990  -5.993  0.00  0.00    -0.031 A 
ATOM      3  C3  DEN d   1      -4.988   3.233  -5.999  0.00  0.00     0.027 A 
ATOM      4  C4  DEN d   1      -5.353   0.680  -5.972  0.00  0.00     0.027 A 
ATOM      5  C5  DEN d   1      -4.722  -0.545  -5.963  0.00  0.00    -0.003 A 
ATOM      6  C6  DEN d   1      -3.357  -0.663  -5.991  0.00  0.00     0.001 A 
ATOM      7  C7  DEN d   1      -2.578   0.464  -5.983  0.00  0.00     0.017 A 
ATOM      8  C8  DEN d   1      -3.208   1.702  -5.999  0.00  0.00    -0.094 A 
ATOM      9  C9  DEN d   1      -4.588   1.800  -5.958  0.00  0.00    -0.072 A 
ENDROOT
TORSDOF 0
ENDMDL
