MODEL 1
REMARK minimizedAffinity -2.27262425
REMARK minimizedRMSD -1
REMARK  0 active torsions:
REMARK  status: ('A' for Active; 'I' for Inactive)
ROOT
ATOM      1  C1  DEN d   1      -4.401   2.623  -5.961  0.00  0.00     0.130 A 
ATOM      2  C2  DEN d   1      -3.001   2.989  -5.763  0.00  0.00    -0.031 A 
ATOM      3  C3  DEN d   1      -2.224   1.746  -5.585  0.00  0.00     0.027 A 
ATOM      4  C4  DEN d   1      -3.049  -0.698  -5.603  0.00  0.00     0.027 A 
ATOM      5  C5  DEN d   1      -4.156  -1.509  -5.724  0.00  0.00    -0.003 A 
ATOM      6  C6  DEN d   1      -5.416  -1.002  -5.898  0.00  0.00     0.001 A 
ATOM      7  C7  DEN d   1      -5.595   0.353  -6.000  0.00  0.00     0.017 A 
ATOM      8  C8  DEN d   1      -4.485   1.176  -5.871  0.00  0.00    -0.094 A 
ATOM      9  C9  DEN d   1      -3.217   0.644  -5.708  0.00  0.00    -0.072 A 
ENDROOT
TORSDOF 0
ENDMDL
