MODEL 1
REMARK minimizedAffinity -2.11283779
REMARK minimizedRMSD -1
REMARK  0 active torsions:
REMARK  status: ('A' for Active; 'I' for Inactive)
ROOT
ATOM      1  C1  DEN d   1      -3.795   3.579  -5.958  0.00  0.00     0.130 A 
ATOM      2  C2  DEN d   1      -5.227   3.864  -5.982  0.00  0.00    -0.031 A 
ATOM      3  C3  DEN d   1      -5.949   2.576  -6.000  0.00  0.00     0.027 A 
ATOM      4  C4  DEN d   1      -4.994   0.180  -5.987  0.00  0.00     0.027 A 
ATOM      5  C5  DEN d   1      -3.836  -0.567  -5.980  0.00  0.00    -0.003 A 
ATOM      6  C6  DEN d   1      -2.594   0.011  -6.000  0.00  0.00     0.001 A 
ATOM      7  C7  DEN d   1      -2.480   1.376  -5.981  0.00  0.00     0.017 A 
ATOM      8  C8  DEN d   1      -3.643   2.136  -5.996  0.00  0.00    -0.094 A 
ATOM      9  C9  DEN d   1      -4.889   1.533  -5.963  0.00  0.00    -0.072 A 
ENDROOT
TORSDOF 0
ENDMDL
