MODEL 1
REMARK minimizedAffinity 1.45009708
REMARK minimizedRMSD -1
REMARK  0 active torsions:
REMARK  status: ('A' for Active; 'I' for Inactive)
ROOT
ATOM      1  C1  DEN d   1      -2.394   1.382  -5.998  0.00  0.00     0.130 A 
ATOM      2  C2  DEN d   1      -2.865  -0.001  -5.999  0.00  0.00    -0.031 A 
ATOM      3  C3  DEN d   1      -4.340   0.019  -5.947  0.00  0.00     0.027 A 
ATOM      4  C4  DEN d   1      -5.934   2.046  -5.869  0.00  0.00     0.027 A 
ATOM      5  C5  DEN d   1      -6.000   3.421  -5.837  0.00  0.00    -0.003 A 
ATOM      6  C6  DEN d   1      -4.877   4.206  -5.823  0.00  0.00     0.001 A 
ATOM      7  C7  DEN d   1      -3.640   3.622  -5.886  0.00  0.00     0.017 A 
ATOM      8  C8  DEN d   1      -3.565   2.235  -5.910  0.00  0.00    -0.094 A 
ATOM      9  C9  DEN d   1      -4.712   1.460  -5.936  0.00  0.00    -0.072 A 
ENDROOT
TORSDOF 0
ENDMDL
