MODEL 1
REMARK minimizedAffinity -1.75795507
REMARK minimizedRMSD -1
REMARK  0 active torsions:
REMARK  status: ('A' for Active; 'I' for Inactive)
ROOT
ATOM      1  C1  DEN d   1      -5.304   3.783  -5.967  0.00  0.00     0.130 A 
ATOM      2  C2  DEN d   1      -4.239   4.780  -5.912  0.00  0.00    -0.031 A 
ATOM      3  C3  DEN d   1      -2.946   4.067  -5.897  0.00  0.00     0.027 A 
ATOM      4  C4  DEN d   1      -2.492   1.528  -5.959  0.00  0.00     0.027 A 
ATOM      5  C5  DEN d   1      -3.081   0.284  -5.997  0.00  0.00    -0.003 A 
ATOM      6  C6  DEN d   1      -4.440   0.118  -5.994  0.00  0.00     0.001 A 
ATOM      7  C7  DEN d   1      -5.258   1.217  -5.997  0.00  0.00     0.017 A 
ATOM      8  C8  DEN d   1      -4.672   2.476  -5.951  0.00  0.00    -0.094 A 
ATOM      9  C9  DEN d   1      -3.295   2.622  -5.967  0.00  0.00    -0.072 A 
ENDROOT
TORSDOF 0
ENDMDL
