MODEL 1
REMARK minimizedAffinity -2.14532948
REMARK minimizedRMSD -1
REMARK  0 active torsions:
REMARK  status: ('A' for Active; 'I' for Inactive)
ROOT
ATOM      1  C1  DEN d   1      -2.808   4.312  -5.942  0.00  0.00     0.130 A 
ATOM      2  C2  DEN d   1      -3.929   5.247  -5.971  0.00  0.00    -0.031 A 
ATOM      3  C3  DEN d   1      -5.179   4.461  -6.000  0.00  0.00     0.027 A 
ATOM      4  C4  DEN d   1      -5.485   1.900  -5.997  0.00  0.00     0.027 A 
ATOM      5  C5  DEN d   1      -4.826   0.691  -5.989  0.00  0.00    -0.003 A 
ATOM      6  C6  DEN d   1      -3.459   0.604  -6.000  0.00  0.00     0.001 A 
ATOM      7  C7  DEN d   1      -2.706   1.748  -5.973  0.00  0.00     0.017 A 
ATOM      8  C8  DEN d   1      -3.364   2.971  -5.988  0.00  0.00    -0.094 A 
ATOM      9  C9  DEN d   1      -4.746   3.038  -5.965  0.00  0.00    -0.072 A 
ENDROOT
TORSDOF 0
ENDMDL
