MODEL 1
REMARK minimizedAffinity -1.03015292
REMARK minimizedRMSD -1
REMARK  0 active torsions:
REMARK  status: ('A' for Active; 'I' for Inactive)
ROOT
ATOM      1  C1  DEN d   1      -5.815   3.539  -5.985  0.00  0.00     0.130 A 
ATOM      2  C2  DEN d   1      -4.783   4.572  -5.959  0.00  0.00    -0.031 A 
ATOM      3  C3  DEN d   1      -3.467   3.902  -5.953  0.00  0.00     0.027 A 
ATOM      4  C4  DEN d   1      -2.930   1.380  -5.987  0.00  0.00     0.027 A 
ATOM      5  C5  DEN d   1      -3.477   0.116  -6.000  0.00  0.00    -0.003 A 
ATOM      6  C6  DEN d   1      -4.830  -0.095  -5.975  0.00  0.00     0.001 A 
ATOM      7  C7  DEN d   1      -5.684   0.976  -5.981  0.00  0.00     0.017 A 
ATOM      8  C8  DEN d   1      -5.140   2.254  -5.960  0.00  0.00    -0.094 A 
ATOM      9  C9  DEN d   1      -3.769   2.446  -5.998  0.00  0.00    -0.072 A 
ENDROOT
TORSDOF 0
ENDMDL
