MODEL 1
REMARK minimizedAffinity -2.13760805
REMARK minimizedRMSD -1
REMARK  0 active torsions:
REMARK  status: ('A' for Active; 'I' for Inactive)
ROOT
ATOM      1  C1  DEN d   1      -5.911   2.901  -6.000  0.00  0.00     0.130 A 
ATOM      2  C2  DEN d   1      -5.098   4.113  -5.964  0.00  0.00    -0.031 A 
ATOM      3  C3  DEN d   1      -3.678   3.710  -5.948  0.00  0.00     0.027 A 
ATOM      4  C4  DEN d   1      -2.664   1.338  -5.980  0.00  0.00     0.027 A 
ATOM      5  C5  DEN d   1      -2.957  -0.008  -5.998  0.00  0.00    -0.003 A 
ATOM      6  C6  DEN d   1      -4.244  -0.475  -5.984  0.00  0.00     0.001 A 
ATOM      7  C7  DEN d   1      -5.288   0.412  -5.996  0.00  0.00     0.017 A 
ATOM      8  C8  DEN d   1      -5.001   1.770  -5.970  0.00  0.00    -0.094 A 
ATOM      9  C9  DEN d   1      -3.693   2.223  -5.997  0.00  0.00    -0.072 A 
ENDROOT
TORSDOF 0
ENDMDL
