MODEL 1
REMARK minimizedAffinity -0.227830723
REMARK minimizedRMSD -1
REMARK  0 active torsions:
REMARK  status: ('A' for Active; 'I' for Inactive)
ROOT
ATOM      1  C1  DEN d   1      -5.300  -3.013  -5.999  0.00  0.00     0.130 A 
ATOM      2  C2  DEN d   1      -5.523  -1.878  -5.108  0.00  0.00    -0.031 A 
ATOM      3  C3  DEN d   1      -4.471  -1.896  -4.073  0.00  0.00     0.027 A 
ATOM      4  C4  DEN d   1      -2.525  -3.561  -3.767  0.00  0.00     0.027 A 
ATOM      5  C5  DEN d   1      -1.931  -4.698  -4.269  0.00  0.00    -0.003 A 
ATOM      6  C6  DEN d   1      -2.433  -5.367  -5.353  0.00  0.00     0.001 A 
ATOM      7  C7  DEN d   1      -3.538  -4.878  -5.999  0.00  0.00     0.017 A 
ATOM      8  C8  DEN d   1      -4.147  -3.737  -5.495  0.00  0.00    -0.094 A 
ATOM      9  C9  DEN d   1      -3.616  -3.068  -4.405  0.00  0.00    -0.072 A 
ENDROOT
TORSDOF 0
ENDMDL
