MODEL 1
REMARK minimizedAffinity 0.231232136
REMARK minimizedRMSD -1
REMARK  0 active torsions:
REMARK  status: ('A' for Active; 'I' for Inactive)
ROOT
ATOM      1  C1  DEN d   1      -2.454  -4.502  -5.975  0.00  0.00     0.130 A 
ATOM      2  C2  DEN d   1      -2.966  -5.870  -5.997  0.00  0.00    -0.031 A 
ATOM      3  C3  DEN d   1      -4.441  -5.805  -5.998  0.00  0.00     0.027 A 
ATOM      4  C4  DEN d   1      -5.974  -3.731  -5.974  0.00  0.00     0.027 A 
ATOM      5  C5  DEN d   1      -6.000  -2.354  -5.942  0.00  0.00    -0.003 A 
ATOM      6  C6  DEN d   1      -4.855  -1.604  -5.885  0.00  0.00     0.001 A 
ATOM      7  C7  DEN d   1      -3.634  -2.225  -5.904  0.00  0.00     0.017 A 
ATOM      8  C8  DEN d   1      -3.601  -3.613  -5.928  0.00  0.00    -0.094 A 
ATOM      9  C9  DEN d   1      -4.769  -4.354  -5.998  0.00  0.00    -0.072 A 
ENDROOT
TORSDOF 0
ENDMDL
