MODEL 1
REMARK minimizedAffinity 0.899372876
REMARK minimizedRMSD -1
REMARK  0 active torsions:
REMARK  status: ('A' for Active; 'I' for Inactive)
ROOT
ATOM      1  C1  DEN d   1      -2.296  -3.899  -4.165  0.00  0.00     0.130 A 
ATOM      2  C2  DEN d   1      -1.711  -5.209  -4.436  0.00  0.00    -0.031 A 
ATOM      3  C3  DEN d   1      -2.694  -5.999  -5.203  0.00  0.00     0.027 A 
ATOM      4  C4  DEN d   1      -5.052  -5.322  -6.000  0.00  0.00     0.027 A 
ATOM      5  C5  DEN d   1      -5.991  -4.313  -6.000  0.00  0.00    -0.003 A 
ATOM      6  C6  DEN d   1      -5.779  -3.119  -5.365  0.00  0.00     0.001 A 
ATOM      7  C7  DEN d   1      -4.582  -2.885  -4.740  0.00  0.00     0.017 A 
ATOM      8  C8  DEN d   1      -3.634  -3.899  -4.730  0.00  0.00    -0.094 A 
ATOM      9  C9  DEN d   1      -3.862  -5.096  -5.388  0.00  0.00    -0.072 A 
ENDROOT
TORSDOF 0
ENDMDL
