MODEL 1
REMARK minimizedAffinity 8.66825581
REMARK minimizedRMSD -1
REMARK  2 active torsions:
REMARK  status: ('A' for Active; 'I' for Inactive)
REMARK    1  A    between atoms: C2'_3  and  C1'_4 
REMARK    2  A    between atoms: C1'_4  and  C1_5 
ROOT
ATOM      1  C1  I4B d   1       0.537   3.255  -3.618  0.00  0.00    -0.075 A 
ATOM      2  C2  I4B d   1       0.397   2.324  -4.617  0.00  0.00     0.003 A 
ATOM      3  C3  I4B d   1      -0.497   1.238  -4.459  0.00  0.00     0.002 A 
ATOM      4  C4  I4B d   1      -1.189   1.094  -3.273  0.00  0.00    -0.004 A 
ATOM      5  C5  I4B d   1      -1.063   2.052  -2.271  0.00  0.00     0.002 A 
ATOM      6  C6  I4B d   1      -0.203   3.146  -2.449  0.00  0.00     0.003 A 
ENDROOT
BRANCH   1   7
ATOM      7  C1' I4B d   1       1.515   4.371  -3.806  0.00  0.00     0.060 C 
BRANCH   7   8
ATOM      8  C2' I4B d   1       2.042   4.297  -5.224  0.00  0.00    -0.013 C 
ATOM      9  C4' I4B d   1       1.705   5.545  -5.997  0.00  0.00     0.013 C 
ATOM     10  C3' I4B d   1       3.526   4.086  -5.157  0.00  0.00     0.013 C 
ENDBRANCH   7   8
ENDBRANCH   1   7
TORSDOF 2
ENDMDL
