MODEL 1
REMARK minimizedAffinity 8.66265202
REMARK minimizedRMSD -1
REMARK  2 active torsions:
REMARK  status: ('A' for Active; 'I' for Inactive)
REMARK    1  A    between atoms: C2'_3  and  C1'_4 
REMARK    2  A    between atoms: C1'_4  and  C1_5 
ROOT
ATOM      1  C1  I4B d   1      -0.095   3.536  -3.461  0.00  0.00    -0.075 A 
ATOM      2  C2  I4B d   1       0.076   2.484  -2.597  0.00  0.00     0.003 A 
ATOM      3  C3  I4B d   1      -1.018   1.650  -2.263  0.00  0.00     0.002 A 
ATOM      4  C4  I4B d   1      -2.269   1.934  -2.773  0.00  0.00    -0.004 A 
ATOM      5  C5  I4B d   1      -2.436   2.987  -3.667  0.00  0.00     0.002 A 
ATOM      6  C6  I4B d   1      -1.340   3.787  -4.023  0.00  0.00     0.003 A 
ENDROOT
BRANCH   1   7
ATOM      7  C1' I4B d   1       1.075   4.416  -3.766  0.00  0.00     0.060 C 
BRANCH   7   8
ATOM      8  C2' I4B d   1       1.100   4.659  -5.261  0.00  0.00    -0.013 C 
ATOM      9  C4' I4B d   1       1.822   5.938  -5.594  0.00  0.00     0.013 C 
ATOM     10  C3' I4B d   1       1.759   3.480  -5.911  0.00  0.00     0.013 C 
ENDBRANCH   7   8
ENDBRANCH   1   7
TORSDOF 2
ENDMDL
