MODEL 1
REMARK minimizedAffinity 6.82987213
REMARK minimizedRMSD -1
REMARK  2 active torsions:
REMARK  status: ('A' for Active; 'I' for Inactive)
REMARK    1  A    between atoms: C2'_3  and  C1'_4 
REMARK    2  A    between atoms: C1'_4  and  C1_5 
ROOT
ATOM      1  C1  I4B d   1       3.588  -0.341   0.416  0.00  0.00    -0.075 A 
ATOM      2  C2  I4B d   1       3.649   0.987   0.758  0.00  0.00     0.003 A 
ATOM      3  C3  I4B d   1       4.864   1.703   0.625  0.00  0.00     0.002 A 
ATOM      4  C4  I4B d   1       5.998   1.043   0.197  0.00  0.00    -0.004 A 
ATOM      5  C5  I4B d   1       5.929  -0.298  -0.171  0.00  0.00     0.002 A 
ATOM      6  C6  I4B d   1       4.714  -0.991  -0.073  0.00  0.00     0.003 A 
ENDROOT
BRANCH   1   7
ATOM      7  C1' I4B d   1       2.297  -1.074   0.599  0.00  0.00     0.060 C 
BRANCH   7   8
ATOM      8  C2' I4B d   1       2.567  -2.282   1.473  0.00  0.00    -0.013 C 
ATOM      9  C4' I4B d   1       2.019  -2.084   2.862  0.00  0.00     0.013 C 
ATOM     10  C3' I4B d   1       1.949  -3.478   0.813  0.00  0.00     0.013 C 
ENDBRANCH   7   8
ENDBRANCH   1   7
TORSDOF 2
ENDMDL
