MODEL 1
REMARK minimizedAffinity 5.96364689
REMARK minimizedRMSD -1
REMARK  2 active torsions:
REMARK  status: ('A' for Active; 'I' for Inactive)
REMARK    1  A    between atoms: C2'_3  and  C1'_4 
REMARK    2  A    between atoms: C1'_4  and  C1_5 
ROOT
ATOM      1  C1  I4B d   1      -0.894   0.545  -1.708  0.00  0.00    -0.075 A 
ATOM      2  C2  I4B d   1      -1.351   0.428  -2.997  0.00  0.00     0.003 A 
ATOM      3  C3  I4B d   1      -1.297   1.536  -3.876  0.00  0.00     0.002 A 
ATOM      4  C4  I4B d   1      -0.828   2.749  -3.412  0.00  0.00    -0.004 A 
ATOM      5  C5  I4B d   1      -0.343   2.859  -2.112  0.00  0.00     0.002 A 
ATOM      6  C6  I4B d   1      -0.365   1.747  -1.258  0.00  0.00     0.003 A 
ENDROOT
BRANCH   1   7
ATOM      7  C1' I4B d   1      -0.996  -0.637  -0.797  0.00  0.00     0.060 C 
BRANCH   7   8
ATOM      8  C2' I4B d   1       0.391  -1.227  -0.639  0.00  0.00    -0.013 C 
ATOM      9  C4' I4B d   1       0.489  -2.062   0.610  0.00  0.00     0.013 C 
ATOM     10  C3' I4B d   1       0.688  -2.044  -1.861  0.00  0.00     0.013 C 
ENDBRANCH   7   8
ENDBRANCH   1   7
TORSDOF 2
ENDMDL
