MODEL 1
REMARK minimizedAffinity 5.40963268
REMARK minimizedRMSD -1
REMARK  2 active torsions:
REMARK  status: ('A' for Active; 'I' for Inactive)
REMARK    1  A    between atoms: C2'_3  and  C1'_4 
REMARK    2  A    between atoms: C1'_4  and  C1_5 
ROOT
ATOM      1  C1  I4B d   1       3.321  -4.448   1.514  0.00  0.00    -0.075 A 
ATOM      2  C2  I4B d   1       3.616  -5.578   0.791  0.00  0.00     0.003 A 
ATOM      3  C3  I4B d   1       4.960  -5.994   0.636  0.00  0.00     0.002 A 
ATOM      4  C4  I4B d   1       5.975  -5.230   1.175  0.00  0.00    -0.004 A 
ATOM      5  C5  I4B d   1       5.673  -4.098   1.926  0.00  0.00     0.002 A 
ATOM      6  C6  I4B d   1       4.337  -3.711   2.108  0.00  0.00     0.003 A 
ENDROOT
BRANCH   1   7
ATOM      7  C1' I4B d   1       1.893  -4.019   1.629  0.00  0.00     0.060 C 
BRANCH   7   8
ATOM      8  C2' I4B d   1       1.865  -2.506   1.698  0.00  0.00    -0.013 C 
ATOM      9  C4' I4B d   1       1.740  -1.900   0.325  0.00  0.00     0.013 C 
ATOM     10  C3' I4B d   1       0.716  -2.104   2.574  0.00  0.00     0.013 C 
ENDBRANCH   7   8
ENDBRANCH   1   7
TORSDOF 2
ENDMDL
