MODEL 1
REMARK minimizedAffinity 13.0466623
REMARK minimizedRMSD -1
REMARK  2 active torsions:
REMARK  status: ('A' for Active; 'I' for Inactive)
REMARK    1  A    between atoms: C2'_3  and  C1'_4 
REMARK    2  A    between atoms: C1'_4  and  C1_5 
ROOT
ATOM      1  C1  I4B d   1       0.572  -1.615  -0.357  0.00  0.00    -0.075 A 
ATOM      2  C2  I4B d   1      -0.318  -1.743   0.680  0.00  0.00     0.003 A 
ATOM      3  C3  I4B d   1       0.124  -2.191   1.948  0.00  0.00     0.002 A 
ATOM      4  C4  I4B d   1       1.447  -2.545   2.120  0.00  0.00    -0.004 A 
ATOM      5  C5  I4B d   1       2.352  -2.393   1.074  0.00  0.00     0.002 A 
ATOM      6  C6  I4B d   1       1.915  -1.913  -0.169  0.00  0.00     0.003 A 
ENDROOT
BRANCH   1   7
ATOM      7  C1' I4B d   1       0.064  -1.171  -1.692  0.00  0.00     0.060 C 
BRANCH   7   8
ATOM      8  C2' I4B d   1      -1.180  -0.338  -1.465  0.00  0.00    -0.013 C 
ATOM      9  C4' I4B d   1      -1.132   0.941  -2.259  0.00  0.00     0.013 C 
ATOM     10  C3' I4B d   1      -2.370  -1.168  -1.846  0.00  0.00     0.013 C 
ENDBRANCH   7   8
ENDBRANCH   1   7
TORSDOF 2
ENDMDL
