MODEL 1
REMARK minimizedAffinity 13.7546797
REMARK minimizedRMSD -1
REMARK  0 active torsions:
REMARK  status: ('A' for Active; 'I' for Inactive)
ROOT
ATOM      1  C   UNL d   1      -2.080  -2.275   0.510  0.00  0.00     0.023 A 
ATOM      2  C1  UNL d   1      -0.865  -2.813   0.087  0.00  0.00     0.003 A 
ATOM      3  C2  UNL d   1      -0.252  -2.333  -1.072  0.00  0.00     0.048 A 
ATOM      4  C3  UNL d   1      -0.860  -1.313  -1.803  0.00  0.00     0.023 A 
ATOM      5  C4  UNL d   1      -2.075  -0.770  -1.383  0.00  0.00     0.048 A 
ATOM      6  C5  UNL d   1      -2.684  -1.254  -0.224  0.00  0.00     0.003 A 
ATOM      7  I   UNL d   1       0.050  -0.597  -3.529  0.00  0.00    -0.146 I 
ENDROOT
TORSDOF 0
ENDMDL
