MODEL 1
REMARK minimizedAffinity 14.4321728
REMARK minimizedRMSD -1
REMARK  0 active torsions:
REMARK  status: ('A' for Active; 'I' for Inactive)
ROOT
ATOM      1  C   UNL d   1       1.549   0.468  -2.741  0.00  0.00     0.023 A 
ATOM      2  C1  UNL d   1       1.658  -0.345  -1.613  0.00  0.00     0.003 A 
ATOM      3  C2  UNL d   1       2.172   0.175  -0.423  0.00  0.00     0.048 A 
ATOM      4  C3  UNL d   1       2.575   1.509  -0.369  0.00  0.00     0.023 A 
ATOM      5  C4  UNL d   1       2.466   2.327  -1.495  0.00  0.00     0.048 A 
ATOM      6  C5  UNL d   1       1.952   1.802  -2.682  0.00  0.00     0.003 A 
ATOM      7  I   UNL d   1       3.340   2.285   1.401  0.00  0.00    -0.146 I 
ENDROOT
TORSDOF 0
ENDMDL
