MODEL 1
REMARK minimizedAffinity 12.296422
REMARK minimizedRMSD -1
REMARK  0 active torsions:
REMARK  status: ('A' for Active; 'I' for Inactive)
ROOT
ATOM      1  C   UNL d   1      -0.875  -2.255  -0.780  0.00  0.00     0.023 A 
ATOM      2  C1  UNL d   1      -0.383  -3.160   0.161  0.00  0.00     0.003 A 
ATOM      3  C2  UNL d   1      -0.909  -3.181   1.454  0.00  0.00     0.048 A 
ATOM      4  C3  UNL d   1      -1.928  -2.295   1.800  0.00  0.00     0.023 A 
ATOM      5  C4  UNL d   1      -2.425  -1.388   0.863  0.00  0.00     0.048 A 
ATOM      6  C5  UNL d   1      -1.895  -1.370  -0.429  0.00  0.00     0.003 A 
ATOM      7  I   UNL d   1      -2.713  -2.325   3.724  0.00  0.00    -0.146 I 
ENDROOT
TORSDOF 0
ENDMDL
