MODEL 1
REMARK minimizedAffinity 15.0521755
REMARK minimizedRMSD -1
REMARK  0 active torsions:
REMARK  status: ('A' for Active; 'I' for Inactive)
ROOT
ATOM      1  C   UNL d   1      -1.770  -2.236   1.112  0.00  0.00     0.023 A 
ATOM      2  C1  UNL d   1      -2.454  -1.401   0.228  0.00  0.00     0.003 A 
ATOM      3  C2  UNL d   1      -2.051  -1.314  -1.106  0.00  0.00     0.048 A 
ATOM      4  C3  UNL d   1      -0.964  -2.065  -1.550  0.00  0.00     0.023 A 
ATOM      5  C4  UNL d   1      -0.276  -2.902  -0.670  0.00  0.00     0.048 A 
ATOM      6  C5  UNL d   1      -0.682  -2.985   0.664  0.00  0.00     0.003 A 
ATOM      7  I   UNL d   1      -0.362  -1.937  -3.535  0.00  0.00    -0.146 I 
ENDROOT
TORSDOF 0
ENDMDL
