MODEL 1
REMARK minimizedAffinity 13.7538395
REMARK minimizedRMSD -1
REMARK  0 active torsions:
REMARK  status: ('A' for Active; 'I' for Inactive)
ROOT
ATOM      1  C   UNL d   1      -5.484   5.998  -5.271  0.00  0.00     0.023 A 
ATOM      2  C1  UNL d   1      -4.381   5.980  -4.416  0.00  0.00     0.003 A 
ATOM      3  C2  UNL d   1      -3.614   4.821  -4.288  0.00  0.00     0.048 A 
ATOM      4  C3  UNL d   1      -3.953   3.683  -5.019  0.00  0.00     0.023 A 
ATOM      5  C4  UNL d   1      -5.055   3.696  -5.876  0.00  0.00     0.048 A 
ATOM      6  C5  UNL d   1      -5.820   4.857  -6.000  0.00  0.00     0.003 A 
ATOM      7  I   UNL d   1      -2.812   1.956  -4.830  0.00  0.00    -0.146 I 
ENDROOT
TORSDOF 0
ENDMDL
