MODEL 1
REMARK minimizedAffinity 13.2893353
REMARK minimizedRMSD -1
REMARK  0 active torsions:
REMARK  status: ('A' for Active; 'I' for Inactive)
ROOT
ATOM      1  C   UNL d   1      -2.352  -1.372  -1.720  0.00  0.00     0.023 A 
ATOM      2  C1  UNL d   1      -1.853  -0.866  -0.519  0.00  0.00     0.003 A 
ATOM      3  C2  UNL d   1      -0.646  -0.164  -0.504  0.00  0.00     0.048 A 
ATOM      4  C3  UNL d   1       0.056   0.030  -1.693  0.00  0.00     0.023 A 
ATOM      5  C4  UNL d   1      -0.440  -0.473  -2.897  0.00  0.00     0.048 A 
ATOM      6  C5  UNL d   1      -1.646  -1.175  -2.907  0.00  0.00     0.003 A 
ATOM      7  I   UNL d   1       1.853   1.075  -1.673  0.00  0.00    -0.146 I 
ENDROOT
TORSDOF 0
ENDMDL
