MODEL 1
REMARK minimizedAffinity 3.20489192
REMARK minimizedRMSD -1
REMARK  0 active torsions:
REMARK  status: ('A' for Active; 'I' for Inactive)
ROOT
ATOM      1  C   UNL d   1      -5.302   4.439   1.267  0.00  0.00     0.023 A 
ATOM      2  C1  UNL d   1      -5.992   5.550   0.782  0.00  0.00     0.003 A 
ATOM      3  C2  UNL d   1      -5.767   6.000  -0.520  0.00  0.00     0.048 A 
ATOM      4  C3  UNL d   1      -4.852   5.333  -1.334  0.00  0.00     0.023 A 
ATOM      5  C4  UNL d   1      -4.160   4.220  -0.854  0.00  0.00     0.048 A 
ATOM      6  C5  UNL d   1      -4.388   3.774   0.450  0.00  0.00     0.003 A 
ATOM      7  I   UNL d   1      -4.516   6.000  -3.273  0.00  0.00    -0.146 I 
ENDROOT
TORSDOF 0
ENDMDL
