MODEL 1
REMARK minimizedAffinity 19.0868797
REMARK minimizedRMSD -1
REMARK  0 active torsions:
REMARK  status: ('A' for Active; 'I' for Inactive)
ROOT
ATOM      1  C   UNL d   1      -2.118   3.125  -4.495  0.00  0.00     0.023 A 
ATOM      2  C1  UNL d   1      -2.698   1.899  -4.169  0.00  0.00     0.003 A 
ATOM      3  C2  UNL d   1      -1.900   0.760  -4.044  0.00  0.00     0.048 A 
ATOM      4  C3  UNL d   1      -0.524   0.854  -4.246  0.00  0.00     0.023 A 
ATOM      5  C4  UNL d   1       0.061   2.079  -4.572  0.00  0.00     0.048 A 
ATOM      6  C5  UNL d   1      -0.741   3.215  -4.697  0.00  0.00     0.003 A 
ATOM      7  I   UNL d   1       0.665  -0.841  -4.061  0.00  0.00    -0.146 I 
ENDROOT
TORSDOF 0
ENDMDL
