MODEL 1
REMARK minimizedAffinity 15.3570833
REMARK minimizedRMSD -1
REMARK  0 active torsions:
REMARK  status: ('A' for Active; 'I' for Inactive)
ROOT
ATOM      1  C   UNL d   1      -5.634   5.995  -5.220  0.00  0.00     0.023 A 
ATOM      2  C1  UNL d   1      -5.897   4.868  -6.000  0.00  0.00     0.003 A 
ATOM      3  C2  UNL d   1      -5.074   3.744  -5.904  0.00  0.00     0.048 A 
ATOM      4  C3  UNL d   1      -3.991   3.753  -5.026  0.00  0.00     0.023 A 
ATOM      5  C4  UNL d   1      -3.725   4.878  -4.244  0.00  0.00     0.048 A 
ATOM      6  C5  UNL d   1      -4.550   6.000  -4.344  0.00  0.00     0.003 A 
ATOM      7  I   UNL d   1      -2.765   2.081  -4.881  0.00  0.00    -0.146 I 
ENDROOT
TORSDOF 0
ENDMDL
