MODEL 1
REMARK minimizedAffinity 1.44547653
REMARK minimizedRMSD -1
REMARK  0 active torsions:
REMARK  status: ('A' for Active; 'I' for Inactive)
ROOT
ATOM      1  C   UNL d   1      -5.999   5.723  -5.195  0.00  0.00     0.023 A 
ATOM      2  C1  UNL d   1      -4.934   5.991  -4.334  0.00  0.00     0.003 A 
ATOM      3  C2  UNL d   1      -3.869   5.094  -4.239  0.00  0.00     0.048 A 
ATOM      4  C3  UNL d   1      -3.874   3.931  -5.008  0.00  0.00     0.023 A 
ATOM      5  C4  UNL d   1      -4.936   3.659  -5.872  0.00  0.00     0.048 A 
ATOM      6  C5  UNL d   1      -6.000   4.559  -5.963  0.00  0.00     0.003 A 
ATOM      7  I   UNL d   1      -2.289   2.594  -4.869  0.00  0.00    -0.146 I 
ENDROOT
TORSDOF 0
ENDMDL
