MODEL 1
REMARK minimizedAffinity 13.3473063
REMARK minimizedRMSD -1
REMARK  0 active torsions:
REMARK  status: ('A' for Active; 'I' for Inactive)
ROOT
ATOM      1  C   UNL d   1      -3.432   1.986  -4.826  0.00  0.00     0.023 A 
ATOM      2  C1  UNL d   1      -3.089   3.197  -4.225  0.00  0.00     0.003 A 
ATOM      3  C2  UNL d   1      -3.825   4.350  -4.505  0.00  0.00     0.048 A 
ATOM      4  C3  UNL d   1      -4.903   4.285  -5.388  0.00  0.00     0.023 A 
ATOM      5  C4  UNL d   1      -5.250   3.075  -5.991  0.00  0.00     0.048 A 
ATOM      6  C5  UNL d   1      -4.511   1.925  -5.708  0.00  0.00     0.003 A 
ATOM      7  I   UNL d   1      -6.000   6.000  -5.807  0.00  0.00    -0.146 I 
ENDROOT
TORSDOF 0
ENDMDL
