MODEL 1
REMARK minimizedAffinity 8.07123089
REMARK minimizedRMSD -1
REMARK  0 active torsions:
REMARK  status: ('A' for Active; 'I' for Inactive)
ROOT
ATOM      1  C   UNL d   1      -5.674   6.000  -5.286  0.00  0.00     0.023 A 
ATOM      2  C1  UNL d   1      -5.994   4.844  -5.998  0.00  0.00     0.003 A 
ATOM      3  C2  UNL d   1      -5.251   3.677  -5.808  0.00  0.00     0.048 A 
ATOM      4  C3  UNL d   1      -4.189   3.673  -4.904  0.00  0.00     0.023 A 
ATOM      5  C4  UNL d   1      -3.866   4.827  -4.188  0.00  0.00     0.048 A 
ATOM      6  C5  UNL d   1      -4.611   5.992  -4.383  0.00  0.00     0.003 A 
ATOM      7  I   UNL d   1      -3.082   1.937  -4.619  0.00  0.00    -0.146 I 
ENDROOT
TORSDOF 0
ENDMDL
