MODEL 1
REMARK minimizedAffinity 8.4092865
REMARK minimizedRMSD -1
REMARK  0 active torsions:
REMARK  status: ('A' for Active; 'I' for Inactive)
ROOT
ATOM      1  C   UNL d   1      -1.386  -1.568  -2.794  0.00  0.00     0.023 A 
ATOM      2  C1  UNL d   1      -1.038  -1.258  -1.479  0.00  0.00     0.003 A 
ATOM      3  C2  UNL d   1       0.198  -0.672  -1.202  0.00  0.00     0.048 A 
ATOM      4  C3  UNL d   1       1.082  -0.397  -2.245  0.00  0.00     0.023 A 
ATOM      5  C4  UNL d   1       0.738  -0.704  -3.562  0.00  0.00     0.048 A 
ATOM      6  C5  UNL d   1      -0.499  -1.291  -3.834  0.00  0.00     0.003 A 
ATOM      7  I   UNL d   1       2.923   0.476  -1.835  0.00  0.00    -0.146 I 
ENDROOT
TORSDOF 0
ENDMDL
