MODEL 1
REMARK minimizedAffinity 16.5323944
REMARK minimizedRMSD -1
REMARK  0 active torsions:
REMARK  status: ('A' for Active; 'I' for Inactive)
ROOT
ATOM      1  C   UNL d   1       2.324  -0.654  -3.139  0.00  0.00     0.023 A 
ATOM      2  C1  UNL d   1       1.415  -0.198  -2.184  0.00  0.00     0.003 A 
ATOM      3  C2  UNL d   1       1.835   0.680  -1.183  0.00  0.00     0.048 A 
ATOM      4  C3  UNL d   1       3.164   1.100  -1.144  0.00  0.00     0.023 A 
ATOM      5  C4  UNL d   1       4.076   0.647  -2.098  0.00  0.00     0.048 A 
ATOM      6  C5  UNL d   1       3.653  -0.232  -3.097  0.00  0.00     0.003 A 
ATOM      7  I   UNL d   1       3.791   2.407   0.345  0.00  0.00    -0.146 I 
ENDROOT
TORSDOF 0
ENDMDL
