MODEL 1
REMARK minimizedAffinity 11.7004175
REMARK minimizedRMSD -1
REMARK  0 active torsions:
REMARK  status: ('A' for Active; 'I' for Inactive)
ROOT
ATOM      1  C   UNL d   1      -1.593  -2.826   1.253  0.00  0.00     0.023 A 
ATOM      2  C1  UNL d   1      -0.525  -3.457   0.616  0.00  0.00     0.003 A 
ATOM      3  C2  UNL d   1      -0.128  -3.046  -0.658  0.00  0.00     0.048 A 
ATOM      4  C3  UNL d   1      -0.802  -2.000  -1.288  0.00  0.00     0.023 A 
ATOM      5  C4  UNL d   1      -1.871  -1.364  -0.654  0.00  0.00     0.048 A 
ATOM      6  C5  UNL d   1      -2.265  -1.780   0.619  0.00  0.00     0.003 A 
ATOM      7  I   UNL d   1      -0.213  -1.385  -3.184  0.00  0.00    -0.146 I 
ENDROOT
TORSDOF 0
ENDMDL
