MODEL 1
REMARK minimizedAffinity 10.3220825
REMARK minimizedRMSD -1
REMARK  0 active torsions:
REMARK  status: ('A' for Active; 'I' for Inactive)
ROOT
ATOM      1  C   UNL d   1      -5.746   6.000  -5.174  0.00  0.00     0.023 A 
ATOM      2  C1  UNL d   1      -4.703   5.951  -4.249  0.00  0.00     0.003 A 
ATOM      3  C2  UNL d   1      -3.912   4.805  -4.146  0.00  0.00     0.048 A 
ATOM      4  C3  UNL d   1      -4.169   3.711  -4.971  0.00  0.00     0.023 A 
ATOM      5  C4  UNL d   1      -5.211   3.755  -5.899  0.00  0.00     0.048 A 
ATOM      6  C5  UNL d   1      -6.000   4.903  -5.998  0.00  0.00     0.003 A 
ATOM      7  I   UNL d   1      -2.994   2.004  -4.819  0.00  0.00    -0.146 I 
ENDROOT
TORSDOF 0
ENDMDL
