MODEL 1
REMARK minimizedAffinity -1.16914678
REMARK minimizedRMSD -1
REMARK  0 active torsions:
REMARK  status: ('A' for Active; 'I' for Inactive)
ROOT
ATOM      1  C1  BNZ d   1       0.549  -0.436   0.757  0.00  0.00     0.000 A 
ATOM      2  C2  BNZ d   1       0.010   0.763   0.375  0.00  0.00     0.000 A 
ATOM      3  C3  BNZ d   1      -0.334   0.993  -0.928  0.00  0.00     0.000 A 
ATOM      4  C4  BNZ d   1      -0.102   0.038  -1.853  0.00  0.00     0.000 A 
ATOM      5  C5  BNZ d   1       0.448  -1.173  -1.485  0.00  0.00     0.000 A 
ATOM      6  C6  BNZ d   1       0.757  -1.415  -0.166  0.00  0.00     0.000 A 
ENDROOT
TORSDOF 0
ENDMDL
