MODEL 1
REMARK minimizedAffinity -2.43277311
REMARK minimizedRMSD -1
REMARK  0 active torsions:
REMARK  status: ('A' for Active; 'I' for Inactive)
ROOT
ATOM      1  C1  BNZ d   1       0.573   2.504   2.280  0.00  0.00     0.000 A 
ATOM      2  C2  BNZ d   1       1.155   1.267   2.196  0.00  0.00     0.000 A 
ATOM      3  C3  BNZ d   1       0.463   0.201   1.694  0.00  0.00     0.000 A 
ATOM      4  C4  BNZ d   1      -0.821   0.363   1.314  0.00  0.00     0.000 A 
ATOM      5  C5  BNZ d   1      -1.425   1.601   1.400  0.00  0.00     0.000 A 
ATOM      6  C6  BNZ d   1      -0.713   2.681   1.870  0.00  0.00     0.000 A 
ENDROOT
TORSDOF 0
ENDMDL
