MODEL 1
REMARK minimizedAffinity -2.6322751
REMARK minimizedRMSD -1
REMARK  0 active torsions:
REMARK  status: ('A' for Active; 'I' for Inactive)
ROOT
ATOM      1  C1  BNZ d   1       0.507  -0.473   1.599  0.00  0.00     0.000 A 
ATOM      2  C2  BNZ d   1       0.822  -1.316   0.567  0.00  0.00     0.000 A 
ATOM      3  C3  BNZ d   1       0.573  -0.960  -0.729  0.00  0.00     0.000 A 
ATOM      4  C4  BNZ d   1      -0.028   0.220  -0.988  0.00  0.00     0.000 A 
ATOM      5  C5  BNZ d   1      -0.360   1.076   0.042  0.00  0.00     0.000 A 
ATOM      6  C6  BNZ d   1      -0.072   0.731   1.343  0.00  0.00     0.000 A 
ENDROOT
TORSDOF 0
ENDMDL
