MODEL 1
REMARK minimizedAffinity -5.00545835
REMARK minimizedRMSD -1
REMARK  0 active torsions:
REMARK  status: ('A' for Active; 'I' for Inactive)
ROOT
ATOM      1  C1  BNZ d   1      -1.388   3.247   0.988  0.00  0.00     0.000 A 
ATOM      2  C2  BNZ d   1      -1.174   3.235  -0.365  0.00  0.00     0.000 A 
ATOM      3  C3  BNZ d   1      -0.663   2.128  -0.982  0.00  0.00     0.000 A 
ATOM      4  C4  BNZ d   1      -0.328   1.051  -0.243  0.00  0.00     0.000 A 
ATOM      5  C5  BNZ d   1      -0.529   1.052   1.123  0.00  0.00     0.000 A 
ATOM      6  C6  BNZ d   1      -1.080   2.153   1.736  0.00  0.00     0.000 A 
ENDROOT
TORSDOF 0
ENDMDL
