MODEL 1
REMARK minimizedAffinity -2.69527888
REMARK minimizedRMSD -1
REMARK  0 active torsions:
REMARK  status: ('A' for Active; 'I' for Inactive)
ROOT
ATOM      1  C1  BNZ d   1       0.094   1.714  -0.090  0.00  0.00     0.000 A 
ATOM      2  C2  BNZ d   1       0.195   2.922  -0.727  0.00  0.00     0.000 A 
ATOM      3  C3  BNZ d   1       0.528   4.053  -0.036  0.00  0.00     0.000 A 
ATOM      4  C4  BNZ d   1       0.719   3.982   1.298  0.00  0.00     0.000 A 
ATOM      5  C5  BNZ d   1       0.611   2.774   1.956  0.00  0.00     0.000 A 
ATOM      6  C6  BNZ d   1       0.314   1.631   1.250  0.00  0.00     0.000 A 
ENDROOT
TORSDOF 0
ENDMDL
