MODEL 1
REMARK minimizedAffinity 0.337341577
REMARK minimizedRMSD -1
REMARK  0 active torsions:
REMARK  status: ('A' for Active; 'I' for Inactive)
ROOT
ATOM      1  C1  BNZ d   1       0.038   1.650   0.276  0.00  0.00     0.000 A 
ATOM      2  C2  BNZ d   1      -0.187   1.127   1.521  0.00  0.00     0.000 A 
ATOM      3  C3  BNZ d   1      -0.057   1.900   2.640  0.00  0.00     0.000 A 
ATOM      4  C4  BNZ d   1       0.337   3.184   2.516  0.00  0.00     0.000 A 
ATOM      5  C5  BNZ d   1       0.577   3.725   1.269  0.00  0.00     0.000 A 
ATOM      6  C6  BNZ d   1       0.407   2.953   0.142  0.00  0.00     0.000 A 
ENDROOT
TORSDOF 0
ENDMDL
