MODEL 1
REMARK minimizedAffinity 3.7606039
REMARK minimizedRMSD -1
REMARK  0 active torsions:
REMARK  status: ('A' for Active; 'I' for Inactive)
ROOT
ATOM      1  C1  BNZ d   1       0.190   0.790   2.070  0.00  0.00     0.000 A 
ATOM      2  C2  BNZ d   1       1.007  -0.159   2.625  0.00  0.00     0.000 A 
ATOM      3  C3  BNZ d   1       1.739  -1.001   1.835  0.00  0.00     0.000 A 
ATOM      4  C4  BNZ d   1       1.623  -0.921   0.494  0.00  0.00     0.000 A 
ATOM      5  C5  BNZ d   1       0.796   0.025  -0.080  0.00  0.00     0.000 A 
ATOM      6  C6  BNZ d   1       0.091   0.896   0.717  0.00  0.00     0.000 A 
ENDROOT
TORSDOF 0
ENDMDL
