MODEL 1
REMARK minimizedAffinity 0.398876399
REMARK minimizedRMSD -1
REMARK  0 active torsions:
REMARK  status: ('A' for Active; 'I' for Inactive)
ROOT
ATOM      1  C1  BNZ d   1       0.842  -0.759   0.177  0.00  0.00     0.000 A 
ATOM      2  C2  BNZ d   1       0.867  -0.496   1.521  0.00  0.00     0.000 A 
ATOM      3  C3  BNZ d   1       0.440   0.709   2.006  0.00  0.00     0.000 A 
ATOM      4  C4  BNZ d   1       0.028   1.662   1.145  0.00  0.00     0.000 A 
ATOM      5  C5  BNZ d   1       0.006   1.415  -0.213  0.00  0.00     0.000 A 
ATOM      6  C6  BNZ d   1       0.400   0.187  -0.695  0.00  0.00     0.000 A 
ENDROOT
TORSDOF 0
ENDMDL
