MODEL 1
REMARK minimizedAffinity 13.532939
REMARK minimizedRMSD -1
REMARK  0 active torsions:
REMARK  status: ('A' for Active; 'I' for Inactive)
ROOT
ATOM      1  C   UNL d   1       2.428  -1.171  -1.014  0.00  0.00     0.124 A 
ATOM      2  C1  UNL d   1       1.191  -0.948  -1.603  0.00  0.00     0.062 A 
ATOM      3  C2  UNL d   1       0.263  -0.114  -0.988  0.00  0.00     0.162 A 
ATOM      4  C3  UNL d   1       0.568   0.505   0.225  0.00  0.00    -0.034 A 
ATOM      5  C4  UNL d   1       1.813   0.275   0.812  0.00  0.00     0.162 A 
ATOM      6  C5  UNL d   1       2.738  -0.559   0.192  0.00  0.00     0.062 A 
ATOM      7  F   UNL d   1       3.932  -0.773   0.763  0.00  0.00    -0.097 F 
ATOM      8  F1  UNL d   1       2.139   0.854   1.977  0.00  0.00    -0.096 F 
ATOM      9  I   UNL d   1      -0.818   1.753   1.149  0.00  0.00    -0.060 I 
ATOM     10  F2  UNL d   1      -0.925   0.084  -1.580  0.00  0.00    -0.096 F 
ATOM     11  F3  UNL d   1       0.889  -1.538  -2.769  0.00  0.00    -0.097 F 
ATOM     12  F4  UNL d   1       3.319  -1.975  -1.608  0.00  0.00    -0.092 F 
ENDROOT
TORSDOF 0
ENDMDL
