MODEL 1
REMARK minimizedAffinity 3.25347614
REMARK minimizedRMSD -1
REMARK  0 active torsions:
REMARK  status: ('A' for Active; 'I' for Inactive)
ROOT
ATOM      1  C   UNL d   1       3.275   1.287   0.471  0.00  0.00     0.124 A 
ATOM      2  C1  UNL d   1       2.838   0.008   0.786  0.00  0.00     0.062 A 
ATOM      3  C2  UNL d   1       3.043  -1.041  -0.106  0.00  0.00     0.162 A 
ATOM      4  C3  UNL d   1       3.688  -0.816  -1.322  0.00  0.00    -0.034 A 
ATOM      5  C4  UNL d   1       4.124   0.474  -1.632  0.00  0.00     0.162 A 
ATOM      6  C5  UNL d   1       3.917   1.519  -0.737  0.00  0.00     0.062 A 
ATOM      7  F   UNL d   1       4.340   2.754  -1.044  0.00  0.00    -0.097 F 
ATOM      8  F1  UNL d   1       4.748   0.726  -2.792  0.00  0.00    -0.096 F 
ATOM      9  I   UNL d   1       3.996  -2.382  -2.658  0.00  0.00    -0.060 I 
ATOM     10  F2  UNL d   1       2.610  -2.267   0.225  0.00  0.00    -0.096 F 
ATOM     11  F3  UNL d   1       2.217  -0.219   1.952  0.00  0.00    -0.097 F 
ATOM     12  F4  UNL d   1       3.076   2.294   1.330  0.00  0.00    -0.092 F 
ENDROOT
TORSDOF 0
ENDMDL
