MODEL 1
REMARK minimizedAffinity 11.4629478
REMARK minimizedRMSD -1
REMARK  0 active torsions:
REMARK  status: ('A' for Active; 'I' for Inactive)
ROOT
ATOM      1  C   UNL d   1       2.585   3.360   0.142  0.00  0.00     0.124 A 
ATOM      2  C1  UNL d   1       3.679   2.719  -0.423  0.00  0.00     0.062 A 
ATOM      3  C2  UNL d   1       3.757   1.329  -0.415  0.00  0.00     0.162 A 
ATOM      4  C3  UNL d   1       2.737   0.570   0.160  0.00  0.00    -0.034 A 
ATOM      5  C4  UNL d   1       1.641   1.222   0.727  0.00  0.00     0.162 A 
ATOM      6  C5  UNL d   1       1.567   2.611   0.716  0.00  0.00     0.062 A 
ATOM      7  F   UNL d   1       0.510   3.228   1.263  0.00  0.00    -0.097 F 
ATOM      8  F1  UNL d   1       0.643   0.523   1.288  0.00  0.00    -0.096 F 
ATOM      9  I   UNL d   1       2.851  -1.508   0.174  0.00  0.00    -0.060 I 
ATOM     10  F2  UNL d   1       4.825   0.736  -0.968  0.00  0.00    -0.096 F 
ATOM     11  F3  UNL d   1       4.663   3.440  -0.978  0.00  0.00    -0.097 F 
ATOM     12  F4  UNL d   1       2.513   4.697   0.134  0.00  0.00    -0.092 F 
ENDROOT
TORSDOF 0
ENDMDL
