MODEL 1
REMARK minimizedAffinity 9.42010307
REMARK minimizedRMSD -1
REMARK  0 active torsions:
REMARK  status: ('A' for Active; 'I' for Inactive)
ROOT
ATOM      1  C   UNL d   1       3.077   1.765   0.718  0.00  0.00     0.124 A 
ATOM      2  C1  UNL d   1       3.859   0.633   0.903  0.00  0.00     0.062 A 
ATOM      3  C2  UNL d   1       3.365  -0.622   0.562  0.00  0.00     0.162 A 
ATOM      4  C3  UNL d   1       2.081  -0.753   0.031  0.00  0.00    -0.034 A 
ATOM      5  C4  UNL d   1       1.301   0.390  -0.152  0.00  0.00     0.162 A 
ATOM      6  C5  UNL d   1       1.799   1.642   0.191  0.00  0.00     0.062 A 
ATOM      7  F   UNL d   1       1.042   2.735   0.012  0.00  0.00    -0.097 F 
ATOM      8  F1  UNL d   1       0.063   0.300  -0.660  0.00  0.00    -0.096 F 
ATOM      9  I   UNL d   1       1.339  -2.629  -0.481  0.00  0.00    -0.060 I 
ATOM     10  F2  UNL d   1       4.142  -1.699   0.751  0.00  0.00    -0.096 F 
ATOM     11  F3  UNL d   1       5.093   0.749   1.413  0.00  0.00    -0.097 F 
ATOM     12  F4  UNL d   1       3.554   2.972   1.048  0.00  0.00    -0.092 F 
ENDROOT
TORSDOF 0
ENDMDL
