MODEL 1
REMARK minimizedAffinity 15.1227207
REMARK minimizedRMSD -1
REMARK  0 active torsions:
REMARK  status: ('A' for Active; 'I' for Inactive)
ROOT
ATOM      1  C   UNL d   1       3.768   1.729  -0.145  0.00  0.00     0.124 A 
ATOM      2  C1  UNL d   1       4.112   0.700  -1.010  0.00  0.00     0.062 A 
ATOM      3  C2  UNL d   1       3.384  -0.486  -1.011  0.00  0.00     0.162 A 
ATOM      4  C3  UNL d   1       2.304  -0.650  -0.143  0.00  0.00    -0.034 A 
ATOM      5  C4  UNL d   1       1.965   0.390   0.725  0.00  0.00     0.162 A 
ATOM      6  C5  UNL d   1       2.695   1.573   0.722  0.00  0.00     0.062 A 
ATOM      7  F   UNL d   1       2.362   2.567   1.558  0.00  0.00    -0.097 F 
ATOM      8  F1  UNL d   1       0.933   0.266   1.572  0.00  0.00    -0.096 F 
ATOM      9  I   UNL d   1       1.213  -2.422  -0.140  0.00  0.00    -0.060 I 
ATOM     10  F2  UNL d   1       3.738  -1.464  -1.858  0.00  0.00    -0.096 F 
ATOM     11  F3  UNL d   1       5.148   0.848  -1.848  0.00  0.00    -0.097 F 
ATOM     12  F4  UNL d   1       4.471   2.870  -0.146  0.00  0.00    -0.092 F 
ENDROOT
TORSDOF 0
ENDMDL
