MODEL 1
REMARK minimizedAffinity 6.46552992
REMARK minimizedRMSD -1
REMARK  0 active torsions:
REMARK  status: ('A' for Active; 'I' for Inactive)
ROOT
ATOM      1  C   UNL d   1       2.774   0.701   0.247  0.00  0.00     0.124 A 
ATOM      2  C1  UNL d   1       1.563   0.836  -0.418  0.00  0.00     0.062 A 
ATOM      3  C2  UNL d   1       0.869  -0.293  -0.845  0.00  0.00     0.162 A 
ATOM      4  C3  UNL d   1       1.384  -1.567  -0.607  0.00  0.00    -0.034 A 
ATOM      5  C4  UNL d   1       2.603  -1.695   0.061  0.00  0.00     0.162 A 
ATOM      6  C5  UNL d   1       3.293  -0.564   0.485  0.00  0.00     0.062 A 
ATOM      7  F   UNL d   1       4.463  -0.696   1.127  0.00  0.00    -0.097 F 
ATOM      8  F1  UNL d   1       3.127  -2.905   0.306  0.00  0.00    -0.096 F 
ATOM      9  I   UNL d   1       0.350  -3.257  -1.244  0.00  0.00    -0.060 I 
ATOM     10  F2  UNL d   1      -0.299  -0.132  -1.485  0.00  0.00    -0.096 F 
ATOM     11  F3  UNL d   1       1.060   2.057  -0.651  0.00  0.00    -0.097 F 
ATOM     12  F4  UNL d   1       3.440   1.789   0.655  0.00  0.00    -0.092 F 
ENDROOT
TORSDOF 0
ENDMDL
