MODEL 1
REMARK minimizedAffinity 7.45756435
REMARK minimizedRMSD -1
REMARK  0 active torsions:
REMARK  status: ('A' for Active; 'I' for Inactive)
ROOT
ATOM      1  C   UNL d   1      -0.189  -1.958  -1.010  0.00  0.00     0.124 A 
ATOM      2  C1  UNL d   1       1.081  -2.397  -0.662  0.00  0.00     0.062 A 
ATOM      3  C2  UNL d   1       2.108  -1.479  -0.462  0.00  0.00     0.162 A 
ATOM      4  C3  UNL d   1       1.869  -0.112  -0.608  0.00  0.00    -0.034 A 
ATOM      5  C4  UNL d   1       0.589   0.321  -0.959  0.00  0.00     0.162 A 
ATOM      6  C5  UNL d   1      -0.434  -0.600  -1.158  0.00  0.00     0.062 A 
ATOM      7  F   UNL d   1      -1.661  -0.174  -1.493  0.00  0.00    -0.097 F 
ATOM      8  F1  UNL d   1       0.325   1.628  -1.108  0.00  0.00    -0.096 F 
ATOM      9  I   UNL d   1       3.402   1.263  -0.310  0.00  0.00    -0.060 I 
ATOM     10  F2  UNL d   1       3.326  -1.931  -0.127  0.00  0.00    -0.096 F 
ATOM     11  F3  UNL d   1       1.320  -3.708  -0.519  0.00  0.00    -0.097 F 
ATOM     12  F4  UNL d   1      -1.176  -2.843  -1.202  0.00  0.00    -0.092 F 
ENDROOT
TORSDOF 0
ENDMDL
