MODEL 1
REMARK minimizedAffinity -2.6168561
REMARK minimizedRMSD -1
REMARK  0 active torsions:
REMARK  status: ('A' for Active; 'I' for Inactive)
ROOT
ATOM      1  O1  BZF d   1      -0.391  -1.044  -0.327  0.00  0.00    -0.204 OA
ATOM      2  C2  BZF d   1      -0.165   0.150   0.329  0.00  0.00     0.174 A 
ATOM      3  C3  BZF d   1       0.554   0.991  -0.442  0.00  0.00    -0.012 A 
ATOM      4  C3A BZF d   1       0.714   0.313  -1.691  0.00  0.00    -0.107 A 
ATOM      5  C4  BZF d   1       1.325   0.642  -2.867  0.00  0.00     0.055 A 
ATOM      6  C5  BZF d   1       1.364  -0.274  -3.870  0.00  0.00    -0.016 A 
ATOM      7  C6  BZF d   1       0.809  -1.529  -3.730  0.00  0.00     0.022 A 
ATOM      8  C7  BZF d   1       0.188  -1.900  -2.584  0.00  0.00     0.029 A 
ATOM      9  C7A BZF d   1       0.118  -0.965  -1.580  0.00  0.00     0.058 A 
ENDROOT
TORSDOF 0
ENDMDL
