MODEL 1
REMARK minimizedAffinity -4.10152292
REMARK minimizedRMSD -1
REMARK  0 active torsions:
REMARK  status: ('A' for Active; 'I' for Inactive)
ROOT
ATOM      1  O1  BZF d   1      -1.287   0.110  -0.766  0.00  0.00    -0.204 OA
ATOM      2  C2  BZF d   1      -0.192   0.335  -1.578  0.00  0.00     0.174 A 
ATOM      3  C3  BZF d   1       0.936   0.432  -0.845  0.00  0.00    -0.012 A 
ATOM      4  C3A BZF d   1       0.533   0.165   0.502  0.00  0.00    -0.107 A 
ATOM      5  C4  BZF d   1       1.207   0.100   1.688  0.00  0.00     0.055 A 
ATOM      6  C5  BZF d   1       0.509  -0.109   2.834  0.00  0.00    -0.016 A 
ATOM      7  C6  BZF d   1      -0.863  -0.252   2.832  0.00  0.00     0.022 A 
ATOM      8  C7  BZF d   1      -1.575  -0.200   1.680  0.00  0.00     0.029 A 
ATOM      9  C7A BZF d   1      -0.868  -0.022   0.516  0.00  0.00     0.058 A 
ENDROOT
TORSDOF 0
ENDMDL
