MODEL 1
REMARK minimizedAffinity -2.46606946
REMARK minimizedRMSD -1
REMARK  0 active torsions:
REMARK  status: ('A' for Active; 'I' for Inactive)
ROOT
ATOM      1  O1  BZF d   1      -0.795  -1.173  -0.613  0.00  0.00    -0.204 OA
ATOM      2  C2  BZF d   1       0.039  -0.452  -1.446  0.00  0.00     0.174 A 
ATOM      3  C3  BZF d   1       0.642   0.547  -0.772  0.00  0.00    -0.012 A 
ATOM      4  C3A BZF d   1       0.227   0.389   0.588  0.00  0.00    -0.107 A 
ATOM      5  C4  BZF d   1       0.504   1.067   1.740  0.00  0.00     0.055 A 
ATOM      6  C5  BZF d   1      -0.122   0.702   2.889  0.00  0.00    -0.016 A 
ATOM      7  C6  BZF d   1      -1.034  -0.333   2.922  0.00  0.00     0.022 A 
ATOM      8  C7  BZF d   1      -1.338  -1.039   1.806  0.00  0.00     0.029 A 
ATOM      9  C7A BZF d   1      -0.682  -0.693   0.649  0.00  0.00     0.058 A 
ENDROOT
TORSDOF 0
ENDMDL
