MODEL 1
REMARK minimizedAffinity -4.24914217
REMARK minimizedRMSD -1
REMARK  0 active torsions:
REMARK  status: ('A' for Active; 'I' for Inactive)
ROOT
ATOM      1  O1  BZF d   1       1.005   1.150   0.144  0.00  0.00    -0.204 OA
ATOM      2  C2  BZF d   1       0.902   0.531  -1.087  0.00  0.00     0.174 A 
ATOM      3  C3  BZF d   1       0.166  -0.595  -0.997  0.00  0.00    -0.012 A 
ATOM      4  C3A BZF d   1      -0.292  -0.638   0.358  0.00  0.00    -0.107 A 
ATOM      5  C4  BZF d   1      -1.079  -1.509   1.056  0.00  0.00     0.055 A 
ATOM      6  C5  BZF d   1      -1.275  -1.302   2.385  0.00  0.00    -0.016 A 
ATOM      7  C6  BZF d   1      -0.696  -0.239   3.048  0.00  0.00     0.022 A 
ATOM      8  C7  BZF d   1       0.088   0.654   2.396  0.00  0.00     0.029 A 
ATOM      9  C7A BZF d   1       0.261   0.466   1.047  0.00  0.00     0.058 A 
ENDROOT
TORSDOF 0
ENDMDL
