MODEL 1
REMARK minimizedAffinity -2.2068181
REMARK minimizedRMSD -1
REMARK  0 active torsions:
REMARK  status: ('A' for Active; 'I' for Inactive)
ROOT
ATOM      1  O1  BZF d   1       0.452  -0.292   3.250  0.00  0.00    -0.204 OA
ATOM      2  C2  BZF d   1      -0.856  -0.649   3.512  0.00  0.00     0.174 A 
ATOM      3  C3  BZF d   1      -1.564  -0.744   2.368  0.00  0.00    -0.012 A 
ATOM      4  C3A BZF d   1      -0.617  -0.517   1.319  0.00  0.00    -0.107 A 
ATOM      5  C4  BZF d   1      -0.711  -0.498  -0.043  0.00  0.00     0.055 A 
ATOM      6  C5  BZF d   1       0.385  -0.172  -0.776  0.00  0.00    -0.016 A 
ATOM      7  C6  BZF d   1       1.589   0.145  -0.181  0.00  0.00     0.022 A 
ATOM      8  C7  BZF d   1       1.732   0.135   1.167  0.00  0.00     0.029 A 
ATOM      9  C7A BZF d   1       0.635  -0.226   1.909  0.00  0.00     0.058 A 
ENDROOT
TORSDOF 0
ENDMDL
