MODEL 1
REMARK minimizedAffinity -4.76418638
REMARK minimizedRMSD -1
REMARK  0 active torsions:
REMARK  status: ('A' for Active; 'I' for Inactive)
ROOT
ATOM      1  O1  BZF d   1       0.755  -0.565   3.155  0.00  0.00    -0.204 OA
ATOM      2  C2  BZF d   1      -0.476  -0.810   3.732  0.00  0.00     0.174 A 
ATOM      3  C3  BZF d   1      -1.470  -0.603   2.843  0.00  0.00    -0.012 A 
ATOM      4  C3A BZF d   1      -0.814  -0.295   1.610  0.00  0.00    -0.107 A 
ATOM      5  C4  BZF d   1      -1.264  -0.008   0.353  0.00  0.00     0.055 A 
ATOM      6  C5  BZF d   1      -0.365   0.320  -0.612  0.00  0.00    -0.016 A 
ATOM      7  C6  BZF d   1       0.989   0.375  -0.354  0.00  0.00     0.022 A 
ATOM      8  C7  BZF d   1       1.484   0.094   0.876  0.00  0.00     0.029 A 
ATOM      9  C7A BZF d   1       0.580  -0.270   1.845  0.00  0.00     0.058 A 
ENDROOT
TORSDOF 0
ENDMDL
