MODEL 1
REMARK minimizedAffinity -4.74341106
REMARK minimizedRMSD -1
REMARK  0 active torsions:
REMARK  status: ('A' for Active; 'I' for Inactive)
ROOT
ATOM      1  O1  BZF d   1       1.123   0.879   0.035  0.00  0.00    -0.204 OA
ATOM      2  C2  BZF d   1       0.533   0.803  -1.211  0.00  0.00     0.174 A 
ATOM      3  C3  BZF d   1      -0.592   0.061  -1.164  0.00  0.00    -0.012 A 
ATOM      4  C3A BZF d   1      -0.763  -0.275   0.217  0.00  0.00    -0.107 A 
ATOM      5  C4  BZF d   1      -1.709  -0.985   0.900  0.00  0.00     0.055 A 
ATOM      6  C5  BZF d   1      -1.544  -1.191   2.233  0.00  0.00    -0.016 A 
ATOM      7  C6  BZF d   1      -0.446  -0.707   2.913  0.00  0.00     0.022 A 
ATOM      8  C7  BZF d   1       0.516   0.007   2.279  0.00  0.00     0.029 A 
ATOM      9  C7A BZF d   1       0.336   0.245   0.938  0.00  0.00     0.058 A 
ENDROOT
TORSDOF 0
ENDMDL
