MODEL 1
REMARK minimizedAffinity -1.94017422
REMARK minimizedRMSD -1
REMARK  0 active torsions:
REMARK  status: ('A' for Active; 'I' for Inactive)
ROOT
ATOM      1  O1  BZF d   1       1.465   0.673  -0.878  0.00  0.00    -0.204 OA
ATOM      2  C2  BZF d   1       0.549   0.231  -1.813  0.00  0.00     0.174 A 
ATOM      3  C3  BZF d   1      -0.524  -0.320  -1.210  0.00  0.00    -0.012 A 
ATOM      4  C3A BZF d   1      -0.305  -0.132   0.191  0.00  0.00    -0.107 A 
ATOM      5  C4  BZF d   1      -1.028  -0.451   1.305  0.00  0.00     0.055 A 
ATOM      6  C5  BZF d   1      -0.499  -0.195   2.531  0.00  0.00    -0.016 A 
ATOM      7  C6  BZF d   1       0.749   0.373   2.679  0.00  0.00     0.022 A 
ATOM      8  C7  BZF d   1       1.501   0.711   1.604  0.00  0.00     0.029 A 
ATOM      9  C7A BZF d   1       0.956   0.484   0.364  0.00  0.00     0.058 A 
ENDROOT
TORSDOF 0
ENDMDL
