MODEL 1
REMARK minimizedAffinity -2.16672111
REMARK minimizedRMSD -1
REMARK  0 active torsions:
REMARK  status: ('A' for Active; 'I' for Inactive)
ROOT
ATOM      1  O1  BZF d   1       1.261   0.093  -0.857  0.00  0.00    -0.204 OA
ATOM      2  C2  BZF d   1       0.330  -0.238  -1.823  0.00  0.00     0.174 A 
ATOM      3  C3  BZF d   1      -0.821  -0.653  -1.255  0.00  0.00    -0.012 A 
ATOM      4  C3A BZF d   1      -0.626  -0.489   0.153  0.00  0.00    -0.107 A 
ATOM      5  C4  BZF d   1      -1.418  -0.715   1.243  0.00  0.00     0.055 A 
ATOM      6  C5  BZF d   1      -0.902  -0.522   2.485  0.00  0.00    -0.016 A 
ATOM      7  C6  BZF d   1       0.400  -0.108   2.674  0.00  0.00     0.022 A 
ATOM      8  C7  BZF d   1       1.222   0.134   1.624  0.00  0.00     0.029 A 
ATOM      9  C7A BZF d   1       0.694  -0.029   0.367  0.00  0.00     0.058 A 
ENDROOT
TORSDOF 0
ENDMDL
