MODEL 1
REMARK minimizedAffinity -5.36586428
REMARK minimizedRMSD -1
REMARK  0 active torsions:
REMARK  status: ('A' for Active; 'I' for Inactive)
ROOT
ATOM      1  O1  BZF d   1       0.251  -0.341   2.934  0.00  0.00    -0.204 OA
ATOM      2  C2  BZF d   1      -0.892  -1.041   3.270  0.00  0.00     0.174 A 
ATOM      3  C3  BZF d   1      -1.689  -1.201   2.194  0.00  0.00    -0.012 A 
ATOM      4  C3A BZF d   1      -0.959  -0.641   1.098  0.00  0.00    -0.107 A 
ATOM      5  C4  BZF d   1      -1.219  -0.514  -0.237  0.00  0.00     0.055 A 
ATOM      6  C5  BZF d   1      -0.330   0.148  -1.023  0.00  0.00    -0.016 A 
ATOM      7  C6  BZF d   1       0.825   0.699  -0.508  0.00  0.00     0.022 A 
ATOM      8  C7  BZF d   1       1.129   0.595   0.809  0.00  0.00     0.029 A 
ATOM      9  C7A BZF d   1       0.248  -0.102   1.600  0.00  0.00     0.058 A 
ENDROOT
TORSDOF 0
ENDMDL
