MODEL 1
REMARK minimizedAffinity -0.113823317
REMARK minimizedRMSD -1
REMARK  0 active torsions:
REMARK  status: ('A' for Active; 'I' for Inactive)
ROOT
ATOM      1  O1  BZF d   1       0.107  -0.819   3.060  0.00  0.00    -0.204 OA
ATOM      2  C2  BZF d   1      -0.747  -1.886   2.864  0.00  0.00     0.174 A 
ATOM      3  C3  BZF d   1      -1.258  -1.868   1.617  0.00  0.00    -0.012 A 
ATOM      4  C3A BZF d   1      -0.616  -0.769   0.963  0.00  0.00    -0.107 A 
ATOM      5  C4  BZF d   1      -0.695  -0.251  -0.298  0.00  0.00     0.055 A 
ATOM      6  C5  BZF d   1       0.009   0.873  -0.596  0.00  0.00    -0.016 A 
ATOM      7  C6  BZF d   1       0.797   1.506   0.344  0.00  0.00     0.022 A 
ATOM      8  C7  BZF d   1       0.910   1.026   1.606  0.00  0.00     0.029 A 
ATOM      9  C7A BZF d   1       0.226  -0.128   1.900  0.00  0.00     0.058 A 
ENDROOT
TORSDOF 0
ENDMDL
