MODEL 1
REMARK minimizedAffinity -2.75916266
REMARK minimizedRMSD -1
REMARK  0 active torsions:
REMARK  status: ('A' for Active; 'I' for Inactive)
ROOT
ATOM      1  O1  BZF d   1      -0.250  -0.796  -0.432  0.00  0.00    -0.204 OA
ATOM      2  C2  BZF d   1       0.474   0.298  -0.866  0.00  0.00     0.174 A 
ATOM      3  C3  BZF d   1       0.792   1.101   0.169  0.00  0.00    -0.012 A 
ATOM      4  C3A BZF d   1       0.312   0.423   1.334  0.00  0.00    -0.107 A 
ATOM      5  C4  BZF d   1       0.343   0.712   2.668  0.00  0.00     0.055 A 
ATOM      6  C5  BZF d   1      -0.280  -0.124   3.540  0.00  0.00    -0.016 A 
ATOM      7  C6  BZF d   1      -0.948  -1.253   3.111  0.00  0.00     0.022 A 
ATOM      8  C7  BZF d   1      -1.002  -1.583   1.798  0.00  0.00     0.029 A 
ATOM      9  C7A BZF d   1      -0.345  -0.758   0.918  0.00  0.00     0.058 A 
ENDROOT
TORSDOF 0
ENDMDL
