MODEL 1
REMARK minimizedAffinity -2.66186476
REMARK minimizedRMSD -1
REMARK  0 active torsions:
REMARK  status: ('A' for Active; 'I' for Inactive)
ROOT
ATOM      1  O1  BZF d   1       1.283   0.620  -1.608  0.00  0.00    -0.204 OA
ATOM      2  C2  BZF d   1       0.417   0.343  -2.648  0.00  0.00     0.174 A 
ATOM      3  C3  BZF d   1      -0.746  -0.156  -2.182  0.00  0.00    -0.012 A 
ATOM      4  C3A BZF d   1      -0.633  -0.107  -0.757  0.00  0.00    -0.107 A 
ATOM      5  C4  BZF d   1      -1.472  -0.451   0.264  0.00  0.00     0.055 A 
ATOM      6  C5  BZF d   1      -1.031  -0.348   1.545  0.00  0.00    -0.016 A 
ATOM      7  C6  BZF d   1       0.243   0.090   1.841  0.00  0.00     0.022 A 
ATOM      8  C7  BZF d   1       1.110   0.448   0.862  0.00  0.00     0.029 A 
ATOM      9  C7A BZF d   1       0.656   0.376  -0.432  0.00  0.00     0.058 A 
ENDROOT
TORSDOF 0
ENDMDL
