MODEL 1
REMARK minimizedAffinity -3.53439569
REMARK minimizedRMSD -1
REMARK  0 active torsions:
REMARK  status: ('A' for Active; 'I' for Inactive)
ROOT
ATOM      1  O1  BZF d   1      -1.085  -0.918  -0.556  0.00  0.00    -0.204 OA
ATOM      2  C2  BZF d   1      -0.437  -0.037  -1.399  0.00  0.00     0.174 A 
ATOM      3  C3  BZF d   1       0.418   0.745  -0.709  0.00  0.00    -0.012 A 
ATOM      4  C3A BZF d   1       0.364   0.264   0.638  0.00  0.00    -0.107 A 
ATOM      5  C4  BZF d   1       1.001   0.626   1.790  0.00  0.00     0.055 A 
ATOM      6  C5  BZF d   1       0.669   0.003   2.952  0.00  0.00    -0.016 A 
ATOM      7  C6  BZF d   1      -0.297  -0.981   2.998  0.00  0.00     0.022 A 
ATOM      8  C7  BZF d   1      -0.952  -1.377   1.880  0.00  0.00     0.029 A 
ATOM      9  C7A BZF d   1      -0.596  -0.772   0.699  0.00  0.00     0.058 A 
ENDROOT
TORSDOF 0
ENDMDL
