MODEL 1
REMARK minimizedAffinity -1.25902605
REMARK minimizedRMSD -1
REMARK  0 active torsions:
REMARK  status: ('A' for Active; 'I' for Inactive)
ROOT
ATOM      1  O1  BZF d   1      -2.153  -0.403   2.204  0.00  0.00    -0.204 OA
ATOM      2  C2  BZF d   1      -1.315  -0.379   3.302  0.00  0.00     0.174 A 
ATOM      3  C3  BZF d   1      -0.050  -0.093   2.932  0.00  0.00    -0.012 A 
ATOM      4  C3A BZF d   1      -0.118   0.163   1.526  0.00  0.00    -0.107 A 
ATOM      5  C4  BZF d   1       0.812   0.515   0.590  0.00  0.00     0.055 A 
ATOM      6  C5  BZF d   1       0.434   0.616  -0.712  0.00  0.00    -0.016 A 
ATOM      7  C6  BZF d   1      -0.863   0.367  -1.112  0.00  0.00     0.022 A 
ATOM      8  C7  BZF d   1      -1.821   0.020  -0.219  0.00  0.00     0.029 A 
ATOM      9  C7A BZF d   1      -1.449  -0.050   1.101  0.00  0.00     0.058 A 
ENDROOT
TORSDOF 0
ENDMDL
