MODEL 1
REMARK minimizedAffinity -2.40675426
REMARK minimizedRMSD -1
REMARK  0 active torsions:
REMARK  status: ('A' for Active; 'I' for Inactive)
ROOT
ATOM      1  O1  BZF d   1      -1.674   0.466  -0.900  0.00  0.00    -0.204 OA
ATOM      2  C2  BZF d   1      -0.854   0.687  -1.989  0.00  0.00     0.174 A 
ATOM      3  C3  BZF d   1       0.444   0.652  -1.625  0.00  0.00    -0.012 A 
ATOM      4  C3A BZF d   1       0.437   0.300  -0.238  0.00  0.00    -0.107 A 
ATOM      5  C4  BZF d   1       1.423   0.094   0.683  0.00  0.00     0.055 A 
ATOM      6  C5  BZF d   1       1.079  -0.165   1.972  0.00  0.00    -0.016 A 
ATOM      7  C6  BZF d   1      -0.239  -0.220   2.375  0.00  0.00     0.022 A 
ATOM      8  C7  BZF d   1      -1.253  -0.028   1.496  0.00  0.00     0.029 A 
ATOM      9  C7A BZF d   1      -0.909   0.202   0.186  0.00  0.00     0.058 A 
ENDROOT
TORSDOF 0
ENDMDL
