MODEL 1
REMARK minimizedAffinity -3.82225013
REMARK minimizedRMSD -1
REMARK  0 active torsions:
REMARK  status: ('A' for Active; 'I' for Inactive)
ROOT
ATOM      1  O1  BZF d   1      -0.749  -0.911  -0.792  0.00  0.00    -0.204 OA
ATOM      2  C2  BZF d   1       0.196  -0.371  -1.643  0.00  0.00     0.174 A 
ATOM      3  C3  BZF d   1       1.113   0.337  -0.953  0.00  0.00    -0.012 A 
ATOM      4  C3A BZF d   1       0.769   0.157   0.424  0.00  0.00    -0.107 A 
ATOM      5  C4  BZF d   1       1.316   0.600   1.594  0.00  0.00     0.055 A 
ATOM      6  C5  BZF d   1       0.696   0.305   2.767  0.00  0.00    -0.016 A 
ATOM      7  C6  BZF d   1      -0.474  -0.426   2.806  0.00  0.00     0.022 A 
ATOM      8  C7  BZF d   1      -1.051  -0.892   1.671  0.00  0.00     0.029 A 
ATOM      9  C7A BZF d   1      -0.409  -0.623   0.487  0.00  0.00     0.058 A 
ENDROOT
TORSDOF 0
ENDMDL
