MODEL 1
REMARK minimizedAffinity -4.26646614
REMARK minimizedRMSD -1
REMARK  0 active torsions:
REMARK  status: ('A' for Active; 'I' for Inactive)
ROOT
ATOM      1  O1  BZF d   1      -0.527   0.766  -1.387  0.00  0.00    -0.204 OA
ATOM      2  C2  BZF d   1       0.375  -0.281  -1.391  0.00  0.00     0.174 A 
ATOM      3  C3  BZF d   1       0.640  -0.688  -0.132  0.00  0.00    -0.012 A 
ATOM      4  C3A BZF d   1      -0.215   0.096   0.705  0.00  0.00    -0.107 A 
ATOM      5  C4  BZF d   1      -0.423   0.142   2.054  0.00  0.00     0.055 A 
ATOM      6  C5  BZF d   1      -1.275   1.072   2.559  0.00  0.00    -0.016 A 
ATOM      7  C6  BZF d   1      -1.931   1.974   1.747  0.00  0.00     0.022 A 
ATOM      8  C7  BZF d   1      -1.760   1.964   0.403  0.00  0.00     0.029 A 
ATOM      9  C7A BZF d   1      -0.925   1.004  -0.115  0.00  0.00     0.058 A 
ENDROOT
TORSDOF 0
ENDMDL
