MODEL 1
REMARK minimizedAffinity -5.36591911
REMARK minimizedRMSD -1
REMARK  0 active torsions:
REMARK  status: ('A' for Active; 'I' for Inactive)
ROOT
ATOM      1  O1  BZF d   1       1.169   0.991  -0.661  0.00  0.00    -0.204 OA
ATOM      2  C2  BZF d   1       1.063  -0.281  -0.132  0.00  0.00     0.174 A 
ATOM      3  C3  BZF d   1       0.017  -0.360   0.716  0.00  0.00    -0.012 A 
ATOM      4  C3A BZF d   1      -0.622   0.918   0.646  0.00  0.00    -0.107 A 
ATOM      5  C4  BZF d   1      -1.726   1.450   1.249  0.00  0.00     0.055 A 
ATOM      6  C5  BZF d   1      -2.039   2.753   1.021  0.00  0.00    -0.016 A 
ATOM      7  C6  BZF d   1      -1.269   3.553   0.203  0.00  0.00     0.022 A 
ATOM      8  C7  BZF d   1      -0.168   3.068  -0.421  0.00  0.00     0.029 A 
ATOM      9  C7A BZF d   1       0.133   1.744  -0.219  0.00  0.00     0.058 A 
ENDROOT
TORSDOF 0
ENDMDL
