MODEL 1
REMARK minimizedAffinity -5.28790522
REMARK minimizedRMSD -1
REMARK  0 active torsions:
REMARK  status: ('A' for Active; 'I' for Inactive)
ROOT
ATOM      1  O1  BZF d   1      -1.775  -0.269   0.957  0.00  0.00    -0.204 OA
ATOM      2  C2  BZF d   1      -2.600   0.822   1.152  0.00  0.00     0.174 A 
ATOM      3  C3  BZF d   1      -2.014   1.951   0.704  0.00  0.00    -0.012 A 
ATOM      4  C3A BZF d   1      -0.781   1.527   0.114  0.00  0.00    -0.107 A 
ATOM      5  C4  BZF d   1       0.234   2.188  -0.515  0.00  0.00     0.055 A 
ATOM      6  C5  BZF d   1       1.332   1.490  -0.910  0.00  0.00    -0.016 A 
ATOM      7  C6  BZF d   1       1.449   0.134  -0.686  0.00  0.00     0.022 A 
ATOM      8  C7  BZF d   1       0.465  -0.566  -0.070  0.00  0.00     0.029 A 
ATOM      9  C7A BZF d   1      -0.660   0.131   0.300  0.00  0.00     0.058 A 
ENDROOT
TORSDOF 0
ENDMDL
