MODEL 1
REMARK minimizedAffinity 1.59803474
REMARK minimizedRMSD -1
REMARK  0 active torsions:
REMARK  status: ('A' for Active; 'I' for Inactive)
ROOT
ATOM      1  O1  BZF d   1      -1.076   0.928   2.439  0.00  0.00    -0.204 OA
ATOM      2  C2  BZF d   1      -1.233   2.298   2.356  0.00  0.00     0.174 A 
ATOM      3  C3  BZF d   1      -0.554   2.794   1.301  0.00  0.00    -0.012 A 
ATOM      4  C3A BZF d   1      -0.010   1.652   0.633  0.00  0.00    -0.107 A 
ATOM      5  C4  BZF d   1       0.749   1.496  -0.492  0.00  0.00     0.055 A 
ATOM      6  C5  BZF d   1       1.175   0.252  -0.833  0.00  0.00    -0.016 A 
ATOM      7  C6  BZF d   1       0.865  -0.856  -0.072  0.00  0.00     0.022 A 
ATOM      8  C7  BZF d   1       0.111  -0.752   1.049  0.00  0.00     0.029 A 
ATOM      9  C7A BZF d   1      -0.349   0.500   1.379  0.00  0.00     0.058 A 
ENDROOT
TORSDOF 0
ENDMDL
