MODEL 1
REMARK minimizedAffinity -2.53880978
REMARK minimizedRMSD -1
REMARK  0 active torsions:
REMARK  status: ('A' for Active; 'I' for Inactive)
ROOT
ATOM      1  O1  BZF d   1       0.817   1.837  -0.575  0.00  0.00    -0.204 OA
ATOM      2  C2  BZF d   1       1.672   0.883  -1.091  0.00  0.00     0.174 A 
ATOM      3  C3  BZF d   1       1.575  -0.271  -0.399  0.00  0.00    -0.012 A 
ATOM      4  C3A BZF d   1       0.531  -0.051   0.554  0.00  0.00    -0.107 A 
ATOM      5  C4  BZF d   1      -0.042  -0.832   1.517  0.00  0.00     0.055 A 
ATOM      6  C5  BZF d   1      -0.989  -0.293   2.328  0.00  0.00    -0.016 A 
ATOM      7  C6  BZF d   1      -1.384   1.024   2.208  0.00  0.00     0.022 A 
ATOM      8  C7  BZF d   1      -0.848   1.836   1.265  0.00  0.00     0.029 A 
ATOM      9  C7A BZF d   1       0.085   1.285   0.422  0.00  0.00     0.058 A 
ENDROOT
TORSDOF 0
ENDMDL
