MODEL 1
REMARK minimizedAffinity -1.52577579
REMARK minimizedRMSD -1
REMARK  0 active torsions:
REMARK  status: ('A' for Active; 'I' for Inactive)
ROOT
ATOM      1  O1  BZF d   1      -0.477   2.456   1.015  0.00  0.00    -0.204 OA
ATOM      2  C2  BZF d   1      -1.133   2.300   2.220  0.00  0.00     0.174 A 
ATOM      3  C3  BZF d   1      -1.238   0.994   2.542  0.00  0.00    -0.012 A 
ATOM      4  C3A BZF d   1      -0.527   0.295   1.516  0.00  0.00    -0.107 A 
ATOM      5  C4  BZF d   1      -0.263  -1.026   1.290  0.00  0.00     0.055 A 
ATOM      6  C5  BZF d   1       0.397  -1.383   0.157  0.00  0.00    -0.016 A 
ATOM      7  C6  BZF d   1       0.800  -0.447  -0.773  0.00  0.00     0.022 A 
ATOM      8  C7  BZF d   1       0.565   0.875  -0.590  0.00  0.00     0.029 A 
ATOM      9  C7A BZF d   1      -0.071   1.242   0.570  0.00  0.00     0.058 A 
ENDROOT
TORSDOF 0
ENDMDL
