MODEL 1
REMARK minimizedAffinity -4.35239983
REMARK minimizedRMSD -1
REMARK  0 active torsions:
REMARK  status: ('A' for Active; 'I' for Inactive)
ROOT
ATOM      1  O1  BZF d   1      -1.657  -1.093  -0.361  0.00  0.00    -0.204 OA
ATOM      2  C2  BZF d   1      -0.899  -0.278   0.458  0.00  0.00     0.174 A 
ATOM      3  C3  BZF d   1       0.399  -0.642   0.426  0.00  0.00    -0.012 A 
ATOM      4  C3A BZF d   1       0.470  -1.696  -0.540  0.00  0.00    -0.107 A 
ATOM      5  C4  BZF d   1       1.495  -2.456  -1.026  0.00  0.00     0.055 A 
ATOM      6  C5  BZF d   1       1.219  -3.450  -1.910  0.00  0.00    -0.016 A 
ATOM      7  C6  BZF d   1      -0.070  -3.716  -2.324  0.00  0.00     0.022 A 
ATOM      8  C7  BZF d   1      -1.119  -2.986  -1.873  0.00  0.00     0.029 A 
ATOM      9  C7A BZF d   1      -0.839  -1.959  -1.005  0.00  0.00     0.058 A 
ENDROOT
TORSDOF 0
ENDMDL
