MODEL 1
REMARK minimizedAffinity -6.6544137
REMARK minimizedRMSD -1
REMARK  0 active torsions:
REMARK  status: ('A' for Active; 'I' for Inactive)
ROOT
ATOM      1  O1  BZF d   1       0.684   0.467  -0.610  0.00  0.00    -0.204 OA
ATOM      2  C2  BZF d   1       0.581  -0.565   0.303  0.00  0.00     0.174 A 
ATOM      3  C3  BZF d   1      -0.250  -0.230   1.311  0.00  0.00    -0.012 A 
ATOM      4  C3A BZF d   1      -0.765   1.058   0.961  0.00  0.00    -0.107 A 
ATOM      5  C4  BZF d   1      -1.651   1.909   1.559  0.00  0.00     0.055 A 
ATOM      6  C5  BZF d   1      -1.884   3.123   0.995  0.00  0.00    -0.016 A 
ATOM      7  C6  BZF d   1      -1.246   3.521  -0.161  0.00  0.00     0.022 A 
ATOM      8  C7  BZF d   1      -0.363   2.710  -0.793  0.00  0.00     0.029 A 
ATOM      9  C7A BZF d   1      -0.150   1.469  -0.244  0.00  0.00     0.058 A 
ENDROOT
TORSDOF 0
ENDMDL
