MODEL 1
REMARK minimizedAffinity -5.60530996
REMARK minimizedRMSD -1
REMARK  0 active torsions:
REMARK  status: ('A' for Active; 'I' for Inactive)
ROOT
ATOM      1  O1  BZF d   1       0.931   1.398  -1.117  0.00  0.00    -0.204 OA
ATOM      2  C2  BZF d   1       0.618   0.116  -0.707  0.00  0.00     0.174 A 
ATOM      3  C3  BZF d   1      -0.307   0.141   0.274  0.00  0.00    -0.012 A 
ATOM      4  C3A BZF d   1      -0.657   1.519   0.427  0.00  0.00    -0.107 A 
ATOM      5  C4  BZF d   1      -1.536   2.181   1.237  0.00  0.00     0.055 A 
ATOM      6  C5  BZF d   1      -1.584   3.538   1.190  0.00  0.00    -0.016 A 
ATOM      7  C6  BZF d   1      -0.766   4.265   0.350  0.00  0.00     0.022 A 
ATOM      8  C7  BZF d   1       0.118   3.653  -0.475  0.00  0.00     0.029 A 
ATOM      9  C7A BZF d   1       0.146   2.280  -0.453  0.00  0.00     0.058 A 
ENDROOT
TORSDOF 0
ENDMDL
