MODEL 1
REMARK minimizedAffinity -3.88851309
REMARK minimizedRMSD -1
REMARK  0 active torsions:
REMARK  status: ('A' for Active; 'I' for Inactive)
ROOT
ATOM      1  O1  BZF d   1      -1.573   1.408   2.318  0.00  0.00    -0.204 OA
ATOM      2  C2  BZF d   1      -2.064   2.435   1.537  0.00  0.00     0.174 A 
ATOM      3  C3  BZF d   1      -1.607   2.335   0.272  0.00  0.00    -0.012 A 
ATOM      4  C3A BZF d   1      -0.852   1.120   0.240  0.00  0.00    -0.107 A 
ATOM      5  C4  BZF d   1      -0.163   0.468  -0.743  0.00  0.00     0.055 A 
ATOM      6  C5  BZF d   1       0.526  -0.660  -0.429  0.00  0.00    -0.016 A 
ATOM      7  C6  BZF d   1       0.553  -1.161   0.856  0.00  0.00     0.022 A 
ATOM      8  C7  BZF d   1      -0.119  -0.552   1.863  0.00  0.00     0.029 A 
ATOM      9  C7A BZF d   1      -0.844   0.570   1.543  0.00  0.00     0.058 A 
ENDROOT
TORSDOF 0
ENDMDL
