MODEL 1
REMARK minimizedAffinity -5.54321337
REMARK minimizedRMSD -1
REMARK  0 active torsions:
REMARK  status: ('A' for Active; 'I' for Inactive)
ROOT
ATOM      1  O1  BZF d   1       0.999   1.009  -0.583  0.00  0.00    -0.204 OA
ATOM      2  C2  BZF d   1       0.917  -0.292  -0.126  0.00  0.00     0.174 A 
ATOM      3  C3  BZF d   1      -0.090  -0.425   0.762  0.00  0.00    -0.012 A 
ATOM      4  C3A BZF d   1      -0.732   0.854   0.796  0.00  0.00    -0.107 A 
ATOM      5  C4  BZF d   1      -1.809   1.345   1.478  0.00  0.00     0.055 A 
ATOM      6  C5  BZF d   1      -2.132   2.658   1.343  0.00  0.00    -0.016 A 
ATOM      7  C6  BZF d   1      -1.400   3.508   0.540  0.00  0.00     0.022 A 
ATOM      8  C7  BZF d   1      -0.327   3.065  -0.160  0.00  0.00     0.029 A 
ATOM      9  C7A BZF d   1      -0.017   1.731  -0.051  0.00  0.00     0.058 A 
ENDROOT
TORSDOF 0
ENDMDL
