MODEL 1
REMARK minimizedAffinity -1.95374596
REMARK minimizedRMSD -1
REMARK  0 active torsions:
REMARK  status: ('A' for Active; 'I' for Inactive)
ROOT
ATOM      1  O1  BZF d   1       0.878   2.321  -1.016  0.00  0.00    -0.204 OA
ATOM      2  C2  BZF d   1       0.416   3.591  -0.728  0.00  0.00     0.174 A 
ATOM      3  C3  BZF d   1      -0.466   3.560   0.292  0.00  0.00    -0.012 A 
ATOM      4  C3A BZF d   1      -0.492   2.197   0.726  0.00  0.00    -0.107 A 
ATOM      5  C4  BZF d   1      -1.165   1.539   1.715  0.00  0.00     0.055 A 
ATOM      6  C5  BZF d   1      -1.023   0.192   1.828  0.00  0.00    -0.016 A 
ATOM      7  C6  BZF d   1      -0.221  -0.528   0.967  0.00  0.00     0.022 A 
ATOM      8  C7  BZF d   1       0.471   0.081  -0.027  0.00  0.00     0.029 A 
ATOM      9  C7A BZF d   1       0.355   1.447  -0.123  0.00  0.00     0.058 A 
ENDROOT
TORSDOF 0
ENDMDL
