MODEL 1
REMARK minimizedAffinity -4.53755379
REMARK minimizedRMSD -1
REMARK  0 active torsions:
REMARK  status: ('A' for Active; 'I' for Inactive)
ROOT
ATOM      1  O1  BZF d   1      -1.283   1.562   2.546  0.00  0.00    -0.204 OA
ATOM      2  C2  BZF d   1      -2.005   2.502   1.836  0.00  0.00     0.174 A 
ATOM      3  C3  BZF d   1      -1.856   2.315   0.509  0.00  0.00    -0.012 A 
ATOM      4  C3A BZF d   1      -1.062   1.132   0.381  0.00  0.00    -0.107 A 
ATOM      5  C4  BZF d   1      -0.590   0.430  -0.691  0.00  0.00     0.055 A 
ATOM      6  C5  BZF d   1       0.218  -0.641  -0.475  0.00  0.00    -0.016 A 
ATOM      7  C6  BZF d   1       0.579  -1.033   0.798  0.00  0.00     0.022 A 
ATOM      8  C7  BZF d   1       0.132  -0.370   1.892  0.00  0.00     0.029 A 
ATOM      9  C7A BZF d   1      -0.712   0.692   1.678  0.00  0.00     0.058 A 
ENDROOT
TORSDOF 0
ENDMDL
