MODEL 1
REMARK minimizedAffinity -4.94225407
REMARK minimizedRMSD -1
REMARK  0 active torsions:
REMARK  status: ('A' for Active; 'I' for Inactive)
ROOT
ATOM      1  O1  BZF d   1       0.972  -0.523   1.171  0.00  0.00    -0.204 OA
ATOM      2  C2  BZF d   1       1.398  -0.864  -0.098  0.00  0.00     0.174 A 
ATOM      3  C3  BZF d   1       0.539  -0.405  -1.031  0.00  0.00    -0.012 A 
ATOM      4  C3A BZF d   1      -0.440   0.344  -0.305  0.00  0.00    -0.107 A 
ATOM      5  C4  BZF d   1      -1.545   1.055  -0.678  0.00  0.00     0.055 A 
ATOM      6  C5  BZF d   1      -2.330   1.607   0.283  0.00  0.00    -0.016 A 
ATOM      7  C6  BZF d   1      -2.045   1.464   1.625  0.00  0.00     0.022 A 
ATOM      8  C7  BZF d   1      -0.958   0.771   2.044  0.00  0.00     0.029 A 
ATOM      9  C7A BZF d   1      -0.144   0.240   1.074  0.00  0.00     0.058 A 
ENDROOT
TORSDOF 0
ENDMDL
