MODEL 1
REMARK minimizedAffinity -5.21073961
REMARK minimizedRMSD -1
REMARK  0 active torsions:
REMARK  status: ('A' for Active; 'I' for Inactive)
ROOT
ATOM      1  O1  BZF d   1       0.870   0.784  -0.729  0.00  0.00    -0.204 OA
ATOM      2  C2  BZF d   1       0.741  -0.452  -0.126  0.00  0.00     0.174 A 
ATOM      3  C3  BZF d   1      -0.265  -0.442   0.773  0.00  0.00    -0.012 A 
ATOM      4  C3A BZF d   1      -0.857   0.855   0.662  0.00  0.00    -0.107 A 
ATOM      5  C4  BZF d   1      -1.909   1.464   1.285  0.00  0.00     0.055 A 
ATOM      6  C5  BZF d   1      -2.183   2.764   1.001  0.00  0.00    -0.016 A 
ATOM      7  C6  BZF d   1      -1.423   3.487   0.104  0.00  0.00     0.022 A 
ATOM      8  C7  BZF d   1      -0.373   2.925  -0.542  0.00  0.00     0.029 A 
ATOM      9  C7A BZF d   1      -0.114   1.601  -0.282  0.00  0.00     0.058 A 
ENDROOT
TORSDOF 0
ENDMDL
