MODEL 1
REMARK minimizedAffinity -3.17810178
REMARK minimizedRMSD -1
REMARK  0 active torsions:
REMARK  status: ('A' for Active; 'I' for Inactive)
ROOT
ATOM      1  O1  BZF d   1       0.879   2.069  -1.075  0.00  0.00    -0.204 OA
ATOM      2  C2  BZF d   1       0.605   3.423  -1.039  0.00  0.00     0.174 A 
ATOM      3  C3  BZF d   1      -0.298   3.702  -0.076  0.00  0.00    -0.012 A 
ATOM      4  C3A BZF d   1      -0.537   2.457   0.587  0.00  0.00    -0.107 A 
ATOM      5  C4  BZF d   1      -1.326   2.091   1.641  0.00  0.00     0.055 A 
ATOM      6  C5  BZF d   1      -1.389   0.780   1.994  0.00  0.00    -0.016 A 
ATOM      7  C6  BZF d   1      -0.681  -0.190   1.315  0.00  0.00     0.022 A 
ATOM      8  C7  BZF d   1       0.118   0.126   0.267  0.00  0.00     0.029 A 
ATOM      9  C7A BZF d   1       0.209   1.454  -0.072  0.00  0.00     0.058 A 
ENDROOT
TORSDOF 0
ENDMDL
