MODEL 1
REMARK minimizedAffinity -2.80719185
REMARK minimizedRMSD -1
REMARK  0 active torsions:
REMARK  status: ('A' for Active; 'I' for Inactive)
ROOT
ATOM      1  O1  BZF d   1       0.648   0.189  -0.904  0.00  0.00    -0.204 OA
ATOM      2  C2  BZF d   1       0.517  -1.068  -0.346  0.00  0.00     0.174 A 
ATOM      3  C3  BZF d   1      -0.159  -1.006   0.819  0.00  0.00    -0.012 A 
ATOM      4  C3A BZF d   1      -0.550   0.363   0.955  0.00  0.00    -0.107 A 
ATOM      5  C4  BZF d   1      -1.261   1.048   1.899  0.00  0.00     0.055 A 
ATOM      6  C5  BZF d   1      -1.404   2.393   1.771  0.00  0.00    -0.016 A 
ATOM      7  C6  BZF d   1      -0.846   3.086   0.717  0.00  0.00     0.022 A 
ATOM      8  C7  BZF d   1      -0.137   2.450  -0.247  0.00  0.00     0.029 A 
ATOM      9  C7A BZF d   1      -0.018   1.086  -0.138  0.00  0.00     0.058 A 
ENDROOT
TORSDOF 0
ENDMDL
