MODEL 1
REMARK minimizedAffinity -4.97693253
REMARK minimizedRMSD -1
REMARK  0 active torsions:
REMARK  status: ('A' for Active; 'I' for Inactive)
ROOT
ATOM      1  O1  BZF d   1       0.570   0.571  -0.882  0.00  0.00    -0.204 OA
ATOM      2  C2  BZF d   1       0.614  -0.589  -0.133  0.00  0.00     0.174 A 
ATOM      3  C3  BZF d   1      -0.087  -0.447   1.011  0.00  0.00    -0.012 A 
ATOM      4  C3A BZF d   1      -0.677   0.854   0.931  0.00  0.00    -0.107 A 
ATOM      5  C4  BZF d   1      -1.498   1.565   1.759  0.00  0.00     0.055 A 
ATOM      6  C5  BZF d   1      -1.833   2.838   1.422  0.00  0.00    -0.016 A 
ATOM      7  C6  BZF d   1      -1.362   3.433   0.270  0.00  0.00     0.022 A 
ATOM      8  C7  BZF d   1      -0.549   2.766  -0.585  0.00  0.00     0.029 A 
ATOM      9  C7A BZF d   1      -0.235   1.468  -0.264  0.00  0.00     0.058 A 
ENDROOT
TORSDOF 0
ENDMDL
