MODEL 1
REMARK minimizedAffinity -4.14844418
REMARK minimizedRMSD -1
REMARK  0 active torsions:
REMARK  status: ('A' for Active; 'I' for Inactive)
ROOT
ATOM      1  O1  BZF d   1       0.510   0.712  -1.134  0.00  0.00    -0.204 OA
ATOM      2  C2  BZF d   1       0.312  -0.580  -0.688  0.00  0.00     0.174 A 
ATOM      3  C3  BZF d   1      -0.266  -0.582   0.530  0.00  0.00    -0.012 A 
ATOM      4  C3A BZF d   1      -0.526   0.793   0.826  0.00  0.00    -0.107 A 
ATOM      5  C4  BZF d   1      -1.101   1.433   1.886  0.00  0.00     0.055 A 
ATOM      6  C5  BZF d   1      -1.136   2.792   1.898  0.00  0.00    -0.016 A 
ATOM      7  C6  BZF d   1      -0.601   3.541   0.870  0.00  0.00     0.022 A 
ATOM      8  C7  BZF d   1      -0.024   2.950  -0.205  0.00  0.00     0.029 A 
ATOM      9  C7A BZF d   1      -0.017   1.577  -0.235  0.00  0.00     0.058 A 
ENDROOT
TORSDOF 0
ENDMDL
