MODEL 1
REMARK minimizedAffinity 14.3937216
REMARK minimizedRMSD -1
REMARK  2 active torsions:
REMARK  status: ('A' for Active; 'I' for Inactive)
REMARK    1  A    between atoms: C1_2  and  C2_3 
REMARK    2  A    between atoms: C2_3  and  C3_4 
ROOT
ATOM      1  C3  UNL d   1       3.286  -2.055  -0.657  0.00  0.00    -0.075 A 
ATOM      2  C4  UNL d   1       2.968  -0.918  -1.414  0.00  0.00     0.002 A 
ATOM      3  C5  UNL d   1       1.854  -0.915  -2.254  0.00  0.00     0.002 A 
ATOM      4  C6  UNL d   1       1.051  -2.049  -2.356  0.00  0.00    -0.004 A 
ATOM      5  C7  UNL d   1       1.367  -3.190  -1.621  0.00  0.00     0.002 A 
ATOM      6  C8  UNL d   1       2.478  -3.194  -0.776  0.00  0.00     0.002 A 
ENDROOT
BRANCH   1   7
ATOM      7  C2  UNL d   1       4.473  -2.055   0.276  0.00  0.00     0.056 C 
BRANCH   7   8
ATOM      8  C1  UNL d   1       4.211  -1.364   1.618  0.00  0.00     0.007 C 
ATOM      9  C   UNL d   1       5.423  -1.364   2.540  0.00  0.00     0.009 C 
ENDBRANCH   7   8
ENDBRANCH   1   7
TORSDOF 2
ENDMDL
