MODEL 1
REMARK minimizedAffinity -1.88833213
REMARK minimizedRMSD -1
REMARK  2 active torsions:
REMARK  status: ('A' for Active; 'I' for Inactive)
REMARK    1  A    between atoms: C1_2  and  C2_3 
REMARK    2  A    between atoms: C2_3  and  C3_4 
ROOT
ATOM      1  C3  UNL d   1       4.586   5.915   2.335  0.00  0.00    -0.075 A 
ATOM      2  C4  UNL d   1       5.801   5.902   1.635  0.00  0.00     0.002 A 
ATOM      3  C5  UNL d   1       5.816   5.949   0.241  0.00  0.00     0.002 A 
ATOM      4  C6  UNL d   1       4.619   5.999  -0.471  0.00  0.00    -0.004 A 
ATOM      5  C7  UNL d   1       3.406   5.996   0.214  0.00  0.00     0.002 A 
ATOM      6  C8  UNL d   1       3.388   5.954   1.609  0.00  0.00     0.002 A 
ENDROOT
BRANCH   1   7
ATOM      7  C2  UNL d   1       4.563   5.895   3.845  0.00  0.00     0.056 C 
BRANCH   7   8
ATOM      8  C1  UNL d   1       5.520   4.874   4.469  0.00  0.00     0.007 C 
ATOM      9  C   UNL d   1       5.612   4.986   5.985  0.00  0.00     0.009 C 
ENDBRANCH   7   8
ENDBRANCH   1   7
TORSDOF 2
ENDMDL
