MODEL 1
REMARK minimizedAffinity -2.37550831
REMARK minimizedRMSD -1
REMARK  2 active torsions:
REMARK  status: ('A' for Active; 'I' for Inactive)
REMARK    1  A    between atoms: C1_2  and  C2_3 
REMARK    2  A    between atoms: C2_3  and  C3_4 
ROOT
ATOM      1  C3  UNL d   1       4.647   5.746   2.776  0.00  0.00    -0.075 A 
ATOM      2  C4  UNL d   1       3.582   5.982   1.894  0.00  0.00     0.002 A 
ATOM      3  C5  UNL d   1       3.720   5.721   0.530  0.00  0.00     0.002 A 
ATOM      4  C6  UNL d   1       4.925   5.232   0.030  0.00  0.00    -0.004 A 
ATOM      5  C7  UNL d   1       5.995   5.010   0.894  0.00  0.00     0.002 A 
ATOM      6  C8  UNL d   1       5.858   5.266   2.260  0.00  0.00     0.002 A 
ENDROOT
BRANCH   1   7
ATOM      7  C2  UNL d   1       4.494   5.998   4.257  0.00  0.00     0.056 C 
BRANCH   7   8
ATOM      8  C1  UNL d   1       5.800   5.874   5.048  0.00  0.00     0.007 C 
ATOM      9  C   UNL d   1       5.815   4.685   6.000  0.00  0.00     0.009 C 
ENDBRANCH   7   8
ENDBRANCH   1   7
TORSDOF 2
ENDMDL
