MODEL 1
REMARK minimizedAffinity -3.47251415
REMARK minimizedRMSD -1
REMARK  2 active torsions:
REMARK  status: ('A' for Active; 'I' for Inactive)
REMARK    1  A    between atoms: C1_2  and  C2_3 
REMARK    2  A    between atoms: C2_3  and  C3_4 
ROOT
ATOM      1  C3  UNL d   1       4.837   5.900   1.792  0.00  0.00    -0.075 A 
ATOM      2  C4  UNL d   1       5.999   5.857   1.008  0.00  0.00     0.002 A 
ATOM      3  C5  UNL d   1       5.916   5.898  -0.384  0.00  0.00     0.002 A 
ATOM      4  C6  UNL d   1       4.673   5.973  -1.009  0.00  0.00    -0.004 A 
ATOM      5  C7  UNL d   1       3.511   6.000  -0.240  0.00  0.00     0.002 A 
ATOM      6  C8  UNL d   1       3.592   5.963   1.153  0.00  0.00     0.002 A 
ENDROOT
BRANCH   1   7
ATOM      7  C2  UNL d   1       4.922   5.885   3.300  0.00  0.00     0.056 C 
BRANCH   7   8
ATOM      8  C1  UNL d   1       5.789   4.755   3.865  0.00  0.00     0.007 C 
ATOM      9  C   UNL d   1       5.637   4.577   5.370  0.00  0.00     0.009 C 
ENDBRANCH   7   8
ENDBRANCH   1   7
TORSDOF 2
ENDMDL
