MODEL 1
REMARK minimizedAffinity 6.57383633
REMARK minimizedRMSD -1
REMARK  2 active torsions:
REMARK  status: ('A' for Active; 'I' for Inactive)
REMARK    1  A    between atoms: C1_2  and  C2_3 
REMARK    2  A    between atoms: C2_3  and  C3_4 
ROOT
ATOM      1  C3  UNL d   1      -2.249   3.418   3.856  0.00  0.00    -0.075 A 
ATOM      2  C4  UNL d   1      -3.291   3.612   2.937  0.00  0.00     0.002 A 
ATOM      3  C5  UNL d   1      -3.847   2.528   2.257  0.00  0.00     0.002 A 
ATOM      4  C6  UNL d   1      -3.363   1.240   2.478  0.00  0.00    -0.004 A 
ATOM      5  C7  UNL d   1      -2.317   1.038   3.377  0.00  0.00     0.002 A 
ATOM      6  C8  UNL d   1      -1.762   2.120   4.062  0.00  0.00     0.002 A 
ENDROOT
BRANCH   1   7
ATOM      7  C2  UNL d   1      -1.664   4.583   4.617  0.00  0.00     0.056 C 
BRANCH   7   8
ATOM      8  C1  UNL d   1      -2.287   4.802   6.000  0.00  0.00     0.007 C 
ATOM      9  C   UNL d   1      -3.404   5.837   5.998  0.00  0.00     0.009 C 
ENDBRANCH   7   8
ENDBRANCH   1   7
TORSDOF 2
ENDMDL
