MODEL 1
REMARK minimizedAffinity 7.32723856
REMARK minimizedRMSD -1
REMARK  2 active torsions:
REMARK  status: ('A' for Active; 'I' for Inactive)
REMARK    1  A    between atoms: C1_2  and  C2_3 
REMARK    2  A    between atoms: C2_3  and  C3_4 
ROOT
ATOM      1  C3  UNL d   1       3.891  -5.917   3.403  0.00  0.00    -0.075 A 
ATOM      2  C4  UNL d   1       5.293  -5.940   3.420  0.00  0.00     0.002 A 
ATOM      3  C5  UNL d   1       5.987  -5.986   4.629  0.00  0.00     0.002 A 
ATOM      4  C6  UNL d   1       5.290  -6.000   5.835  0.00  0.00    -0.004 A 
ATOM      5  C7  UNL d   1       3.897  -5.960   5.831  0.00  0.00     0.002 A 
ATOM      6  C8  UNL d   1       3.200  -5.918   4.622  0.00  0.00     0.002 A 
ENDROOT
BRANCH   1   7
ATOM      7  C2  UNL d   1       3.134  -5.897   2.097  0.00  0.00     0.056 C 
BRANCH   7   8
ATOM      8  C1  UNL d   1       1.944  -4.932   2.080  0.00  0.00     0.007 C 
ATOM      9  C   UNL d   1       0.964  -5.205   0.947  0.00  0.00     0.009 C 
ENDBRANCH   7   8
ENDBRANCH   1   7
TORSDOF 2
ENDMDL
