MODEL 1
REMARK minimizedAffinity -3.47178555
REMARK minimizedRMSD -1
REMARK  2 active torsions:
REMARK  status: ('A' for Active; 'I' for Inactive)
REMARK    1  A    between atoms: C1_2  and  C2_3 
REMARK    2  A    between atoms: C2_3  and  C3_4 
ROOT
ATOM      1  C3  UNL d   1       5.462  -3.337   5.253  0.00  0.00    -0.075 A 
ATOM      2  C4  UNL d   1       4.415  -3.604   4.359  0.00  0.00     0.002 A 
ATOM      3  C5  UNL d   1       3.904  -4.897   4.232  0.00  0.00     0.002 A 
ATOM      4  C6  UNL d   1       4.439  -5.937   4.989  0.00  0.00    -0.004 A 
ATOM      5  C7  UNL d   1       5.490  -5.686   5.868  0.00  0.00     0.002 A 
ATOM      6  C8  UNL d   1       6.000  -4.393   5.999  0.00  0.00     0.002 A 
ENDROOT
BRANCH   1   7
ATOM      7  C2  UNL d   1       5.999  -1.935   5.415  0.00  0.00     0.056 C 
BRANCH   7   8
ATOM      8  C1  UNL d   1       5.977  -1.105   4.128  0.00  0.00     0.007 C 
ATOM      9  C   UNL d   1       4.838  -0.095   4.084  0.00  0.00     0.009 C 
ENDBRANCH   7   8
ENDBRANCH   1   7
TORSDOF 2
ENDMDL
