MODEL 1
REMARK minimizedAffinity 16.8438778
REMARK minimizedRMSD -1
REMARK  2 active torsions:
REMARK  status: ('A' for Active; 'I' for Inactive)
REMARK    1  A    between atoms: C1_2  and  C2_3 
REMARK    2  A    between atoms: C2_3  and  C3_4 
ROOT
ATOM      1  C3  UNL d   1       2.210  -3.469  -0.295  0.00  0.00    -0.075 A 
ATOM      2  C4  UNL d   1       3.448  -2.810  -0.300  0.00  0.00     0.002 A 
ATOM      3  C5  UNL d   1       3.728  -1.835  -1.258  0.00  0.00     0.002 A 
ATOM      4  C6  UNL d   1       2.780  -1.514  -2.228  0.00  0.00    -0.004 A 
ATOM      5  C7  UNL d   1       1.553  -2.174  -2.243  0.00  0.00     0.002 A 
ATOM      6  C8  UNL d   1       1.268  -3.147  -1.282  0.00  0.00     0.002 A 
ENDROOT
BRANCH   1   7
ATOM      7  C2  UNL d   1       1.889  -4.503   0.757  0.00  0.00     0.056 C 
BRANCH   7   8
ATOM      8  C1  UNL d   1       0.453  -4.431   1.285  0.00  0.00     0.007 C 
ATOM      9  C   UNL d   1      -0.215  -5.795   1.399  0.00  0.00     0.009 C 
ENDBRANCH   7   8
ENDBRANCH   1   7
TORSDOF 2
ENDMDL
