MODEL 1
REMARK minimizedAffinity 8.32868767
REMARK minimizedRMSD -1
REMARK  2 active torsions:
REMARK  status: ('A' for Active; 'I' for Inactive)
REMARK    1  A    between atoms: C1_2  and  C2_3 
REMARK    2  A    between atoms: C2_3  and  C3_4 
ROOT
ATOM      1  C3  UNL d   1       1.429  -4.115   0.470  0.00  0.00    -0.075 A 
ATOM      2  C4  UNL d   1       0.052  -4.126   0.739  0.00  0.00     0.002 A 
ATOM      3  C5  UNL d   1      -0.488  -5.056   1.628  0.00  0.00     0.002 A 
ATOM      4  C6  UNL d   1       0.337  -5.991   2.249  0.00  0.00    -0.004 A 
ATOM      5  C7  UNL d   1       1.703  -6.000   1.977  0.00  0.00     0.002 A 
ATOM      6  C8  UNL d   1       2.247  -5.067   1.092  0.00  0.00     0.002 A 
ENDROOT
BRANCH   1   7
ATOM      7  C2  UNL d   1       2.024  -3.092  -0.467  0.00  0.00     0.056 C 
BRANCH   7   8
ATOM      8  C1  UNL d   1       0.985  -2.304  -1.272  0.00  0.00     0.007 C 
ATOM      9  C   UNL d   1       1.464  -0.915  -1.674  0.00  0.00     0.009 C 
ENDBRANCH   7   8
ENDBRANCH   1   7
TORSDOF 2
ENDMDL
