MODEL 1
REMARK minimizedAffinity 4.88566351
REMARK minimizedRMSD -1
REMARK  2 active torsions:
REMARK  status: ('A' for Active; 'I' for Inactive)
REMARK    1  A    between atoms: C1_2  and  C2_3 
REMARK    2  A    between atoms: C2_3  and  C3_4 
ROOT
ATOM      1  C3  UNL d   1       4.221   0.024  -2.904  0.00  0.00    -0.075 A 
ATOM      2  C4  UNL d   1       3.078   0.738  -3.293  0.00  0.00     0.002 A 
ATOM      3  C5  UNL d   1       1.830   0.425  -2.753  0.00  0.00     0.002 A 
ATOM      4  C6  UNL d   1       1.707  -0.608  -1.827  0.00  0.00    -0.004 A 
ATOM      5  C7  UNL d   1       2.833  -1.335  -1.446  0.00  0.00     0.002 A 
ATOM      6  C8  UNL d   1       4.084  -1.022  -1.981  0.00  0.00     0.002 A 
ENDROOT
BRANCH   1   7
ATOM      7  C2  UNL d   1       5.579   0.376  -3.462  0.00  0.00     0.056 C 
BRANCH   7   8
ATOM      8  C1  UNL d   1       6.000  -0.476  -4.664  0.00  0.00     0.007 C 
ATOM      9  C   UNL d   1       5.792   0.227  -5.999  0.00  0.00     0.009 C 
ENDBRANCH   7   8
ENDBRANCH   1   7
TORSDOF 2
ENDMDL
