MODEL 1
REMARK minimizedAffinity 8.92966938
REMARK minimizedRMSD -1
REMARK  2 active torsions:
REMARK  status: ('A' for Active; 'I' for Inactive)
REMARK    1  A    between atoms: C1_2  and  C2_3 
REMARK    2  A    between atoms: C2_3  and  C3_4 
ROOT
ATOM      1  C3  UNL d   1      -1.078   0.577  -0.799  0.00  0.00    -0.075 A 
ATOM      2  C4  UNL d   1       0.039  -0.143  -1.246  0.00  0.00     0.002 A 
ATOM      3  C5  UNL d   1       0.806   0.330  -2.311  0.00  0.00     0.002 A 
ATOM      4  C6  UNL d   1       0.461   1.520  -2.948  0.00  0.00    -0.004 A 
ATOM      5  C7  UNL d   1      -0.657   2.235  -2.522  0.00  0.00     0.002 A 
ATOM      6  C8  UNL d   1      -1.424   1.766  -1.454  0.00  0.00     0.002 A 
ENDROOT
BRANCH   1   7
ATOM      7  C2  UNL d   1      -1.895   0.085   0.372  0.00  0.00     0.056 C 
BRANCH   7   8
ATOM      8  C1  UNL d   1      -1.603   0.816   1.687  0.00  0.00     0.007 C 
ATOM      9  C   UNL d   1      -2.624   0.520   2.778  0.00  0.00     0.009 C 
ENDBRANCH   7   8
ENDBRANCH   1   7
TORSDOF 2
ENDMDL
