MODEL 1
REMARK minimizedAffinity 0.119103938
REMARK minimizedRMSD -1
REMARK  2 active torsions:
REMARK  status: ('A' for Active; 'I' for Inactive)
REMARK    1  A    between atoms: C1_2  and  C2_3 
REMARK    2  A    between atoms: C2_3  and  C3_4 
ROOT
ATOM      1  C3  UNL d   1       2.824  -0.372  -1.609  0.00  0.00    -0.075 A 
ATOM      2  C4  UNL d   1       3.244  -1.502  -0.894  0.00  0.00     0.002 A 
ATOM      3  C5  UNL d   1       2.444  -2.643  -0.838  0.00  0.00     0.002 A 
ATOM      4  C6  UNL d   1       1.211  -2.665  -1.486  0.00  0.00    -0.004 A 
ATOM      5  C7  UNL d   1       0.775  -1.542  -2.186  0.00  0.00     0.002 A 
ATOM      6  C8  UNL d   1       1.577  -0.400  -2.247  0.00  0.00     0.002 A 
ENDROOT
BRANCH   1   7
ATOM      7  C2  UNL d   1       3.699   0.856  -1.698  0.00  0.00     0.056 C 
BRANCH   7   8
ATOM      8  C1  UNL d   1       2.921   2.165  -1.869  0.00  0.00     0.007 C 
ATOM      9  C   UNL d   1       3.820   3.393  -1.933  0.00  0.00     0.009 C 
ENDBRANCH   7   8
ENDBRANCH   1   7
TORSDOF 2
ENDMDL
