MODEL 1
REMARK minimizedAffinity 0.713972092
REMARK minimizedRMSD -1
REMARK  0 active torsions:
REMARK  status: ('A' for Active; 'I' for Inactive)
ROOT
ATOM      1  C   UNL d   1       2.559  -0.573   2.095  0.00  0.00     0.124 A 
ATOM      2  C1  UNL d   1       1.834  -1.710   1.766  0.00  0.00     0.062 A 
ATOM      3  C2  UNL d   1       0.700  -1.609   0.966  0.00  0.00     0.162 A 
ATOM      4  C3  UNL d   1       0.284  -0.366   0.488  0.00  0.00    -0.034 A 
ATOM      5  C4  UNL d   1       1.018   0.773   0.824  0.00  0.00     0.162 A 
ATOM      6  C5  UNL d   1       2.151   0.666   1.624  0.00  0.00     0.062 A 
ATOM      7  F   UNL d   1       2.851   1.766   1.941  0.00  0.00    -0.097 F 
ATOM      8  F1  UNL d   1       0.646   1.983   0.381  0.00  0.00    -0.096 F 
ATOM      9  I   UNL d   1      -1.412  -0.211  -0.709  0.00  0.00    -0.060 I 
ATOM     10  F2  UNL d   1       0.018  -2.724   0.664  0.00  0.00    -0.096 F 
ATOM     11  F3  UNL d   1       2.226  -2.909   2.221  0.00  0.00    -0.097 F 
ATOM     12  F4  UNL d   1       3.650  -0.673   2.866  0.00  0.00    -0.092 F 
ENDROOT
TORSDOF 0
ENDMDL
