MODEL 1
REMARK minimizedAffinity 0.43528834
REMARK minimizedRMSD -1
REMARK  0 active torsions:
REMARK  status: ('A' for Active; 'I' for Inactive)
ROOT
ATOM      1  C   UNL d   1       1.522  -0.722   1.669  0.00  0.00     0.124 A 
ATOM      2  C1  UNL d   1       1.606   0.476   0.974  0.00  0.00     0.062 A 
ATOM      3  C2  UNL d   1       0.632   0.813   0.039  0.00  0.00     0.162 A 
ATOM      4  C3  UNL d   1      -0.437  -0.050  -0.206  0.00  0.00    -0.034 A 
ATOM      5  C4  UNL d   1      -0.515  -1.254   0.497  0.00  0.00     0.162 A 
ATOM      6  C5  UNL d   1       0.462  -1.585   1.431  0.00  0.00     0.062 A 
ATOM      7  F   UNL d   1       0.379  -2.743   2.102  0.00  0.00    -0.097 F 
ATOM      8  F1  UNL d   1      -1.529  -2.106   0.287  0.00  0.00    -0.096 F 
ATOM      9  I   UNL d   1      -1.896   0.450  -1.603  0.00  0.00    -0.060 I 
ATOM     10  F2  UNL d   1       0.738   1.977  -0.619  0.00  0.00    -0.096 F 
ATOM     11  F3  UNL d   1       2.630   1.312   1.202  0.00  0.00    -0.097 F 
ATOM     12  F4  UNL d   1       2.461  -1.044   2.568  0.00  0.00    -0.092 F 
ENDROOT
TORSDOF 0
ENDMDL
