MODEL 1
REMARK minimizedAffinity -2.46045041
REMARK minimizedRMSD -1
REMARK  0 active torsions:
REMARK  status: ('A' for Active; 'I' for Inactive)
ROOT
ATOM      1  C   UNL d   1      -1.923  -0.870   0.279  0.00  0.00     0.124 A 
ATOM      2  C1  UNL d   1      -1.196   0.118  -0.371  0.00  0.00     0.062 A 
ATOM      3  C2  UNL d   1       0.150   0.307  -0.073  0.00  0.00     0.162 A 
ATOM      4  C3  UNL d   1       0.779  -0.494   0.880  0.00  0.00    -0.034 A 
ATOM      5  C4  UNL d   1       0.042  -1.485   1.530  0.00  0.00     0.162 A 
ATOM      6  C5  UNL d   1      -1.304  -1.670   1.228  0.00  0.00     0.062 A 
ATOM      7  F   UNL d   1      -2.004  -2.626   1.857  0.00  0.00    -0.097 F 
ATOM      8  F1  UNL d   1       0.616  -2.273   2.451  0.00  0.00    -0.096 F 
ATOM      9  I   UNL d   1       2.792  -0.214   1.329  0.00  0.00    -0.060 I 
ATOM     10  F2  UNL d   1       0.827   1.270  -0.716  0.00  0.00    -0.096 F 
ATOM     11  F3  UNL d   1      -1.793   0.893  -1.288  0.00  0.00    -0.097 F 
ATOM     12  F4  UNL d   1      -3.218  -1.050  -0.009  0.00  0.00    -0.092 F 
ENDROOT
TORSDOF 0
ENDMDL
