MODEL 1
REMARK minimizedAffinity 3.3490088
REMARK minimizedRMSD -1
REMARK  0 active torsions:
REMARK  status: ('A' for Active; 'I' for Inactive)
ROOT
ATOM      1  C   UNL d   1       0.978   0.782   0.658  0.00  0.00     0.124 A 
ATOM      2  C1  UNL d   1      -0.253   1.423   0.619  0.00  0.00     0.062 A 
ATOM      3  C2  UNL d   1      -1.252   0.969  -0.238  0.00  0.00     0.162 A 
ATOM      4  C3  UNL d   1      -1.024  -0.132  -1.063  0.00  0.00    -0.034 A 
ATOM      5  C4  UNL d   1       0.217  -0.770  -1.020  0.00  0.00     0.162 A 
ATOM      6  C5  UNL d   1       1.212  -0.313  -0.161  0.00  0.00     0.062 A 
ATOM      7  F   UNL d   1       2.400  -0.933  -0.126  0.00  0.00    -0.097 F 
ATOM      8  F1  UNL d   1       0.470  -1.832  -1.800  0.00  0.00    -0.096 F 
ATOM      9  I   UNL d   1      -2.514  -0.814  -2.346  0.00  0.00    -0.060 I 
ATOM     10  F2  UNL d   1      -2.432   1.607  -0.254  0.00  0.00    -0.096 F 
ATOM     11  F3  UNL d   1      -0.482   2.482   1.409  0.00  0.00    -0.097 F 
ATOM     12  F4  UNL d   1       1.937   1.222   1.483  0.00  0.00    -0.092 F 
ENDROOT
TORSDOF 0
ENDMDL
