MODEL 1
REMARK minimizedAffinity -3.66773057
REMARK minimizedRMSD -1
REMARK  0 active torsions:
REMARK  status: ('A' for Active; 'I' for Inactive)
ROOT
ATOM      1  C   UNL d   1       2.263  -0.974   1.855  0.00  0.00     0.124 A 
ATOM      2  C1  UNL d   1       2.193   0.120   1.003  0.00  0.00     0.062 A 
ATOM      3  C2  UNL d   1       1.048   0.345   0.245  0.00  0.00     0.162 A 
ATOM      4  C3  UNL d   1      -0.038  -0.525   0.334  0.00  0.00    -0.034 A 
ATOM      5  C4  UNL d   1       0.040  -1.624   1.192  0.00  0.00     0.162 A 
ATOM      6  C5  UNL d   1       1.186  -1.845   1.948  0.00  0.00     0.062 A 
ATOM      7  F   UNL d   1       1.251  -2.902   2.770  0.00  0.00    -0.097 F 
ATOM      8  F1  UNL d   1      -0.987  -2.481   1.303  0.00  0.00    -0.096 F 
ATOM      9  I   UNL d   1      -1.752  -0.192  -0.799  0.00  0.00    -0.060 I 
ATOM     10  F2  UNL d   1       1.009   1.410  -0.570  0.00  0.00    -0.096 F 
ATOM     11  F3  UNL d   1       3.233   0.962   0.910  0.00  0.00    -0.097 F 
ATOM     12  F4  UNL d   1       3.366  -1.189   2.583  0.00  0.00    -0.092 F 
ENDROOT
TORSDOF 0
ENDMDL
