MODEL 1
REMARK minimizedAffinity -4.53102684
REMARK minimizedRMSD -1
REMARK  0 active torsions:
REMARK  status: ('A' for Active; 'I' for Inactive)
ROOT
ATOM      1  C   UNL d   1       1.415  -2.354   1.432  0.00  0.00     0.124 A 
ATOM      2  C1  UNL d   1       0.154  -1.823   1.198  0.00  0.00     0.062 A 
ATOM      3  C2  UNL d   1       0.020  -0.524   0.716  0.00  0.00     0.162 A 
ATOM      4  C3  UNL d   1       1.151   0.252   0.462  0.00  0.00    -0.034 A 
ATOM      5  C4  UNL d   1       2.415  -0.289   0.701  0.00  0.00     0.162 A 
ATOM      6  C5  UNL d   1       2.544  -1.587   1.183  0.00  0.00     0.062 A 
ATOM      7  F   UNL d   1       3.763  -2.099   1.409  0.00  0.00    -0.097 F 
ATOM      8  F1  UNL d   1       3.524   0.430   0.468  0.00  0.00    -0.096 F 
ATOM      9  I   UNL d   1       0.955   2.194  -0.259  0.00  0.00    -0.060 I 
ATOM     10  F2  UNL d   1      -1.210  -0.037   0.499  0.00  0.00    -0.096 F 
ATOM     11  F3  UNL d   1      -0.939  -2.562   1.439  0.00  0.00    -0.097 F 
ATOM     12  F4  UNL d   1       1.540  -3.604   1.897  0.00  0.00    -0.092 F 
ENDROOT
TORSDOF 0
ENDMDL
