MODEL 1
REMARK minimizedAffinity 0.602311671
REMARK minimizedRMSD -1
REMARK  0 active torsions:
REMARK  status: ('A' for Active; 'I' for Inactive)
ROOT
ATOM      1  C   UNL d   1       0.382  -0.168   0.492  0.00  0.00     0.124 A 
ATOM      2  C1  UNL d   1      -0.918  -0.589   0.254  0.00  0.00     0.062 A 
ATOM      3  C2  UNL d   1      -1.668  -0.005  -0.763  0.00  0.00     0.162 A 
ATOM      4  C3  UNL d   1      -1.118   1.007  -1.550  0.00  0.00    -0.034 A 
ATOM      5  C4  UNL d   1       0.190   1.426  -1.304  0.00  0.00     0.162 A 
ATOM      6  C5  UNL d   1       0.935   0.839  -0.286  0.00  0.00     0.062 A 
ATOM      7  F   UNL d   1       2.192   1.247  -0.057  0.00  0.00    -0.097 F 
ATOM      8  F1  UNL d   1       0.750   2.397  -2.042  0.00  0.00    -0.096 F 
ATOM      9  I   UNL d   1      -2.236   1.883  -3.072  0.00  0.00    -0.060 I 
ATOM     10  F2  UNL d   1      -2.923  -0.432  -0.971  0.00  0.00    -0.096 F 
ATOM     11  F3  UNL d   1      -1.455  -1.561   1.005  0.00  0.00    -0.097 F 
ATOM     12  F4  UNL d   1       1.101  -0.731   1.472  0.00  0.00    -0.092 F 
ENDROOT
TORSDOF 0
ENDMDL
