MODEL 1
REMARK minimizedAffinity -3.67397451
REMARK minimizedRMSD -1
REMARK  0 active torsions:
REMARK  status: ('A' for Active; 'I' for Inactive)
ROOT
ATOM      1  C   UNL d   1       2.324  -0.659   2.358  0.00  0.00     0.124 A 
ATOM      2  C1  UNL d   1       1.548  -1.786   2.121  0.00  0.00     0.062 A 
ATOM      3  C2  UNL d   1       0.430  -1.705   1.296  0.00  0.00     0.162 A 
ATOM      4  C3  UNL d   1       0.081  -0.493   0.700  0.00  0.00    -0.034 A 
ATOM      5  C4  UNL d   1       0.866   0.636   0.944  0.00  0.00     0.162 A 
ATOM      6  C5  UNL d   1       1.982   0.550   1.769  0.00  0.00     0.062 A 
ATOM      7  F   UNL d   1       2.730   1.639   1.997  0.00  0.00    -0.097 F 
ATOM      8  F1  UNL d   1       0.559   1.817   0.387  0.00  0.00    -0.096 F 
ATOM      9  I   UNL d   1      -1.589  -0.368  -0.535  0.00  0.00    -0.060 I 
ATOM     10  F2  UNL d   1      -0.301  -2.810   1.084  0.00  0.00    -0.096 F 
ATOM     11  F3  UNL d   1       1.876  -2.955   2.689  0.00  0.00    -0.097 F 
ATOM     12  F4  UNL d   1       3.398  -0.740   3.153  0.00  0.00    -0.092 F 
ENDROOT
TORSDOF 0
ENDMDL
