MODEL 1
REMARK minimizedAffinity -5.20174932
REMARK minimizedRMSD -1
REMARK  0 active torsions:
REMARK  status: ('A' for Active; 'I' for Inactive)
ROOT
ATOM      1  C1  DEN d   1       0.832  -0.349  -0.330  0.00  0.00     0.130 A 
ATOM      2  C2  DEN d   1      -0.582  -0.031  -0.511  0.00  0.00    -0.031 A 
ATOM      3  C3  DEN d   1      -0.822   1.316   0.047  0.00  0.00     0.027 A 
ATOM      4  C4  DEN d   1       0.851   2.932   1.161  0.00  0.00     0.027 A 
ATOM      5  C5  DEN d   1       2.162   3.098   1.550  0.00  0.00    -0.003 A 
ATOM      6  C6  DEN d   1       3.106   2.121   1.373  0.00  0.00     0.001 A 
ATOM      7  C7  DEN d   1       2.763   0.951   0.749  0.00  0.00     0.017 A 
ATOM      8  C8  DEN d   1       1.442   0.773   0.360  0.00  0.00    -0.094 A 
ATOM      9  C9  DEN d   1       0.505   1.777   0.538  0.00  0.00    -0.072 A 
ENDROOT
TORSDOF 0
ENDMDL
