MODEL 1
REMARK minimizedAffinity -5.50762653
REMARK minimizedRMSD -1
REMARK  0 active torsions:
REMARK  status: ('A' for Active; 'I' for Inactive)
ROOT
ATOM      1  C1  DEN d   1      -2.128  -2.148   0.947  0.00  0.00     0.130 A 
ATOM      2  C2  DEN d   1      -3.254  -1.987   0.030  0.00  0.00    -0.031 A 
ATOM      3  C3  DEN d   1      -2.877  -0.982  -0.984  0.00  0.00     0.027 A 
ATOM      4  C4  DEN d   1      -0.669   0.330  -1.226  0.00  0.00     0.027 A 
ATOM      5  C5  DEN d   1       0.576   0.542  -0.678  0.00  0.00    -0.003 A 
ATOM      6  C6  DEN d   1       0.992  -0.098   0.460  0.00  0.00     0.001 A 
ATOM      7  C7  DEN d   1       0.171  -1.014   1.062  0.00  0.00     0.017 A 
ATOM      8  C8  DEN d   1      -1.090  -1.228   0.520  0.00  0.00    -0.094 A 
ATOM      9  C9  DEN d   1      -1.487  -0.580  -0.638  0.00  0.00    -0.072 A 
ENDROOT
TORSDOF 0
ENDMDL
