MODEL 1
REMARK minimizedAffinity -6.395154
REMARK minimizedRMSD -1
REMARK  0 active torsions:
REMARK  status: ('A' for Active; 'I' for Inactive)
ROOT
ATOM      1  C1  DEN d   1       0.316   0.495  -0.747  0.00  0.00     0.130 A 
ATOM      2  C2  DEN d   1       1.524   0.111  -0.022  0.00  0.00    -0.031 A 
ATOM      3  C3  DEN d   1       1.151  -0.903   0.984  0.00  0.00     0.027 A 
ATOM      4  C4  DEN d   1      -1.168  -1.916   1.482  0.00  0.00     0.027 A 
ATOM      5  C5  DEN d   1      -2.501  -1.895   1.134  0.00  0.00    -0.003 A 
ATOM      6  C6  DEN d   1      -2.990  -1.058   0.166  0.00  0.00     0.001 A 
ATOM      7  C7  DEN d   1      -2.132  -0.240  -0.519  0.00  0.00     0.017 A 
ATOM      8  C8  DEN d   1      -0.788  -0.250  -0.169  0.00  0.00    -0.094 A 
ATOM      9  C9  DEN d   1      -0.311  -1.112   0.804  0.00  0.00    -0.072 A 
ENDROOT
TORSDOF 0
ENDMDL
