MODEL 1
REMARK minimizedAffinity -4.22770452
REMARK minimizedRMSD -1
REMARK  0 active torsions:
REMARK  status: ('A' for Active; 'I' for Inactive)
ROOT
ATOM      1  C1  DEN d   1      -2.520  -0.286  -1.318  0.00  0.00     0.130 A 
ATOM      2  C2  DEN d   1      -3.404  -0.470  -0.170  0.00  0.00    -0.031 A 
ATOM      3  C3  DEN d   1      -2.566  -0.534   1.044  0.00  0.00     0.027 A 
ATOM      4  C4  DEN d   1      -0.001  -0.365   1.258  0.00  0.00     0.027 A 
ATOM      5  C5  DEN d   1       1.176  -0.217   0.558  0.00  0.00    -0.003 A 
ATOM      6  C6  DEN d   1       1.206  -0.118  -0.807  0.00  0.00     0.001 A 
ATOM      7  C7  DEN d   1       0.033  -0.119  -1.514  0.00  0.00     0.017 A 
ATOM      8  C8  DEN d   1      -1.158  -0.274  -0.816  0.00  0.00    -0.094 A 
ATOM      9  C9  DEN d   1      -1.168  -0.361   0.565  0.00  0.00    -0.072 A 
ENDROOT
TORSDOF 0
ENDMDL
