MODEL 1
REMARK minimizedAffinity 4.42429256
REMARK minimizedRMSD -1
REMARK  0 active torsions:
REMARK  status: ('A' for Active; 'I' for Inactive)
ROOT
ATOM      1  C1  DEN d   1      -3.544  -2.554   6.000  0.00  0.00     0.130 A 
ATOM      2  C2  DEN d   1      -3.054  -3.492   4.994  0.00  0.00    -0.031 A 
ATOM      3  C3  DEN d   1      -2.618  -2.714   3.817  0.00  0.00     0.027 A 
ATOM      4  C4  DEN d   1      -2.649  -0.160   3.459  0.00  0.00     0.027 A 
ATOM      5  C5  DEN d   1      -2.987   1.049   4.025  0.00  0.00    -0.003 A 
ATOM      6  C6  DEN d   1      -3.560   1.139   5.266  0.00  0.00     0.001 A 
ATOM      7  C7  DEN d   1      -3.772   0.002   6.000  0.00  0.00     0.017 A 
ATOM      8  C8  DEN d   1      -3.441  -1.222   5.432  0.00  0.00    -0.094 A 
ATOM      9  C9  DEN d   1      -2.851  -1.291   4.182  0.00  0.00    -0.072 A 
ENDROOT
TORSDOF 0
ENDMDL
