MODEL 1
REMARK minimizedAffinity -4.63659334
REMARK minimizedRMSD -1
REMARK  0 active torsions:
REMARK  status: ('A' for Active; 'I' for Inactive)
ROOT
ATOM      1  C1  DEN d   1      -2.184  -2.704   0.666  0.00  0.00     0.130 A 
ATOM      2  C2  DEN d   1      -1.168  -3.125   1.627  0.00  0.00    -0.031 A 
ATOM      3  C3  DEN d   1       0.006  -2.243   1.467  0.00  0.00     0.027 A 
ATOM      4  C4  DEN d   1       0.346  -0.274  -0.163  0.00  0.00     0.027 A 
ATOM      5  C5  DEN d   1      -0.232   0.454  -1.180  0.00  0.00    -0.003 A 
ATOM      6  C6  DEN d   1      -1.476   0.162  -1.672  0.00  0.00     0.001 A 
ATOM      7  C7  DEN d   1      -2.203  -0.858  -1.116  0.00  0.00     0.017 A 
ATOM      8  C8  DEN d   1      -1.625  -1.601  -0.096  0.00  0.00    -0.094 A 
ATOM      9  C9  DEN d   1      -0.370  -1.282   0.395  0.00  0.00    -0.072 A 
ENDROOT
TORSDOF 0
ENDMDL
