MODEL 1
REMARK minimizedAffinity -5.85375881
REMARK minimizedRMSD -1
REMARK  0 active torsions:
REMARK  status: ('A' for Active; 'I' for Inactive)
ROOT
ATOM      1  C1  DEN d   1      -2.320  -2.613   0.447  0.00  0.00     0.130 A 
ATOM      2  C2  DEN d   1      -1.529  -3.132   1.559  0.00  0.00    -0.031 A 
ATOM      3  C3  DEN d   1      -0.262  -2.376   1.610  0.00  0.00     0.027 A 
ATOM      4  C4  DEN d   1       0.546  -0.458   0.086  0.00  0.00     0.027 A 
ATOM      5  C5  DEN d   1       0.224   0.321  -1.003  0.00  0.00    -0.003 A 
ATOM      6  C6  DEN d   1      -0.943   0.156  -1.700  0.00  0.00     0.001 A 
ATOM      7  C7  DEN d   1      -1.853  -0.782  -1.288  0.00  0.00     0.017 A 
ATOM      8  C8  DEN d   1      -1.532  -1.577  -0.195  0.00  0.00    -0.094 A 
ATOM      9  C9  DEN d   1      -0.353  -1.386   0.504  0.00  0.00    -0.072 A 
ENDROOT
TORSDOF 0
ENDMDL
