MODEL 1
REMARK minimizedAffinity -6.88181257
REMARK minimizedRMSD -1
REMARK  0 active torsions:
REMARK  status: ('A' for Active; 'I' for Inactive)
ROOT
ATOM      1  C1  DEN d   1      -2.658  -0.519  -0.842  0.00  0.00     0.130 A 
ATOM      2  C2  DEN d   1      -3.376  -1.529  -0.071  0.00  0.00    -0.031 A 
ATOM      3  C3  DEN d   1      -2.421  -2.153   0.866  0.00  0.00     0.027 A 
ATOM      4  C4  DEN d   1       0.087  -1.651   1.201  0.00  0.00     0.027 A 
ATOM      5  C5  DEN d   1       1.145  -0.883   0.768  0.00  0.00    -0.003 A 
ATOM      6  C6  DEN d   1       1.020   0.029  -0.246  0.00  0.00     0.001 A 
ATOM      7  C7  DEN d   1      -0.203   0.228  -0.832  0.00  0.00     0.017 A 
ATOM      8  C8  DEN d   1      -1.273  -0.548  -0.406  0.00  0.00    -0.094 A 
ATOM      9  C9  DEN d   1      -1.128  -1.456   0.629  0.00  0.00    -0.072 A 
ENDROOT
TORSDOF 0
ENDMDL
