MODEL 1
REMARK minimizedAffinity 1.44851208
REMARK minimizedRMSD -1
REMARK  0 active torsions:
REMARK  status: ('A' for Active; 'I' for Inactive)
ROOT
ATOM      1  C1  DEN d   1       0.876   0.521   1.615  0.00  0.00     0.130 A 
ATOM      2  C2  DEN d   1       0.621  -0.131   0.333  0.00  0.00    -0.031 A 
ATOM      3  C3  DEN d   1       1.401   0.576  -0.702  0.00  0.00     0.027 A 
ATOM      4  C4  DEN d   1       2.975   2.603  -0.446  0.00  0.00     0.027 A 
ATOM      5  C5  DEN d   1       3.500   3.510   0.447  0.00  0.00    -0.003 A 
ATOM      6  C6  DEN d   1       3.165   3.506   1.775  0.00  0.00     0.001 A 
ATOM      7  C7  DEN d   1       2.313   2.547   2.257  0.00  0.00     0.017 A 
ATOM      8  C8  DEN d   1       1.773   1.634   1.361  0.00  0.00    -0.094 A 
ATOM      9  C9  DEN d   1       2.135   1.647   0.024  0.00  0.00    -0.072 A 
ENDROOT
TORSDOF 0
ENDMDL
