MODEL 1
REMARK minimizedAffinity -3.31627727
REMARK minimizedRMSD -1
REMARK  0 active torsions:
REMARK  status: ('A' for Active; 'I' for Inactive)
ROOT
ATOM      1  C1  DEN d   1      -2.365  -0.046   0.796  0.00  0.00     0.130 A 
ATOM      2  C2  DEN d   1      -3.040  -0.679  -0.334  0.00  0.00    -0.031 A 
ATOM      3  C3  DEN d   1      -2.040  -0.898  -1.398  0.00  0.00     0.027 A 
ATOM      4  C4  DEN d   1       0.475  -0.327  -1.403  0.00  0.00     0.027 A 
ATOM      5  C5  DEN d   1       1.501   0.230  -0.673  0.00  0.00    -0.003 A 
ATOM      6  C6  DEN d   1       1.305   0.760   0.575  0.00  0.00     0.001 A 
ATOM      7  C7  DEN d   1       0.063   0.704   1.149  0.00  0.00     0.017 A 
ATOM      8  C8  DEN d   1      -0.978   0.151   0.415  0.00  0.00    -0.094 A 
ATOM      9  C9  DEN d   1      -0.757  -0.391  -0.840  0.00  0.00    -0.072 A 
ENDROOT
TORSDOF 0
ENDMDL
