MODEL 1
REMARK minimizedAffinity -5.19932938
REMARK minimizedRMSD -1
REMARK  0 active torsions:
REMARK  status: ('A' for Active; 'I' for Inactive)
ROOT
ATOM      1  C1  DEN d   1       0.961  -0.379   0.406  0.00  0.00     0.130 A 
ATOM      2  C2  DEN d   1       1.111   0.485  -0.762  0.00  0.00    -0.031 A 
ATOM      3  C3  DEN d   1      -0.181   0.515  -1.476  0.00  0.00     0.027 A 
ATOM      4  C4  DEN d   1      -2.388  -0.682  -0.888  0.00  0.00     0.027 A 
ATOM      5  C5  DEN d   1      -3.000  -1.534   0.004  0.00  0.00    -0.003 A 
ATOM      6  C6  DEN d   1      -2.330  -2.084   1.065  0.00  0.00     0.001 A 
ATOM      7  C7  DEN d   1      -1.020  -1.751   1.287  0.00  0.00     0.017 A 
ATOM      8  C8  DEN d   1      -0.394  -0.898   0.387  0.00  0.00    -0.094 A 
ATOM      9  C9  DEN d   1      -1.092  -0.343  -0.672  0.00  0.00    -0.072 A 
ENDROOT
TORSDOF 0
ENDMDL
