MODEL 1
REMARK minimizedAffinity -4.27976274
REMARK minimizedRMSD -1
REMARK  0 active torsions:
REMARK  status: ('A' for Active; 'I' for Inactive)
ROOT
ATOM      1  C1  DEN d   1       1.367   0.747  -0.343  0.00  0.00     0.130 A 
ATOM      2  C2  DEN d   1       1.604   0.554   1.085  0.00  0.00    -0.031 A 
ATOM      3  C3  DEN d   1       0.376  -0.012   1.679  0.00  0.00     0.027 A 
ATOM      4  C4  DEN d   1      -1.854  -0.611   0.531  0.00  0.00     0.027 A 
ATOM      5  C5  DEN d   1      -2.535  -0.615  -0.666  0.00  0.00    -0.003 A 
ATOM      6  C6  DEN d   1      -1.980  -0.138  -1.824  0.00  0.00     0.001 A 
ATOM      7  C7  DEN d   1      -0.689   0.322  -1.818  0.00  0.00     0.017 A 
ATOM      8  C8  DEN d   1       0.001   0.336  -0.613  0.00  0.00    -0.094 A 
ATOM      9  C9  DEN d   1      -0.574  -0.162   0.544  0.00  0.00    -0.072 A 
ENDROOT
TORSDOF 0
ENDMDL
