MODEL 1
REMARK minimizedAffinity -1.9013238
REMARK minimizedRMSD -1
REMARK  1 active torsions:
REMARK  status: ('A' for Active; 'I' for Inactive)
REMARK    1  A    between atoms: C1_2  and  C2_3 
ROOT
ATOM      1  C2  UNL d   1      -0.313  -0.425  -0.640  0.00  0.00    -0.081 A 
ATOM      2  C3  UNL d   1       0.856   0.095  -0.072  0.00  0.00     0.006 A 
ATOM      3  C4  UNL d   1       0.794   0.881   1.081  0.00  0.00     0.002 A 
ATOM      4  C5  UNL d   1      -0.436   1.155   1.688  0.00  0.00    -0.080 A 
ATOM      5  C6  UNL d   1      -0.514   1.973   2.943  0.00  0.00     0.076 C 
ATOM      6  C7  UNL d   1      -1.606   0.650   1.110  0.00  0.00     0.002 A 
ATOM      7  C8  UNL d   1      -1.544  -0.136  -0.043  0.00  0.00     0.006 A 
ENDROOT
BRANCH   1   8
ATOM      8  C1  UNL d   1      -0.243  -1.327  -1.846  0.00  0.00     0.054 C 
ATOM      9  C   UNL d   1      -0.951  -0.707  -3.042  0.00  0.00     0.018 C 
ENDBRANCH   1   8
TORSDOF 1
ENDMDL
