MODEL 1
REMARK minimizedAffinity -4.02110958
REMARK minimizedRMSD -1
REMARK  1 active torsions:
REMARK  status: ('A' for Active; 'I' for Inactive)
REMARK    1  A    between atoms: C1_2  and  C2_3 
ROOT
ATOM      1  C2  UNL d   1       0.532   0.182  -4.234  0.00  0.00    -0.081 A 
ATOM      2  C3  UNL d   1      -0.017  -0.933  -3.590  0.00  0.00     0.006 A 
ATOM      3  C4  UNL d   1      -1.107  -1.607  -4.146  0.00  0.00     0.002 A 
ATOM      4  C5  UNL d   1      -1.661  -1.181  -5.358  0.00  0.00    -0.080 A 
ATOM      5  C6  UNL d   1      -2.813  -1.913  -5.981  0.00  0.00     0.076 C 
ATOM      6  C7  UNL d   1      -1.124  -0.056  -5.993  0.00  0.00     0.002 A 
ATOM      7  C8  UNL d   1      -0.035   0.618  -5.437  0.00  0.00     0.006 A 
ENDROOT
BRANCH   1   8
ATOM      8  C1  UNL d   1       1.748   0.872  -3.671  0.00  0.00     0.054 C 
ATOM      9  C   UNL d   1       2.078   0.359  -2.276  0.00  0.00     0.018 C 
ENDBRANCH   1   8
TORSDOF 1
ENDMDL
