MODEL 1
REMARK minimizedAffinity -5.62971926
REMARK minimizedRMSD -1
REMARK  1 active torsions:
REMARK  status: ('A' for Active; 'I' for Inactive)
REMARK    1  A    between atoms: C1_2  and  C2_3 
ROOT
ATOM      1  C2  UNL d   1      -2.405  -0.538  -5.130  0.00  0.00    -0.081 A 
ATOM      2  C3  UNL d   1      -1.847   0.720  -5.383  0.00  0.00     0.006 A 
ATOM      3  C4  UNL d   1      -0.683   1.124  -4.724  0.00  0.00     0.002 A 
ATOM      4  C5  UNL d   1      -0.054   0.273  -3.809  0.00  0.00    -0.080 A 
ATOM      5  C6  UNL d   1       1.213   0.682  -3.118  0.00  0.00     0.076 C 
ATOM      6  C7  UNL d   1      -0.622  -0.978  -3.543  0.00  0.00     0.002 A 
ATOM      7  C8  UNL d   1      -1.786  -1.381  -4.201  0.00  0.00     0.006 A 
ENDROOT
BRANCH   1   8
ATOM      8  C1  UNL d   1      -3.624  -1.002  -5.886  0.00  0.00     0.054 C 
ATOM      9  C   UNL d   1      -3.661  -2.519  -6.000  0.00  0.00     0.018 C 
ENDBRANCH   1   8
TORSDOF 1
ENDMDL
