MODEL 1
REMARK minimizedAffinity -3.52703667
REMARK minimizedRMSD -1
REMARK  1 active torsions:
REMARK  status: ('A' for Active; 'I' for Inactive)
REMARK    1  A    between atoms: C1_2  and  C2_3 
ROOT
ATOM      1  C2  UNL d   1       0.366  -0.406  -1.053  0.00  0.00    -0.081 A 
ATOM      2  C3  UNL d   1      -0.949   0.071  -1.001  0.00  0.00     0.006 A 
ATOM      3  C4  UNL d   1      -1.501   0.493   0.211  0.00  0.00     0.002 A 
ATOM      4  C5  UNL d   1      -0.747   0.451   1.388  0.00  0.00    -0.080 A 
ATOM      5  C6  UNL d   1      -1.318   0.929   2.690  0.00  0.00     0.076 C 
ATOM      6  C7  UNL d   1       0.562  -0.042   1.339  0.00  0.00     0.002 A 
ATOM      7  C8  UNL d   1       1.114  -0.464   0.128  0.00  0.00     0.006 A 
ENDROOT
BRANCH   1   8
ATOM      8  C1  UNL d   1       0.987  -0.801  -2.369  0.00  0.00     0.054 C 
ATOM      9  C   UNL d   1       1.734   0.365  -3.000  0.00  0.00     0.018 C 
ENDBRANCH   1   8
TORSDOF 1
ENDMDL
