MODEL 1
REMARK minimizedAffinity -5.09665823
REMARK minimizedRMSD -1
REMARK  1 active torsions:
REMARK  status: ('A' for Active; 'I' for Inactive)
REMARK    1  A    between atoms: C1_2  and  C2_3 
ROOT
ATOM      1  C2  UNL d   1      -0.008  -0.161   0.069  0.00  0.00    -0.081 A 
ATOM      2  C3  UNL d   1       1.144  -0.286   0.855  0.00  0.00     0.006 A 
ATOM      3  C4  UNL d   1       1.174   0.224   2.155  0.00  0.00     0.002 A 
ATOM      4  C5  UNL d   1       0.050   0.860   2.694  0.00  0.00    -0.080 A 
ATOM      5  C6  UNL d   1       0.058   1.384   4.099  0.00  0.00     0.076 C 
ATOM      6  C7  UNL d   1      -1.095   1.000   1.903  0.00  0.00     0.002 A 
ATOM      7  C8  UNL d   1      -1.125   0.491   0.603  0.00  0.00     0.006 A 
ENDROOT
BRANCH   1   8
ATOM      8  C1  UNL d   1      -0.065  -0.766  -1.310  0.00  0.00     0.054 C 
ATOM      9  C   UNL d   1       0.602   0.137  -2.338  0.00  0.00     0.018 C 
ENDBRANCH   1   8
TORSDOF 1
ENDMDL
