MODEL 1
REMARK minimizedAffinity 0.146214202
REMARK minimizedRMSD -1
REMARK  1 active torsions:
REMARK  status: ('A' for Active; 'I' for Inactive)
REMARK    1  A    between atoms: C1_2  and  C2_3 
ROOT
ATOM      1  C2  UNL d   1       0.682   0.408  -0.454  0.00  0.00    -0.081 A 
ATOM      2  C3  UNL d   1      -0.225  -0.423   0.216  0.00  0.00     0.006 A 
ATOM      3  C4  UNL d   1      -0.710  -0.070   1.478  0.00  0.00     0.002 A 
ATOM      4  C5  UNL d   1      -0.302   1.122   2.087  0.00  0.00    -0.080 A 
ATOM      5  C6  UNL d   1      -0.838   1.527   3.428  0.00  0.00     0.076 C 
ATOM      6  C7  UNL d   1       0.617   1.943   1.426  0.00  0.00     0.002 A 
ATOM      7  C8  UNL d   1       1.102   1.590   0.164  0.00  0.00     0.006 A 
ENDROOT
BRANCH   1   8
ATOM      8  C1  UNL d   1       1.156   0.062  -1.842  0.00  0.00     0.054 C 
ATOM      9  C   UNL d   1      -0.014  -0.246  -2.766  0.00  0.00     0.018 C 
ENDBRANCH   1   8
TORSDOF 1
ENDMDL
