MODEL 1
REMARK minimizedAffinity 3.35941815
REMARK minimizedRMSD -1
REMARK  1 active torsions:
REMARK  status: ('A' for Active; 'I' for Inactive)
REMARK    1  A    between atoms: C1_2  and  C2_3 
ROOT
ATOM      1  C2  UNL d   1       0.591  -0.236   1.570  0.00  0.00    -0.081 A 
ATOM      2  C3  UNL d   1      -0.317   0.161   2.560  0.00  0.00     0.006 A 
ATOM      3  C4  UNL d   1      -1.669   0.330   2.254  0.00  0.00     0.002 A 
ATOM      4  C5  UNL d   1      -2.137   0.098   0.956  0.00  0.00    -0.080 A 
ATOM      5  C6  UNL d   1      -3.592   0.247   0.621  0.00  0.00     0.076 C 
ATOM      6  C7  UNL d   1      -1.228  -0.281  -0.037  0.00  0.00     0.002 A 
ATOM      7  C8  UNL d   1       0.125  -0.450   0.269  0.00  0.00     0.006 A 
ENDROOT
BRANCH   1   8
ATOM      8  C1  UNL d   1       2.038  -0.483   1.912  0.00  0.00     0.054 C 
ATOM      9  C   UNL d   1       2.913  -0.455   0.667  0.00  0.00     0.018 C 
ENDBRANCH   1   8
TORSDOF 1
ENDMDL
