MODEL 1
REMARK minimizedAffinity -3.83261752
REMARK minimizedRMSD -1
REMARK  1 active torsions:
REMARK  status: ('A' for Active; 'I' for Inactive)
REMARK    1  A    between atoms: C1_2  and  C2_3 
ROOT
ATOM      1  C2  UNL d   1       0.565  -0.617  -0.383  0.00  0.00    -0.081 A 
ATOM      2  C3  UNL d   1      -0.765  -0.196  -0.264  0.00  0.00     0.006 A 
ATOM      3  C4  UNL d   1      -1.183   0.522   0.859  0.00  0.00     0.002 A 
ATOM      4  C5  UNL d   1      -0.277   0.837   1.878  0.00  0.00    -0.080 A 
ATOM      5  C6  UNL d   1      -0.705   1.633   3.074  0.00  0.00     0.076 C 
ATOM      6  C7  UNL d   1       1.048   0.401   1.767  0.00  0.00     0.002 A 
ATOM      7  C8  UNL d   1       1.466  -0.318   0.645  0.00  0.00     0.006 A 
ENDROOT
BRANCH   1   8
ATOM      8  C1  UNL d   1       1.033  -1.336  -1.623  0.00  0.00     0.054 C 
ATOM      9  C   UNL d   1       0.361  -0.781  -2.871  0.00  0.00     0.018 C 
ENDBRANCH   1   8
TORSDOF 1
ENDMDL
