MODEL 1
REMARK minimizedAffinity -2.84932303
REMARK minimizedRMSD -1
REMARK  1 active torsions:
REMARK  status: ('A' for Active; 'I' for Inactive)
REMARK    1  A    between atoms: C1_2  and  C2_3 
ROOT
ATOM      1  C2  UNL d   1       0.085  -0.761   0.100  0.00  0.00    -0.081 A 
ATOM      2  C3  UNL d   1      -1.215  -0.342   0.408  0.00  0.00     0.006 A 
ATOM      3  C4  UNL d   1      -1.465   0.400   1.564  0.00  0.00     0.002 A 
ATOM      4  C5  UNL d   1      -0.419   0.744   2.427  0.00  0.00    -0.080 A 
ATOM      5  C6  UNL d   1      -0.669   1.566   3.656  0.00  0.00     0.076 C 
ATOM      6  C7  UNL d   1       0.878   0.311   2.129  0.00  0.00     0.002 A 
ATOM      7  C8  UNL d   1       1.128  -0.433   0.973  0.00  0.00     0.006 A 
ENDROOT
BRANCH   1   8
ATOM      8  C1  UNL d   1       0.368  -1.507  -1.179  0.00  0.00     0.054 C 
ATOM      9  C   UNL d   1       0.414  -0.562  -2.372  0.00  0.00     0.018 C 
ENDBRANCH   1   8
TORSDOF 1
ENDMDL
