MODEL 1
REMARK minimizedAffinity -4.95440435
REMARK minimizedRMSD -1
REMARK  1 active torsions:
REMARK  status: ('A' for Active; 'I' for Inactive)
REMARK    1  A    between atoms: C1_2  and  C2_3 
ROOT
ATOM      1  C2  UNL d   1       0.009  -0.421  -0.475  0.00  0.00    -0.081 A 
ATOM      2  C3  UNL d   1      -1.257   0.072  -0.139  0.00  0.00     0.006 A 
ATOM      3  C4  UNL d   1      -1.472   0.692   1.094  0.00  0.00     0.002 A 
ATOM      4  C5  UNL d   1      -0.423   0.838   2.008  0.00  0.00    -0.080 A 
ATOM      5  C6  UNL d   1      -0.632   1.529   3.322  0.00  0.00     0.076 C 
ATOM      6  C7  UNL d   1       0.839   0.330   1.680  0.00  0.00     0.002 A 
ATOM      7  C8  UNL d   1       1.054  -0.291   0.447  0.00  0.00     0.006 A 
ENDROOT
BRANCH   1   8
ATOM      8  C1  UNL d   1       0.260  -1.033  -1.829  0.00  0.00     0.054 C 
ATOM      9  C   UNL d   1       0.720   0.015  -2.833  0.00  0.00     0.018 C 
ENDBRANCH   1   8
TORSDOF 1
ENDMDL
