MODEL 1
REMARK minimizedAffinity 21.1562042
REMARK minimizedRMSD -1
REMARK  2 active torsions:
REMARK  status: ('A' for Active; 'I' for Inactive)
REMARK    1  A    between atoms: C2'_3  and  C1'_4 
REMARK    2  A    between atoms: C1'_4  and  C1_5 
ROOT
ATOM      1  C1  I4B d   1      -3.623   2.484  -3.967  0.00  0.00    -0.075 A 
ATOM      2  C2  I4B d   1      -4.476   1.778  -4.779  0.00  0.00     0.003 A 
ATOM      3  C3  I4B d   1      -5.307   2.458  -5.702  0.00  0.00     0.002 A 
ATOM      4  C4  I4B d   1      -5.290   3.837  -5.744  0.00  0.00    -0.004 A 
ATOM      5  C5  I4B d   1      -4.408   4.550  -4.936  0.00  0.00     0.002 A 
ATOM      6  C6  I4B d   1      -3.561   3.869  -4.050  0.00  0.00     0.003 A 
ENDROOT
BRANCH   1   7
ATOM      7  C1' I4B d   1      -2.784   1.736  -2.980  0.00  0.00     0.060 C 
BRANCH   7   8
ATOM      8  C2' I4B d   1      -3.713   0.945  -2.081  0.00  0.00    -0.013 C 
ATOM      9  C4' I4B d   1      -3.074  -0.344  -1.636  0.00  0.00     0.013 C 
ATOM     10  C3' I4B d   1      -4.066   1.808  -0.907  0.00  0.00     0.013 C 
ENDBRANCH   7   8
ENDBRANCH   1   7
TORSDOF 2
ENDMDL
