MODEL 1
REMARK minimizedAffinity 6.63585997
REMARK minimizedRMSD -1
REMARK  2 active torsions:
REMARK  status: ('A' for Active; 'I' for Inactive)
REMARK    1  A    between atoms: C2'_3  and  C1'_4 
REMARK    2  A    between atoms: C1'_4  and  C1_5 
ROOT
ATOM      1  C1  I4B d   1       3.429  -4.313   0.816  0.00  0.00    -0.075 A 
ATOM      2  C2  I4B d   1       3.658  -5.591   0.371  0.00  0.00     0.003 A 
ATOM      3  C3  I4B d   1       4.966  -5.997   0.012  0.00  0.00     0.002 A 
ATOM      4  C4  I4B d   1       6.000  -5.084   0.065  0.00  0.00    -0.004 A 
ATOM      5  C5  I4B d   1       5.770  -3.796   0.539  0.00  0.00     0.002 A 
ATOM      6  C6  I4B d   1       4.478  -3.411   0.928  0.00  0.00     0.003 A 
ENDROOT
BRANCH   1   7
ATOM      7  C1' I4B d   1       2.029  -3.909   1.155  0.00  0.00     0.060 C 
BRANCH   7   8
ATOM      8  C2' I4B d   1       1.892  -2.425   0.878  0.00  0.00    -0.013 C 
ATOM      9  C4' I4B d   1       1.777  -2.155  -0.600  0.00  0.00     0.013 C 
ATOM     10  C3' I4B d   1       0.685  -1.926   1.615  0.00  0.00     0.013 C 
ENDBRANCH   7   8
ENDBRANCH   1   7
TORSDOF 2
ENDMDL
