MODEL 1
REMARK minimizedAffinity 20.0649052
REMARK minimizedRMSD -1
REMARK  2 active torsions:
REMARK  status: ('A' for Active; 'I' for Inactive)
REMARK    1  A    between atoms: C2'_3  and  C1'_4 
REMARK    2  A    between atoms: C1'_4  and  C1_5 
ROOT
ATOM      1  C1  I4B d   1      -3.913   0.510  -1.237  0.00  0.00    -0.075 A 
ATOM      2  C2  I4B d   1      -3.542  -0.793  -1.019  0.00  0.00     0.003 A 
ATOM      3  C3  I4B d   1      -3.561  -1.330   0.291  0.00  0.00     0.002 A 
ATOM      4  C4  I4B d   1      -3.908  -0.520   1.352  0.00  0.00    -0.004 A 
ATOM      5  C5  I4B d   1      -4.307   0.794   1.127  0.00  0.00     0.002 A 
ATOM      6  C6  I4B d   1      -4.321   1.310  -0.177  0.00  0.00     0.003 A 
ENDROOT
BRANCH   1   7
ATOM      7  C1' I4B d   1      -3.849   1.055  -2.629  0.00  0.00     0.060 C 
BRANCH   7   8
ATOM      8  C2' I4B d   1      -2.987   2.301  -2.603  0.00  0.00    -0.013 C 
ATOM      9  C4' I4B d   1      -1.550   1.976  -2.915  0.00  0.00     0.013 C 
ATOM     10  C3' I4B d   1      -3.550   3.273  -3.596  0.00  0.00     0.013 C 
ENDBRANCH   7   8
ENDBRANCH   1   7
TORSDOF 2
ENDMDL
