MODEL 1
REMARK minimizedAffinity 13.6405163
REMARK minimizedRMSD -1
REMARK  2 active torsions:
REMARK  status: ('A' for Active; 'I' for Inactive)
REMARK    1  A    between atoms: C2'_3  and  C1'_4 
REMARK    2  A    between atoms: C1'_4  and  C1_5 
ROOT
ATOM      1  C1  I4B d   1      -2.922  -1.135   1.427  0.00  0.00    -0.075 A 
ATOM      2  C2  I4B d   1      -1.860  -1.526   2.203  0.00  0.00     0.003 A 
ATOM      3  C3  I4B d   1      -1.540  -0.815   3.385  0.00  0.00     0.002 A 
ATOM      4  C4  I4B d   1      -2.272   0.305   3.723  0.00  0.00    -0.004 A 
ATOM      5  C5  I4B d   1      -3.362   0.687   2.948  0.00  0.00     0.002 A 
ATOM      6  C6  I4B d   1      -3.698  -0.044   1.799  0.00  0.00     0.003 A 
ENDROOT
BRANCH   1   7
ATOM      7  C1' I4B d   1      -3.212  -1.889   0.168  0.00  0.00     0.060 C 
BRANCH   7   8
ATOM      8  C2' I4B d   1      -3.303  -0.888  -0.965  0.00  0.00    -0.013 C 
ATOM      9  C4' I4B d   1      -1.939  -0.550  -1.506  0.00  0.00     0.013 C 
ATOM     10  C3' I4B d   1      -4.179  -1.474  -2.032  0.00  0.00     0.013 C 
ENDBRANCH   7   8
ENDBRANCH   1   7
TORSDOF 2
ENDMDL
