MODEL 1
REMARK minimizedAffinity 7.97294235
REMARK minimizedRMSD -1
REMARK  0 active torsions:
REMARK  status: ('A' for Active; 'I' for Inactive)
ROOT
ATOM      1  C4' PXY d   1      -2.701   2.667   2.399  0.00  0.00     0.077 C 
ATOM      2  C1' PXY d   1       2.920   1.818   1.351  0.00  0.00     0.077 C 
ATOM      3  C1  PXY d   1       1.445   2.030   1.632  0.00  0.00    -0.082 A 
ATOM      4  C2  PXY d   1       0.729   2.798   0.828  0.00  0.00     0.003 A 
ATOM      5  C3  PXY d   1      -0.598   3.026   1.086  0.00  0.00     0.003 A 
ATOM      6  C4  PXY d   1      -1.211   2.418   2.148  0.00  0.00    -0.082 A 
ATOM      7  C5  PXY d   1      -0.490   1.623   2.967  0.00  0.00     0.003 A 
ATOM      8  C6  PXY d   1       0.865   1.438   2.712  0.00  0.00     0.003 A 
ENDROOT
TORSDOF 0
ENDMDL
