MODEL 1
REMARK minimizedAffinity 11.74683
REMARK minimizedRMSD -1
REMARK  0 active torsions:
REMARK  status: ('A' for Active; 'I' for Inactive)
ROOT
ATOM      1  C4' PXY d   1       3.652   3.300   2.366  0.00  0.00     0.077 C 
ATOM      2  C1' PXY d   1      -0.656   0.995  -0.723  0.00  0.00     0.077 C 
ATOM      3  C1  PXY d   1       0.470   1.611   0.084  0.00  0.00    -0.082 A 
ATOM      4  C2  PXY d   1       1.538   0.887   0.375  0.00  0.00     0.003 A 
ATOM      5  C3  PXY d   1       2.552   1.419   1.130  0.00  0.00     0.003 A 
ATOM      6  C4  PXY d   1       2.495   2.722   1.547  0.00  0.00    -0.082 A 
ATOM      7  C5  PXY d   1       1.413   3.471   1.245  0.00  0.00     0.003 A 
ATOM      8  C6  PXY d   1       0.377   2.900   0.512  0.00  0.00     0.003 A 
ENDROOT
TORSDOF 0
ENDMDL
