MODEL 1
REMARK minimizedAffinity 4.476264
REMARK minimizedRMSD -1
REMARK  0 active torsions:
REMARK  status: ('A' for Active; 'I' for Inactive)
ROOT
ATOM      1  C4' PXY d   1       2.638  -1.708   0.137  0.00  0.00     0.077 C 
ATOM      2  C1' PXY d   1      -0.015   3.425   0.301  0.00  0.00     0.077 C 
ATOM      3  C1  PXY d   1       0.692   2.084   0.263  0.00  0.00    -0.082 A 
ATOM      4  C2  PXY d   1       0.303   1.164  -0.605  0.00  0.00     0.003 A 
ATOM      5  C3  PXY d   1       0.910  -0.065  -0.631  0.00  0.00     0.003 A 
ATOM      6  C4  PXY d   1       1.960  -0.337   0.204  0.00  0.00    -0.082 A 
ATOM      7  C5  PXY d   1       2.370   0.600   1.085  0.00  0.00     0.003 A 
ATOM      8  C6  PXY d   1       1.714   1.827   1.124  0.00  0.00     0.003 A 
ENDROOT
TORSDOF 0
ENDMDL
