MODEL 1
REMARK minimizedAffinity 3.91012836
REMARK minimizedRMSD -1
REMARK  0 active torsions:
REMARK  status: ('A' for Active; 'I' for Inactive)
ROOT
ATOM      1  C4' PXY d   1       5.343  -0.110   1.807  0.00  0.00     0.077 C 
ATOM      2  C1' PXY d   1       1.101  -3.413  -0.318  0.00  0.00     0.077 C 
ATOM      3  C1  PXY d   1       2.215  -2.541   0.227  0.00  0.00    -0.082 A 
ATOM      4  C2  PXY d   1       2.885  -2.931   1.300  0.00  0.00     0.003 A 
ATOM      5  C3  PXY d   1       3.874  -2.140   1.825  0.00  0.00     0.003 A 
ATOM      6  C4  PXY d   1       4.217  -0.963   1.216  0.00  0.00    -0.082 A 
ATOM      7  C5  PXY d   1       3.545  -0.563   0.115  0.00  0.00     0.003 A 
ATOM      8  C6  PXY d   1       2.517  -1.361  -0.379  0.00  0.00     0.003 A 
ENDROOT
TORSDOF 0
ENDMDL
