MODEL 1
REMARK minimizedAffinity 7.04761791
REMARK minimizedRMSD -1
REMARK  0 active torsions:
REMARK  status: ('A' for Active; 'I' for Inactive)
ROOT
ATOM      1  C4' PXY d   1       1.673   0.082   5.044  0.00  0.00     0.077 C 
ATOM      2  C1' PXY d   1      -1.481   2.851   1.069  0.00  0.00     0.077 C 
ATOM      3  C1  PXY d   1      -0.647   2.119   2.102  0.00  0.00    -0.082 A 
ATOM      4  C2  PXY d   1      -1.158   1.865   3.295  0.00  0.00     0.003 A 
ATOM      5  C3  PXY d   1      -0.407   1.233   4.252  0.00  0.00     0.003 A 
ATOM      6  C4  PXY d   1       0.864   0.810   3.967  0.00  0.00    -0.082 A 
ATOM      7  C5  PXY d   1       1.390   1.056   2.748  0.00  0.00     0.003 A 
ATOM      8  C6  PXY d   1       0.625   1.736   1.805  0.00  0.00     0.003 A 
ENDROOT
TORSDOF 0
ENDMDL
