MODEL 1
REMARK minimizedAffinity -3.22365713
REMARK minimizedRMSD -1
REMARK  0 active torsions:
REMARK  status: ('A' for Active; 'I' for Inactive)
ROOT
ATOM      1  C4' PXY d   1      -0.054  -2.739  -0.596  0.00  0.00     0.077 C 
ATOM      2  C1' PXY d   1       1.190   2.767   0.650  0.00  0.00     0.077 C 
ATOM      3  C1  PXY d   1       0.876   1.321   0.320  0.00  0.00    -0.082 A 
ATOM      4  C2  PXY d   1      -0.363   0.975   0.012  0.00  0.00     0.003 A 
ATOM      5  C3  PXY d   1      -0.670  -0.334  -0.258  0.00  0.00     0.003 A 
ATOM      6  C4  PXY d   1       0.311  -1.289  -0.265  0.00  0.00    -0.082 A 
ATOM      7  C5  PXY d   1       1.580  -0.941   0.037  0.00  0.00     0.003 A 
ATOM      8  C6  PXY d   1       1.863   0.385   0.349  0.00  0.00     0.003 A 
ENDROOT
TORSDOF 0
ENDMDL
