MODEL 1
REMARK minimizedAffinity -2.597651
REMARK minimizedRMSD -1
REMARK  0 active torsions:
REMARK  status: ('A' for Active; 'I' for Inactive)
ROOT
ATOM      1  C4' PXY d   1      -1.622   0.257  -1.963  0.00  0.00     0.077 C 
ATOM      2  C1' PXY d   1       2.887  -1.852   0.976  0.00  0.00     0.077 C 
ATOM      3  C1  PXY d   1       1.705  -1.309   0.197  0.00  0.00    -0.082 A 
ATOM      4  C2  PXY d   1       1.443  -0.013   0.225  0.00  0.00     0.003 A 
ATOM      5  C3  PXY d   1       0.360   0.491  -0.448  0.00  0.00     0.003 A 
ATOM      6  C4  PXY d   1      -0.433  -0.334  -1.200  0.00  0.00    -0.082 A 
ATOM      7  C5  PXY d   1      -0.167  -1.657  -1.241  0.00  0.00     0.003 A 
ATOM      8  C6  PXY d   1       0.914  -2.154  -0.518  0.00  0.00     0.003 A 
ENDROOT
TORSDOF 0
ENDMDL
