MODEL 1
REMARK minimizedAffinity 5.55771923
REMARK minimizedRMSD -1
REMARK  0 active torsions:
REMARK  status: ('A' for Active; 'I' for Inactive)
ROOT
ATOM      1  C4' PXY d   1      -0.596   1.481  -1.028  0.00  0.00     0.077 C 
ATOM      2  C1' PXY d   1       4.798   0.573   0.842  0.00  0.00     0.077 C 
ATOM      3  C1  PXY d   1       3.382   0.822   0.359  0.00  0.00    -0.082 A 
ATOM      4  C2  PXY d   1       2.673  -0.181  -0.131  0.00  0.00     0.003 A 
ATOM      5  C3  PXY d   1       1.402   0.032  -0.601  0.00  0.00     0.003 A 
ATOM      6  C4  PXY d   1       0.833   1.275  -0.520  0.00  0.00    -0.082 A 
ATOM      7  C5  PXY d   1       1.547   2.302  -0.012  0.00  0.00     0.003 A 
ATOM      8  C6  PXY d   1       2.850   2.072   0.423  0.00  0.00     0.003 A 
ENDROOT
TORSDOF 0
ENDMDL
