MODEL 1
REMARK minimizedAffinity 5.63226795
REMARK minimizedRMSD -1
REMARK  0 active torsions:
REMARK  status: ('A' for Active; 'I' for Inactive)
ROOT
ATOM      1  C4' PXY d   1       3.070  -2.194   1.486  0.00  0.00     0.077 C 
ATOM      2  C1' PXY d   1       1.373   3.090  -0.131  0.00  0.00     0.077 C 
ATOM      3  C1  PXY d   1       1.814   1.700   0.282  0.00  0.00    -0.082 A 
ATOM      4  C2  PXY d   1       1.879   1.388   1.566  0.00  0.00     0.003 A 
ATOM      5  C3  PXY d   1       2.307   0.146   1.958  0.00  0.00     0.003 A 
ATOM      6  C4  PXY d   1       2.621  -0.805   1.024  0.00  0.00    -0.082 A 
ATOM      7  C5  PXY d   1       2.547  -0.498  -0.289  0.00  0.00     0.003 A 
ATOM      8  C6  PXY d   1       2.150   0.782  -0.665  0.00  0.00     0.003 A 
ENDROOT
TORSDOF 0
ENDMDL
