MODEL 1
REMARK minimizedAffinity 7.0937891
REMARK minimizedRMSD -1
REMARK  0 active torsions:
REMARK  status: ('A' for Active; 'I' for Inactive)
ROOT
ATOM      1  C4' PXY d   1       5.041   0.380  -2.427  0.00  0.00     0.077 C 
ATOM      2  C1' PXY d   1       1.149  -3.648  -0.997  0.00  0.00     0.077 C 
ATOM      3  C1  PXY d   1       2.174  -2.599  -1.382  0.00  0.00    -0.082 A 
ATOM      4  C2  PXY d   1       2.575  -1.716  -0.482  0.00  0.00     0.003 A 
ATOM      5  C3  PXY d   1       3.477  -0.741  -0.822  0.00  0.00     0.003 A 
ATOM      6  C4  PXY d   1       4.015  -0.703  -2.081  0.00  0.00    -0.082 A 
ATOM      7  C5  PXY d   1       3.619  -1.607  -3.001  0.00  0.00     0.003 A 
ATOM      8  C6  PXY d   1       2.671  -2.563  -2.648  0.00  0.00     0.003 A 
ENDROOT
TORSDOF 0
ENDMDL
