MODEL 1
REMARK minimizedAffinity -1.9951303
REMARK minimizedRMSD -1
REMARK  0 active torsions:
REMARK  status: ('A' for Active; 'I' for Inactive)
ROOT
ATOM      1  C4' PXY d   1      -2.951   1.053   0.403  0.00  0.00     0.077 C 
ATOM      2  C1' PXY d   1       2.238  -1.356  -0.423  0.00  0.00     0.077 C 
ATOM      3  C1  PXY d   1       0.882  -0.716  -0.198  0.00  0.00    -0.082 A 
ATOM      4  C2  PXY d   1      -0.217  -1.406  -0.452  0.00  0.00     0.003 A 
ATOM      5  C3  PXY d   1      -1.451  -0.832  -0.284  0.00  0.00     0.003 A 
ATOM      6  C4  PXY d   1      -1.561   0.444   0.199  0.00  0.00    -0.082 A 
ATOM      7  C5  PXY d   1      -0.444   1.151   0.471  0.00  0.00     0.003 A 
ATOM      8  C6  PXY d   1       0.799   0.564   0.255  0.00  0.00     0.003 A 
ENDROOT
TORSDOF 0
ENDMDL
