MODEL 1
REMARK minimizedAffinity 4.76136255
REMARK minimizedRMSD -1
REMARK  0 active torsions:
REMARK  status: ('A' for Active; 'I' for Inactive)
ROOT
ATOM      1  C4' PXY d   1      -1.856  -5.996   5.981  0.00  0.00     0.077 C 
ATOM      2  C1' PXY d   1       1.130  -1.216   4.696  0.00  0.00     0.077 C 
ATOM      3  C1  PXY d   1       0.353  -2.476   5.023  0.00  0.00    -0.082 A 
ATOM      4  C2  PXY d   1      -0.799  -2.385   5.668  0.00  0.00     0.003 A 
ATOM      5  C3  PXY d   1      -1.500  -3.516   6.000  0.00  0.00     0.003 A 
ATOM      6  C4  PXY d   1      -1.042  -4.750   5.622  0.00  0.00    -0.082 A 
ATOM      7  C5  PXY d   1       0.127  -4.851   4.954  0.00  0.00     0.003 A 
ATOM      8  C6  PXY d   1       0.843  -3.693   4.663  0.00  0.00     0.003 A 
ENDROOT
TORSDOF 0
ENDMDL
