MODEL 1
REMARK minimizedAffinity 6.34141159
REMARK minimizedRMSD -1
REMARK  2 active torsions:
REMARK  status: ('A' for Active; 'I' for Inactive)
REMARK    1  A    between atoms: C2'_3  and  C1'_4 
REMARK    2  A    between atoms: C1'_4  and  C1_5 
ROOT
ATOM      1  C1  I4B d   1       4.499   1.760  -3.323  0.00  0.00    -0.075 A 
ATOM      2  C2  I4B d   1       3.449   2.266  -4.049  0.00  0.00     0.003 A 
ATOM      3  C3  I4B d   1       3.621   2.594  -5.415  0.00  0.00     0.002 A 
ATOM      4  C4  I4B d   1       4.863   2.449  -5.999  0.00  0.00    -0.004 A 
ATOM      5  C5  I4B d   1       5.920   1.914  -5.268  0.00  0.00     0.002 A 
ATOM      6  C6  I4B d   1       5.734   1.556  -3.925  0.00  0.00     0.003 A 
ENDROOT
BRANCH   1   7
ATOM      7  C1' I4B d   1       4.292   1.455  -1.873  0.00  0.00     0.060 C 
BRANCH   7   8
ATOM      8  C2' I4B d   1       3.053   0.590  -1.750  0.00  0.00    -0.013 C 
ATOM      9  C4' I4B d   1       3.339  -0.663  -0.965  0.00  0.00     0.013 C 
ATOM     10  C3' I4B d   1       1.981   1.408  -1.094  0.00  0.00     0.013 C 
ENDBRANCH   7   8
ENDBRANCH   1   7
TORSDOF 2
ENDMDL
