MODEL 1
REMARK minimizedAffinity 13.2887344
REMARK minimizedRMSD -1
REMARK  2 active torsions:
REMARK  status: ('A' for Active; 'I' for Inactive)
REMARK    1  A    between atoms: C2'_3  and  C1'_4 
REMARK    2  A    between atoms: C1'_4  and  C1_5 
ROOT
ATOM      1  C1  I4B d   1       3.897   0.294  -4.009  0.00  0.00    -0.075 A 
ATOM      2  C2  I4B d   1       3.888  -0.044  -2.679  0.00  0.00     0.003 A 
ATOM      3  C3  I4B d   1       4.940   0.376  -1.829  0.00  0.00     0.002 A 
ATOM      4  C4  I4B d   1       5.999   1.084  -2.359  0.00  0.00    -0.004 A 
ATOM      5  C5  I4B d   1       5.996   1.446  -3.703  0.00  0.00     0.002 A 
ATOM      6  C6  I4B d   1       4.932   1.059  -4.531  0.00  0.00     0.003 A 
ENDROOT
BRANCH   1   7
ATOM      7  C1' I4B d   1       2.787  -0.195  -4.884  0.00  0.00     0.060 C 
BRANCH   7   8
ATOM      8  C2' I4B d   1       1.876   0.979  -5.181  0.00  0.00    -0.013 C 
ATOM      9  C4' I4B d   1       0.810   1.122  -4.127  0.00  0.00     0.013 C 
ATOM     10  C3' I4B d   1       2.723   2.213  -5.265  0.00  0.00     0.013 C 
ENDBRANCH   7   8
ENDBRANCH   1   7
TORSDOF 2
ENDMDL
