MODEL 1
REMARK minimizedAffinity 9.72645855
REMARK minimizedRMSD -1
REMARK  2 active torsions:
REMARK  status: ('A' for Active; 'I' for Inactive)
REMARK    1  A    between atoms: C2'_3  and  C1'_4 
REMARK    2  A    between atoms: C1'_4  and  C1_5 
ROOT
ATOM      1  C1  I4B d   1       2.242   0.262  -2.437  0.00  0.00    -0.075 A 
ATOM      2  C2  I4B d   1       2.444  -0.636  -3.455  0.00  0.00     0.003 A 
ATOM      3  C3  I4B d   1       1.728  -0.508  -4.670  0.00  0.00     0.002 A 
ATOM      4  C4  I4B d   1       0.791   0.496  -4.805  0.00  0.00    -0.004 A 
ATOM      5  C5  I4B d   1       0.605   1.419  -3.781  0.00  0.00     0.002 A 
ATOM      6  C6  I4B d   1       1.344   1.310  -2.594  0.00  0.00     0.003 A 
ENDROOT
BRANCH   1   7
ATOM      7  C1' I4B d   1       2.991   0.079  -1.155  0.00  0.00     0.060 C 
BRANCH   7   8
ATOM      8  C2' I4B d   1       1.995  -0.324  -0.087  0.00  0.00    -0.013 C 
ATOM      9  C4' I4B d   1       2.328  -1.676   0.488  0.00  0.00     0.013 C 
ATOM     10  C3' I4B d   1       2.003   0.733   0.976  0.00  0.00     0.013 C 
ENDBRANCH   7   8
ENDBRANCH   1   7
TORSDOF 2
ENDMDL
