MODEL 1
REMARK minimizedAffinity 14.6270418
REMARK minimizedRMSD -1
REMARK  2 active torsions:
REMARK  status: ('A' for Active; 'I' for Inactive)
REMARK    1  A    between atoms: C2'_3  and  C1'_4 
REMARK    2  A    between atoms: C1'_4  and  C1_5 
ROOT
ATOM      1  C1  I4B d   1       1.832  -5.922  -4.386  0.00  0.00    -0.075 A 
ATOM      2  C2  I4B d   1       1.385  -5.940  -5.683  0.00  0.00     0.003 A 
ATOM      3  C3  I4B d   1      -0.004  -5.949  -5.958  0.00  0.00     0.002 A 
ATOM      4  C4  I4B d   1      -0.904  -5.991  -4.913  0.00  0.00    -0.004 A 
ATOM      5  C5  I4B d   1      -0.449  -5.949  -3.598  0.00  0.00     0.002 A 
ATOM      6  C6  I4B d   1       0.927  -5.902  -3.332  0.00  0.00     0.003 A 
ENDROOT
BRANCH   1   7
ATOM      7  C1' I4B d   1       3.306  -5.946  -4.131  0.00  0.00     0.060 C 
BRANCH   7   8
ATOM      8  C2' I4B d   1       3.969  -5.035  -5.144  0.00  0.00    -0.013 C 
ATOM      9  C4' I4B d   1       4.579  -3.830  -4.478  0.00  0.00     0.013 C 
ATOM     10  C3' I4B d   1       5.008  -5.834  -5.874  0.00  0.00     0.013 C 
ENDBRANCH   7   8
ENDBRANCH   1   7
TORSDOF 2
ENDMDL
