MODEL 1
REMARK minimizedAffinity 9.00379944
REMARK minimizedRMSD -1
REMARK  2 active torsions:
REMARK  status: ('A' for Active; 'I' for Inactive)
REMARK    1  A    between atoms: C2'_3  and  C1'_4 
REMARK    2  A    between atoms: C1'_4  and  C1_5 
ROOT
ATOM      1  C1  I4B d   1       2.987   2.867   1.431  0.00  0.00    -0.075 A 
ATOM      2  C2  I4B d   1       2.711   1.801   2.251  0.00  0.00     0.003 A 
ATOM      3  C3  I4B d   1       1.792   0.805   1.841  0.00  0.00     0.002 A 
ATOM      4  C4  I4B d   1       1.138   0.939   0.633  0.00  0.00    -0.004 A 
ATOM      5  C5  I4B d   1       1.436   2.008  -0.207  0.00  0.00     0.002 A 
ATOM      6  C6  I4B d   1       2.375   2.971   0.188  0.00  0.00     0.003 A 
ENDROOT
BRANCH   1   7
ATOM      7  C1' I4B d   1       3.937   3.918   1.910  0.00  0.00     0.060 C 
BRANCH   7   8
ATOM      8  C2' I4B d   1       3.166   5.214   2.054  0.00  0.00    -0.013 C 
ATOM      9  C4' I4B d   1       3.637   5.998   3.251  0.00  0.00     0.013 C 
ATOM     10  C3' I4B d   1       3.340   6.000   0.789  0.00  0.00     0.013 C 
ENDBRANCH   7   8
ENDBRANCH   1   7
TORSDOF 2
ENDMDL
