MODEL 1
REMARK minimizedAffinity 16.5134869
REMARK minimizedRMSD -1
REMARK  2 active torsions:
REMARK  status: ('A' for Active; 'I' for Inactive)
REMARK    1  A    between atoms: C2'_3  and  C1'_4 
REMARK    2  A    between atoms: C1'_4  and  C1_5 
ROOT
ATOM      1  C1  I4B d   1       3.901   2.171  -0.426  0.00  0.00    -0.075 A 
ATOM      2  C2  I4B d   1       3.223   1.522  -1.428  0.00  0.00     0.003 A 
ATOM      3  C3  I4B d   1       3.935   0.875  -2.467  0.00  0.00     0.002 A 
ATOM      4  C4  I4B d   1       5.313   0.945  -2.492  0.00  0.00    -0.004 A 
ATOM      5  C5  I4B d   1       5.999   1.584  -1.464  0.00  0.00     0.002 A 
ATOM      6  C6  I4B d   1       5.289   2.191  -0.417  0.00  0.00     0.003 A 
ENDROOT
BRANCH   1   7
ATOM      7  C1' I4B d   1       3.117   2.872   0.637  0.00  0.00     0.060 C 
BRANCH   7   8
ATOM      8  C2' I4B d   1       3.000   1.937   1.824  0.00  0.00    -0.013 C 
ATOM      9  C4' I4B d   1       2.130   0.751   1.499  0.00  0.00     0.013 C 
ATOM     10  C3' I4B d   1       4.382   1.504   2.211  0.00  0.00     0.013 C 
ENDBRANCH   7   8
ENDBRANCH   1   7
TORSDOF 2
ENDMDL
