MODEL 1
REMARK minimizedAffinity 8.97177887
REMARK minimizedRMSD -1
REMARK  2 active torsions:
REMARK  status: ('A' for Active; 'I' for Inactive)
REMARK    1  A    between atoms: C2'_3  and  C1'_4 
REMARK    2  A    between atoms: C1'_4  and  C1_5 
ROOT
ATOM      1  C1  I4B d   1       4.264   2.692  -1.484  0.00  0.00    -0.075 A 
ATOM      2  C2  I4B d   1       5.136   3.480  -2.192  0.00  0.00     0.003 A 
ATOM      3  C3  I4B d   1       6.000   2.902  -3.153  0.00  0.00     0.002 A 
ATOM      4  C4  I4B d   1       5.994   1.534  -3.336  0.00  0.00    -0.004 A 
ATOM      5  C5  I4B d   1       5.093   0.739  -2.634  0.00  0.00     0.002 A 
ATOM      6  C6  I4B d   1       4.214   1.322  -1.711  0.00  0.00     0.003 A 
ENDROOT
BRANCH   1   7
ATOM      7  C1' I4B d   1       3.388   3.331  -0.453  0.00  0.00     0.060 C 
BRANCH   7   8
ATOM      8  C2' I4B d   1       2.214   2.408  -0.200  0.00  0.00    -0.013 C 
ATOM      9  C4' I4B d   1       1.995   2.196   1.275  0.00  0.00     0.013 C 
ATOM     10  C3' I4B d   1       1.003   3.011  -0.846  0.00  0.00     0.013 C 
ENDBRANCH   7   8
ENDBRANCH   1   7
TORSDOF 2
ENDMDL
