MODEL 1
REMARK minimizedAffinity 1.66493118
REMARK minimizedRMSD -1
REMARK  2 active torsions:
REMARK  status: ('A' for Active; 'I' for Inactive)
REMARK    1  A    between atoms: C2'_3  and  C1'_4 
REMARK    2  A    between atoms: C1'_4  and  C1_5 
ROOT
ATOM      1  C1  I4B d   1       3.576   3.317   3.560  0.00  0.00    -0.075 A 
ATOM      2  C2  I4B d   1       2.478   4.135   3.650  0.00  0.00     0.003 A 
ATOM      3  C3  I4B d   1       2.517   5.294   4.462  0.00  0.00     0.002 A 
ATOM      4  C4  I4B d   1       3.649   5.568   5.201  0.00  0.00    -0.004 A 
ATOM      5  C5  I4B d   1       4.770   4.750   5.091  0.00  0.00     0.002 A 
ATOM      6  C6  I4B d   1       4.738   3.624   4.255  0.00  0.00     0.003 A 
ENDROOT
BRANCH   1   7
ATOM      7  C1' I4B d   1       3.489   2.083   2.719  0.00  0.00     0.060 C 
BRANCH   7   8
ATOM      8  C2' I4B d   1       2.174   2.122   1.967  0.00  0.00    -0.013 C 
ATOM      9  C4' I4B d   1       2.397   2.090   0.478  0.00  0.00     0.013 C 
ATOM     10  C3' I4B d   1       1.349   0.954   2.417  0.00  0.00     0.013 C 
ENDBRANCH   7   8
ENDBRANCH   1   7
TORSDOF 2
ENDMDL
