MODEL 1
REMARK minimizedAffinity 7.25666571
REMARK minimizedRMSD -1
REMARK  2 active torsions:
REMARK  status: ('A' for Active; 'I' for Inactive)
REMARK    1  A    between atoms: C2'_3  and  C1'_4 
REMARK    2  A    between atoms: C1'_4  and  C1_5 
ROOT
ATOM      1  C1  I4B d   1       2.832  -1.695   0.070  0.00  0.00    -0.075 A 
ATOM      2  C2  I4B d   1       2.284  -0.663   0.790  0.00  0.00     0.003 A 
ATOM      3  C3  I4B d   1       2.429   0.673   0.344  0.00  0.00     0.002 A 
ATOM      4  C4  I4B d   1       3.168   0.934  -0.792  0.00  0.00    -0.004 A 
ATOM      5  C5  I4B d   1       3.704  -0.115  -1.533  0.00  0.00     0.002 A 
ATOM      6  C6  I4B d   1       3.525  -1.439  -1.106  0.00  0.00     0.003 A 
ENDROOT
BRANCH   1   7
ATOM      7  C1' I4B d   1       2.688  -3.091   0.587  0.00  0.00     0.060 C 
BRANCH   7   8
ATOM      8  C2' I4B d   1       1.324  -3.604   0.172  0.00  0.00    -0.013 C 
ATOM      9  C4' I4B d   1       1.444  -4.735  -0.816  0.00  0.00     0.013 C 
ATOM     10  C3' I4B d   1       0.598  -4.041   1.409  0.00  0.00     0.013 C 
ENDBRANCH   7   8
ENDBRANCH   1   7
TORSDOF 2
ENDMDL
