MODEL 1
REMARK minimizedAffinity 14.4030533
REMARK minimizedRMSD -1
REMARK  2 active torsions:
REMARK  status: ('A' for Active; 'I' for Inactive)
REMARK    1  A    between atoms: C2'_3  and  C1'_4 
REMARK    2  A    between atoms: C1'_4  and  C1_5 
ROOT
ATOM      1  C1  I4B d   1       3.528   4.106   3.595  0.00  0.00    -0.075 A 
ATOM      2  C2  I4B d   1       4.697   3.751   4.222  0.00  0.00     0.003 A 
ATOM      3  C3  I4B d   1       5.185   4.519   5.307  0.00  0.00     0.002 A 
ATOM      4  C4  I4B d   1       4.506   5.654   5.696  0.00  0.00    -0.004 A 
ATOM      5  C5  I4B d   1       3.309   6.000   5.075  0.00  0.00     0.002 A 
ATOM      6  C6  I4B d   1       2.810   5.214   4.026  0.00  0.00     0.003 A 
ENDROOT
BRANCH   1   7
ATOM      7  C1' I4B d   1       3.058   3.292   2.431  0.00  0.00     0.060 C 
BRANCH   7   8
ATOM      8  C2' I4B d   1       2.466   2.006   2.970  0.00  0.00    -0.013 C 
ATOM      9  C4' I4B d   1       1.119   2.248   3.599  0.00  0.00     0.013 C 
ATOM     10  C3' I4B d   1       2.367   1.031   1.836  0.00  0.00     0.013 C 
ENDBRANCH   7   8
ENDBRANCH   1   7
TORSDOF 2
ENDMDL
