MODEL 1
REMARK minimizedAffinity -3.04082084
REMARK minimizedRMSD -1
REMARK  0 active torsions:
REMARK  status: ('A' for Active; 'I' for Inactive)
ROOT
ATOM      1  C   UNL d   1       2.941  -1.625   0.391  0.00  0.00     0.023 A 
ATOM      2  C1  UNL d   1       2.535  -0.604   1.250  0.00  0.00     0.003 A 
ATOM      3  C2  UNL d   1       1.271  -0.028   1.105  0.00  0.00     0.048 A 
ATOM      4  C3  UNL d   1       0.417  -0.480   0.099  0.00  0.00     0.023 A 
ATOM      5  C4  UNL d   1       0.819  -1.503  -0.762  0.00  0.00     0.048 A 
ATOM      6  C5  UNL d   1       2.084  -2.074  -0.614  0.00  0.00     0.003 A 
ATOM      7  I   UNL d   1      -1.464   0.375  -0.119  0.00  0.00    -0.146 I 
ENDROOT
TORSDOF 0
ENDMDL
