MODEL 1
REMARK minimizedAffinity -1.98781669
REMARK minimizedRMSD -1
REMARK  0 active torsions:
REMARK  status: ('A' for Active; 'I' for Inactive)
ROOT
ATOM      1  C   UNL d   1       2.538  -1.624   0.928  0.00  0.00     0.023 A 
ATOM      2  C1  UNL d   1       1.821  -2.093  -0.173  0.00  0.00     0.003 A 
ATOM      3  C2  UNL d   1       0.710  -1.386  -0.637  0.00  0.00     0.048 A 
ATOM      4  C3  UNL d   1       0.321  -0.210   0.003  0.00  0.00     0.023 A 
ATOM      5  C4  UNL d   1       1.035   0.263   1.105  0.00  0.00     0.048 A 
ATOM      6  C5  UNL d   1       2.145  -0.447   1.567  0.00  0.00     0.003 A 
ATOM      7  I   UNL d   1      -1.332   0.843  -0.686  0.00  0.00    -0.146 I 
ENDROOT
TORSDOF 0
ENDMDL
