MODEL 1
REMARK minimizedAffinity -2.61087608
REMARK minimizedRMSD -1
REMARK  0 active torsions:
REMARK  status: ('A' for Active; 'I' for Inactive)
ROOT
ATOM      1  C   UNL d   1       1.748   1.018   1.535  0.00  0.00     0.023 A 
ATOM      2  C1  UNL d   1       2.358  -0.236   1.497  0.00  0.00     0.003 A 
ATOM      3  C2  UNL d   1       1.829  -1.247   0.693  0.00  0.00     0.048 A 
ATOM      4  C3  UNL d   1       0.690  -0.998  -0.072  0.00  0.00     0.023 A 
ATOM      5  C4  UNL d   1       0.076   0.256  -0.038  0.00  0.00     0.048 A 
ATOM      6  C5  UNL d   1       0.608   1.264   0.768  0.00  0.00     0.003 A 
ATOM      7  I   UNL d   1      -0.099  -2.502  -1.270  0.00  0.00    -0.146 I 
ENDROOT
TORSDOF 0
ENDMDL
