MODEL 1
REMARK minimizedAffinity -3.94748163
REMARK minimizedRMSD -1
REMARK  0 active torsions:
REMARK  status: ('A' for Active; 'I' for Inactive)
ROOT
ATOM      1  C   UNL d   1       2.374  -1.880   1.004  0.00  0.00     0.023 A 
ATOM      2  C1  UNL d   1       1.785  -1.056   1.963  0.00  0.00     0.003 A 
ATOM      3  C2  UNL d   1       0.679  -0.272   1.627  0.00  0.00     0.048 A 
ATOM      4  C3  UNL d   1       0.167  -0.319   0.331  0.00  0.00     0.023 A 
ATOM      5  C4  UNL d   1       0.753  -1.142  -0.632  0.00  0.00     0.048 A 
ATOM      6  C5  UNL d   1       1.859  -1.923  -0.291  0.00  0.00     0.003 A 
ATOM      7  I   UNL d   1      -1.479   0.846  -0.172  0.00  0.00    -0.146 I 
ENDROOT
TORSDOF 0
ENDMDL
