MODEL 1
REMARK minimizedAffinity -3.68109798
REMARK minimizedRMSD -1
REMARK  0 active torsions:
REMARK  status: ('A' for Active; 'I' for Inactive)
ROOT
ATOM      1  C   UNL d   1       2.352  -1.605  -0.027  0.00  0.00     0.023 A 
ATOM      2  C1  UNL d   1       2.225  -0.240   0.229  0.00  0.00     0.003 A 
ATOM      3  C2  UNL d   1       0.970   0.369   0.173  0.00  0.00     0.048 A 
ATOM      4  C3  UNL d   1      -0.155  -0.394  -0.139  0.00  0.00     0.023 A 
ATOM      5  C4  UNL d   1      -0.033  -1.761  -0.396  0.00  0.00     0.048 A 
ATOM      6  C5  UNL d   1       1.225  -2.365  -0.339  0.00  0.00     0.003 A 
ATOM      7  I   UNL d   1      -2.025   0.509  -0.223  0.00  0.00    -0.146 I 
ENDROOT
TORSDOF 0
ENDMDL
