MODEL 1
REMARK minimizedAffinity -3.93274832
REMARK minimizedRMSD -1
REMARK  0 active torsions:
REMARK  status: ('A' for Active; 'I' for Inactive)
ROOT
ATOM      1  C   UNL d   1       4.056   0.254  -0.150  0.00  0.00     0.023 A 
ATOM      2  C1  UNL d   1       3.457  -1.005  -0.140  0.00  0.00     0.003 A 
ATOM      3  C2  UNL d   1       2.073  -1.121   0.008  0.00  0.00     0.048 A 
ATOM      4  C3  UNL d   1       1.294   0.028   0.144  0.00  0.00     0.023 A 
ATOM      5  C4  UNL d   1       1.889   1.290   0.133  0.00  0.00     0.048 A 
ATOM      6  C5  UNL d   1       3.273   1.401  -0.014  0.00  0.00     0.003 A 
ATOM      7  I   UNL d   1      -0.766  -0.142   0.364  0.00  0.00    -0.146 I 
ENDROOT
TORSDOF 0
ENDMDL
