MODEL 1
REMARK minimizedAffinity -4.28289127
REMARK minimizedRMSD -1
REMARK  0 active torsions:
REMARK  status: ('A' for Active; 'I' for Inactive)
ROOT
ATOM      1  C   UNL d   1       3.726   0.052  -0.550  0.00  0.00     0.023 A 
ATOM      2  C1  UNL d   1       3.071   1.263  -0.323  0.00  0.00     0.003 A 
ATOM      3  C2  UNL d   1       1.679   1.294  -0.211  0.00  0.00     0.048 A 
ATOM      4  C3  UNL d   1       0.949   0.112  -0.327  0.00  0.00     0.023 A 
ATOM      5  C4  UNL d   1       1.601  -1.102  -0.554  0.00  0.00     0.048 A 
ATOM      6  C5  UNL d   1       2.992  -1.128  -0.665  0.00  0.00     0.003 A 
ATOM      7  I   UNL d   1      -1.122   0.157  -0.162  0.00  0.00    -0.146 I 
ENDROOT
TORSDOF 0
ENDMDL
