MODEL 1
REMARK minimizedAffinity 10.1546831
REMARK minimizedRMSD -1
REMARK  0 active torsions:
REMARK  status: ('A' for Active; 'I' for Inactive)
ROOT
ATOM      1  C1  BNZ d   1       1.870   0.878   4.650  0.00  0.00     0.000 A 
ATOM      2  C2  BNZ d   1       1.059  -0.158   5.027  0.00  0.00     0.000 A 
ATOM      3  C3  BNZ d   1       1.281  -1.425   4.563  0.00  0.00     0.000 A 
ATOM      4  C4  BNZ d   1       2.288  -1.646   3.693  0.00  0.00     0.000 A 
ATOM      5  C5  BNZ d   1       3.108  -0.609   3.296  0.00  0.00     0.000 A 
ATOM      6  C6  BNZ d   1       2.906   0.657   3.795  0.00  0.00     0.000 A 
ENDROOT
TORSDOF 0
ENDMDL
