MODEL 1
REMARK minimizedAffinity 6.80583334
REMARK minimizedRMSD -1
REMARK  0 active torsions:
REMARK  status: ('A' for Active; 'I' for Inactive)
ROOT
ATOM      1  C1  BNZ d   1       1.323   5.471   0.027  0.00  0.00     0.000 A 
ATOM      2  C2  BNZ d   1       1.725   4.337   0.682  0.00  0.00     0.000 A 
ATOM      3  C3  BNZ d   1       0.846   3.319   0.923  0.00  0.00     0.000 A 
ATOM      4  C4  BNZ d   1      -0.442   3.452   0.547  0.00  0.00     0.000 A 
ATOM      5  C5  BNZ d   1      -0.866   4.593  -0.106  0.00  0.00     0.000 A 
ATOM      6  C6  BNZ d   1       0.031   5.599  -0.382  0.00  0.00     0.000 A 
ENDROOT
TORSDOF 0
ENDMDL
