MODEL 1
REMARK minimizedAffinity 1.93886006
REMARK minimizedRMSD -1
REMARK  0 active torsions:
REMARK  status: ('A' for Active; 'I' for Inactive)
ROOT
ATOM      1  C1  BNZ d   1       1.665   4.873  -0.004  0.00  0.00     0.000 A 
ATOM      2  C2  BNZ d   1       0.970   5.984  -0.403  0.00  0.00     0.000 A 
ATOM      3  C3  BNZ d   1      -0.397   5.987  -0.415  0.00  0.00     0.000 A 
ATOM      4  C4  BNZ d   1      -1.066   4.869  -0.067  0.00  0.00     0.000 A 
ATOM      5  C5  BNZ d   1      -0.380   3.739   0.329  0.00  0.00     0.000 A 
ATOM      6  C6  BNZ d   1       0.995   3.751   0.377  0.00  0.00     0.000 A 
ENDROOT
TORSDOF 0
ENDMDL
