MODEL 1
REMARK minimizedAffinity 4.77432537
REMARK minimizedRMSD -1
REMARK  0 active torsions:
REMARK  status: ('A' for Active; 'I' for Inactive)
ROOT
ATOM      1  C1  BNZ d   1       1.504   5.592   0.131  0.00  0.00     0.000 A 
ATOM      2  C2  BNZ d   1       0.420   5.094  -0.542  0.00  0.00     0.000 A 
ATOM      3  C3  BNZ d   1      -0.155   3.912  -0.165  0.00  0.00     0.000 A 
ATOM      4  C4  BNZ d   1       0.379   3.211   0.856  0.00  0.00     0.000 A 
ATOM      5  C5  BNZ d   1       1.477   3.696   1.538  0.00  0.00     0.000 A 
ATOM      6  C6  BNZ d   1       2.029   4.905   1.181  0.00  0.00     0.000 A 
ENDROOT
TORSDOF 0
ENDMDL
