MODEL 1
REMARK minimizedAffinity 4.67618752
REMARK minimizedRMSD -1
REMARK  0 active torsions:
REMARK  status: ('A' for Active; 'I' for Inactive)
ROOT
ATOM      1  C1  BNZ d   1       2.274  -0.953  -0.033  0.00  0.00     0.000 A 
ATOM      2  C2  BNZ d   1       2.056  -2.303   0.043  0.00  0.00     0.000 A 
ATOM      3  C3  BNZ d   1       1.126  -2.907  -0.756  0.00  0.00     0.000 A 
ATOM      4  C4  BNZ d   1       0.388  -2.157  -1.599  0.00  0.00     0.000 A 
ATOM      5  C5  BNZ d   1       0.589  -0.793  -1.680  0.00  0.00     0.000 A 
ATOM      6  C6  BNZ d   1       1.553  -0.194  -0.903  0.00  0.00     0.000 A 
ENDROOT
TORSDOF 0
ENDMDL
