MODEL 1
REMARK minimizedAffinity 7.53973627
REMARK minimizedRMSD -1
REMARK  0 active torsions:
REMARK  status: ('A' for Active; 'I' for Inactive)
ROOT
ATOM      1  C1  BNZ d   1       6.000  -1.461  -2.339  0.00  0.00     0.000 A 
ATOM      2  C2  BNZ d   1       5.999  -1.967  -1.066  0.00  0.00     0.000 A 
ATOM      3  C3  BNZ d   1       5.833  -3.305  -0.845  0.00  0.00     0.000 A 
ATOM      4  C4  BNZ d   1       5.627  -4.130  -1.892  0.00  0.00     0.000 A 
ATOM      5  C5  BNZ d   1       5.615  -3.634  -3.181  0.00  0.00     0.000 A 
ATOM      6  C6  BNZ d   1       5.822  -2.292  -3.402  0.00  0.00     0.000 A 
ENDROOT
TORSDOF 0
ENDMDL
