MODEL 1
REMARK minimizedAffinity 7.67342567
REMARK minimizedRMSD -1
REMARK  0 active torsions:
REMARK  status: ('A' for Active; 'I' for Inactive)
ROOT
ATOM      1  C1  BNZ d   1       5.586  -2.997  -3.704  0.00  0.00     0.000 A 
ATOM      2  C2  BNZ d   1       5.998  -1.986  -2.877  0.00  0.00     0.000 A 
ATOM      3  C3  BNZ d   1       5.998  -2.148  -1.520  0.00  0.00     0.000 A 
ATOM      4  C4  BNZ d   1       5.548  -3.304  -0.990  0.00  0.00     0.000 A 
ATOM      5  C5  BNZ d   1       5.120  -4.329  -1.810  0.00  0.00     0.000 A 
ATOM      6  C6  BNZ d   1       5.159  -4.176  -3.177  0.00  0.00     0.000 A 
ENDROOT
TORSDOF 0
ENDMDL
