MODEL 1
REMARK minimizedAffinity 9.61728954
REMARK minimizedRMSD -1
REMARK  0 active torsions:
REMARK  status: ('A' for Active; 'I' for Inactive)
ROOT
ATOM      1  C1  BNZ d   1       1.303  -1.479   4.507  0.00  0.00     0.000 A 
ATOM      2  C2  BNZ d   1       1.110  -0.162   4.827  0.00  0.00     0.000 A 
ATOM      3  C3  BNZ d   1       1.846   0.820   4.225  0.00  0.00     0.000 A 
ATOM      4  C4  BNZ d   1       2.801   0.481   3.335  0.00  0.00     0.000 A 
ATOM      5  C5  BNZ d   1       3.015  -0.843   3.009  0.00  0.00     0.000 A 
ATOM      6  C6  BNZ d   1       2.245  -1.826   3.588  0.00  0.00     0.000 A 
ENDROOT
TORSDOF 0
ENDMDL
