MODEL 1
REMARK minimizedAffinity -2.08158422
REMARK minimizedRMSD -1
REMARK  0 active torsions:
REMARK  status: ('A' for Active; 'I' for Inactive)
ROOT
ATOM      1  C1  BNZ d   1      -0.471   0.415   0.473  0.00  0.00     0.000 A 
ATOM      2  C2  BNZ d   1      -1.138  -0.367   1.378  0.00  0.00     0.000 A 
ATOM      3  C3  BNZ d   1      -1.387  -1.685   1.114  0.00  0.00     0.000 A 
ATOM      4  C4  BNZ d   1      -1.005  -2.208  -0.069  0.00  0.00     0.000 A 
ATOM      5  C5  BNZ d   1      -0.340  -1.430  -0.995  0.00  0.00     0.000 A 
ATOM      6  C6  BNZ d   1      -0.057  -0.114  -0.710  0.00  0.00     0.000 A 
ENDROOT
TORSDOF 0
ENDMDL
