MODEL 1
REMARK minimizedAffinity -3.41159701
REMARK minimizedRMSD -1
REMARK  0 active torsions:
REMARK  status: ('A' for Active; 'I' for Inactive)
ROOT
ATOM      1  C1  BNZ d   1       0.657  -0.462  -1.724  0.00  0.00     0.000 A 
ATOM      2  C2  BNZ d   1       0.563   0.857  -1.366  0.00  0.00     0.000 A 
ATOM      3  C3  BNZ d   1       0.251   1.214  -0.084  0.00  0.00     0.000 A 
ATOM      4  C4  BNZ d   1      -0.006   0.254   0.827  0.00  0.00     0.000 A 
ATOM      5  C5  BNZ d   1       0.075  -1.080   0.480  0.00  0.00     0.000 A 
ATOM      6  C6  BNZ d   1       0.428  -1.436  -0.802  0.00  0.00     0.000 A 
ENDROOT
TORSDOF 0
ENDMDL
