MODEL 1
REMARK minimizedAffinity -4.01396179
REMARK minimizedRMSD -1
REMARK  0 active torsions:
REMARK  status: ('A' for Active; 'I' for Inactive)
ROOT
ATOM      1  C1  BNZ d   1       0.309  -2.360  -0.095  0.00  0.00     0.000 A 
ATOM      2  C2  BNZ d   1       0.775  -1.318  -0.850  0.00  0.00     0.000 A 
ATOM      3  C3  BNZ d   1       0.274  -0.056  -0.686  0.00  0.00     0.000 A 
ATOM      4  C4  BNZ d   1      -0.718   0.153   0.203  0.00  0.00     0.000 A 
ATOM      5  C5  BNZ d   1      -1.205  -0.890   0.966  0.00  0.00     0.000 A 
ATOM      6  C6  BNZ d   1      -0.672  -2.151   0.826  0.00  0.00     0.000 A 
ENDROOT
TORSDOF 0
ENDMDL
