MODEL 1
REMARK minimizedAffinity -5.18099308
REMARK minimizedRMSD -1
REMARK  0 active torsions:
REMARK  status: ('A' for Active; 'I' for Inactive)
ROOT
ATOM      1  C1  BNZ d   1       0.484  -1.133  -0.085  0.00  0.00     0.000 A 
ATOM      2  C2  BNZ d   1      -0.422  -0.364   0.595  0.00  0.00     0.000 A 
ATOM      3  C3  BNZ d   1      -1.549  -0.920   1.132  0.00  0.00     0.000 A 
ATOM      4  C4  BNZ d   1      -1.789  -2.236   0.954  0.00  0.00     0.000 A 
ATOM      5  C5  BNZ d   1      -0.890  -3.023   0.262  0.00  0.00     0.000 A 
ATOM      6  C6  BNZ d   1       0.262  -2.467  -0.244  0.00  0.00     0.000 A 
ENDROOT
TORSDOF 0
ENDMDL
