MODEL 1
REMARK minimizedAffinity -3.36786842
REMARK minimizedRMSD -1
REMARK  0 active torsions:
REMARK  status: ('A' for Active; 'I' for Inactive)
ROOT
ATOM      1  C1  BNZ d   1      -0.463   0.487  -0.162  0.00  0.00     0.000 A 
ATOM      2  C2  BNZ d   1      -0.168  -0.722   0.408  0.00  0.00     0.000 A 
ATOM      3  C3  BNZ d   1       0.435  -1.710  -0.320  0.00  0.00     0.000 A 
ATOM      4  C4  BNZ d   1       0.705  -1.502  -1.625  0.00  0.00     0.000 A 
ATOM      5  C5  BNZ d   1       0.405  -0.291  -2.216  0.00  0.00     0.000 A 
ATOM      6  C6  BNZ d   1      -0.167   0.715  -1.471  0.00  0.00     0.000 A 
ENDROOT
TORSDOF 0
ENDMDL
