MODEL 1
REMARK minimizedAffinity -1.39975917
REMARK minimizedRMSD -1
REMARK  0 active torsions:
REMARK  status: ('A' for Active; 'I' for Inactive)
ROOT
ATOM      1  C1  BNZ d   1      -0.754   3.509   1.222  0.00  0.00     0.000 A 
ATOM      2  C2  BNZ d   1      -1.522   4.147   2.160  0.00  0.00     0.000 A 
ATOM      3  C3  BNZ d   1      -0.964   5.039   3.033  0.00  0.00     0.000 A 
ATOM      4  C4  BNZ d   1       0.365   5.262   2.993  0.00  0.00     0.000 A 
ATOM      5  C5  BNZ d   1       1.154   4.621   2.059  0.00  0.00     0.000 A 
ATOM      6  C6  BNZ d   1       0.583   3.753   1.157  0.00  0.00     0.000 A 
ENDROOT
TORSDOF 0
ENDMDL
