MODEL 1
REMARK minimizedAffinity -4.56132078
REMARK minimizedRMSD -1
REMARK  0 active torsions:
REMARK  status: ('A' for Active; 'I' for Inactive)
ROOT
ATOM      1  C1  BNZ d   1      -1.274  -0.873   0.517  0.00  0.00     0.000 A 
ATOM      2  C2  BNZ d   1      -1.326  -2.187   0.898  0.00  0.00     0.000 A 
ATOM      3  C3  BNZ d   1      -0.224  -2.989   0.796  0.00  0.00     0.000 A 
ATOM      4  C4  BNZ d   1       0.915  -2.488   0.278  0.00  0.00     0.000 A 
ATOM      5  C5  BNZ d   1       0.981  -1.167  -0.120  0.00  0.00     0.000 A 
ATOM      6  C6  BNZ d   1      -0.119  -0.352   0.020  0.00  0.00     0.000 A 
ENDROOT
TORSDOF 0
ENDMDL
