MODEL 1
REMARK minimizedAffinity -5.31241417
REMARK minimizedRMSD -1
REMARK  0 active torsions:
REMARK  status: ('A' for Active; 'I' for Inactive)
ROOT
ATOM      1  C1  BNZ d   1       0.333  -1.879  -0.213  0.00  0.00     0.000 A 
ATOM      2  C2  BNZ d   1      -0.745  -2.611   0.209  0.00  0.00     0.000 A 
ATOM      3  C3  BNZ d   1      -1.571  -2.138   1.190  0.00  0.00     0.000 A 
ATOM      4  C4  BNZ d   1      -1.296  -0.955   1.775  0.00  0.00     0.000 A 
ATOM      5  C5  BNZ d   1      -0.208  -0.209   1.367  0.00  0.00     0.000 A 
ATOM      6  C6  BNZ d   1       0.599  -0.670   0.352  0.00  0.00     0.000 A 
ENDROOT
TORSDOF 0
ENDMDL
