MODEL 1
REMARK minimizedAffinity -4.77801752
REMARK minimizedRMSD -1
REMARK  0 active torsions:
REMARK  status: ('A' for Active; 'I' for Inactive)
ROOT
ATOM      1  C1  BNZ d   1       0.737  -2.343  -0.051  0.00  0.00     0.000 A 
ATOM      2  C2  BNZ d   1      -0.392  -3.034   0.300  0.00  0.00     0.000 A 
ATOM      3  C3  BNZ d   1      -1.522  -2.375   0.697  0.00  0.00     0.000 A 
ATOM      4  C4  BNZ d   1      -1.509  -1.029   0.780  0.00  0.00     0.000 A 
ATOM      5  C5  BNZ d   1      -0.376  -0.318   0.439  0.00  0.00     0.000 A 
ATOM      6  C6  BNZ d   1       0.747  -0.983   0.003  0.00  0.00     0.000 A 
ENDROOT
TORSDOF 0
ENDMDL
