MODEL 1
REMARK minimizedAffinity -4.03879309
REMARK minimizedRMSD -1
REMARK  0 active torsions:
REMARK  status: ('A' for Active; 'I' for Inactive)
ROOT
ATOM      1  C1  BNZ d   1      -1.671  -2.435   1.430  0.00  0.00     0.000 A 
ATOM      2  C2  BNZ d   1      -0.707  -3.156   0.779  0.00  0.00     0.000 A 
ATOM      3  C3  BNZ d   1       0.399  -2.541   0.262  0.00  0.00     0.000 A 
ATOM      4  C4  BNZ d   1       0.520  -1.202   0.363  0.00  0.00     0.000 A 
ATOM      5  C5  BNZ d   1      -0.449  -0.459   1.008  0.00  0.00     0.000 A 
ATOM      6  C6  BNZ d   1      -1.541  -1.086   1.561  0.00  0.00     0.000 A 
ENDROOT
TORSDOF 0
ENDMDL
