MODEL 1
REMARK minimizedAffinity -4.58808517
REMARK minimizedRMSD -1
REMARK  0 active torsions:
REMARK  status: ('A' for Active; 'I' for Inactive)
ROOT
ATOM      1  C1  BNZ d   1      -1.103  -2.537   0.329  0.00  0.00     0.000 A 
ATOM      2  C2  BNZ d   1      -0.718  -3.060  -0.877  0.00  0.00     0.000 A 
ATOM      3  C3  BNZ d   1      -0.141  -2.270  -1.831  0.00  0.00     0.000 A 
ATOM      4  C4  BNZ d   1       0.013  -0.951  -1.595  0.00  0.00     0.000 A 
ATOM      5  C5  BNZ d   1      -0.379  -0.406  -0.389  0.00  0.00     0.000 A 
ATOM      6  C6  BNZ d   1      -0.923  -1.212   0.585  0.00  0.00     0.000 A 
ENDROOT
TORSDOF 0
ENDMDL
