MODEL 1
REMARK minimizedAffinity -4.87891197
REMARK minimizedRMSD -1
REMARK  0 active torsions:
REMARK  status: ('A' for Active; 'I' for Inactive)
ROOT
ATOM      1  C1  BNZ d   1       0.605  -2.450   0.028  0.00  0.00     0.000 A 
ATOM      2  C2  BNZ d   1      -0.445  -2.975   0.733  0.00  0.00     0.000 A 
ATOM      3  C3  BNZ d   1      -1.417  -2.164   1.249  0.00  0.00     0.000 A 
ATOM      4  C4  BNZ d   1      -1.317  -0.828   1.094  0.00  0.00     0.000 A 
ATOM      5  C5  BNZ d   1      -0.259  -0.283   0.394  0.00  0.00     0.000 A 
ATOM      6  C6  BNZ d   1       0.697  -1.105  -0.157  0.00  0.00     0.000 A 
ENDROOT
TORSDOF 0
ENDMDL
