MODEL 1
REMARK minimizedAffinity -3.49415112
REMARK minimizedRMSD -1
REMARK  0 active torsions:
REMARK  status: ('A' for Active; 'I' for Inactive)
ROOT
ATOM      1  C1  BNZ d   1       0.613  -0.878   0.124  0.00  0.00     0.000 A 
ATOM      2  C2  BNZ d   1      -0.703  -0.513   0.222  0.00  0.00     0.000 A 
ATOM      3  C3  BNZ d   1      -1.636  -1.382   0.713  0.00  0.00     0.000 A 
ATOM      4  C4  BNZ d   1      -1.260  -2.628   1.068  0.00  0.00     0.000 A 
ATOM      5  C5  BNZ d   1       0.062  -3.014   0.967  0.00  0.00     0.000 A 
ATOM      6  C6  BNZ d   1       1.005  -2.123   0.508  0.00  0.00     0.000 A 
ENDROOT
TORSDOF 0
ENDMDL
