MODEL 1
REMARK minimizedAffinity -4.43072367
REMARK minimizedRMSD -1
REMARK  0 active torsions:
REMARK  status: ('A' for Active; 'I' for Inactive)
ROOT
ATOM      1  C1  BNZ d   1      -0.065   0.097   0.244  0.00  0.00     0.000 A 
ATOM      2  C2  BNZ d   1      -0.512  -0.945   1.012  0.00  0.00     0.000 A 
ATOM      3  C3  BNZ d   1      -0.250  -2.239   0.655  0.00  0.00     0.000 A 
ATOM      4  C4  BNZ d   1       0.422  -2.489  -0.487  0.00  0.00     0.000 A 
ATOM      5  C5  BNZ d   1       0.870  -1.449  -1.277  0.00  0.00     0.000 A 
ATOM      6  C6  BNZ d   1       0.638  -0.147  -0.895  0.00  0.00     0.000 A 
ENDROOT
TORSDOF 0
ENDMDL
