MODEL 1
REMARK minimizedAffinity -2.13800073
REMARK minimizedRMSD -1
REMARK  0 active torsions:
REMARK  status: ('A' for Active; 'I' for Inactive)
ROOT
ATOM      1  C   UNL d   1       0.349   1.073  -0.024  0.00  0.00     0.172 C 
ATOM      2  N   UNL d   1       0.673   1.411  -1.390  0.00  0.00    -0.070 N 
ATOM      3  C1  UNL d   1       1.750   2.153  -1.796  0.00  0.00    -0.004 A 
ATOM      4  C2  UNL d   1       1.704   2.248  -3.170  0.00  0.00    -0.047 A 
ATOM      5  C3  UNL d   1       0.559   1.540  -3.605  0.00  0.00    -0.047 A 
ATOM      6  C4  UNL d   1      -0.061   1.032  -2.483  0.00  0.00    -0.004 A 
ENDROOT
TORSDOF 0
ENDMDL
