MODEL 1
REMARK minimizedAffinity -1.81506419
REMARK minimizedRMSD -1
REMARK  0 active torsions:
REMARK  status: ('A' for Active; 'I' for Inactive)
ROOT
ATOM      1  C   UNL d   1       0.002  -2.449   1.648  0.00  0.00     0.172 C 
ATOM      2  N   UNL d   1       0.263  -1.210   0.954  0.00  0.00    -0.070 N 
ATOM      3  C1  UNL d   1      -0.647  -0.503   0.214  0.00  0.00    -0.004 A 
ATOM      4  C2  UNL d   1      -0.011   0.615  -0.281  0.00  0.00    -0.047 A 
ATOM      5  C3  UNL d   1       1.328   0.578   0.176  0.00  0.00    -0.047 A 
ATOM      6  C4  UNL d   1       1.470  -0.562   0.938  0.00  0.00    -0.004 A 
ENDROOT
TORSDOF 0
ENDMDL
