MODEL 1
REMARK minimizedAffinity -1.31117654
REMARK minimizedRMSD -1
REMARK  0 active torsions:
REMARK  status: ('A' for Active; 'I' for Inactive)
ROOT
ATOM      1  C   UNL d   1       0.361   0.442  -0.269  0.00  0.00     0.172 C 
ATOM      2  N   UNL d   1       0.643   1.155  -1.493  0.00  0.00    -0.070 N 
ATOM      3  C1  UNL d   1       1.635   2.083  -1.666  0.00  0.00    -0.004 A 
ATOM      4  C2  UNL d   1       1.574   2.527  -2.969  0.00  0.00    -0.047 A 
ATOM      5  C3  UNL d   1       0.508   1.843  -3.601  0.00  0.00    -0.047 A 
ATOM      6  C4  UNL d   1      -0.051   1.000  -2.664  0.00  0.00    -0.004 A 
ENDROOT
TORSDOF 0
ENDMDL
