MODEL 1
REMARK minimizedAffinity -2.04610252
REMARK minimizedRMSD -1
REMARK  0 active torsions:
REMARK  status: ('A' for Active; 'I' for Inactive)
ROOT
ATOM      1  C   UNL d   1       0.043   0.798  -0.304  0.00  0.00     0.172 C 
ATOM      2  N   UNL d   1      -0.172  -0.442   0.403  0.00  0.00    -0.070 N 
ATOM      3  C1  UNL d   1      -1.145  -0.668   1.340  0.00  0.00    -0.004 A 
ATOM      4  C2  UNL d   1      -1.017  -1.969   1.776  0.00  0.00    -0.047 A 
ATOM      5  C3  UNL d   1       0.071  -2.545   1.078  0.00  0.00    -0.047 A 
ATOM      6  C4  UNL d   1       0.575  -1.578   0.235  0.00  0.00    -0.004 A 
ENDROOT
TORSDOF 0
ENDMDL
