MODEL 1
REMARK minimizedAffinity -2.22692084
REMARK minimizedRMSD -1
REMARK  0 active torsions:
REMARK  status: ('A' for Active; 'I' for Inactive)
ROOT
ATOM      1  C   UNL d   1       0.449   1.097  -0.122  0.00  0.00     0.172 C 
ATOM      2  N   UNL d   1      -0.065  -0.085   0.528  0.00  0.00    -0.070 N 
ATOM      3  C1  UNL d   1      -1.033  -0.107   1.497  0.00  0.00    -0.004 A 
ATOM      4  C2  UNL d   1      -1.241  -1.421   1.856  0.00  0.00    -0.047 A 
ATOM      5  C3  UNL d   1      -0.369  -2.217   1.076  0.00  0.00    -0.047 A 
ATOM      6  C4  UNL d   1       0.348  -1.364   0.263  0.00  0.00    -0.004 A 
ENDROOT
TORSDOF 0
ENDMDL
