MODEL 1
REMARK minimizedAffinity -2.18874288
REMARK minimizedRMSD -1
REMARK  0 active torsions:
REMARK  status: ('A' for Active; 'I' for Inactive)
ROOT
ATOM      1  C   UNL d   1       0.816   1.124  -0.609  0.00  0.00     0.172 C 
ATOM      2  N   UNL d   1       0.340  -0.007   0.152  0.00  0.00    -0.070 N 
ATOM      3  C1  UNL d   1      -0.778  -0.023   0.943  0.00  0.00    -0.004 A 
ATOM      4  C2  UNL d   1      -0.887  -1.282   1.494  0.00  0.00    -0.047 A 
ATOM      5  C3  UNL d   1       0.203  -2.049   1.017  0.00  0.00    -0.047 A 
ATOM      6  C4  UNL d   1       0.946  -1.235   0.189  0.00  0.00    -0.004 A 
ENDROOT
TORSDOF 0
ENDMDL
