MODEL 1
REMARK minimizedAffinity -2.97421241
REMARK minimizedRMSD -1
REMARK  0 active torsions:
REMARK  status: ('A' for Active; 'I' for Inactive)
ROOT
ATOM      1  C   UNL d   1       0.422   0.874  -0.190  0.00  0.00     0.172 C 
ATOM      2  N   UNL d   1      -0.028  -0.357   0.414  0.00  0.00    -0.070 N 
ATOM      3  C1  UNL d   1       0.602  -1.569   0.321  0.00  0.00    -0.004 A 
ATOM      4  C2  UNL d   1      -0.140  -2.487   1.033  0.00  0.00    -0.047 A 
ATOM      5  C3  UNL d   1      -1.255  -1.802   1.572  0.00  0.00    -0.047 A 
ATOM      6  C4  UNL d   1      -1.161  -0.486   1.173  0.00  0.00    -0.004 A 
ENDROOT
TORSDOF 0
ENDMDL
