MODEL 1
REMARK minimizedAffinity -2.71361589
REMARK minimizedRMSD -1
REMARK  0 active torsions:
REMARK  status: ('A' for Active; 'I' for Inactive)
ROOT
ATOM      1  C   UNL d   1       0.659   0.883  -0.434  0.00  0.00     0.172 C 
ATOM      2  N   UNL d   1       0.261  -0.377   0.150  0.00  0.00    -0.070 N 
ATOM      3  C1  UNL d   1       0.750  -1.607  -0.198  0.00  0.00    -0.004 A 
ATOM      4  C2  UNL d   1       0.120  -2.549   0.586  0.00  0.00    -0.047 A 
ATOM      5  C3  UNL d   1      -0.780  -1.860   1.434  0.00  0.00    -0.047 A 
ATOM      6  C4  UNL d   1      -0.672  -0.517   1.143  0.00  0.00    -0.004 A 
ENDROOT
TORSDOF 0
ENDMDL
