MODEL 1
REMARK minimizedAffinity -2.88583899
REMARK minimizedRMSD -1
REMARK  0 active torsions:
REMARK  status: ('A' for Active; 'I' for Inactive)
ROOT
ATOM      1  C   UNL d   1       0.432   0.922  -1.883  0.00  0.00     0.172 C 
ATOM      2  N   UNL d   1       0.438  -0.065  -0.829  0.00  0.00    -0.070 N 
ATOM      3  C1  UNL d   1       0.925  -1.341  -0.933  0.00  0.00    -0.004 A 
ATOM      4  C2  UNL d   1       0.747  -1.961   0.285  0.00  0.00    -0.047 A 
ATOM      5  C3  UNL d   1       0.130  -1.027   1.150  0.00  0.00    -0.047 A 
ATOM      6  C4  UNL d   1      -0.050   0.139   0.435  0.00  0.00    -0.004 A 
ENDROOT
TORSDOF 0
ENDMDL
