MODEL 1
REMARK minimizedAffinity -1.90921497
REMARK minimizedRMSD -1
REMARK  0 active torsions:
REMARK  status: ('A' for Active; 'I' for Inactive)
ROOT
ATOM      1  C   UNL d   1       0.341   0.688  -0.358  0.00  0.00     0.172 C 
ATOM      2  N   UNL d   1       0.088  -0.537   0.363  0.00  0.00    -0.070 N 
ATOM      3  C1  UNL d   1      -1.069  -0.849   1.026  0.00  0.00    -0.004 A 
ATOM      4  C2  UNL d   1      -0.913  -2.102   1.580  0.00  0.00    -0.047 A 
ATOM      5  C3  UNL d   1       0.383  -2.557   1.239  0.00  0.00    -0.047 A 
ATOM      6  C4  UNL d   1       0.980  -1.569   0.486  0.00  0.00    -0.004 A 
ENDROOT
TORSDOF 0
ENDMDL
