MODEL 1
REMARK minimizedAffinity -1.90495002
REMARK minimizedRMSD -1
REMARK  0 active torsions:
REMARK  status: ('A' for Active; 'I' for Inactive)
ROOT
ATOM      1  C   UNL d   1      -0.149  -2.380   1.552  0.00  0.00     0.172 C 
ATOM      2  N   UNL d   1       0.206  -1.143   0.897  0.00  0.00    -0.070 N 
ATOM      3  C1  UNL d   1      -0.640  -0.093   0.661  0.00  0.00    -0.004 A 
ATOM      4  C2  UNL d   1       0.078   0.893   0.019  0.00  0.00    -0.047 A 
ATOM      5  C3  UNL d   1       1.402   0.418  -0.138  0.00  0.00    -0.047 A 
ATOM      6  C4  UNL d   1       1.454  -0.845   0.414  0.00  0.00    -0.004 A 
ENDROOT
TORSDOF 0
ENDMDL
