MODEL 1
REMARK minimizedAffinity -2.36811042
REMARK minimizedRMSD -1
REMARK  0 active torsions:
REMARK  status: ('A' for Active; 'I' for Inactive)
ROOT
ATOM      1  C   UNL d   1      -1.564   1.560   0.415  0.00  0.00     0.172 C 
ATOM      2  N   UNL d   1      -0.543   0.539   0.410  0.00  0.00    -0.070 N 
ATOM      3  C1  UNL d   1       0.788   0.741   0.158  0.00  0.00    -0.004 A 
ATOM      4  C2  UNL d   1       1.424  -0.478   0.250  0.00  0.00    -0.047 A 
ATOM      5  C3  UNL d   1       0.442  -1.446   0.567  0.00  0.00    -0.047 A 
ATOM      6  C4  UNL d   1      -0.767  -0.789   0.661  0.00  0.00    -0.004 A 
ENDROOT
TORSDOF 0
ENDMDL
