MODEL 1
REMARK minimizedAffinity -2.50172424
REMARK minimizedRMSD -1
REMARK  0 active torsions:
REMARK  status: ('A' for Active; 'I' for Inactive)
ROOT
ATOM      1  C   UNL d   1       0.398  -0.019  -0.230  0.00  0.00     0.172 C 
ATOM      2  N   UNL d   1      -0.506  -0.565   0.754  0.00  0.00    -0.070 N 
ATOM      3  C1  UNL d   1      -0.463  -1.836   1.261  0.00  0.00    -0.004 A 
ATOM      4  C2  UNL d   1      -1.490  -1.963   2.170  0.00  0.00    -0.047 A 
ATOM      5  C3  UNL d   1      -2.175  -0.726   2.211  0.00  0.00    -0.047 A 
ATOM      6  C4  UNL d   1      -1.545   0.122   1.325  0.00  0.00    -0.004 A 
ENDROOT
TORSDOF 0
ENDMDL
