MODEL 1
REMARK minimizedAffinity -1.61669636
REMARK minimizedRMSD -1
REMARK  0 active torsions:
REMARK  status: ('A' for Active; 'I' for Inactive)
ROOT
ATOM      1  C   UNL d   1       0.331   0.965  -0.340  0.00  0.00     0.172 C 
ATOM      2  N   UNL d   1       0.818   1.536  -1.573  0.00  0.00    -0.070 N 
ATOM      3  C1  UNL d   1       2.076   2.034  -1.780  0.00  0.00    -0.004 A 
ATOM      4  C2  UNL d   1       2.143   2.484  -3.081  0.00  0.00    -0.047 A 
ATOM      5  C3  UNL d   1       0.881   2.249  -3.676  0.00  0.00    -0.047 A 
ATOM      6  C4  UNL d   1       0.080   1.661  -2.721  0.00  0.00    -0.004 A 
ENDROOT
TORSDOF 0
ENDMDL
