MODEL 1
REMARK minimizedAffinity -0.917874157
REMARK minimizedRMSD -1
REMARK  0 active torsions:
REMARK  status: ('A' for Active; 'I' for Inactive)
ROOT
ATOM      1  C   UNL d   1      -3.783  -3.017  -5.962  0.00  0.00     0.172 C 
ATOM      2  N   UNL d   1      -2.752  -4.028  -5.967  0.00  0.00    -0.070 N 
ATOM      3  C1  UNL d   1      -2.962  -5.381  -5.955  0.00  0.00    -0.004 A 
ATOM      4  C2  UNL d   1      -1.730  -5.999  -5.966  0.00  0.00    -0.047 A 
ATOM      5  C3  UNL d   1      -0.746  -4.982  -5.985  0.00  0.00    -0.047 A 
ATOM      6  C4  UNL d   1      -1.407  -3.772  -5.985  0.00  0.00    -0.004 A 
ENDROOT
TORSDOF 0
ENDMDL
