MODEL 1
REMARK minimizedAffinity -1.08080685
REMARK minimizedRMSD -1
REMARK  0 active torsions:
REMARK  status: ('A' for Active; 'I' for Inactive)
ROOT
ATOM      1  C   UNL d   1       0.838   2.000  -3.037  0.00  0.00     0.172 C 
ATOM      2  N   UNL d   1       0.817   1.333  -1.757  0.00  0.00    -0.070 N 
ATOM      3  C1  UNL d   1       0.360   0.062  -1.526  0.00  0.00    -0.004 A 
ATOM      4  C2  UNL d   1       0.510  -0.202  -0.182  0.00  0.00    -0.047 A 
ATOM      5  C3  UNL d   1       1.074   0.949   0.416  0.00  0.00    -0.047 A 
ATOM      6  C4  UNL d   1       1.254   1.884  -0.581  0.00  0.00    -0.004 A 
ENDROOT
TORSDOF 0
ENDMDL
