MODEL 1
REMARK minimizedAffinity -2.07091737
REMARK minimizedRMSD -1
REMARK  0 active torsions:
REMARK  status: ('A' for Active; 'I' for Inactive)
ROOT
ATOM      1  C   UNL d   1       0.861   1.133  -0.317  0.00  0.00     0.172 C 
ATOM      2  N   UNL d   1       0.528  -0.176   0.194  0.00  0.00    -0.070 N 
ATOM      3  C1  UNL d   1       1.225  -1.330  -0.051  0.00  0.00    -0.004 A 
ATOM      4  C2  UNL d   1       0.589  -2.356   0.614  0.00  0.00    -0.047 A 
ATOM      5  C3  UNL d   1      -0.530  -1.800   1.279  0.00  0.00    -0.047 A 
ATOM      6  C4  UNL d   1      -0.543  -0.450   1.002  0.00  0.00    -0.004 A 
ENDROOT
TORSDOF 0
ENDMDL
