MODEL 1
REMARK minimizedAffinity -0.741973996
REMARK minimizedRMSD -1
REMARK  0 active torsions:
REMARK  status: ('A' for Active; 'I' for Inactive)
ROOT
ATOM      1  C   UNL d   1      -1.931   3.441  -3.070  0.00  0.00    -0.002 A 
ATOM      2  C1  UNL d   1      -0.763   2.729  -2.834  0.00  0.00     0.010 A 
ATOM      3  C2  UNL d   1      -0.339   2.471  -1.529  0.00  0.00     0.041 A 
ATOM      4  C3  UNL d   1      -1.117   2.944  -0.454  0.00  0.00    -0.075 A 
ATOM      5  S   UNL d   1      -0.794   2.746   1.228  0.00  0.00     0.015 SA
ATOM      6  C4  UNL d   1      -2.199   3.601   1.674  0.00  0.00     0.022 A 
ATOM      7  C5  UNL d   1      -2.909   4.034   0.579  0.00  0.00     0.026 A 
ATOM      8  C6  UNL d   1      -2.297   3.662  -0.665  0.00  0.00    -0.082 A 
ATOM      9  C7  UNL d   1      -2.700   3.908  -2.000  0.00  0.00     0.045 A 
ENDROOT
TORSDOF 0
ENDMDL
