MODEL 1
REMARK minimizedAffinity 7.93003082
REMARK minimizedRMSD -1
REMARK  0 active torsions:
REMARK  status: ('A' for Active; 'I' for Inactive)
ROOT
ATOM      1  C   UNL d   1       0.394   1.966   1.623  0.00  0.00    -0.002 A 
ATOM      2  C1  UNL d   1      -0.628   2.340   2.484  0.00  0.00     0.010 A 
ATOM      3  C2  UNL d   1      -0.834   1.652   3.682  0.00  0.00     0.041 A 
ATOM      4  C3  UNL d   1       0.014   0.574   4.004  0.00  0.00    -0.075 A 
ATOM      5  S   UNL d   1      -0.050  -0.413   5.416  0.00  0.00     0.015 SA
ATOM      6  C4  UNL d   1       1.279  -1.352   4.910  0.00  0.00     0.022 A 
ATOM      7  C5  UNL d   1       1.771  -0.937   3.695  0.00  0.00     0.026 A 
ATOM      8  C6  UNL d   1       1.050   0.180   3.153  0.00  0.00    -0.082 A 
ATOM      9  C7  UNL d   1       1.233   0.897   1.946  0.00  0.00     0.045 A 
ENDROOT
TORSDOF 0
ENDMDL
