MODEL 1
REMARK minimizedAffinity 15.540307
REMARK minimizedRMSD -1
REMARK  0 active torsions:
REMARK  status: ('A' for Active; 'I' for Inactive)
ROOT
ATOM      1  C   UNL d   1      -0.880  -0.032   3.724  0.00  0.00    -0.002 A 
ATOM      2  C1  UNL d   1       0.398  -0.572   3.759  0.00  0.00     0.010 A 
ATOM      3  C2  UNL d   1       1.452   0.053   3.089  0.00  0.00     0.041 A 
ATOM      4  C3  UNL d   1       1.198   1.241   2.377  0.00  0.00    -0.075 A 
ATOM      5  S   UNL d   1       2.333   2.180   1.481  0.00  0.00     0.015 SA
ATOM      6  C4  UNL d   1       1.149   3.320   1.032  0.00  0.00     0.022 A 
ATOM      7  C5  UNL d   1      -0.088   3.008   1.543  0.00  0.00     0.026 A 
ATOM      8  C6  UNL d   1      -0.081   1.805   2.327  0.00  0.00    -0.082 A 
ATOM      9  C7  UNL d   1      -1.128   1.147   3.016  0.00  0.00     0.045 A 
ENDROOT
TORSDOF 0
ENDMDL
