MODEL 1
REMARK minimizedAffinity 11.3995247
REMARK minimizedRMSD -1
REMARK  0 active torsions:
REMARK  status: ('A' for Active; 'I' for Inactive)
ROOT
ATOM      1  C   UNL d   1      -0.534   1.000  -2.250  0.00  0.00    -0.002 A 
ATOM      2  C1  UNL d   1      -1.434   0.065  -1.760  0.00  0.00     0.010 A 
ATOM      3  C2  UNL d   1      -2.774   0.403  -1.563  0.00  0.00     0.041 A 
ATOM      4  C3  UNL d   1      -3.199   1.710  -1.872  0.00  0.00    -0.075 A 
ATOM      5  S   UNL d   1      -4.792   2.350  -1.712  0.00  0.00     0.015 SA
ATOM      6  C4  UNL d   1      -4.316   3.880  -2.293  0.00  0.00     0.022 A 
ATOM      7  C5  UNL d   1      -2.978   3.920  -2.605  0.00  0.00     0.026 A 
ATOM      8  C6  UNL d   1      -2.312   2.670  -2.368  0.00  0.00    -0.082 A 
ATOM      9  C7  UNL d   1      -0.960   2.296  -2.556  0.00  0.00     0.045 A 
ENDROOT
TORSDOF 0
ENDMDL
