MODEL 1
REMARK minimizedAffinity 5.83850574
REMARK minimizedRMSD -1
REMARK  0 active torsions:
REMARK  status: ('A' for Active; 'I' for Inactive)
ROOT
ATOM      1  C   UNL d   1      -1.987   2.917   1.790  0.00  0.00    -0.002 A 
ATOM      2  C1  UNL d   1      -1.094   2.948   0.729  0.00  0.00     0.010 A 
ATOM      3  C2  UNL d   1       0.082   2.197   0.768  0.00  0.00     0.041 A 
ATOM      4  C3  UNL d   1       0.347   1.404   1.902  0.00  0.00    -0.075 A 
ATOM      5  S   UNL d   1       1.723   0.400   2.170  0.00  0.00     0.015 SA
ATOM      6  C4  UNL d   1       1.157  -0.095   3.699  0.00  0.00     0.022 A 
ATOM      7  C5  UNL d   1      -0.051   0.482   4.014  0.00  0.00     0.026 A 
ATOM      8  C6  UNL d   1      -0.538   1.355   2.982  0.00  0.00    -0.082 A 
ATOM      9  C7  UNL d   1      -1.721   2.129   2.913  0.00  0.00     0.045 A 
ENDROOT
TORSDOF 0
ENDMDL
