MODEL 1
REMARK minimizedAffinity -2.77689624
REMARK minimizedRMSD -1
REMARK  0 active torsions:
REMARK  status: ('A' for Active; 'I' for Inactive)
ROOT
ATOM      1  C   UNL d   1      -5.754  -0.710   1.539  0.00  0.00    -0.002 A 
ATOM      2  C1  UNL d   1      -5.337   0.436   2.201  0.00  0.00     0.010 A 
ATOM      3  C2  UNL d   1      -5.154   0.431   3.585  0.00  0.00     0.041 A 
ATOM      4  C3  UNL d   1      -5.398  -0.758   4.300  0.00  0.00    -0.075 A 
ATOM      5  S   UNL d   1      -5.240  -1.000   6.000  0.00  0.00     0.015 SA
ATOM      6  C4  UNL d   1      -5.721  -2.631   5.888  0.00  0.00     0.022 A 
ATOM      7  C5  UNL d   1      -6.000  -2.999   4.592  0.00  0.00     0.026 A 
ATOM      8  C6  UNL d   1      -5.818  -1.926   3.656  0.00  0.00    -0.082 A 
ATOM      9  C7  UNL d   1      -5.995  -1.888   2.252  0.00  0.00     0.045 A 
ENDROOT
TORSDOF 0
ENDMDL
