MODEL 1
REMARK minimizedAffinity -5.5824399
REMARK minimizedRMSD -1
REMARK  0 active torsions:
REMARK  status: ('A' for Active; 'I' for Inactive)
ROOT
ATOM      1  C   UNL d   1       1.440   0.711   0.056  0.00  0.00     0.077 C 
ATOM      2  C1  UNL d   1       0.178   0.288  -0.635  0.00  0.00    -0.074 A 
ATOM      3  C2  UNL d   1      -1.035   0.228   0.058  0.00  0.00    -0.005 A 
ATOM      4  C3  UNL d   1      -2.203  -0.158  -0.601  0.00  0.00     0.006 A 
ATOM      5  C4  UNL d   1      -2.168  -0.488  -1.956  0.00  0.00    -0.005 A 
ATOM      6  C5  UNL d   1      -0.964  -0.432  -2.666  0.00  0.00    -0.074 A 
ATOM      7  C6  UNL d   1      -0.912  -0.774  -4.125  0.00  0.00     0.077 C 
ATOM      8  C7  UNL d   1       0.203  -0.037  -1.998  0.00  0.00    -0.001 A 
ENDROOT
TORSDOF 0
ENDMDL
