MODEL 1
REMARK minimizedAffinity -4.00185347
REMARK minimizedRMSD -1
REMARK  0 active torsions:
REMARK  status: ('A' for Active; 'I' for Inactive)
ROOT
ATOM      1  C   UNL d   1      -1.821  -2.014   1.419  0.00  0.00     0.077 C 
ATOM      2  C1  UNL d   1      -0.966  -1.011   0.704  0.00  0.00    -0.074 A 
ATOM      3  C2  UNL d   1      -1.538  -0.028  -0.110  0.00  0.00    -0.005 A 
ATOM      4  C3  UNL d   1      -0.730   0.904  -0.761  0.00  0.00     0.006 A 
ATOM      5  C4  UNL d   1       0.656   0.863  -0.606  0.00  0.00    -0.005 A 
ATOM      6  C5  UNL d   1       1.246  -0.113   0.204  0.00  0.00    -0.074 A 
ATOM      7  C6  UNL d   1       2.734  -0.165   0.389  0.00  0.00     0.077 C 
ATOM      8  C7  UNL d   1       0.427  -1.041   0.861  0.00  0.00    -0.001 A 
ENDROOT
TORSDOF 0
ENDMDL
