MODEL 1
REMARK minimizedAffinity -4.12859583
REMARK minimizedRMSD -1
REMARK  0 active torsions:
REMARK  status: ('A' for Active; 'I' for Inactive)
ROOT
ATOM      1  C   UNL d   1      -1.081  -2.631   1.221  0.00  0.00     0.077 C 
ATOM      2  C1  UNL d   1      -0.379  -1.354   0.866  0.00  0.00    -0.074 A 
ATOM      3  C2  UNL d   1      -1.096  -0.240   0.418  0.00  0.00    -0.005 A 
ATOM      4  C3  UNL d   1      -0.429   0.944   0.101  0.00  0.00     0.006 A 
ATOM      5  C4  UNL d   1       0.958   1.025   0.227  0.00  0.00    -0.005 A 
ATOM      6  C5  UNL d   1       1.691  -0.079   0.673  0.00  0.00    -0.074 A 
ATOM      7  C6  UNL d   1       3.182  -0.006   0.824  0.00  0.00     0.077 C 
ATOM      8  C7  UNL d   1       1.014  -1.263   0.998  0.00  0.00    -0.001 A 
ENDROOT
TORSDOF 0
ENDMDL
