MODEL 1
REMARK minimizedAffinity -5.15601158
REMARK minimizedRMSD -1
REMARK  0 active torsions:
REMARK  status: ('A' for Active; 'I' for Inactive)
ROOT
ATOM      1  C   UNL d   1      -1.468  -0.347  -0.286  0.00  0.00     0.077 C 
ATOM      2  C1  UNL d   1      -0.112  -0.085   0.300  0.00  0.00    -0.074 A 
ATOM      3  C2  UNL d   1       0.442   1.199   0.284  0.00  0.00    -0.005 A 
ATOM      4  C3  UNL d   1       1.699   1.429   0.842  0.00  0.00     0.006 A 
ATOM      5  C4  UNL d   1       2.415   0.380   1.420  0.00  0.00    -0.005 A 
ATOM      6  C5  UNL d   1       1.877  -0.911   1.445  0.00  0.00    -0.074 A 
ATOM      7  C6  UNL d   1       2.628  -2.048   2.071  0.00  0.00     0.077 C 
ATOM      8  C7  UNL d   1       0.609  -1.133   0.890  0.00  0.00    -0.001 A 
ENDROOT
TORSDOF 0
ENDMDL
