MODEL 1
REMARK minimizedAffinity -2.98695374
REMARK minimizedRMSD -1
REMARK  0 active torsions:
REMARK  status: ('A' for Active; 'I' for Inactive)
ROOT
ATOM      1  C   UNL d   1       3.296   0.918   2.217  0.00  0.00     0.077 C 
ATOM      2  C1  UNL d   1       2.172   0.093   1.665  0.00  0.00    -0.074 A 
ATOM      3  C2  UNL d   1       1.993  -1.236   2.062  0.00  0.00    -0.005 A 
ATOM      4  C3  UNL d   1       0.938  -1.989   1.547  0.00  0.00     0.006 A 
ATOM      5  C4  UNL d   1       0.051  -1.421   0.631  0.00  0.00    -0.005 A 
ATOM      6  C5  UNL d   1       0.213  -0.093   0.223  0.00  0.00    -0.074 A 
ATOM      7  C6  UNL d   1      -0.736   0.536  -0.753  0.00  0.00     0.077 C 
ATOM      8  C7  UNL d   1       1.272   0.659   0.750  0.00  0.00    -0.001 A 
ENDROOT
TORSDOF 0
ENDMDL
