MODEL 1
REMARK minimizedAffinity -4.27072811
REMARK minimizedRMSD -1
REMARK  0 active torsions:
REMARK  status: ('A' for Active; 'I' for Inactive)
ROOT
ATOM      1  C   UNL d   1       3.405  -0.099   0.987  0.00  0.00     0.077 C 
ATOM      2  C1  UNL d   1       1.929   0.063   0.779  0.00  0.00    -0.074 A 
ATOM      3  C2  UNL d   1       1.397   1.271   0.316  0.00  0.00    -0.005 A 
ATOM      4  C3  UNL d   1       0.023   1.404   0.118  0.00  0.00     0.006 A 
ATOM      5  C4  UNL d   1      -0.832   0.333   0.381  0.00  0.00    -0.005 A 
ATOM      6  C5  UNL d   1      -0.319  -0.882   0.844  0.00  0.00    -0.074 A 
ATOM      7  C6  UNL d   1      -1.223  -2.046   1.122  0.00  0.00     0.077 C 
ATOM      8  C7  UNL d   1       1.064  -1.011   1.034  0.00  0.00    -0.001 A 
ENDROOT
TORSDOF 0
ENDMDL
