MODEL 1
REMARK minimizedAffinity -3.98808336
REMARK minimizedRMSD -1
REMARK  0 active torsions:
REMARK  status: ('A' for Active; 'I' for Inactive)
ROOT
ATOM      1  C   UNL d   1      -1.147  -0.594   0.369  0.00  0.00     0.077 C 
ATOM      2  C1  UNL d   1       0.231  -0.021   0.529  0.00  0.00    -0.074 A 
ATOM      3  C2  UNL d   1       0.494   1.316   0.216  0.00  0.00    -0.005 A 
ATOM      4  C3  UNL d   1       1.778   1.836   0.379  0.00  0.00     0.006 A 
ATOM      5  C4  UNL d   1       2.809   1.026   0.857  0.00  0.00    -0.005 A 
ATOM      6  C5  UNL d   1       2.564  -0.313   1.176  0.00  0.00    -0.074 A 
ATOM      7  C6  UNL d   1       3.659  -1.194   1.700  0.00  0.00     0.077 C 
ATOM      8  C7  UNL d   1       1.270  -0.827   1.016  0.00  0.00    -0.001 A 
ENDROOT
TORSDOF 0
ENDMDL
