MODEL 1
REMARK minimizedAffinity -5.25365782
REMARK minimizedRMSD -1
REMARK  1 active torsions:
REMARK  status: ('A' for Active; 'I' for Inactive)
REMARK    1  A    between atoms: N_2  and  C1_3 
ROOT
ATOM      1  C1  UNL d   1      -0.044  -0.068  -0.106  0.00  0.00     0.143 A 
ATOM      2  C2  UNL d   1      -1.424  -0.102   0.120  0.00  0.00    -0.057 A 
ATOM      3  C3  UNL d   1      -1.976   0.371   1.316  0.00  0.00     0.033 A 
ATOM      4  C4  UNL d   1      -1.151   0.863   2.323  0.00  0.00    -0.042 A 
ATOM      5  C5  UNL d   1       0.225   0.884   2.130  0.00  0.00     0.033 A 
ATOM      6  C6  UNL d   1       0.770   0.416   0.930  0.00  0.00    -0.057 A 
ENDROOT
BRANCH   1   7
ATOM      7  N   UNL d   1       0.573  -0.614  -1.234  0.00  0.00    -0.732 N 
ATOM      8  C   UNL d   1       0.906   0.219  -2.370  0.00  0.00     0.284 C 
ATOM      9  H3  UNL d   1       1.291  -1.294  -0.993  0.00  0.00     0.395 HD
ENDBRANCH   1   7
TORSDOF 1
ENDMDL
