MODEL 1
REMARK minimizedAffinity -3.69714093
REMARK minimizedRMSD -1
REMARK  1 active torsions:
REMARK  status: ('A' for Active; 'I' for Inactive)
REMARK    1  A    between atoms: N_2  and  C1_3 
ROOT
ATOM      1  C1  UNL d   1      -0.152  -0.077  -3.832  0.00  0.00     0.143 A 
ATOM      2  C2  UNL d   1      -0.076  -0.861  -2.676  0.00  0.00    -0.057 A 
ATOM      3  C3  UNL d   1       0.960  -0.692  -1.750  0.00  0.00     0.033 A 
ATOM      4  C4  UNL d   1       1.959   0.248  -1.980  0.00  0.00    -0.042 A 
ATOM      5  C5  UNL d   1       1.919   1.021  -3.134  0.00  0.00     0.033 A 
ATOM      6  C6  UNL d   1       0.877   0.852  -4.052  0.00  0.00    -0.057 A 
ENDROOT
BRANCH   1   7
ATOM      7  N   UNL d   1      -1.102  -0.265  -4.839  0.00  0.00    -0.732 N 
ATOM      8  C   UNL d   1      -1.427  -1.595  -5.307  0.00  0.00     0.284 C 
ATOM      9  H3  UNL d   1      -1.908   0.346  -4.730  0.00  0.00     0.395 HD
ENDBRANCH   1   7
TORSDOF 1
ENDMDL
