MODEL 1
REMARK minimizedAffinity -4.31371641
REMARK minimizedRMSD -1
REMARK  1 active torsions:
REMARK  status: ('A' for Active; 'I' for Inactive)
REMARK    1  A    between atoms: N_2  and  C1_3 
ROOT
ATOM      1  C1  UNL d   1      -0.689   0.471   0.137  0.00  0.00     0.143 A 
ATOM      2  C2  UNL d   1      -1.815   0.080   0.869  0.00  0.00    -0.057 A 
ATOM      3  C3  UNL d   1      -1.993   0.482   2.198  0.00  0.00     0.033 A 
ATOM      4  C4  UNL d   1      -1.028   1.260   2.831  0.00  0.00    -0.042 A 
ATOM      5  C5  UNL d   1       0.111   1.639   2.131  0.00  0.00     0.033 A 
ATOM      6  C6  UNL d   1       0.280   1.240   0.801  0.00  0.00    -0.057 A 
ENDROOT
BRANCH   1   7
ATOM      7  N   UNL d   1      -0.407   0.022  -1.156  0.00  0.00    -0.732 N 
ATOM      8  C   UNL d   1       0.875  -0.572  -1.467  0.00  0.00     0.284 C 
ATOM      9  H3  UNL d   1      -1.200  -0.451  -1.584  0.00  0.00     0.395 HD
ENDBRANCH   1   7
TORSDOF 1
ENDMDL
