MODEL 1
REMARK minimizedAffinity -3.32929516
REMARK minimizedRMSD -1
REMARK  1 active torsions:
REMARK  status: ('A' for Active; 'I' for Inactive)
REMARK    1  A    between atoms: N_2  and  C1_3 
ROOT
ATOM      1  C1  UNL d   1      -1.463   0.503   1.019  0.00  0.00     0.143 A 
ATOM      2  C2  UNL d   1      -1.298   0.866   2.360  0.00  0.00    -0.057 A 
ATOM      3  C3  UNL d   1      -0.026   0.957   2.936  0.00  0.00     0.033 A 
ATOM      4  C4  UNL d   1       1.107   0.658   2.186  0.00  0.00    -0.042 A 
ATOM      5  C5  UNL d   1       0.966   0.271   0.858  0.00  0.00     0.033 A 
ATOM      6  C6  UNL d   1      -0.308   0.188   0.287  0.00  0.00    -0.057 A 
ENDROOT
BRANCH   1   7
ATOM      7  N   UNL d   1      -2.707   0.299   0.415  0.00  0.00    -0.732 N 
ATOM      8  C   UNL d   1      -2.950  -0.877  -0.391  0.00  0.00     0.284 C 
ATOM      9  H3  UNL d   1      -3.481   0.553   1.025  0.00  0.00     0.395 HD
ENDBRANCH   1   7
TORSDOF 1
ENDMDL
