MODEL 1
REMARK minimizedAffinity -3.11615777
REMARK minimizedRMSD -1
REMARK  1 active torsions:
REMARK  status: ('A' for Active; 'I' for Inactive)
REMARK    1  A    between atoms: N_2  and  C1_3 
ROOT
ATOM      1  C1  UNL d   1       0.615  -0.374  -2.561  0.00  0.00     0.143 A 
ATOM      2  C2  UNL d   1       1.688   0.508  -2.724  0.00  0.00    -0.057 A 
ATOM      3  C3  UNL d   1       2.171   0.838  -3.997  0.00  0.00     0.033 A 
ATOM      4  C4  UNL d   1       1.604   0.267  -5.131  0.00  0.00    -0.042 A 
ATOM      5  C5  UNL d   1       0.552  -0.632  -4.992  0.00  0.00     0.033 A 
ATOM      6  C6  UNL d   1       0.070  -0.952  -3.719  0.00  0.00    -0.057 A 
ENDROOT
BRANCH   1   7
ATOM      7  N   UNL d   1       0.154  -0.817  -1.319  0.00  0.00    -0.732 N 
ATOM      8  C   UNL d   1      -0.906  -0.112  -0.632  0.00  0.00     0.284 C 
ATOM      9  H3  UNL d   1       0.077  -1.831  -1.273  0.00  0.00     0.395 HD
ENDBRANCH   1   7
TORSDOF 1
ENDMDL
