MODEL 1
REMARK minimizedAffinity -4.10972691
REMARK minimizedRMSD -1
REMARK  1 active torsions:
REMARK  status: ('A' for Active; 'I' for Inactive)
REMARK    1  A    between atoms: N_2  and  C1_3 
ROOT
ATOM      1  C1  UNL d   1       0.307  -0.119  -1.303  0.00  0.00     0.143 A 
ATOM      2  C2  UNL d   1       1.414  -0.825  -1.786  0.00  0.00    -0.057 A 
ATOM      3  C3  UNL d   1       1.813  -0.723  -3.124  0.00  0.00     0.033 A 
ATOM      4  C4  UNL d   1       1.092   0.068  -4.012  0.00  0.00    -0.042 A 
ATOM      5  C5  UNL d   1      -0.026   0.759  -3.560  0.00  0.00     0.033 A 
ATOM      6  C6  UNL d   1      -0.416   0.658  -2.221  0.00  0.00    -0.057 A 
ENDROOT
BRANCH   1   7
ATOM      7  N   UNL d   1      -0.198  -0.255  -0.007  0.00  0.00    -0.732 N 
ATOM      8  C   UNL d   1      -1.385   0.464   0.401  0.00  0.00     0.284 C 
ATOM      9  H3  UNL d   1      -0.159  -1.216   0.326  0.00  0.00     0.395 HD
ENDBRANCH   1   7
TORSDOF 1
ENDMDL
