MODEL 1
REMARK minimizedAffinity 3.30617976
REMARK minimizedRMSD -1
REMARK  0 active torsions:
REMARK  status: ('A' for Active; 'I' for Inactive)
ROOT
ATOM      1  C   UNL d   1      -4.906   2.348   4.279  0.00  0.00     0.172 C 
ATOM      2  N   UNL d   1      -4.134   1.450   3.453  0.00  0.00    -0.070 N 
ATOM      3  C1  UNL d   1      -4.577   0.263   2.933  0.00  0.00    -0.004 A 
ATOM      4  C2  UNL d   1      -3.546  -0.291   2.207  0.00  0.00    -0.047 A 
ATOM      5  C3  UNL d   1      -2.444   0.593   2.294  0.00  0.00    -0.047 A 
ATOM      6  C4  UNL d   1      -2.835   1.662   3.072  0.00  0.00    -0.004 A 
ENDROOT
TORSDOF 0
ENDMDL
