MODEL 1
REMARK minimizedAffinity 4.08277369
REMARK minimizedRMSD -1
REMARK  0 active torsions:
REMARK  status: ('A' for Active; 'I' for Inactive)
ROOT
ATOM      1  C   UNL d   1      -6.000  -1.980  -5.983  0.00  0.00     0.172 C 
ATOM      2  N   UNL d   1      -4.964  -2.915  -5.611  0.00  0.00    -0.070 N 
ATOM      3  C1  UNL d   1      -3.879  -2.634  -4.824  0.00  0.00    -0.004 A 
ATOM      4  C2  UNL d   1      -3.133  -3.786  -4.707  0.00  0.00    -0.047 A 
ATOM      5  C3  UNL d   1      -3.791  -4.795  -5.449  0.00  0.00    -0.047 A 
ATOM      6  C4  UNL d   1      -4.922  -4.228  -5.999  0.00  0.00    -0.004 A 
ENDROOT
TORSDOF 0
ENDMDL
