MODEL 1
REMARK minimizedAffinity 5.27054787
REMARK minimizedRMSD -1
REMARK  0 active torsions:
REMARK  status: ('A' for Active; 'I' for Inactive)
ROOT
ATOM      1  C   UNL d   1      -0.383   4.094   5.998  0.00  0.00     0.172 C 
ATOM      2  N   UNL d   1       0.120   2.894   5.372  0.00  0.00    -0.070 N 
ATOM      3  C1  UNL d   1       0.825   1.902   5.999  0.00  0.00    -0.004 A 
ATOM      4  C2  UNL d   1       1.120   0.936   5.061  0.00  0.00    -0.047 A 
ATOM      5  C3  UNL d   1       0.574   1.363   3.827  0.00  0.00    -0.047 A 
ATOM      6  C4  UNL d   1      -0.039   2.578   4.048  0.00  0.00    -0.004 A 
ENDROOT
TORSDOF 0
ENDMDL
