MODEL 1
REMARK minimizedAffinity 7.21445751
REMARK minimizedRMSD -1
REMARK  0 active torsions:
REMARK  status: ('A' for Active; 'I' for Inactive)
ROOT
ATOM      1  C   UNL d   1      -1.810  -0.650  -3.240  0.00  0.00     0.172 C 
ATOM      2  N   UNL d   1      -1.894  -2.092  -3.210  0.00  0.00    -0.070 N 
ATOM      3  C1  UNL d   1      -3.006  -2.833  -3.506  0.00  0.00    -0.004 A 
ATOM      4  C2  UNL d   1      -2.678  -4.164  -3.361  0.00  0.00    -0.047 A 
ATOM      5  C3  UNL d   1      -1.321  -4.224  -2.962  0.00  0.00    -0.047 A 
ATOM      6  C4  UNL d   1      -0.861  -2.927  -2.877  0.00  0.00    -0.004 A 
ENDROOT
TORSDOF 0
ENDMDL
