MODEL 1
REMARK minimizedAffinity 0.930449843
REMARK minimizedRMSD -1
REMARK  0 active torsions:
REMARK  status: ('A' for Active; 'I' for Inactive)
ROOT
ATOM      1  C   UNL d   1      -2.774  -4.123  -4.381  0.00  0.00     0.172 C 
ATOM      2  N   UNL d   1      -4.050  -4.280  -5.039  0.00  0.00    -0.070 N 
ATOM      3  C1  UNL d   1      -4.622  -5.471  -5.397  0.00  0.00    -0.004 A 
ATOM      4  C2  UNL d   1      -5.832  -5.194  -5.997  0.00  0.00    -0.047 A 
ATOM      5  C3  UNL d   1      -5.992  -3.788  -6.000  0.00  0.00    -0.047 A 
ATOM      6  C4  UNL d   1      -4.874  -3.247  -5.401  0.00  0.00    -0.004 A 
ENDROOT
TORSDOF 0
ENDMDL
