MODEL 1
REMARK minimizedAffinity 2.8595283
REMARK minimizedRMSD -1
REMARK  0 active torsions:
REMARK  status: ('A' for Active; 'I' for Inactive)
ROOT
ATOM      1  C   UNL d   1      -1.344   2.960  -5.816  0.00  0.00     0.172 C 
ATOM      2  N   UNL d   1      -2.343   4.000  -5.884  0.00  0.00    -0.070 N 
ATOM      3  C1  UNL d   1      -2.093   5.347  -5.898  0.00  0.00    -0.004 A 
ATOM      4  C2  UNL d   1      -3.305   6.000  -5.970  0.00  0.00    -0.047 A 
ATOM      5  C3  UNL d   1      -4.317   5.011  -6.000  0.00  0.00    -0.047 A 
ATOM      6  C4  UNL d   1      -3.694   3.783  -5.946  0.00  0.00    -0.004 A 
ENDROOT
TORSDOF 0
ENDMDL
