MODEL 1
REMARK minimizedAffinity 0.564460039
REMARK minimizedRMSD -1
REMARK  0 active torsions:
REMARK  status: ('A' for Active; 'I' for Inactive)
ROOT
ATOM      1  C   UNL d   1      -2.791   5.979  -5.999  0.00  0.00     0.172 C 
ATOM      2  N   UNL d   1      -2.530   4.599  -5.665  0.00  0.00    -0.070 N 
ATOM      3  C1  UNL d   1      -3.377   3.769  -4.980  0.00  0.00    -0.004 A 
ATOM      4  C2  UNL d   1      -2.763   2.540  -4.866  0.00  0.00    -0.047 A 
ATOM      5  C3  UNL d   1      -1.503   2.635  -5.504  0.00  0.00    -0.047 A 
ATOM      6  C4  UNL d   1      -1.385   3.920  -5.989  0.00  0.00    -0.004 A 
ENDROOT
TORSDOF 0
ENDMDL
