MODEL 1
REMARK minimizedAffinity 10.1487398
REMARK minimizedRMSD -1
REMARK  0 active torsions:
REMARK  status: ('A' for Active; 'I' for Inactive)
ROOT
ATOM      1  C   UNL d   1      -0.267  -2.142  -3.471  0.00  0.00     0.172 C 
ATOM      2  N   UNL d   1       0.774  -1.576  -4.296  0.00  0.00    -0.070 N 
ATOM      3  C1  UNL d   1       1.132  -2.014  -5.543  0.00  0.00    -0.004 A 
ATOM      4  C2  UNL d   1       2.160  -1.214  -5.992  0.00  0.00    -0.047 A 
ATOM      5  C3  UNL d   1       2.430  -0.262  -4.980  0.00  0.00    -0.047 A 
ATOM      6  C4  UNL d   1       1.558  -0.509  -3.941  0.00  0.00    -0.004 A 
ENDROOT
TORSDOF 0
ENDMDL
