MODEL 1
REMARK minimizedAffinity 6.02664661
REMARK minimizedRMSD -1
REMARK  0 active torsions:
REMARK  status: ('A' for Active; 'I' for Inactive)
ROOT
ATOM      1  C   UNL d   1      -2.138   1.208   2.546  0.00  0.00     0.172 C 
ATOM      2  N   UNL d   1      -3.417   1.414   3.184  0.00  0.00    -0.070 N 
ATOM      3  C1  UNL d   1      -3.808   2.551   3.840  0.00  0.00    -0.004 A 
ATOM      4  C2  UNL d   1      -5.090   2.351   4.304  0.00  0.00    -0.047 A 
ATOM      5  C3  UNL d   1      -5.483   1.049   3.915  0.00  0.00    -0.047 A 
ATOM      6  C4  UNL d   1      -4.428   0.491   3.223  0.00  0.00    -0.004 A 
ENDROOT
TORSDOF 0
ENDMDL
