MODEL 1
REMARK minimizedAffinity 14.1859484
REMARK minimizedRMSD -1
REMARK  0 active torsions:
REMARK  status: ('A' for Active; 'I' for Inactive)
ROOT
ATOM      1  C   UNL d   1       3.194   5.997  -2.519  0.00  0.00     0.172 C 
ATOM      2  N   UNL d   1       2.330   5.677  -1.407  0.00  0.00    -0.070 N 
ATOM      3  C1  UNL d   1       2.564   6.000  -0.096  0.00  0.00    -0.004 A 
ATOM      4  C2  UNL d   1       1.509   5.521   0.650  0.00  0.00    -0.047 A 
ATOM      5  C3  UNL d   1       0.612   4.888  -0.242  0.00  0.00    -0.047 A 
ATOM      6  C4  UNL d   1       1.144   4.999  -1.508  0.00  0.00    -0.004 A 
ENDROOT
TORSDOF 0
ENDMDL
