MODEL 1
REMARK minimizedAffinity 12.3216753
REMARK minimizedRMSD -1
REMARK  0 active torsions:
REMARK  status: ('A' for Active; 'I' for Inactive)
ROOT
ATOM      1  C   UNL d   1      -3.661  -3.424  -4.467  0.00  0.00     0.172 C 
ATOM      2  N   UNL d   1      -2.623  -3.870  -3.567  0.00  0.00    -0.070 N 
ATOM      3  C1  UNL d   1      -1.380  -3.309  -3.442  0.00  0.00    -0.004 A 
ATOM      4  C2  UNL d   1      -0.691  -4.019  -2.483  0.00  0.00    -0.047 A 
ATOM      5  C3  UNL d   1      -1.550  -5.042  -2.016  0.00  0.00    -0.047 A 
ATOM      6  C4  UNL d   1      -2.739  -4.927  -2.704  0.00  0.00    -0.004 A 
ENDROOT
TORSDOF 0
ENDMDL
