MODEL 1
REMARK minimizedAffinity -0.787887275
REMARK minimizedRMSD -1
REMARK  0 active torsions:
REMARK  status: ('A' for Active; 'I' for Inactive)
ROOT
ATOM      1  C   UNL d   1      -5.586  -4.763  -5.996  0.00  0.00     0.172 C 
ATOM      2  N   UNL d   1      -4.269  -4.521  -5.455  0.00  0.00    -0.070 N 
ATOM      3  C1  UNL d   1      -3.321  -3.696  -6.000  0.00  0.00    -0.004 A 
ATOM      4  C2  UNL d   1      -2.208  -3.739  -5.188  0.00  0.00    -0.047 A 
ATOM      5  C3  UNL d   1      -2.497  -4.621  -4.119  0.00  0.00    -0.047 A 
ATOM      6  C4  UNL d   1      -3.779  -5.091  -4.310  0.00  0.00    -0.004 A 
ENDROOT
TORSDOF 0
ENDMDL
