MODEL 1
REMARK minimizedAffinity 7.12068987
REMARK minimizedRMSD -1
REMARK  0 active torsions:
REMARK  status: ('A' for Active; 'I' for Inactive)
ROOT
ATOM      1  C   UNL d   1      -4.844  -1.520   1.766  0.00  0.00     0.172 C 
ATOM      2  N   UNL d   1      -3.805  -0.588   2.137  0.00  0.00    -0.070 N 
ATOM      3  C1  UNL d   1      -2.531  -0.571   1.633  0.00  0.00    -0.004 A 
ATOM      4  C2  UNL d   1      -1.852   0.465   2.238  0.00  0.00    -0.047 A 
ATOM      5  C3  UNL d   1      -2.748   1.091   3.137  0.00  0.00    -0.047 A 
ATOM      6  C4  UNL d   1      -3.950   0.419   3.054  0.00  0.00    -0.004 A 
ENDROOT
TORSDOF 0
ENDMDL
