MODEL 1
REMARK minimizedAffinity 2.19901967
REMARK minimizedRMSD -1
REMARK  0 active torsions:
REMARK  status: ('A' for Active; 'I' for Inactive)
ROOT
ATOM      1  C   UNL d   1      -2.659   0.305   5.986  0.00  0.00     0.172 C 
ATOM      2  N   UNL d   1      -2.949   1.152   4.853  0.00  0.00    -0.070 N 
ATOM      3  C1  UNL d   1      -3.973   0.971   3.963  0.00  0.00    -0.004 A 
ATOM      4  C2  UNL d   1      -3.909   1.988   3.034  0.00  0.00    -0.047 A 
ATOM      5  C3  UNL d   1      -2.808   2.807   3.378  0.00  0.00    -0.047 A 
ATOM      6  C4  UNL d   1      -2.231   2.267   4.508  0.00  0.00    -0.004 A 
ENDROOT
TORSDOF 0
ENDMDL
