MODEL 1
REMARK minimizedAffinity 0.767203152
REMARK minimizedRMSD -1
REMARK  0 active torsions:
REMARK  status: ('A' for Active; 'I' for Inactive)
ROOT
ATOM      1  C   UNL d   1       1.040   3.086   1.110  0.00  0.00     0.172 C 
ATOM      2  N   UNL d   1       1.130   3.322  -0.312  0.00  0.00    -0.070 N 
ATOM      3  C1  UNL d   1       1.208   2.355  -1.278  0.00  0.00    -0.004 A 
ATOM      4  C2  UNL d   1       1.279   2.985  -2.502  0.00  0.00    -0.047 A 
ATOM      5  C3  UNL d   1       1.244   4.380  -2.262  0.00  0.00    -0.047 A 
ATOM      6  C4  UNL d   1       1.152   4.560  -0.899  0.00  0.00    -0.004 A 
ENDROOT
TORSDOF 0
ENDMDL
