MODEL 1
REMARK minimizedAffinity 4.56051445
REMARK minimizedRMSD -1
REMARK  0 active torsions:
REMARK  status: ('A' for Active; 'I' for Inactive)
ROOT
ATOM      1  C   UNL d   1      -0.833  -1.110   0.234  0.00  0.00    -0.002 A 
ATOM      2  C1  UNL d   1      -0.764  -0.368   1.404  0.00  0.00     0.010 A 
ATOM      3  C2  UNL d   1       0.055   0.760   1.483  0.00  0.00     0.041 A 
ATOM      4  C3  UNL d   1       0.810   1.134   0.354  0.00  0.00    -0.075 A 
ATOM      5  S   UNL d   1       1.881   2.478   0.218  0.00  0.00     0.015 SA
ATOM      6  C4  UNL d   1       2.272   2.099  -1.397  0.00  0.00     0.022 A 
ATOM      7  C5  UNL d   1       1.611   0.977  -1.838  0.00  0.00     0.026 A 
ATOM      8  C6  UNL d   1       0.757   0.403  -0.836  0.00  0.00    -0.082 A 
ATOM      9  C7  UNL d   1      -0.083  -0.736  -0.884  0.00  0.00     0.045 A 
ENDROOT
TORSDOF 0
ENDMDL
