MODEL 1
REMARK minimizedAffinity 8.61988258
REMARK minimizedRMSD -1
REMARK  0 active torsions:
REMARK  status: ('A' for Active; 'I' for Inactive)
ROOT
ATOM      1  C   UNL d   1      -1.064   1.068   3.909  0.00  0.00    -0.002 A 
ATOM      2  C1  UNL d   1      -1.911   0.471   2.984  0.00  0.00     0.010 A 
ATOM      3  C2  UNL d   1      -1.397  -0.120   1.829  0.00  0.00     0.041 A 
ATOM      4  C3  UNL d   1      -0.004  -0.104   1.617  0.00  0.00    -0.075 A 
ATOM      5  S   UNL d   1       0.851  -0.768   0.275  0.00  0.00     0.015 SA
ATOM      6  C4  UNL d   1       2.359  -0.277   0.897  0.00  0.00     0.022 A 
ATOM      7  C5  UNL d   1       2.233   0.379   2.098  0.00  0.00     0.026 A 
ATOM      8  C6  UNL d   1       0.869   0.489   2.533  0.00  0.00    -0.082 A 
ATOM      9  C7  UNL d   1       0.317   1.081   3.695  0.00  0.00     0.045 A 
ENDROOT
TORSDOF 0
ENDMDL
