MODEL 1
REMARK minimizedAffinity -3.91846871
REMARK minimizedRMSD -1
REMARK  0 active torsions:
REMARK  status: ('A' for Active; 'I' for Inactive)
ROOT
ATOM      1  C   UNL d   1       4.837  -2.632   5.603  0.00  0.00     0.078 C 
ATOM      2  C1  UNL d   1       5.250  -3.123   4.248  0.00  0.00    -0.077 A 
ATOM      3  C2  UNL d   1       5.627  -2.227   3.240  0.00  0.00    -0.001 A 
ATOM      4  C3  UNL d   1       6.000  -2.697   1.980  0.00  0.00     0.003 A 
ATOM      5  C4  UNL d   1       5.999  -4.066   1.716  0.00  0.00    -0.005 A 
ATOM      6  C5  UNL d   1       5.624  -4.965   2.712  0.00  0.00     0.003 A 
ATOM      7  C6  UNL d   1       5.250  -4.496   3.973  0.00  0.00    -0.001 A 
ENDROOT
TORSDOF 0
ENDMDL
