MODEL 1
REMARK minimizedAffinity -2.98442793
REMARK minimizedRMSD -1
REMARK  0 active torsions:
REMARK  status: ('A' for Active; 'I' for Inactive)
ROOT
ATOM      1  C   UNL d   1       5.862  -4.125   1.666  0.00  0.00     0.078 C 
ATOM      2  C1  UNL d   1       5.828  -3.762   3.121  0.00  0.00    -0.077 A 
ATOM      3  C2  UNL d   1       5.646  -2.436   3.529  0.00  0.00    -0.001 A 
ATOM      4  C3  UNL d   1       5.627  -2.111   4.887  0.00  0.00     0.003 A 
ATOM      5  C4  UNL d   1       5.790  -3.108   5.847  0.00  0.00    -0.005 A 
ATOM      6  C5  UNL d   1       5.974  -4.431   5.449  0.00  0.00     0.003 A 
ATOM      7  C6  UNL d   1       5.993  -4.757   4.092  0.00  0.00    -0.001 A 
ENDROOT
TORSDOF 0
ENDMDL
