MODEL 1
REMARK minimizedAffinity -3.68270445
REMARK minimizedRMSD -1
REMARK  0 active torsions:
REMARK  status: ('A' for Active; 'I' for Inactive)
ROOT
ATOM      1  C   UNL d   1       6.000  -5.443   5.066  0.00  0.00     0.078 C 
ATOM      2  C1  UNL d   1       5.825  -4.320   4.087  0.00  0.00    -0.077 A 
ATOM      3  C2  UNL d   1       5.806  -4.562   2.708  0.00  0.00    -0.001 A 
ATOM      4  C3  UNL d   1       5.653  -3.506   1.808  0.00  0.00     0.003 A 
ATOM      5  C4  UNL d   1       5.517  -2.201   2.278  0.00  0.00    -0.005 A 
ATOM      6  C5  UNL d   1       5.536  -1.950   3.648  0.00  0.00     0.003 A 
ATOM      7  C6  UNL d   1       5.690  -3.005   4.549  0.00  0.00    -0.001 A 
ENDROOT
TORSDOF 0
ENDMDL
