MODEL 1
REMARK minimizedAffinity -2.60459447
REMARK minimizedRMSD -1
REMARK  0 active torsions:
REMARK  status: ('A' for Active; 'I' for Inactive)
ROOT
ATOM      1  C   UNL d   1       4.849  -5.939   4.942  0.00  0.00     0.078 C 
ATOM      2  C1  UNL d   1       5.245  -5.069   3.786  0.00  0.00    -0.077 A 
ATOM      3  C2  UNL d   1       5.624  -5.628   2.560  0.00  0.00    -0.001 A 
ATOM      4  C3  UNL d   1       6.000  -4.807   1.495  0.00  0.00     0.003 A 
ATOM      5  C4  UNL d   1       6.000  -3.422   1.647  0.00  0.00    -0.005 A 
ATOM      6  C5  UNL d   1       5.626  -2.856   2.864  0.00  0.00     0.003 A 
ATOM      7  C6  UNL d   1       5.250  -3.676   3.930  0.00  0.00    -0.001 A 
ENDROOT
TORSDOF 0
ENDMDL
