MODEL 1
REMARK minimizedAffinity -3.62998796
REMARK minimizedRMSD -1
REMARK  0 active torsions:
REMARK  status: ('A' for Active; 'I' for Inactive)
ROOT
ATOM      1  C   UNL d   1       5.998  -4.898   2.382  0.00  0.00     0.078 C 
ATOM      2  C1  UNL d   1       5.565  -4.145   3.605  0.00  0.00    -0.077 A 
ATOM      3  C2  UNL d   1       5.784  -2.767   3.719  0.00  0.00    -0.001 A 
ATOM      4  C3  UNL d   1       5.386  -2.082   4.867  0.00  0.00     0.003 A 
ATOM      5  C4  UNL d   1       4.767  -2.766   5.911  0.00  0.00    -0.005 A 
ATOM      6  C5  UNL d   1       4.547  -4.138   5.808  0.00  0.00     0.003 A 
ATOM      7  C6  UNL d   1       4.945  -4.825   4.660  0.00  0.00    -0.001 A 
ENDROOT
TORSDOF 0
ENDMDL
