MODEL 1
REMARK minimizedAffinity -3.79170656
REMARK minimizedRMSD -1
REMARK  0 active torsions:
REMARK  status: ('A' for Active; 'I' for Inactive)
ROOT
ATOM      1  C   UNL d   1       6.000  -2.608   1.935  0.00  0.00     0.078 C 
ATOM      2  C1  UNL d   1       5.474  -3.023   3.277  0.00  0.00    -0.077 A 
ATOM      3  C2  UNL d   1       5.718  -2.249   4.418  0.00  0.00    -0.001 A 
ATOM      4  C3  UNL d   1       5.231  -2.652   5.662  0.00  0.00     0.003 A 
ATOM      5  C4  UNL d   1       4.496  -3.831   5.777  0.00  0.00    -0.005 A 
ATOM      6  C5  UNL d   1       4.250  -4.609   4.647  0.00  0.00     0.003 A 
ATOM      7  C6  UNL d   1       4.737  -4.207   3.402  0.00  0.00    -0.001 A 
ENDROOT
TORSDOF 0
ENDMDL
