MODEL 1
REMARK minimizedAffinity -3.76030874
REMARK minimizedRMSD -1
REMARK  0 active torsions:
REMARK  status: ('A' for Active; 'I' for Inactive)
ROOT
ATOM      1  C   UNL d   1       5.943  -3.856   1.249  0.00  0.00     0.078 C 
ATOM      2  C1  UNL d   1       5.562  -3.737   2.695  0.00  0.00    -0.077 A 
ATOM      3  C2  UNL d   1       5.362  -2.484   3.287  0.00  0.00    -0.001 A 
ATOM      4  C3  UNL d   1       5.017  -2.387   4.636  0.00  0.00     0.003 A 
ATOM      5  C4  UNL d   1       4.872  -3.540   5.405  0.00  0.00    -0.005 A 
ATOM      6  C5  UNL d   1       5.071  -4.792   4.825  0.00  0.00     0.003 A 
ATOM      7  C6  UNL d   1       5.415  -4.890   3.476  0.00  0.00    -0.001 A 
ENDROOT
TORSDOF 0
ENDMDL
