MODEL 1
REMARK minimizedAffinity -2.31213689
REMARK minimizedRMSD -1
REMARK  0 active torsions:
REMARK  status: ('A' for Active; 'I' for Inactive)
ROOT
ATOM      1  C   UNL d   1       5.999  -2.582   1.948  0.00  0.00     0.078 C 
ATOM      2  C1  UNL d   1       5.730  -3.304   3.235  0.00  0.00    -0.077 A 
ATOM      3  C2  UNL d   1       5.999  -4.672   3.365  0.00  0.00    -0.001 A 
ATOM      4  C3  UNL d   1       5.734  -5.333   4.565  0.00  0.00     0.003 A 
ATOM      5  C4  UNL d   1       5.196  -4.634   5.644  0.00  0.00    -0.005 A 
ATOM      6  C5  UNL d   1       4.923  -3.273   5.524  0.00  0.00     0.003 A 
ATOM      7  C6  UNL d   1       5.187  -2.611   4.324  0.00  0.00    -0.001 A 
ENDROOT
TORSDOF 0
ENDMDL
