MODEL 1
REMARK minimizedAffinity -3.6127305
REMARK minimizedRMSD -1
REMARK  0 active torsions:
REMARK  status: ('A' for Active; 'I' for Inactive)
ROOT
ATOM      1  C   UNL d   1       5.963  -2.348   1.993  0.00  0.00     0.078 C 
ATOM      2  C1  UNL d   1       5.634  -3.057   3.272  0.00  0.00    -0.077 A 
ATOM      3  C2  UNL d   1       5.279  -2.342   4.422  0.00  0.00    -0.001 A 
ATOM      4  C3  UNL d   1       4.985  -3.015   5.609  0.00  0.00     0.003 A 
ATOM      5  C4  UNL d   1       5.043  -4.406   5.658  0.00  0.00    -0.005 A 
ATOM      6  C5  UNL d   1       5.397  -5.126   4.519  0.00  0.00     0.003 A 
ATOM      7  C6  UNL d   1       5.692  -4.455   3.331  0.00  0.00    -0.001 A 
ENDROOT
TORSDOF 0
ENDMDL
