MODEL 1
REMARK minimizedAffinity -3.65614986
REMARK minimizedRMSD -1
REMARK  0 active torsions:
REMARK  status: ('A' for Active; 'I' for Inactive)
ROOT
ATOM      1  C   UNL d   1       5.420  -2.408   5.999  0.00  0.00     0.078 C 
ATOM      2  C1  UNL d   1       5.614  -2.982   4.627  0.00  0.00    -0.077 A 
ATOM      3  C2  UNL d   1       5.796  -4.358   4.440  0.00  0.00    -0.001 A 
ATOM      4  C3  UNL d   1       5.985  -4.877   3.159  0.00  0.00     0.003 A 
ATOM      5  C4  UNL d   1       5.995  -4.028   2.054  0.00  0.00    -0.005 A 
ATOM      6  C5  UNL d   1       5.817  -2.657   2.230  0.00  0.00     0.003 A 
ATOM      7  C6  UNL d   1       5.628  -2.136   3.511  0.00  0.00    -0.001 A 
ENDROOT
TORSDOF 0
ENDMDL
