MODEL 1
REMARK minimizedAffinity -3.18111682
REMARK minimizedRMSD -1
REMARK  0 active torsions:
REMARK  status: ('A' for Active; 'I' for Inactive)
ROOT
ATOM      1  C   UNL d   1       5.980  -5.987   2.804  0.00  0.00     0.078 C 
ATOM      2  C1  UNL d   1       5.547  -4.961   3.808  0.00  0.00    -0.077 A 
ATOM      3  C2  UNL d   1       5.096  -5.340   5.078  0.00  0.00    -0.001 A 
ATOM      4  C3  UNL d   1       4.686  -4.374   5.999  0.00  0.00     0.003 A 
ATOM      5  C4  UNL d   1       4.723  -3.023   5.659  0.00  0.00    -0.005 A 
ATOM      6  C5  UNL d   1       5.168  -2.637   4.397  0.00  0.00     0.003 A 
ATOM      7  C6  UNL d   1       5.578  -3.601   3.475  0.00  0.00    -0.001 A 
ENDROOT
TORSDOF 0
ENDMDL
