MODEL 1
REMARK minimizedAffinity -2.75045824
REMARK minimizedRMSD -1
REMARK  0 active torsions:
REMARK  status: ('A' for Active; 'I' for Inactive)
ROOT
ATOM      1  C   UNL d   1       4.266  -5.441   5.260  0.00  0.00     0.078 C 
ATOM      2  C1  UNL d   1       4.866  -4.508   4.251  0.00  0.00    -0.077 A 
ATOM      3  C2  UNL d   1       5.428  -4.995   3.064  0.00  0.00    -0.001 A 
ATOM      4  C3  UNL d   1       5.991  -4.116   2.138  0.00  0.00     0.003 A 
ATOM      5  C4  UNL d   1       5.999  -2.745   2.389  0.00  0.00    -0.005 A 
ATOM      6  C5  UNL d   1       5.444  -2.252   3.568  0.00  0.00     0.003 A 
ATOM      7  C6  UNL d   1       4.881  -3.129   4.495  0.00  0.00    -0.001 A 
ENDROOT
TORSDOF 0
ENDMDL
