MODEL 1
REMARK minimizedAffinity -3.80076361
REMARK minimizedRMSD -1
REMARK  0 active torsions:
REMARK  status: ('A' for Active; 'I' for Inactive)
ROOT
ATOM      1  C   UNL d   1       5.818  -5.264   5.965  0.00  0.00     0.078 C 
ATOM      2  C1  UNL d   1       5.785  -4.295   4.822  0.00  0.00    -0.077 A 
ATOM      3  C2  UNL d   1       5.529  -2.935   5.037  0.00  0.00    -0.001 A 
ATOM      4  C3  UNL d   1       5.492  -2.045   3.962  0.00  0.00     0.003 A 
ATOM      5  C4  UNL d   1       5.708  -2.505   2.665  0.00  0.00    -0.005 A 
ATOM      6  C5  UNL d   1       5.962  -3.857   2.441  0.00  0.00     0.003 A 
ATOM      7  C6  UNL d   1       5.999  -4.748   3.514  0.00  0.00    -0.001 A 
ENDROOT
TORSDOF 0
ENDMDL
