MODEL 1
REMARK minimizedAffinity -2.93965006
REMARK minimizedRMSD -1
REMARK  0 active torsions:
REMARK  status: ('A' for Active; 'I' for Inactive)
ROOT
ATOM      1  C   UNL d   1       5.997  -4.885   2.202  0.00  0.00     0.078 C 
ATOM      2  C1  UNL d   1       5.750  -4.212   3.519  0.00  0.00    -0.077 A 
ATOM      3  C2  UNL d   1       5.990  -2.843   3.686  0.00  0.00    -0.001 A 
ATOM      4  C3  UNL d   1       5.765  -2.231   4.921  0.00  0.00     0.003 A 
ATOM      5  C4  UNL d   1       5.299  -2.982   5.998  0.00  0.00    -0.005 A 
ATOM      6  C5  UNL d   1       5.059  -4.346   5.842  0.00  0.00     0.003 A 
ATOM      7  C6  UNL d   1       5.284  -4.959   4.609  0.00  0.00    -0.001 A 
ENDROOT
TORSDOF 0
ENDMDL
