MODEL 1
REMARK minimizedAffinity -2.61944342
REMARK minimizedRMSD -1
REMARK  0 active torsions:
REMARK  status: ('A' for Active; 'I' for Inactive)
ROOT
ATOM      1  C   UNL d   1       5.807  -4.131   5.654  0.00  0.00     0.078 C 
ATOM      2  C1  UNL d   1       5.814  -3.479   4.304  0.00  0.00    -0.077 A 
ATOM      3  C2  UNL d   1       5.624  -2.098   4.169  0.00  0.00    -0.001 A 
ATOM      4  C3  UNL d   1       5.623  -1.506   2.905  0.00  0.00     0.003 A 
ATOM      5  C4  UNL d   1       5.810  -2.287   1.767  0.00  0.00    -0.005 A 
ATOM      6  C5  UNL d   1       5.999  -3.662   1.890  0.00  0.00     0.003 A 
ATOM      7  C6  UNL d   1       6.000  -4.256   3.153  0.00  0.00    -0.001 A 
ENDROOT
TORSDOF 0
ENDMDL
