MODEL 1
REMARK minimizedAffinity -3.67424226
REMARK minimizedRMSD -1
REMARK  0 active torsions:
REMARK  status: ('A' for Active; 'I' for Inactive)
ROOT
ATOM      1  C   UNL d   1       6.000  -1.882   2.560  0.00  0.00     0.078 C 
ATOM      2  C1  UNL d   1       5.441  -2.625   3.736  0.00  0.00    -0.077 A 
ATOM      3  C2  UNL d   1       4.804  -1.946   4.782  0.00  0.00    -0.001 A 
ATOM      4  C3  UNL d   1       4.297  -2.650   5.875  0.00  0.00     0.003 A 
ATOM      5  C4  UNL d   1       4.424  -4.036   5.935  0.00  0.00    -0.005 A 
ATOM      6  C5  UNL d   1       5.059  -4.720   4.900  0.00  0.00     0.003 A 
ATOM      7  C6  UNL d   1       5.566  -4.018   3.806  0.00  0.00    -0.001 A 
ENDROOT
TORSDOF 0
ENDMDL
