MODEL 1
REMARK minimizedAffinity 13.907732
REMARK minimizedRMSD -1
REMARK  1 active torsions:
REMARK  status: ('A' for Active; 'I' for Inactive)
REMARK    1  A    between atoms: C1_2  and  C2_3 
ROOT
ATOM      1  C2  UNL d   1       5.348   4.545  -2.301  0.00  0.00    -0.073 A 
ATOM      2  C3  UNL d   1       5.985   4.674  -3.541  0.00  0.00    -0.002 A 
ATOM      3  C4  UNL d   1       5.400   4.144  -4.692  0.00  0.00     0.004 A 
ATOM      4  C5  UNL d   1       4.172   3.489  -4.617  0.00  0.00    -0.004 A 
ATOM      5  C6  UNL d   1       3.514   3.361  -3.390  0.00  0.00    -0.075 A 
ATOM      6  C7  UNL d   1       2.193   2.656  -3.292  0.00  0.00     0.076 C 
ATOM      7  C8  UNL d   1       4.109   3.892  -2.238  0.00  0.00     0.001 A 
ENDROOT
BRANCH   1   8
ATOM      8  C1  UNL d   1       5.972   5.121  -1.056  0.00  0.00     0.053 C 
ATOM      9  C   UNL d   1       5.993   4.118   0.087  0.00  0.00     0.018 C 
ENDBRANCH   1   8
TORSDOF 1
ENDMDL
