MODEL 1
REMARK minimizedAffinity 4.030653
REMARK minimizedRMSD -1
REMARK  1 active torsions:
REMARK  status: ('A' for Active; 'I' for Inactive)
REMARK    1  A    between atoms: C1_2  and  C2_3 
ROOT
ATOM      1  C2  UNL d   1      -0.907  -5.681  -4.905  0.00  0.00    -0.073 A 
ATOM      2  C3  UNL d   1      -1.166  -5.072  -3.672  0.00  0.00    -0.002 A 
ATOM      3  C4  UNL d   1      -0.118  -4.773  -2.800  0.00  0.00     0.004 A 
ATOM      4  C5  UNL d   1       1.197  -5.072  -3.154  0.00  0.00    -0.004 A 
ATOM      5  C6  UNL d   1       1.477  -5.670  -4.388  0.00  0.00    -0.075 A 
ATOM      6  C7  UNL d   1       2.886  -6.000  -4.783  0.00  0.00     0.076 C 
ATOM      7  C8  UNL d   1       0.419  -5.969  -5.257  0.00  0.00     0.001 A 
ENDROOT
BRANCH   1   8
ATOM      8  C1  UNL d   1      -2.035  -6.000  -5.853  0.00  0.00     0.053 C 
ATOM      9  C   UNL d   1      -3.002  -4.836  -6.000  0.00  0.00     0.018 C 
ENDBRANCH   1   8
TORSDOF 1
ENDMDL
