MODEL 1
REMARK minimizedAffinity 6.13942528
REMARK minimizedRMSD -1
REMARK  1 active torsions:
REMARK  status: ('A' for Active; 'I' for Inactive)
REMARK    1  A    between atoms: C1_2  and  C2_3 
ROOT
ATOM      1  C2  UNL d   1       1.448   3.244  -2.892  0.00  0.00    -0.073 A 
ATOM      2  C3  UNL d   1       1.656   4.381  -2.103  0.00  0.00    -0.002 A 
ATOM      3  C4  UNL d   1       0.852   5.510  -2.269  0.00  0.00     0.004 A 
ATOM      4  C5  UNL d   1      -0.169   5.511  -3.218  0.00  0.00    -0.004 A 
ATOM      5  C6  UNL d   1      -0.400   4.380  -4.008  0.00  0.00    -0.075 A 
ATOM      6  C7  UNL d   1      -1.493   4.367  -5.036  0.00  0.00     0.076 C 
ATOM      7  C8  UNL d   1       0.413   3.251  -3.838  0.00  0.00     0.001 A 
ENDROOT
BRANCH   1   8
ATOM      8  C1  UNL d   1       2.309   2.020  -2.712  0.00  0.00     0.053 C 
ATOM      9  C   UNL d   1       2.409   1.602  -1.254  0.00  0.00     0.018 C 
ENDBRANCH   1   8
TORSDOF 1
ENDMDL
