MODEL 1
REMARK minimizedAffinity 19.5106583
REMARK minimizedRMSD -1
REMARK  1 active torsions:
REMARK  status: ('A' for Active; 'I' for Inactive)
REMARK    1  A    between atoms: C1_2  and  C2_3 
ROOT
ATOM      1  C2  UNL d   1      -3.000  -5.020  -4.821  0.00  0.00    -0.073 A 
ATOM      2  C3  UNL d   1      -3.592  -5.914  -5.721  0.00  0.00    -0.002 A 
ATOM      3  C4  UNL d   1      -4.957  -5.835  -5.998  0.00  0.00     0.004 A 
ATOM      4  C5  UNL d   1      -5.743  -4.858  -5.385  0.00  0.00    -0.004 A 
ATOM      5  C6  UNL d   1      -5.168  -3.948  -4.493  0.00  0.00    -0.075 A 
ATOM      6  C7  UNL d   1      -5.999  -2.893  -3.824  0.00  0.00     0.076 C 
ATOM      7  C8  UNL d   1      -3.796  -4.036  -4.217  0.00  0.00     0.001 A 
ENDROOT
BRANCH   1   8
ATOM      8  C1  UNL d   1      -1.525  -5.097  -4.523  0.00  0.00     0.053 C 
ATOM      9  C   UNL d   1      -1.000  -3.810  -3.906  0.00  0.00     0.018 C 
ENDBRANCH   1   8
TORSDOF 1
ENDMDL
