MODEL 1
REMARK minimizedAffinity 21.200943
REMARK minimizedRMSD -1
REMARK  1 active torsions:
REMARK  status: ('A' for Active; 'I' for Inactive)
REMARK    1  A    between atoms: C1_2  and  C2_3 
ROOT
ATOM      1  C2  UNL d   1      -2.776  -5.162  -5.443  0.00  0.00    -0.073 A 
ATOM      2  C3  UNL d   1      -1.765  -6.000  -5.928  0.00  0.00    -0.002 A 
ATOM      3  C4  UNL d   1      -0.471  -5.913  -5.413  0.00  0.00     0.004 A 
ATOM      4  C5  UNL d   1      -0.176  -4.995  -4.405  0.00  0.00    -0.004 A 
ATOM      5  C6  UNL d   1      -1.176  -4.158  -3.900  0.00  0.00    -0.075 A 
ATOM      6  C7  UNL d   1      -0.875  -3.163  -2.817  0.00  0.00     0.076 C 
ATOM      7  C8  UNL d   1      -2.472  -4.249  -4.424  0.00  0.00     0.001 A 
ENDROOT
BRANCH   1   8
ATOM      8  C1  UNL d   1      -4.176  -5.257  -5.992  0.00  0.00     0.053 C 
ATOM      9  C   UNL d   1      -5.164  -4.437  -5.177  0.00  0.00     0.018 C 
ENDBRANCH   1   8
TORSDOF 1
ENDMDL
