MODEL 1
REMARK minimizedAffinity 17.2261658
REMARK minimizedRMSD -1
REMARK  1 active torsions:
REMARK  status: ('A' for Active; 'I' for Inactive)
REMARK    1  A    between atoms: C1_2  and  C2_3 
ROOT
ATOM      1  C2  UNL d   1      -2.377  -5.540  -5.367  0.00  0.00    -0.073 A 
ATOM      2  C3  UNL d   1      -1.166  -6.000  -5.896  0.00  0.00    -0.002 A 
ATOM      3  C4  UNL d   1       0.045  -5.635  -5.305  0.00  0.00     0.004 A 
ATOM      4  C5  UNL d   1       0.056  -4.813  -4.178  0.00  0.00    -0.004 A 
ATOM      5  C6  UNL d   1      -1.144  -4.353  -3.628  0.00  0.00    -0.075 A 
ATOM      6  C7  UNL d   1      -1.149  -3.467  -2.417  0.00  0.00     0.076 C 
ATOM      7  C8  UNL d   1      -2.356  -4.722  -4.228  0.00  0.00     0.001 A 
ENDROOT
BRANCH   1   8
ATOM      8  C1  UNL d   1      -3.687  -5.937  -5.997  0.00  0.00     0.053 C 
ATOM      9  C   UNL d   1      -4.869  -5.241  -5.342  0.00  0.00     0.018 C 
ENDBRANCH   1   8
TORSDOF 1
ENDMDL
