MODEL 1
REMARK minimizedAffinity 16.1185226
REMARK minimizedRMSD -1
REMARK  1 active torsions:
REMARK  status: ('A' for Active; 'I' for Inactive)
REMARK    1  A    between atoms: C1_2  and  C2_3 
ROOT
ATOM      1  C2  UNL d   1       3.970   2.245   1.214  0.00  0.00    -0.073 A 
ATOM      2  C3  UNL d   1       2.743   2.842   0.903  0.00  0.00    -0.002 A 
ATOM      3  C4  UNL d   1       1.739   2.104   0.276  0.00  0.00     0.004 A 
ATOM      4  C5  UNL d   1       1.947   0.761  -0.039  0.00  0.00    -0.004 A 
ATOM      5  C6  UNL d   1       3.162   0.144   0.274  0.00  0.00    -0.075 A 
ATOM      6  C7  UNL d   1       3.403  -1.299  -0.061  0.00  0.00     0.076 C 
ATOM      7  C8  UNL d   1       4.167   0.892   0.901  0.00  0.00     0.001 A 
ENDROOT
BRANCH   1   8
ATOM      8  C1  UNL d   1       5.055   3.037   1.897  0.00  0.00     0.053 C 
ATOM      9  C   UNL d   1       6.000   3.688   0.899  0.00  0.00     0.018 C 
ENDBRANCH   1   8
TORSDOF 1
ENDMDL
