MODEL 1
REMARK minimizedAffinity 15.2071228
REMARK minimizedRMSD -1
REMARK  1 active torsions:
REMARK  status: ('A' for Active; 'I' for Inactive)
REMARK    1  A    between atoms: C1_2  and  C2_3 
ROOT
ATOM      1  C2  UNL d   1       2.915   1.967  -0.706  0.00  0.00    -0.073 A 
ATOM      2  C3  UNL d   1       2.322   1.316   0.382  0.00  0.00    -0.002 A 
ATOM      3  C4  UNL d   1       2.921   1.360   1.641  0.00  0.00     0.004 A 
ATOM      4  C5  UNL d   1       4.114   2.059   1.827  0.00  0.00    -0.004 A 
ATOM      5  C6  UNL d   1       4.715   2.726   0.755  0.00  0.00    -0.075 A 
ATOM      6  C7  UNL d   1       5.999   3.481   0.938  0.00  0.00     0.076 C 
ATOM      7  C8  UNL d   1       4.109   2.675  -0.507  0.00  0.00     0.001 A 
ENDROOT
BRANCH   1   8
ATOM      8  C1  UNL d   1       2.268   1.928  -2.067  0.00  0.00     0.053 C 
ATOM      9  C   UNL d   1       2.744   3.065  -2.957  0.00  0.00     0.018 C 
ENDBRANCH   1   8
TORSDOF 1
ENDMDL
