MODEL 1
REMARK minimizedAffinity 10.6543188
REMARK minimizedRMSD -1
REMARK  1 active torsions:
REMARK  status: ('A' for Active; 'I' for Inactive)
REMARK    1  A    between atoms: C1_2  and  C2_3 
ROOT
ATOM      1  C2  UNL d   1       3.443   3.628  -3.365  0.00  0.00    -0.073 A 
ATOM      2  C3  UNL d   1       4.112   3.442  -4.580  0.00  0.00    -0.002 A 
ATOM      3  C4  UNL d   1       5.342   4.060  -4.809  0.00  0.00     0.004 A 
ATOM      4  C5  UNL d   1       5.918   4.863  -3.825  0.00  0.00    -0.004 A 
ATOM      5  C6  UNL d   1       5.271   5.052  -2.599  0.00  0.00    -0.075 A 
ATOM      6  C7  UNL d   1       5.876   5.914  -1.531  0.00  0.00     0.076 C 
ATOM      7  C8  UNL d   1       4.035   4.430  -2.378  0.00  0.00     0.001 A 
ENDROOT
BRANCH   1   8
ATOM      8  C1  UNL d   1       2.118   2.958  -3.110  0.00  0.00     0.053 C 
ATOM      9  C   UNL d   1       2.202   1.934  -1.989  0.00  0.00     0.018 C 
ENDBRANCH   1   8
TORSDOF 1
ENDMDL
