MODEL 1
REMARK minimizedAffinity 12.2809486
REMARK minimizedRMSD -1
REMARK  1 active torsions:
REMARK  status: ('A' for Active; 'I' for Inactive)
REMARK    1  A    between atoms: C1_2  and  C2_3 
ROOT
ATOM      1  C2  UNL d   1      -0.675  -2.736   2.112  0.00  0.00    -0.073 A 
ATOM      2  C3  UNL d   1      -0.937  -1.382   1.874  0.00  0.00    -0.002 A 
ATOM      3  C4  UNL d   1      -2.221  -0.964   1.521  0.00  0.00     0.004 A 
ATOM      4  C5  UNL d   1      -3.256  -1.892   1.408  0.00  0.00    -0.004 A 
ATOM      5  C6  UNL d   1      -3.016  -3.249   1.653  0.00  0.00    -0.075 A 
ATOM      6  C7  UNL d   1      -4.118  -4.260   1.534  0.00  0.00     0.076 C 
ATOM      7  C8  UNL d   1      -1.724  -3.661   2.005  0.00  0.00     0.001 A 
ENDROOT
BRANCH   1   8
ATOM      8  C1  UNL d   1       0.707  -3.192   2.500  0.00  0.00     0.053 C 
ATOM      9  C   UNL d   1       1.310  -2.320   3.590  0.00  0.00     0.018 C 
ENDBRANCH   1   8
TORSDOF 1
ENDMDL
