MODEL 1
REMARK minimizedAffinity 13.9617176
REMARK minimizedRMSD -1
REMARK  1 active torsions:
REMARK  status: ('A' for Active; 'I' for Inactive)
REMARK    1  A    between atoms: C1_2  and  C2_3 
ROOT
ATOM      1  C2  UNL d   1      -5.558   0.933   0.580  0.00  0.00    -0.073 A 
ATOM      2  C3  UNL d   1      -5.556   2.253   0.116  0.00  0.00    -0.002 A 
ATOM      3  C4  UNL d   1      -5.689   2.521  -1.247  0.00  0.00     0.004 A 
ATOM      4  C5  UNL d   1      -5.830   1.474  -2.158  0.00  0.00    -0.004 A 
ATOM      5  C6  UNL d   1      -5.846   0.149  -1.712  0.00  0.00    -0.075 A 
ATOM      6  C7  UNL d   1      -5.995  -0.989  -2.679  0.00  0.00     0.076 C 
ATOM      7  C8  UNL d   1      -5.710  -0.113  -0.342  0.00  0.00     0.001 A 
ENDROOT
BRANCH   1   8
ATOM      8  C1  UNL d   1      -5.421   0.639   2.052  0.00  0.00     0.053 C 
ATOM      9  C   UNL d   1      -5.999   1.752   2.911  0.00  0.00     0.018 C 
ENDBRANCH   1   8
TORSDOF 1
ENDMDL
