MODEL 1
REMARK minimizedAffinity 3.89975786
REMARK minimizedRMSD -1
REMARK  1 active torsions:
REMARK  status: ('A' for Active; 'I' for Inactive)
REMARK    1  A    between atoms: C1_2  and  C2_3 
ROOT
ATOM      1  C2  UNL d   1       5.182   3.613  -2.017  0.00  0.00    -0.073 A 
ATOM      2  C3  UNL d   1       4.727   2.576  -1.195  0.00  0.00    -0.002 A 
ATOM      3  C4  UNL d   1       3.981   1.526  -1.732  0.00  0.00     0.004 A 
ATOM      4  C5  UNL d   1       3.689   1.499  -3.096  0.00  0.00    -0.004 A 
ATOM      5  C6  UNL d   1       4.145   2.520  -3.936  0.00  0.00    -0.075 A 
ATOM      6  C7  UNL d   1       3.837   2.507  -5.404  0.00  0.00     0.076 C 
ATOM      7  C8  UNL d   1       4.891   3.572  -3.388  0.00  0.00     0.001 A 
ENDROOT
BRANCH   1   8
ATOM      8  C1  UNL d   1       5.994   4.745  -1.442  0.00  0.00     0.053 C 
ATOM      9  C   UNL d   1       5.998   5.963  -2.352  0.00  0.00     0.018 C 
ENDBRANCH   1   8
TORSDOF 1
ENDMDL
