MODEL 1
REMARK minimizedAffinity 4.73689556
REMARK minimizedRMSD -1
REMARK  1 active torsions:
REMARK  status: ('A' for Active; 'I' for Inactive)
REMARK    1  A    between atoms: C3_4  and  O_7 
ROOT
ATOM      1  C   UNL d   1       1.705  -3.356   1.266  0.00  0.00    -0.033 A 
ATOM      2  C1  UNL d   1       0.563  -3.933   1.825  0.00  0.00     0.039 A 
ATOM      3  C2  UNL d   1      -0.406  -3.127   2.427  0.00  0.00    -0.080 A 
ATOM      4  C3  UNL d   1      -0.221  -1.748   2.462  0.00  0.00     0.150 A 
ATOM      5  C4  UNL d   1       0.913  -1.166   1.904  0.00  0.00    -0.007 A 
ATOM      6  C5  UNL d   1       1.879  -1.973   1.304  0.00  0.00     0.039 A 
ENDROOT
BRANCH   4   7
ATOM      7  O   UNL d   1      -1.136  -0.921   3.043  0.00  0.00    -0.526 OA
ATOM      8  H5  UNL d   1      -1.852  -1.465   3.412  0.00  0.00     0.418 HD
ENDBRANCH   4   7
TORSDOF 1
ENDMDL
