MODEL 1
REMARK minimizedAffinity -0.166902125
REMARK minimizedRMSD -1
REMARK  1 active torsions:
REMARK  status: ('A' for Active; 'I' for Inactive)
REMARK    1  A    between atoms: C3_4  and  O_7 
ROOT
ATOM      1  C   UNL d   1       5.987   4.585  -5.943  0.00  0.00    -0.033 A 
ATOM      2  C1  UNL d   1       5.408   5.854  -5.998  0.00  0.00     0.039 A 
ATOM      3  C2  UNL d   1       4.018   5.990  -5.998  0.00  0.00    -0.080 A 
ATOM      4  C3  UNL d   1       3.221   4.850  -5.941  0.00  0.00     0.150 A 
ATOM      5  C4  UNL d   1       3.791   3.583  -5.881  0.00  0.00    -0.007 A 
ATOM      6  C5  UNL d   1       5.179   3.450  -5.883  0.00  0.00     0.039 A 
ENDROOT
BRANCH   4   7
ATOM      7  O   UNL d   1       1.860   4.932  -5.943  0.00  0.00    -0.526 OA
ATOM      8  H5  UNL d   1       1.608   5.868  -6.016  0.00  0.00     0.418 HD
ENDBRANCH   4   7
TORSDOF 1
ENDMDL
