MODEL 1
REMARK minimizedAffinity 1.66979253
REMARK minimizedRMSD -1
REMARK  1 active torsions:
REMARK  status: ('A' for Active; 'I' for Inactive)
REMARK    1  A    between atoms: C3_4  and  O_7 
ROOT
ATOM      1  C   UNL d   1      -2.273   2.046  -3.403  0.00  0.00    -0.033 A 
ATOM      2  C1  UNL d   1      -2.006   1.746  -4.740  0.00  0.00     0.039 A 
ATOM      3  C2  UNL d   1      -1.194   2.591  -5.498  0.00  0.00    -0.080 A 
ATOM      4  C3  UNL d   1      -0.655   3.731  -4.908  0.00  0.00     0.150 A 
ATOM      5  C4  UNL d   1      -0.914   4.034  -3.576  0.00  0.00    -0.007 A 
ATOM      6  C5  UNL d   1      -1.726   3.189  -2.820  0.00  0.00     0.039 A 
ENDROOT
BRANCH   4   7
ATOM      7  O   UNL d   1       0.140   4.589  -5.609  0.00  0.00    -0.526 OA
ATOM      8  H5  UNL d   1       0.208   4.268  -6.524  0.00  0.00     0.418 HD
ENDBRANCH   4   7
TORSDOF 1
ENDMDL
