MODEL 1
REMARK minimizedAffinity 6.44812918
REMARK minimizedRMSD -1
REMARK  1 active torsions:
REMARK  status: ('A' for Active; 'I' for Inactive)
REMARK    1  A    between atoms: C3_4  and  O_7 
ROOT
ATOM      1  C   UNL d   1       1.198  -1.640   2.026  0.00  0.00    -0.033 A 
ATOM      2  C1  UNL d   1       0.187  -2.603   2.053  0.00  0.00     0.039 A 
ATOM      3  C2  UNL d   1       0.392  -3.850   1.459  0.00  0.00    -0.080 A 
ATOM      4  C3  UNL d   1       1.611  -4.121   0.843  0.00  0.00     0.150 A 
ATOM      5  C4  UNL d   1       2.623  -3.167   0.815  0.00  0.00    -0.007 A 
ATOM      6  C5  UNL d   1       2.416  -1.923   1.408  0.00  0.00     0.039 A 
ENDROOT
BRANCH   4   7
ATOM      7  O   UNL d   1       1.856  -5.321   0.245  0.00  0.00    -0.526 OA
ATOM      8  H5  UNL d   1       1.057  -5.869   0.317  0.00  0.00     0.418 HD
ENDBRANCH   4   7
TORSDOF 1
ENDMDL
