MODEL 1
REMARK minimizedAffinity 8.24353981
REMARK minimizedRMSD -1
REMARK  1 active torsions:
REMARK  status: ('A' for Active; 'I' for Inactive)
REMARK    1  A    between atoms: C3_4  and  O_7 
ROOT
ATOM      1  C   UNL d   1       1.682  -1.512   0.577  0.00  0.00    -0.033 A 
ATOM      2  C1  UNL d   1       3.061  -1.671   0.425  0.00  0.00     0.039 A 
ATOM      3  C2  UNL d   1       3.889  -1.715   1.548  0.00  0.00    -0.080 A 
ATOM      4  C3  UNL d   1       3.326  -1.600   2.816  0.00  0.00     0.150 A 
ATOM      5  C4  UNL d   1       1.952  -1.445   2.975  0.00  0.00    -0.007 A 
ATOM      6  C5  UNL d   1       1.128  -1.400   1.852  0.00  0.00     0.039 A 
ENDROOT
BRANCH   4   7
ATOM      7  O   UNL d   1       4.093  -1.633   3.943  0.00  0.00    -0.526 OA
ATOM      8  H5  UNL d   1       5.025  -1.715   3.678  0.00  0.00     0.418 HD
ENDBRANCH   4   7
TORSDOF 1
ENDMDL
