MODEL 1
REMARK minimizedAffinity 8.41556454
REMARK minimizedRMSD -1
REMARK  1 active torsions:
REMARK  status: ('A' for Active; 'I' for Inactive)
REMARK    1  A    between atoms: C3_4  and  O_7 
ROOT
ATOM      1  C   UNL d   1      -2.965   0.865  -5.987  0.00  0.00    -0.033 A 
ATOM      2  C1  UNL d   1      -1.587   0.891  -5.768  0.00  0.00     0.039 A 
ATOM      3  C2  UNL d   1      -1.077   1.403  -4.573  0.00  0.00    -0.080 A 
ATOM      4  C3  UNL d   1      -1.956   1.883  -3.606  0.00  0.00     0.150 A 
ATOM      5  C4  UNL d   1      -3.330   1.857  -3.816  0.00  0.00    -0.007 A 
ATOM      6  C5  UNL d   1      -3.837   1.346  -5.010  0.00  0.00     0.039 A 
ENDROOT
BRANCH   4   7
ATOM      7  O   UNL d   1      -1.505   2.396  -2.426  0.00  0.00    -0.526 OA
ATOM      8  H5  UNL d   1      -0.534   2.377  -2.433  0.00  0.00     0.418 HD
ENDBRANCH   4   7
TORSDOF 1
ENDMDL
