MODEL 1
REMARK minimizedAffinity 2.85527682
REMARK minimizedRMSD -1
REMARK  1 active torsions:
REMARK  status: ('A' for Active; 'I' for Inactive)
REMARK    1  A    between atoms: C3_4  and  O_7 
ROOT
ATOM      1  C   UNL d   1       2.212  -1.417   1.205  0.00  0.00    -0.033 A 
ATOM      2  C1  UNL d   1       3.341  -2.238   1.236  0.00  0.00     0.039 A 
ATOM      3  C2  UNL d   1       3.239  -3.583   0.876  0.00  0.00    -0.080 A 
ATOM      4  C3  UNL d   1       2.004  -4.093   0.485  0.00  0.00     0.150 A 
ATOM      5  C4  UNL d   1       0.876  -3.280   0.448  0.00  0.00    -0.007 A 
ATOM      6  C5  UNL d   1       0.980  -1.938   0.809  0.00  0.00     0.039 A 
ENDROOT
BRANCH   4   7
ATOM      7  O   UNL d   1       1.854  -5.401   0.129  0.00  0.00    -0.526 OA
ATOM      8  H5  UNL d   1       2.711  -5.847   0.230  0.00  0.00     0.418 HD
ENDBRANCH   4   7
TORSDOF 1
ENDMDL
