MODEL 1
REMARK minimizedAffinity -6.34959698
REMARK minimizedRMSD -1
REMARK  0 active torsions:
REMARK  status: ('A' for Active; 'I' for Inactive)
ROOT
ATOM      1  C1  DEN d   1       3.005   0.428   0.951  0.00  0.00     0.130 A 
ATOM      2  C2  DEN d   1       3.660  -0.866   0.782  0.00  0.00    -0.031 A 
ATOM      3  C3  DEN d   1       2.662  -1.818   0.254  0.00  0.00     0.027 A 
ATOM      4  C4  DEN d   1       0.180  -1.413  -0.320  0.00  0.00     0.027 A 
ATOM      5  C5  DEN d   1      -0.831  -0.478  -0.334  0.00  0.00    -0.003 A 
ATOM      6  C6  DEN d   1      -0.645   0.805   0.108  0.00  0.00     0.001 A 
ATOM      7  C7  DEN d   1       0.593   1.201   0.540  0.00  0.00     0.017 A 
ATOM      8  C8  DEN d   1       1.616   0.262   0.564  0.00  0.00    -0.094 A 
ATOM      9  C9  DEN d   1       1.411  -1.027   0.102  0.00  0.00    -0.072 A 
ENDROOT
TORSDOF 0
ENDMDL
