MODEL 1
REMARK minimizedAffinity -3.0982058
REMARK minimizedRMSD -1
REMARK  0 active torsions:
REMARK  status: ('A' for Active; 'I' for Inactive)
ROOT
ATOM      1  C1  DEN d   1      -0.129  -2.820  -0.753  0.00  0.00     0.130 A 
ATOM      2  C2  DEN d   1       1.268  -3.149  -0.485  0.00  0.00    -0.031 A 
ATOM      3  C3  DEN d   1       1.968  -1.902  -0.117  0.00  0.00     0.027 A 
ATOM      4  C4  DEN d   1       1.028   0.493   0.066  0.00  0.00     0.027 A 
ATOM      5  C5  DEN d   1      -0.100   1.270  -0.077  0.00  0.00    -0.003 A 
ATOM      6  C6  DEN d   1      -1.299   0.748  -0.486  0.00  0.00     0.001 A 
ATOM      7  C7  DEN d   1      -1.409  -0.597  -0.721  0.00  0.00     0.017 A 
ATOM      8  C8  DEN d   1      -0.274  -1.385  -0.586  0.00  0.00    -0.094 A 
ATOM      9  C9  DEN d   1       0.926  -0.841  -0.160  0.00  0.00    -0.072 A 
ENDROOT
TORSDOF 0
ENDMDL
