MODEL 1
REMARK minimizedAffinity 0.190294653
REMARK minimizedRMSD -1
REMARK  0 active torsions:
REMARK  status: ('A' for Active; 'I' for Inactive)
ROOT
ATOM      1  C1  DEN d   1      -1.279  -0.855  -0.379  0.00  0.00     0.130 A 
ATOM      2  C2  DEN d   1      -0.316   0.148  -0.827  0.00  0.00    -0.031 A 
ATOM      3  C3  DEN d   1      -0.917   1.481  -0.623  0.00  0.00     0.027 A 
ATOM      4  C4  DEN d   1      -3.231   2.086   0.343  0.00  0.00     0.027 A 
ATOM      5  C5  DEN d   1      -4.405   1.574   0.849  0.00  0.00    -0.003 A 
ATOM      6  C6  DEN d   1      -4.631   0.227   0.949  0.00  0.00     0.001 A 
ATOM      7  C7  DEN d   1      -3.650  -0.655   0.579  0.00  0.00     0.017 A 
ATOM      8  C8  DEN d   1      -2.467  -0.146   0.060  0.00  0.00    -0.094 A 
ATOM      9  C9  DEN d   1      -2.253   1.219  -0.022  0.00  0.00    -0.072 A 
ENDROOT
TORSDOF 0
ENDMDL
