MODEL 1
REMARK minimizedAffinity -5.0182004
REMARK minimizedRMSD -1
REMARK  0 active torsions:
REMARK  status: ('A' for Active; 'I' for Inactive)
ROOT
ATOM      1  C1  DEN d   1       3.892  -1.226  -0.951  0.00  0.00     0.130 A 
ATOM      2  C2  DEN d   1       3.773  -1.976  -2.199  0.00  0.00    -0.031 A 
ATOM      3  C3  DEN d   1       2.337  -2.101  -2.521  0.00  0.00     0.027 A 
ATOM      4  C4  DEN d   1       0.298  -1.208  -1.218  0.00  0.00     0.027 A 
ATOM      5  C5  DEN d   1      -0.102  -0.521  -0.094  0.00  0.00    -0.003 A 
ATOM      6  C6  DEN d   1       0.791  -0.054   0.834  0.00  0.00     0.001 A 
ATOM      7  C7  DEN d   1       2.134  -0.230   0.630  0.00  0.00     0.017 A 
ATOM      8  C8  DEN d   1       2.545  -0.928  -0.497  0.00  0.00    -0.094 A 
ATOM      9  C9  DEN d   1       1.627  -1.381  -1.430  0.00  0.00    -0.072 A 
ENDROOT
TORSDOF 0
ENDMDL
