MODEL 1
REMARK minimizedAffinity -1.37876856
REMARK minimizedRMSD -1
REMARK  0 active torsions:
REMARK  status: ('A' for Active; 'I' for Inactive)
ROOT
ATOM      1  C1  DEN d   1       1.783  -2.738  -0.404  0.00  0.00     0.130 A 
ATOM      2  C2  DEN d   1       0.544  -3.510  -0.430  0.00  0.00    -0.031 A 
ATOM      3  C3  DEN d   1      -0.586  -2.563  -0.352  0.00  0.00     0.027 A 
ATOM      4  C4  DEN d   1      -0.539   0.011  -0.199  0.00  0.00     0.027 A 
ATOM      5  C5  DEN d   1       0.280   1.117  -0.134  0.00  0.00    -0.003 A 
ATOM      6  C6  DEN d   1       1.646   1.014  -0.121  0.00  0.00     0.001 A 
ATOM      7  C7  DEN d   1       2.235  -0.219  -0.219  0.00  0.00     0.017 A 
ATOM      8  C8  DEN d   1       1.416  -1.339  -0.277  0.00  0.00    -0.094 A 
ATOM      9  C9  DEN d   1       0.037  -1.213  -0.301  0.00  0.00    -0.072 A 
ENDROOT
TORSDOF 0
ENDMDL
