MODEL 1
REMARK minimizedAffinity -2.68107176
REMARK minimizedRMSD -1
REMARK  0 active torsions:
REMARK  status: ('A' for Active; 'I' for Inactive)
ROOT
ATOM      1  C1  DEN d   1      -0.113   1.540   0.075  0.00  0.00     0.130 A 
ATOM      2  C2  DEN d   1      -1.329   0.988  -0.517  0.00  0.00    -0.031 A 
ATOM      3  C3  DEN d   1      -1.113  -0.455  -0.743  0.00  0.00     0.027 A 
ATOM      4  C4  DEN d   1       0.973  -1.883  -0.233  0.00  0.00     0.027 A 
ATOM      5  C5  DEN d   1       2.259  -1.855   0.261  0.00  0.00    -0.003 A 
ATOM      6  C6  DEN d   1       2.851  -0.698   0.693  0.00  0.00     0.001 A 
ATOM      7  C7  DEN d   1       2.141   0.473   0.681  0.00  0.00     0.017 A 
ATOM      8  C8  DEN d   1       0.847   0.455   0.177  0.00  0.00    -0.094 A 
ATOM      9  C9  DEN d   1       0.261  -0.727  -0.243  0.00  0.00    -0.072 A 
ENDROOT
TORSDOF 0
ENDMDL
