MODEL 1
REMARK minimizedAffinity -1.36730957
REMARK minimizedRMSD -1
REMARK  0 active torsions:
REMARK  status: ('A' for Active; 'I' for Inactive)
ROOT
ATOM      1  C1  DEN d   1      -0.214  -0.080   0.369  0.00  0.00     0.130 A 
ATOM      2  C2  DEN d   1       0.138  -0.569  -0.962  0.00  0.00    -0.031 A 
ATOM      3  C3  DEN d   1      -1.066  -0.480  -1.813  0.00  0.00     0.027 A 
ATOM      4  C4  DEN d   1      -3.425   0.367  -1.205  0.00  0.00     0.027 A 
ATOM      5  C5  DEN d   1      -4.209   0.873  -0.192  0.00  0.00    -0.003 A 
ATOM      6  C6  DEN d   1      -3.730   1.063   1.077  0.00  0.00     0.001 A 
ATOM      7  C7  DEN d   1      -2.418   0.788   1.355  0.00  0.00     0.017 A 
ATOM      8  C8  DEN d   1      -1.622   0.271   0.341  0.00  0.00    -0.094 A 
ATOM      9  C9  DEN d   1      -2.122   0.097  -0.938  0.00  0.00    -0.072 A 
ENDROOT
TORSDOF 0
ENDMDL
