MODEL 1
REMARK minimizedAffinity -0.508852899
REMARK minimizedRMSD -1
REMARK  0 active torsions:
REMARK  status: ('A' for Active; 'I' for Inactive)
ROOT
ATOM      1  C1  DEN d   1       0.049   0.880  -1.660  0.00  0.00     0.130 A 
ATOM      2  C2  DEN d   1      -1.398   0.681  -1.657  0.00  0.00    -0.031 A 
ATOM      3  C3  DEN d   1      -1.665  -0.726  -1.299  0.00  0.00     0.027 A 
ATOM      4  C4  DEN d   1       0.013  -2.607  -0.747  0.00  0.00     0.027 A 
ATOM      5  C5  DEN d   1       1.349  -2.921  -0.632  0.00  0.00    -0.003 A 
ATOM      6  C6  DEN d   1       2.338  -2.007  -0.882  0.00  0.00     0.001 A 
ATOM      7  C7  DEN d   1       2.005  -0.721  -1.217  0.00  0.00     0.017 A 
ATOM      8  C8  DEN d   1       0.660  -0.398  -1.342  0.00  0.00    -0.094 A 
ATOM      9  C9  DEN d   1      -0.325  -1.333  -1.073  0.00  0.00    -0.072 A 
ENDROOT
TORSDOF 0
ENDMDL
