MODEL 1
REMARK minimizedAffinity 0.0110167405
REMARK minimizedRMSD -1
REMARK  1 active torsions:
REMARK  status: ('A' for Active; 'I' for Inactive)
REMARK    1  A    between atoms: C3_4  and  O_7 
ROOT
ATOM      1  C   UNL d   1      -2.224  -5.988  -4.076  0.00  0.00    -0.033 A 
ATOM      2  C1  UNL d   1      -1.162  -5.988  -4.982  0.00  0.00     0.039 A 
ATOM      3  C2  UNL d   1       0.155  -5.991  -4.517  0.00  0.00    -0.080 A 
ATOM      4  C3  UNL d   1       0.395  -5.995  -3.146  0.00  0.00     0.150 A 
ATOM      5  C4  UNL d   1      -0.658  -5.999  -2.238  0.00  0.00    -0.007 A 
ATOM      6  C5  UNL d   1      -1.972  -5.996  -2.704  0.00  0.00     0.039 A 
ENDROOT
BRANCH   4   7
ATOM      7  O   UNL d   1       1.663  -5.993  -2.645  0.00  0.00    -0.526 OA
ATOM      8  H5  UNL d   1       2.288  -5.961  -3.388  0.00  0.00     0.418 HD
ENDBRANCH   4   7
TORSDOF 1
ENDMDL
