MODEL 1
REMARK minimizedAffinity -1.82592225
REMARK minimizedRMSD -1
REMARK  1 active torsions:
REMARK  status: ('A' for Active; 'I' for Inactive)
REMARK    1  A    between atoms: C3_4  and  O_7 
ROOT
ATOM      1  C   UNL d   1      -3.670  -5.957  -4.485  0.00  0.00    -0.033 A 
ATOM      2  C1  UNL d   1      -2.601  -5.939  -5.383  0.00  0.00     0.039 A 
ATOM      3  C2  UNL d   1      -1.288  -5.949  -4.909  0.00  0.00    -0.080 A 
ATOM      4  C3  UNL d   1      -1.058  -5.978  -3.536  0.00  0.00     0.150 A 
ATOM      5  C4  UNL d   1      -2.118  -6.000  -2.636  0.00  0.00    -0.007 A 
ATOM      6  C5  UNL d   1      -3.429  -5.989  -3.111  0.00  0.00     0.039 A 
ENDROOT
BRANCH   4   7
ATOM      7  O   UNL d   1       0.206  -5.984  -3.025  0.00  0.00    -0.526 OA
ATOM      8  H5  UNL d   1       0.836  -5.938  -3.764  0.00  0.00     0.418 HD
ENDBRANCH   4   7
TORSDOF 1
ENDMDL
