MODEL 1
REMARK minimizedAffinity -1.15310812
REMARK minimizedRMSD -1
REMARK  1 active torsions:
REMARK  status: ('A' for Active; 'I' for Inactive)
REMARK    1  A    between atoms: C3_4  and  O_7 
ROOT
ATOM      1  C   UNL d   1      -2.360  -5.990  -3.225  0.00  0.00    -0.033 A 
ATOM      2  C1  UNL d   1      -1.037  -6.000  -2.779  0.00  0.00     0.039 A 
ATOM      3  C2  UNL d   1       0.012  -5.982  -3.701  0.00  0.00    -0.080 A 
ATOM      4  C3  UNL d   1      -0.275  -5.953  -5.063  0.00  0.00     0.150 A 
ATOM      5  C4  UNL d   1      -1.591  -5.939  -5.513  0.00  0.00    -0.007 A 
ATOM      6  C5  UNL d   1      -2.637  -5.958  -4.592  0.00  0.00     0.039 A 
ENDROOT
BRANCH   4   7
ATOM      7  O   UNL d   1       0.715  -5.939  -6.000  0.00  0.00    -0.526 OA
ATOM      8  H5  UNL d   1       1.571  -5.981  -5.543  0.00  0.00     0.418 HD
ENDBRANCH   4   7
TORSDOF 1
ENDMDL
