MODEL 1
REMARK minimizedAffinity -1.49329162
REMARK minimizedRMSD -1
REMARK  1 active torsions:
REMARK  status: ('A' for Active; 'I' for Inactive)
REMARK    1  A    between atoms: C3_4  and  O_7 
ROOT
ATOM      1  C   UNL d   1      -2.643  -5.971  -2.846  0.00  0.00    -0.033 A 
ATOM      2  C1  UNL d   1      -1.273  -5.968  -2.577  0.00  0.00     0.039 A 
ATOM      3  C2  UNL d   1      -0.354  -5.977  -3.628  0.00  0.00    -0.080 A 
ATOM      4  C3  UNL d   1      -0.817  -5.987  -4.941  0.00  0.00     0.150 A 
ATOM      5  C4  UNL d   1      -2.180  -5.985  -5.216  0.00  0.00    -0.007 A 
ATOM      6  C5  UNL d   1      -3.097  -5.978  -4.165  0.00  0.00     0.039 A 
ENDROOT
BRANCH   4   7
ATOM      7  O   UNL d   1       0.042  -6.000  -6.000  0.00  0.00    -0.526 OA
ATOM      8  H5  UNL d   1       0.951  -6.028  -5.658  0.00  0.00     0.418 HD
ENDBRANCH   4   7
TORSDOF 1
ENDMDL
