MODEL 1
REMARK minimizedAffinity 6.1044507
REMARK minimizedRMSD -1
REMARK  1 active torsions:
REMARK  status: ('A' for Active; 'I' for Inactive)
REMARK    1  A    between atoms: C3_4  and  O_7 
ROOT
ATOM      1  C   UNL d   1       0.322  -5.904  -4.755  0.00  0.00    -0.033 A 
ATOM      2  C1  UNL d   1      -0.357  -5.843  -5.974  0.00  0.00     0.039 A 
ATOM      3  C2  UNL d   1      -1.753  -5.856  -5.998  0.00  0.00    -0.080 A 
ATOM      4  C3  UNL d   1      -2.457  -5.930  -4.799  0.00  0.00     0.150 A 
ATOM      5  C4  UNL d   1      -1.786  -5.987  -3.581  0.00  0.00    -0.007 A 
ATOM      6  C5  UNL d   1      -0.392  -5.974  -3.559  0.00  0.00     0.039 A 
ENDROOT
BRANCH   4   7
ATOM      7  O   UNL d   1      -3.820  -5.951  -4.772  0.00  0.00    -0.526 OA
ATOM      8  H5  UNL d   1      -4.145  -5.935  -5.688  0.00  0.00     0.418 HD
ENDBRANCH   4   7
TORSDOF 1
ENDMDL
