MODEL 1
REMARK minimizedAffinity 2.03875756
REMARK minimizedRMSD -1
REMARK  1 active torsions:
REMARK  status: ('A' for Active; 'I' for Inactive)
REMARK    1  A    between atoms: C3_4  and  O_7 
ROOT
ATOM      1  C   UNL d   1      -2.255  -5.983  -4.309  0.00  0.00    -0.033 A 
ATOM      2  C1  UNL d   1      -2.189  -5.982  -2.915  0.00  0.00     0.039 A 
ATOM      3  C2  UNL d   1      -0.949  -5.986  -2.273  0.00  0.00    -0.080 A 
ATOM      4  C3  UNL d   1       0.216  -5.990  -3.036  0.00  0.00     0.150 A 
ATOM      5  C4  UNL d   1       0.157  -5.987  -4.426  0.00  0.00    -0.007 A 
ATOM      6  C5  UNL d   1      -1.082  -5.984  -5.065  0.00  0.00     0.039 A 
ENDROOT
BRANCH   4   7
ATOM      7  O   UNL d   1       1.449  -5.999  -2.455  0.00  0.00    -0.526 OA
ATOM      8  H5  UNL d   1       1.334  -6.030  -1.490  0.00  0.00     0.418 HD
ENDBRANCH   4   7
TORSDOF 1
ENDMDL
