MODEL 1
REMARK minimizedAffinity -2.81943917
REMARK minimizedRMSD -1
REMARK  1 active torsions:
REMARK  status: ('A' for Active; 'I' for Inactive)
REMARK    1  A    between atoms: C3_4  and  O_7 
ROOT
ATOM      1  C   UNL d   1      -2.077  -5.448  -2.786  0.00  0.00    -0.033 A 
ATOM      2  C1  UNL d   1      -0.808  -6.000  -2.598  0.00  0.00     0.039 A 
ATOM      3  C2  UNL d   1       0.118  -5.998  -3.642  0.00  0.00    -0.080 A 
ATOM      4  C3  UNL d   1      -0.235  -5.441  -4.868  0.00  0.00     0.150 A 
ATOM      5  C4  UNL d   1      -1.496  -4.886  -5.062  0.00  0.00    -0.007 A 
ATOM      6  C5  UNL d   1      -2.420  -4.890  -4.018  0.00  0.00     0.039 A 
ENDROOT
BRANCH   4   7
ATOM      7  O   UNL d   1       0.634  -5.420  -5.918  0.00  0.00    -0.526 OA
ATOM      8  H5  UNL d   1       1.455  -5.864  -5.647  0.00  0.00     0.418 HD
ENDBRANCH   4   7
TORSDOF 1
ENDMDL
