MODEL 1
REMARK minimizedAffinity -1.41443217
REMARK minimizedRMSD -1
REMARK  1 active torsions:
REMARK  status: ('A' for Active; 'I' for Inactive)
REMARK    1  A    between atoms: C3_4  and  O_7 
ROOT
ATOM      1  C   UNL d   1       0.856  -5.996  -4.413  0.00  0.00    -0.033 A 
ATOM      2  C1  UNL d   1       0.588  -5.999  -3.042  0.00  0.00     0.039 A 
ATOM      3  C2  UNL d   1      -0.721  -5.828  -2.585  0.00  0.00    -0.080 A 
ATOM      4  C3  UNL d   1      -1.750  -5.657  -3.506  0.00  0.00     0.150 A 
ATOM      5  C4  UNL d   1      -1.490  -5.657  -4.873  0.00  0.00    -0.007 A 
ATOM      6  C5  UNL d   1      -0.183  -5.826  -5.328  0.00  0.00     0.039 A 
ENDROOT
BRANCH   4   7
ATOM      7  O   UNL d   1      -3.042  -5.483  -3.107  0.00  0.00    -0.526 OA
ATOM      8  H5  UNL d   1      -3.066  -5.476  -2.136  0.00  0.00     0.418 HD
ENDBRANCH   4   7
TORSDOF 1
ENDMDL
