MODEL 1
REMARK minimizedAffinity -1.19407284
REMARK minimizedRMSD -1
REMARK  1 active torsions:
REMARK  status: ('A' for Active; 'I' for Inactive)
REMARK    1  A    between atoms: C3_4  and  O_7 
ROOT
ATOM      1  C   UNL d   1       0.649  -5.995  -5.942  0.00  0.00    -0.033 A 
ATOM      2  C1  UNL d   1      -0.746  -5.999  -5.999  0.00  0.00     0.039 A 
ATOM      3  C2  UNL d   1      -1.494  -6.000  -4.820  0.00  0.00    -0.080 A 
ATOM      4  C3  UNL d   1      -0.837  -5.995  -3.593  0.00  0.00     0.150 A 
ATOM      5  C4  UNL d   1       0.553  -5.986  -3.530  0.00  0.00    -0.007 A 
ATOM      6  C5  UNL d   1       1.298  -5.987  -4.708  0.00  0.00     0.039 A 
ENDROOT
BRANCH   4   7
ATOM      7  O   UNL d   1      -1.524  -6.000  -2.416  0.00  0.00    -0.526 OA
ATOM      8  H5  UNL d   1      -2.475  -6.035  -2.615  0.00  0.00     0.418 HD
ENDBRANCH   4   7
TORSDOF 1
ENDMDL
