MODEL 1
REMARK minimizedAffinity -0.418714553
REMARK minimizedRMSD -1
REMARK  1 active torsions:
REMARK  status: ('A' for Active; 'I' for Inactive)
REMARK    1  A    between atoms: C3_4  and  O_7 
ROOT
ATOM      1  C   UNL d   1       0.261  -5.996  -3.466  0.00  0.00    -0.033 A 
ATOM      2  C1  UNL d   1      -0.394  -5.999  -2.233  0.00  0.00     0.039 A 
ATOM      3  C2  UNL d   1      -1.789  -5.999  -2.181  0.00  0.00    -0.080 A 
ATOM      4  C3  UNL d   1      -2.517  -5.997  -3.368  0.00  0.00     0.150 A 
ATOM      5  C4  UNL d   1      -1.871  -5.998  -4.600  0.00  0.00    -0.007 A 
ATOM      6  C5  UNL d   1      -0.478  -5.997  -4.649  0.00  0.00     0.039 A 
ENDROOT
BRANCH   4   7
ATOM      7  O   UNL d   1      -3.880  -5.992  -3.368  0.00  0.00    -0.526 OA
ATOM      8  H5  UNL d   1      -4.188  -5.962  -2.447  0.00  0.00     0.418 HD
ENDBRANCH   4   7
TORSDOF 1
ENDMDL
