MODEL 1
REMARK minimizedAffinity -4.03575945
REMARK minimizedRMSD -1
REMARK  1 active torsions:
REMARK  status: ('A' for Active; 'I' for Inactive)
REMARK    1  A    between atoms: C3_4  and  O_7 
ROOT
ATOM      1  C   UNL d   1      -2.985  -6.000  -3.037  0.00  0.00    -0.033 A 
ATOM      2  C1  UNL d   1      -3.385  -5.952  -4.374  0.00  0.00     0.039 A 
ATOM      3  C2  UNL d   1      -2.431  -5.818  -5.385  0.00  0.00    -0.080 A 
ATOM      4  C3  UNL d   1      -1.083  -5.735  -5.047  0.00  0.00     0.150 A 
ATOM      5  C4  UNL d   1      -0.678  -5.786  -3.717  0.00  0.00    -0.007 A 
ATOM      6  C5  UNL d   1      -1.631  -5.919  -2.709  0.00  0.00     0.039 A 
ENDROOT
BRANCH   4   7
ATOM      7  O   UNL d   1      -0.117  -5.599  -5.999  0.00  0.00    -0.526 OA
ATOM      8  H5  UNL d   1      -0.547  -5.549  -6.869  0.00  0.00     0.418 HD
ENDBRANCH   4   7
TORSDOF 1
ENDMDL
