MODEL 1
REMARK minimizedAffinity -1.16291475
REMARK minimizedRMSD -1
REMARK  1 active torsions:
REMARK  status: ('A' for Active; 'I' for Inactive)
REMARK    1  A    between atoms: C3_4  and  O_7 
ROOT
ATOM      1  C   UNL d   1      -3.065  -5.998  -2.932  0.00  0.00    -0.033 A 
ATOM      2  C1  UNL d   1      -3.506  -5.988  -4.257  0.00  0.00     0.039 A 
ATOM      3  C2  UNL d   1      -2.581  -5.975  -5.303  0.00  0.00    -0.080 A 
ATOM      4  C3  UNL d   1      -1.220  -5.973  -5.011  0.00  0.00     0.150 A 
ATOM      5  C4  UNL d   1      -0.774  -5.986  -3.693  0.00  0.00    -0.007 A 
ATOM      6  C5  UNL d   1      -1.699  -5.999  -2.650  0.00  0.00     0.039 A 
ENDROOT
BRANCH   4   7
ATOM      7  O   UNL d   1      -0.280  -5.955  -5.997  0.00  0.00    -0.526 OA
ATOM      8  H5  UNL d   1      -0.734  -5.918  -6.855  0.00  0.00     0.418 HD
ENDBRANCH   4   7
TORSDOF 1
ENDMDL
