MODEL 1
REMARK minimizedAffinity 0.38027212
REMARK minimizedRMSD -1
REMARK  1 active torsions:
REMARK  status: ('A' for Active; 'I' for Inactive)
REMARK    1  A    between atoms: C3_4  and  O_7 
ROOT
ATOM      1  C   UNL d   1       0.670   3.778  -3.609  0.00  0.00    -0.033 A 
ATOM      2  C1  UNL d   1      -0.447   4.299  -4.264  0.00  0.00     0.039 A 
ATOM      3  C2  UNL d   1      -1.691   3.680  -4.127  0.00  0.00    -0.080 A 
ATOM      4  C3  UNL d   1      -1.804   2.544  -3.331  0.00  0.00     0.150 A 
ATOM      5  C4  UNL d   1      -0.696   2.022  -2.671  0.00  0.00    -0.007 A 
ATOM      6  C5  UNL d   1       0.545   2.640  -2.811  0.00  0.00     0.039 A 
ENDROOT
BRANCH   4   7
ATOM      7  O   UNL d   1      -2.997   1.902  -3.170  0.00  0.00    -0.526 OA
ATOM      8  H5  UNL d   1      -3.666   2.358  -3.706  0.00  0.00     0.418 HD
ENDBRANCH   4   7
TORSDOF 1
ENDMDL
