MODEL 1
REMARK minimizedAffinity 21.6221523
REMARK minimizedRMSD -1
REMARK  0 active torsions:
REMARK  status: ('A' for Active; 'I' for Inactive)
ROOT
ATOM      1  C   UNL d   1      -1.240   1.319  -0.512  0.00  0.00     0.124 A 
ATOM      2  C1  UNL d   1      -1.968   1.826  -1.579  0.00  0.00     0.062 A 
ATOM      3  C2  UNL d   1      -1.479   2.905  -2.310  0.00  0.00     0.162 A 
ATOM      4  C3  UNL d   1      -0.254   3.484  -1.977  0.00  0.00    -0.034 A 
ATOM      5  C4  UNL d   1       0.472   2.969  -0.902  0.00  0.00     0.162 A 
ATOM      6  C5  UNL d   1      -0.021   1.890  -0.175  0.00  0.00     0.062 A 
ATOM      7  F   UNL d   1       0.684   1.402   0.856  0.00  0.00    -0.097 F 
ATOM      8  F1  UNL d   1       1.653   3.501  -0.555  0.00  0.00    -0.096 F 
ATOM      9  I   UNL d   1       0.480   5.098  -3.068  0.00  0.00    -0.060 I 
ATOM     10  F2  UNL d   1      -2.204   3.375  -3.337  0.00  0.00    -0.096 F 
ATOM     11  F3  UNL d   1      -3.146   1.276  -1.907  0.00  0.00    -0.097 F 
ATOM     12  F4  UNL d   1      -1.713   0.281   0.190  0.00  0.00    -0.092 F 
ENDROOT
TORSDOF 0
ENDMDL
