MODEL 1
REMARK minimizedAffinity 12.8230324
REMARK minimizedRMSD -1
REMARK  0 active torsions:
REMARK  status: ('A' for Active; 'I' for Inactive)
ROOT
ATOM      1  C   UNL d   1       1.117   3.366   2.606  0.00  0.00     0.124 A 
ATOM      2  C1  UNL d   1       0.376   2.234   2.917  0.00  0.00     0.062 A 
ATOM      3  C2  UNL d   1      -0.449   1.653   1.958  0.00  0.00     0.162 A 
ATOM      4  C3  UNL d   1      -0.535   2.201   0.679  0.00  0.00    -0.034 A 
ATOM      5  C4  UNL d   1       0.213   3.339   0.374  0.00  0.00     0.162 A 
ATOM      6  C5  UNL d   1       1.035   3.917   1.335  0.00  0.00     0.062 A 
ATOM      7  F   UNL d   1       1.751   5.010   1.033  0.00  0.00    -0.097 F 
ATOM      8  F1  UNL d   1       0.153   3.892  -0.847  0.00  0.00    -0.096 F 
ATOM      9  I   UNL d   1      -1.767   1.334  -0.758  0.00  0.00    -0.060 I 
ATOM     10  F2  UNL d   1      -1.154   0.560   2.286  0.00  0.00    -0.096 F 
ATOM     11  F3  UNL d   1       0.452   1.701   4.145  0.00  0.00    -0.097 F 
ATOM     12  F4  UNL d   1       1.909   3.924   3.531  0.00  0.00    -0.092 F 
ENDROOT
TORSDOF 0
ENDMDL
