MODEL 1
REMARK minimizedAffinity 13.8702393
REMARK minimizedRMSD -1
REMARK  0 active torsions:
REMARK  status: ('A' for Active; 'I' for Inactive)
ROOT
ATOM      1  C   UNL d   1       0.856   3.656   2.444  0.00  0.00     0.124 A 
ATOM      2  C1  UNL d   1       1.004   4.064   1.126  0.00  0.00     0.062 A 
ATOM      3  C2  UNL d   1       0.171   3.550   0.136  0.00  0.00     0.162 A 
ATOM      4  C3  UNL d   1      -0.819   2.622   0.461  0.00  0.00    -0.034 A 
ATOM      5  C4  UNL d   1      -0.961   2.216   1.789  0.00  0.00     0.162 A 
ATOM      6  C5  UNL d   1      -0.126   2.732   2.775  0.00  0.00     0.062 A 
ATOM      7  F   UNL d   1      -0.271   2.337   4.048  0.00  0.00    -0.097 F 
ATOM      8  F1  UNL d   1      -1.903   1.326   2.137  0.00  0.00    -0.096 F 
ATOM      9  I   UNL d   1      -2.067   1.851  -1.015  0.00  0.00    -0.060 I 
ATOM     10  F2  UNL d   1       0.336   3.962  -1.129  0.00  0.00    -0.096 F 
ATOM     11  F3  UNL d   1       1.952   4.955   0.804  0.00  0.00    -0.097 F 
ATOM     12  F4  UNL d   1       1.659   4.151   3.394  0.00  0.00    -0.092 F 
ENDROOT
TORSDOF 0
ENDMDL
