MODEL 1
REMARK minimizedAffinity 11.4655046
REMARK minimizedRMSD -1
REMARK  0 active torsions:
REMARK  status: ('A' for Active; 'I' for Inactive)
ROOT
ATOM      1  C   UNL d   1      -2.717   0.992  -1.375  0.00  0.00     0.124 A 
ATOM      2  C1  UNL d   1      -2.729  -0.382  -1.573  0.00  0.00     0.062 A 
ATOM      3  C2  UNL d   1      -1.543  -1.108  -1.510  0.00  0.00     0.162 A 
ATOM      4  C3  UNL d   1      -0.335  -0.462  -1.247  0.00  0.00    -0.034 A 
ATOM      5  C4  UNL d   1      -0.331   0.920  -1.050  0.00  0.00     0.162 A 
ATOM      6  C5  UNL d   1      -1.519   1.641  -1.114  0.00  0.00     0.062 A 
ATOM      7  F   UNL d   1      -1.506   2.969  -0.922  0.00  0.00    -0.097 F 
ATOM      8  F1  UNL d   1       0.812   1.573  -0.795  0.00  0.00    -0.096 F 
ATOM      9  I   UNL d   1       1.440  -1.544  -1.153  0.00  0.00    -0.060 I 
ATOM     10  F2  UNL d   1      -1.584  -2.435  -1.705  0.00  0.00    -0.096 F 
ATOM     11  F3  UNL d   1      -3.885  -1.012  -1.826  0.00  0.00    -0.097 F 
ATOM     12  F4  UNL d   1      -3.860   1.688  -1.437  0.00  0.00    -0.092 F 
ENDROOT
TORSDOF 0
ENDMDL
