MODEL 1
REMARK minimizedAffinity 15.773942
REMARK minimizedRMSD -1
REMARK  0 active torsions:
REMARK  status: ('A' for Active; 'I' for Inactive)
ROOT
ATOM      1  C   UNL d   1       0.966   2.525   3.383  0.00  0.00     0.124 A 
ATOM      2  C1  UNL d   1      -0.147   1.828   2.934  0.00  0.00     0.062 A 
ATOM      3  C2  UNL d   1      -0.670   2.084   1.669  0.00  0.00     0.162 A 
ATOM      4  C3  UNL d   1      -0.080   3.042   0.845  0.00  0.00    -0.034 A 
ATOM      5  C4  UNL d   1       1.039   3.740   1.304  0.00  0.00     0.162 A 
ATOM      6  C5  UNL d   1       1.557   3.480   2.569  0.00  0.00     0.062 A 
ATOM      7  F   UNL d   1       2.632   4.155   3.001  0.00  0.00    -0.097 F 
ATOM      8  F1  UNL d   1       1.631   4.667   0.537  0.00  0.00    -0.096 F 
ATOM      9  I   UNL d   1      -0.858   3.428  -1.046  0.00  0.00    -0.060 I 
ATOM     10  F2  UNL d   1      -1.746   1.396   1.261  0.00  0.00    -0.096 F 
ATOM     11  F3  UNL d   1      -0.721   0.905   3.719  0.00  0.00    -0.097 F 
ATOM     12  F4  UNL d   1       1.466   2.277   4.601  0.00  0.00    -0.092 F 
ENDROOT
TORSDOF 0
ENDMDL
