MODEL 1
REMARK minimizedAffinity 17.0133209
REMARK minimizedRMSD -1
REMARK  0 active torsions:
REMARK  status: ('A' for Active; 'I' for Inactive)
ROOT
ATOM      1  C   UNL d   1       0.529   0.746   0.755  0.00  0.00     0.124 A 
ATOM      2  C1  UNL d   1       0.128   1.038   2.052  0.00  0.00     0.062 A 
ATOM      3  C2  UNL d   1       0.384   0.138   3.083  0.00  0.00     0.162 A 
ATOM      4  C3  UNL d   1       1.047  -1.061   2.822  0.00  0.00    -0.034 A 
ATOM      5  C4  UNL d   1       1.447  -1.347   1.515  0.00  0.00     0.162 A 
ATOM      6  C5  UNL d   1       1.188  -0.445   0.488  0.00  0.00     0.062 A 
ATOM      7  F   UNL d   1       1.577  -0.729  -0.763  0.00  0.00    -0.097 F 
ATOM      8  F1  UNL d   1       2.086  -2.491   1.229  0.00  0.00    -0.096 F 
ATOM      9  I   UNL d   1       1.432  -2.408   4.361  0.00  0.00    -0.060 I 
ATOM     10  F2  UNL d   1      -0.015   0.446   4.326  0.00  0.00    -0.096 F 
ATOM     11  F3  UNL d   1      -0.510   2.188   2.312  0.00  0.00    -0.097 F 
ATOM     12  F4  UNL d   1       0.280   1.613  -0.235  0.00  0.00    -0.092 F 
ENDROOT
TORSDOF 0
ENDMDL
