MODEL 1
REMARK minimizedAffinity 1.31730211
REMARK minimizedRMSD -1
REMARK  0 active torsions:
REMARK  status: ('A' for Active; 'I' for Inactive)
ROOT
ATOM      1  C   UNL d   1       4.122  -4.338  -2.360  0.00  0.00     0.124 A 
ATOM      2  C1  UNL d   1       5.001  -4.587  -1.316  0.00  0.00     0.062 A 
ATOM      3  C2  UNL d   1       5.140  -3.665  -0.283  0.00  0.00     0.162 A 
ATOM      4  C3  UNL d   1       4.396  -2.485  -0.288  0.00  0.00    -0.034 A 
ATOM      5  C4  UNL d   1       3.514  -2.241  -1.342  0.00  0.00     0.162 A 
ATOM      6  C5  UNL d   1       3.379  -3.166  -2.372  0.00  0.00     0.062 A 
ATOM      7  F   UNL d   1       2.529  -2.923  -3.381  0.00  0.00    -0.097 F 
ATOM      8  F1  UNL d   1       2.783  -1.117  -1.378  0.00  0.00    -0.096 F 
ATOM      9  I   UNL d   1       4.600  -1.104   1.256  0.00  0.00    -0.060 I 
ATOM     10  F2  UNL d   1       5.997  -3.931   0.714  0.00  0.00    -0.096 F 
ATOM     11  F3  UNL d   1       5.721  -5.718  -1.302  0.00  0.00    -0.097 F 
ATOM     12  F4  UNL d   1       3.991  -5.226  -3.354  0.00  0.00    -0.092 F 
ENDROOT
TORSDOF 0
ENDMDL
