MODEL 1
REMARK minimizedAffinity 14.8587952
REMARK minimizedRMSD -1
REMARK  0 active torsions:
REMARK  status: ('A' for Active; 'I' for Inactive)
ROOT
ATOM      1  C   UNL d   1       1.162  -0.430   0.249  0.00  0.00     0.124 A 
ATOM      2  C1  UNL d   1       0.839   0.493   1.234  0.00  0.00     0.062 A 
ATOM      3  C2  UNL d   1       0.734   0.091   2.562  0.00  0.00     0.162 A 
ATOM      4  C3  UNL d   1       0.952  -1.241   2.914  0.00  0.00    -0.034 A 
ATOM      5  C4  UNL d   1       1.275  -2.164   1.918  0.00  0.00     0.162 A 
ATOM      6  C5  UNL d   1       1.380  -1.757   0.591  0.00  0.00     0.062 A 
ATOM      7  F   UNL d   1       1.692  -2.650  -0.359  0.00  0.00    -0.097 F 
ATOM      8  F1  UNL d   1       1.492  -3.452   2.221  0.00  0.00    -0.096 F 
ATOM      9  I   UNL d   1       0.795  -1.846   4.899  0.00  0.00    -0.060 I 
ATOM     10  F2  UNL d   1       0.420   1.005   3.493  0.00  0.00    -0.096 F 
ATOM     11  F3  UNL d   1       0.628   1.776   0.905  0.00  0.00    -0.097 F 
ATOM     12  F4  UNL d   1       1.262  -0.041  -1.029  0.00  0.00    -0.092 F 
ENDROOT
TORSDOF 0
ENDMDL
