MODEL 1
REMARK minimizedAffinity 20.92202
REMARK minimizedRMSD -1
REMARK  0 active torsions:
REMARK  status: ('A' for Active; 'I' for Inactive)
ROOT
ATOM      1  C   UNL d   1       4.316  -2.419  -1.518  0.00  0.00     0.124 A 
ATOM      2  C1  UNL d   1       4.510  -3.737  -1.128  0.00  0.00     0.062 A 
ATOM      3  C2  UNL d   1       4.666  -4.735  -2.086  0.00  0.00     0.162 A 
ATOM      4  C3  UNL d   1       4.630  -4.418  -3.444  0.00  0.00    -0.034 A 
ATOM      5  C4  UNL d   1       4.434  -3.091  -3.828  0.00  0.00     0.162 A 
ATOM      6  C5  UNL d   1       4.278  -2.097  -2.867  0.00  0.00     0.062 A 
ATOM      7  F   UNL d   1       4.091  -0.825  -3.245  0.00  0.00    -0.097 F 
ATOM      8  F1  UNL d   1       4.394  -2.752  -5.125  0.00  0.00    -0.096 F 
ATOM      9  I   UNL d   1       4.864  -5.907  -4.879  0.00  0.00    -0.060 I 
ATOM     10  F2  UNL d   1       4.852  -6.000  -1.680  0.00  0.00    -0.096 F 
ATOM     11  F3  UNL d   1       4.546  -4.051   0.175  0.00  0.00    -0.097 F 
ATOM     12  F4  UNL d   1       4.165  -1.462  -0.594  0.00  0.00    -0.092 F 
ENDROOT
TORSDOF 0
ENDMDL
