MODEL 1
REMARK minimizedAffinity -4.46633434
REMARK minimizedRMSD -1
REMARK  2 active torsions:
REMARK  status: ('A' for Active; 'I' for Inactive)
REMARK    1  A    between atoms: C1_2  and  C2_3 
REMARK    2  A    between atoms: C2_3  and  C3_4 
ROOT
ATOM      1  C3  UNL d   1      -0.122  -0.253   0.069  0.00  0.00    -0.075 A 
ATOM      2  C4  UNL d   1       0.623   0.654  -0.698  0.00  0.00     0.002 A 
ATOM      3  C5  UNL d   1       0.309   2.013  -0.693  0.00  0.00     0.002 A 
ATOM      4  C6  UNL d   1      -0.759   2.481   0.070  0.00  0.00    -0.004 A 
ATOM      5  C7  UNL d   1      -1.517   1.587   0.823  0.00  0.00     0.002 A 
ATOM      6  C8  UNL d   1      -1.202   0.227   0.823  0.00  0.00     0.002 A 
ENDROOT
BRANCH   1   7
ATOM      7  C2  UNL d   1       0.231  -1.721   0.090  0.00  0.00     0.056 C 
BRANCH   7   8
ATOM      8  C1  UNL d   1      -0.910  -2.644  -0.349  0.00  0.00     0.007 C 
ATOM      9  C   UNL d   1      -0.743  -3.174  -1.767  0.00  0.00     0.009 C 
ENDBRANCH   7   8
ENDBRANCH   1   7
TORSDOF 2
ENDMDL
