MODEL 1
REMARK minimizedAffinity -5.3036623
REMARK minimizedRMSD -1
REMARK  2 active torsions:
REMARK  status: ('A' for Active; 'I' for Inactive)
REMARK    1  A    between atoms: C1_2  and  C2_3 
REMARK    2  A    between atoms: C2_3  and  C3_4 
ROOT
ATOM      1  C3  UNL d   1      -0.517   0.692   0.378  0.00  0.00    -0.075 A 
ATOM      2  C4  UNL d   1       0.610   1.034  -0.383  0.00  0.00     0.002 A 
ATOM      3  C5  UNL d   1       0.942   2.373  -0.594  0.00  0.00     0.002 A 
ATOM      4  C6  UNL d   1       0.147   3.384  -0.059  0.00  0.00    -0.004 A 
ATOM      5  C7  UNL d   1      -0.985   3.055   0.685  0.00  0.00     0.002 A 
ATOM      6  C8  UNL d   1      -1.316   1.716   0.902  0.00  0.00     0.002 A 
ENDROOT
BRANCH   1   7
ATOM      7  C2  UNL d   1      -0.865  -0.755   0.635  0.00  0.00     0.056 C 
BRANCH   7   8
ATOM      8  C1  UNL d   1       0.143  -1.752   0.053  0.00  0.00     0.007 C 
ATOM      9  C   UNL d   1      -0.514  -2.889  -0.718  0.00  0.00     0.009 C 
ENDBRANCH   7   8
ENDBRANCH   1   7
TORSDOF 2
ENDMDL
