MODEL 1
REMARK minimizedAffinity -2.28749871
REMARK minimizedRMSD -1
REMARK  2 active torsions:
REMARK  status: ('A' for Active; 'I' for Inactive)
REMARK    1  A    between atoms: C1_2  and  C2_3 
REMARK    2  A    between atoms: C2_3  and  C3_4 
ROOT
ATOM      1  C3  UNL d   1       0.084  -0.509   0.049  0.00  0.00    -0.075 A 
ATOM      2  C4  UNL d   1       1.177   0.247  -0.398  0.00  0.00     0.002 A 
ATOM      3  C5  UNL d   1       1.135   1.641  -0.367  0.00  0.00     0.002 A 
ATOM      4  C6  UNL d   1      -0.002   2.296   0.101  0.00  0.00    -0.004 A 
ATOM      5  C7  UNL d   1      -1.101   1.556   0.532  0.00  0.00     0.002 A 
ATOM      6  C8  UNL d   1      -1.060   0.160   0.505  0.00  0.00     0.002 A 
ENDROOT
BRANCH   1   7
ATOM      7  C2  UNL d   1       0.134  -2.018   0.045  0.00  0.00     0.056 C 
BRANCH   7   8
ATOM      8  C1  UNL d   1       0.350  -2.631  -1.343  0.00  0.00     0.007 C 
ATOM      9  C   UNL d   1      -0.739  -3.620  -1.738  0.00  0.00     0.009 C 
ENDBRANCH   7   8
ENDBRANCH   1   7
TORSDOF 2
ENDMDL
