MODEL 1
REMARK minimizedAffinity -4.88939619
REMARK minimizedRMSD -1
REMARK  2 active torsions:
REMARK  status: ('A' for Active; 'I' for Inactive)
REMARK    1  A    between atoms: C1_2  and  C2_3 
REMARK    2  A    between atoms: C2_3  and  C3_4 
ROOT
ATOM      1  C3  UNL d   1      -0.222  -0.166  -0.089  0.00  0.00    -0.075 A 
ATOM      2  C4  UNL d   1      -1.106   0.494   0.777  0.00  0.00     0.002 A 
ATOM      3  C5  UNL d   1      -1.097   1.886   0.874  0.00  0.00     0.002 A 
ATOM      4  C6  UNL d   1      -0.199   2.633   0.116  0.00  0.00    -0.004 A 
ATOM      5  C7  UNL d   1       0.696   1.988  -0.735  0.00  0.00     0.002 A 
ATOM      6  C8  UNL d   1       0.685   0.596  -0.837  0.00  0.00     0.002 A 
ENDROOT
BRANCH   1   7
ATOM      7  C2  UNL d   1      -0.248  -1.670  -0.220  0.00  0.00     0.056 C 
BRANCH   7   8
ATOM      8  C1  UNL d   1      -0.094  -2.173  -1.659  0.00  0.00     0.007 C 
ATOM      9  C   UNL d   1      -1.157  -3.188  -2.058  0.00  0.00     0.009 C 
ENDBRANCH   7   8
ENDBRANCH   1   7
TORSDOF 2
ENDMDL
