MODEL 1
REMARK minimizedAffinity -4.76803541
REMARK minimizedRMSD -1
REMARK  2 active torsions:
REMARK  status: ('A' for Active; 'I' for Inactive)
REMARK    1  A    between atoms: C1_2  and  C2_3 
REMARK    2  A    between atoms: C2_3  and  C3_4 
ROOT
ATOM      1  C3  UNL d   1       0.580   1.168   0.743  0.00  0.00    -0.075 A 
ATOM      2  C4  UNL d   1       0.140   2.493   0.608  0.00  0.00     0.002 A 
ATOM      3  C5  UNL d   1       1.038   3.509   0.280  0.00  0.00     0.002 A 
ATOM      4  C6  UNL d   1       2.387   3.215   0.093  0.00  0.00    -0.004 A 
ATOM      5  C7  UNL d   1       2.839   1.906   0.241  0.00  0.00     0.002 A 
ATOM      6  C8  UNL d   1       1.941   0.887   0.565  0.00  0.00     0.002 A 
ENDROOT
BRANCH   1   7
ATOM      7  C2  UNL d   1      -0.393   0.060   1.069  0.00  0.00     0.056 C 
BRANCH   7   8
ATOM      8  C1  UNL d   1       0.125  -1.343   0.734  0.00  0.00     0.007 C 
ATOM      9  C   UNL d   1      -0.303  -1.827  -0.645  0.00  0.00     0.009 C 
ENDBRANCH   7   8
ENDBRANCH   1   7
TORSDOF 2
ENDMDL
