MODEL 1
REMARK minimizedAffinity -3.3553431
REMARK minimizedRMSD -1
REMARK  2 active torsions:
REMARK  status: ('A' for Active; 'I' for Inactive)
REMARK    1  A    between atoms: C1_2  and  C2_3 
REMARK    2  A    between atoms: C2_3  and  C3_4 
ROOT
ATOM      1  C3  UNL d   1      -0.021   0.333   0.421  0.00  0.00    -0.075 A 
ATOM      2  C4  UNL d   1      -1.075   0.535   1.324  0.00  0.00     0.002 A 
ATOM      3  C5  UNL d   1      -1.608   1.810   1.517  0.00  0.00     0.002 A 
ATOM      4  C6  UNL d   1      -1.089   2.898   0.819  0.00  0.00    -0.004 A 
ATOM      5  C7  UNL d   1      -0.031   2.712  -0.069  0.00  0.00     0.002 A 
ATOM      6  C8  UNL d   1       0.501   1.437  -0.267  0.00  0.00     0.002 A 
ENDROOT
BRANCH   1   7
ATOM      7  C2  UNL d   1       0.540  -1.049   0.185  0.00  0.00     0.056 C 
BRANCH   7   8
ATOM      8  C1  UNL d   1       0.067  -1.701  -1.118  0.00  0.00     0.007 C 
ATOM      9  C   UNL d   1      -1.094  -2.666  -0.919  0.00  0.00     0.009 C 
ENDBRANCH   7   8
ENDBRANCH   1   7
TORSDOF 2
ENDMDL
