MODEL 1
REMARK minimizedAffinity -4.63773918
REMARK minimizedRMSD -1
REMARK  2 active torsions:
REMARK  status: ('A' for Active; 'I' for Inactive)
REMARK    1  A    between atoms: C1_2  and  C2_3 
REMARK    2  A    between atoms: C2_3  and  C3_4 
ROOT
ATOM      1  C3  UNL d   1      -0.415  -0.140   0.165  0.00  0.00    -0.075 A 
ATOM      2  C4  UNL d   1       0.859   0.296   0.558  0.00  0.00     0.002 A 
ATOM      3  C5  UNL d   1       1.101   1.648   0.800  0.00  0.00     0.002 A 
ATOM      4  C6  UNL d   1       0.079   2.581   0.643  0.00  0.00    -0.004 A 
ATOM      5  C7  UNL d   1      -1.186   2.162   0.237  0.00  0.00     0.002 A 
ATOM      6  C8  UNL d   1      -1.433   0.809  -0.002  0.00  0.00     0.002 A 
ENDROOT
BRANCH   1   7
ATOM      7  C2  UNL d   1      -0.691  -1.606  -0.071  0.00  0.00     0.056 C 
BRANCH   7   8
ATOM      8  C1  UNL d   1      -0.391  -2.076  -1.498  0.00  0.00     0.007 C 
ATOM      9  C   UNL d   1      -1.313  -3.193  -1.969  0.00  0.00     0.009 C 
ENDBRANCH   7   8
ENDBRANCH   1   7
TORSDOF 2
ENDMDL
