MODEL 1
REMARK minimizedAffinity -2.66541433
REMARK minimizedRMSD -1
REMARK  2 active torsions:
REMARK  status: ('A' for Active; 'I' for Inactive)
REMARK    1  A    between atoms: C1_2  and  C2_3 
REMARK    2  A    between atoms: C2_3  and  C3_4 
ROOT
ATOM      1  C3  UNL d   1       0.571   1.644  -0.108  0.00  0.00    -0.075 A 
ATOM      2  C4  UNL d   1       0.391   2.775   0.701  0.00  0.00     0.002 A 
ATOM      3  C5  UNL d   1      -0.672   2.840   1.602  0.00  0.00     0.002 A 
ATOM      4  C6  UNL d   1      -1.573   1.782   1.698  0.00  0.00    -0.004 A 
ATOM      5  C7  UNL d   1      -1.413   0.660   0.888  0.00  0.00     0.002 A 
ATOM      6  C8  UNL d   1      -0.348   0.590  -0.011  0.00  0.00     0.002 A 
ENDROOT
BRANCH   1   7
ATOM      7  C2  UNL d   1       1.736   1.555  -1.064  0.00  0.00     0.056 C 
BRANCH   7   8
ATOM      8  C1  UNL d   1       3.073   1.226  -0.390  0.00  0.00     0.007 C 
ATOM      9  C   UNL d   1       2.956   0.153   0.684  0.00  0.00     0.009 C 
ENDBRANCH   7   8
ENDBRANCH   1   7
TORSDOF 2
ENDMDL
