MODEL 1
REMARK minimizedAffinity -0.272874564
REMARK minimizedRMSD -1
REMARK  2 active torsions:
REMARK  status: ('A' for Active; 'I' for Inactive)
REMARK    1  A    between atoms: C1_2  and  C2_3 
REMARK    2  A    between atoms: C2_3  and  C3_4 
ROOT
ATOM      1  C3  UNL d   1       0.040  -0.072   0.395  0.00  0.00    -0.075 A 
ATOM      2  C4  UNL d   1       1.350   0.302   0.728  0.00  0.00     0.002 A 
ATOM      3  C5  UNL d   1       1.625   1.592   1.183  0.00  0.00     0.002 A 
ATOM      4  C6  UNL d   1       0.598   2.525   1.302  0.00  0.00    -0.004 A 
ATOM      5  C7  UNL d   1      -0.705   2.170   0.958  0.00  0.00     0.002 A 
ATOM      6  C8  UNL d   1      -0.983   0.879   0.506  0.00  0.00     0.002 A 
ENDROOT
BRANCH   1   7
ATOM      7  C2  UNL d   1      -0.268  -1.475  -0.071  0.00  0.00     0.056 C 
BRANCH   7   8
ATOM      8  C1  UNL d   1      -0.771  -1.556  -1.516  0.00  0.00     0.007 C 
ATOM      9  C   UNL d   1      -1.475  -2.868  -1.833  0.00  0.00     0.009 C 
ENDBRANCH   7   8
ENDBRANCH   1   7
TORSDOF 2
ENDMDL
