MODEL 1
REMARK minimizedAffinity -4.89254713
REMARK minimizedRMSD -1
REMARK  2 active torsions:
REMARK  status: ('A' for Active; 'I' for Inactive)
REMARK    1  A    between atoms: C1_2  and  C2_3 
REMARK    2  A    between atoms: C2_3  and  C3_4 
ROOT
ATOM      1  C3  UNL d   1       0.052   0.487   0.150  0.00  0.00    -0.075 A 
ATOM      2  C4  UNL d   1      -0.641   1.222   1.122  0.00  0.00     0.002 A 
ATOM      3  C5  UNL d   1      -0.934   2.570   0.916  0.00  0.00     0.002 A 
ATOM      4  C6  UNL d   1      -0.529   3.203  -0.257  0.00  0.00    -0.004 A 
ATOM      5  C7  UNL d   1       0.175   2.487  -1.223  0.00  0.00     0.002 A 
ATOM      6  C8  UNL d   1       0.465   1.137  -1.021  0.00  0.00     0.002 A 
ENDROOT
BRANCH   1   7
ATOM      7  C2  UNL d   1       0.347  -0.980   0.354  0.00  0.00     0.056 C 
BRANCH   7   8
ATOM      8  C1  UNL d   1       0.087  -1.846  -0.883  0.00  0.00     0.007 C 
ATOM      9  C   UNL d   1      -0.769  -3.071  -0.590  0.00  0.00     0.009 C 
ENDBRANCH   7   8
ENDBRANCH   1   7
TORSDOF 2
ENDMDL
