MODEL 1
REMARK minimizedAffinity -3.96146059
REMARK minimizedRMSD -1
REMARK  2 active torsions:
REMARK  status: ('A' for Active; 'I' for Inactive)
REMARK    1  A    between atoms: C1_2  and  C2_3 
REMARK    2  A    between atoms: C2_3  and  C3_4 
ROOT
ATOM      1  C3  UNL d   1      -0.044   0.077  -0.008  0.00  0.00    -0.075 A 
ATOM      2  C4  UNL d   1       0.600   0.697  -1.089  0.00  0.00     0.002 A 
ATOM      3  C5  UNL d   1       0.684   2.088  -1.161  0.00  0.00     0.002 A 
ATOM      4  C6  UNL d   1       0.117   2.875  -0.161  0.00  0.00    -0.004 A 
ATOM      5  C7  UNL d   1      -0.540   2.271   0.908  0.00  0.00     0.002 A 
ATOM      6  C8  UNL d   1      -0.621   0.879   0.985  0.00  0.00     0.002 A 
ENDROOT
BRANCH   1   7
ATOM      7  C2  UNL d   1      -0.112  -1.428   0.091  0.00  0.00     0.056 C 
BRANCH   7   8
ATOM      8  C1  UNL d   1      -0.248  -2.137  -1.261  0.00  0.00     0.007 C 
ATOM      9  C   UNL d   1      -1.068  -3.418  -1.188  0.00  0.00     0.009 C 
ENDBRANCH   7   8
ENDBRANCH   1   7
TORSDOF 2
ENDMDL
