MODEL 1
REMARK minimizedAffinity -3.97263575
REMARK minimizedRMSD -1
REMARK  2 active torsions:
REMARK  status: ('A' for Active; 'I' for Inactive)
REMARK    1  A    between atoms: C1_2  and  C2_3 
REMARK    2  A    between atoms: C2_3  and  C3_4 
ROOT
ATOM      1  C3  UNL d   1       0.240   0.002   0.309  0.00  0.00    -0.075 A 
ATOM      2  C4  UNL d   1      -0.782   0.637   1.029  0.00  0.00     0.002 A 
ATOM      3  C5  UNL d   1      -0.971   2.015   0.925  0.00  0.00     0.002 A 
ATOM      4  C6  UNL d   1      -0.136   2.776   0.110  0.00  0.00    -0.004 A 
ATOM      5  C7  UNL d   1       0.893   2.158  -0.597  0.00  0.00     0.002 A 
ATOM      6  C8  UNL d   1       1.081   0.779  -0.499  0.00  0.00     0.002 A 
ENDROOT
BRANCH   1   7
ATOM      7  C2  UNL d   1       0.431  -1.494   0.394  0.00  0.00     0.056 C 
BRANCH   7   8
ATOM      8  C1  UNL d   1      -0.145  -2.265  -0.798  0.00  0.00     0.007 C 
ATOM      9  C   UNL d   1      -1.348  -3.125  -0.432  0.00  0.00     0.009 C 
ENDBRANCH   7   8
ENDBRANCH   1   7
TORSDOF 2
ENDMDL
