MODEL 1
REMARK minimizedAffinity -2.02296567
REMARK minimizedRMSD -1
REMARK  2 active torsions:
REMARK  status: ('A' for Active; 'I' for Inactive)
REMARK    1  A    between atoms: C1_2  and  C2_3 
REMARK    2  A    between atoms: C2_3  and  C3_4 
ROOT
ATOM      1  C3  UNL d   1       0.132   1.031   0.058  0.00  0.00    -0.075 A 
ATOM      2  C4  UNL d   1       1.429   0.496   0.083  0.00  0.00     0.002 A 
ATOM      3  C5  UNL d   1       1.636  -0.846   0.404  0.00  0.00     0.002 A 
ATOM      4  C6  UNL d   1       0.553  -1.666   0.713  0.00  0.00    -0.004 A 
ATOM      5  C7  UNL d   1      -0.737  -1.142   0.708  0.00  0.00     0.002 A 
ATOM      6  C8  UNL d   1      -0.948   0.199   0.383  0.00  0.00     0.002 A 
ENDROOT
BRANCH   1   7
ATOM      7  C2  UNL d   1      -0.101   2.475  -0.316  0.00  0.00     0.056 C 
BRANCH   7   8
ATOM      8  C1  UNL d   1       0.057   3.455   0.850  0.00  0.00     0.007 C 
ATOM      9  C   UNL d   1      -0.879   3.160   2.014  0.00  0.00     0.009 C 
ENDBRANCH   7   8
ENDBRANCH   1   7
TORSDOF 2
ENDMDL
