MODEL 1
REMARK minimizedAffinity 4.39967012
REMARK minimizedRMSD -1
REMARK  1 active torsions:
REMARK  status: ('A' for Active; 'I' for Inactive)
REMARK    1  A    between atoms: C1_2  and  C2_3 
ROOT
ATOM      1  C2  UNL d   1      -1.379  -0.837   0.969  0.00  0.00    -0.076 A 
ATOM      2  C3  UNL d   1      -2.392   0.055   0.575  0.00  0.00     0.004 A 
ATOM      3  C4  UNL d   1      -2.836   1.060   1.432  0.00  0.00    -0.003 A 
ATOM      4  C5  UNL d   1      -2.274   1.191   2.697  0.00  0.00     0.000 A 
ATOM      5  C6  UNL d   1      -1.256   0.326   3.098  0.00  0.00     0.000 A 
ATOM      6  C7  UNL d   1      -0.785  -0.683   2.240  0.00  0.00    -0.073 A 
ATOM      7  C8  UNL d   1       0.311  -1.591   2.726  0.00  0.00     0.078 C 
ENDROOT
BRANCH   1   8
ATOM      8  C1  UNL d   1      -0.957  -1.925   0.007  0.00  0.00     0.053 C 
ATOM      9  C   UNL d   1      -2.081  -2.905  -0.293  0.00  0.00     0.018 C 
ENDBRANCH   1   8
TORSDOF 1
ENDMDL
