MODEL 1
REMARK minimizedAffinity -2.82667637
REMARK minimizedRMSD -1
REMARK  1 active torsions:
REMARK  status: ('A' for Active; 'I' for Inactive)
REMARK    1  A    between atoms: C1_2  and  C2_3 
ROOT
ATOM      1  C2  UNL d   1      -0.744   0.372  -4.962  0.00  0.00    -0.076 A 
ATOM      2  C3  UNL d   1      -0.143   1.635  -4.817  0.00  0.00     0.004 A 
ATOM      3  C4  UNL d   1       1.182   1.846  -5.195  0.00  0.00    -0.003 A 
ATOM      4  C5  UNL d   1       1.928   0.798  -5.724  0.00  0.00     0.000 A 
ATOM      5  C6  UNL d   1       1.342  -0.456  -5.892  0.00  0.00     0.000 A 
ATOM      6  C7  UNL d   1       0.002  -0.682  -5.531  0.00  0.00    -0.073 A 
ATOM      7  C8  UNL d   1      -0.576  -2.056  -5.728  0.00  0.00     0.078 C 
ENDROOT
BRANCH   1   8
ATOM      8  C1  UNL d   1      -2.176   0.196  -4.510  0.00  0.00     0.053 C 
ATOM      9  C   UNL d   1      -3.173   0.403  -5.640  0.00  0.00     0.018 C 
ENDBRANCH   1   8
TORSDOF 1
ENDMDL
