MODEL 1
REMARK minimizedAffinity 3.34530735
REMARK minimizedRMSD -1
REMARK  1 active torsions:
REMARK  status: ('A' for Active; 'I' for Inactive)
REMARK    1  A    between atoms: C1_2  and  C2_3 
ROOT
ATOM      1  C2  UNL d   1      -0.457  -1.518  -3.571  0.00  0.00    -0.076 A 
ATOM      2  C3  UNL d   1      -0.721  -0.137  -3.535  0.00  0.00     0.004 A 
ATOM      3  C4  UNL d   1      -0.842   0.600  -4.712  0.00  0.00    -0.003 A 
ATOM      4  C5  UNL d   1      -0.703  -0.031  -5.943  0.00  0.00     0.000 A 
ATOM      5  C6  UNL d   1      -0.459  -1.403  -5.997  0.00  0.00     0.000 A 
ATOM      6  C7  UNL d   1      -0.350  -2.164  -4.820  0.00  0.00    -0.073 A 
ATOM      7  C8  UNL d   1      -0.080  -3.639  -4.937  0.00  0.00     0.078 C 
ENDROOT
BRANCH   1   8
ATOM      8  C1  UNL d   1      -0.309  -2.260  -2.262  0.00  0.00     0.053 C 
ATOM      9  C   UNL d   1      -1.022  -1.564  -1.113  0.00  0.00     0.018 C 
ENDBRANCH   1   8
TORSDOF 1
ENDMDL
