MODEL 1
REMARK minimizedAffinity -2.70107031
REMARK minimizedRMSD -1
REMARK  1 active torsions:
REMARK  status: ('A' for Active; 'I' for Inactive)
REMARK    1  A    between atoms: C1_2  and  C2_3 
ROOT
ATOM      1  C2  UNL d   1       0.551  -2.628  -3.181  0.00  0.00    -0.076 A 
ATOM      2  C3  UNL d   1       1.874  -2.749  -3.642  0.00  0.00     0.004 A 
ATOM      3  C4  UNL d   1       2.922  -2.996  -2.757  0.00  0.00    -0.003 A 
ATOM      4  C5  UNL d   1       2.665  -3.126  -1.396  0.00  0.00     0.000 A 
ATOM      5  C6  UNL d   1       1.356  -3.027  -0.924  0.00  0.00     0.000 A 
ATOM      6  C7  UNL d   1       0.286  -2.795  -1.805  0.00  0.00    -0.073 A 
ATOM      7  C8  UNL d   1      -1.104  -2.691  -1.240  0.00  0.00     0.078 C 
ENDROOT
BRANCH   1   8
ATOM      8  C1  UNL d   1      -0.541  -2.333  -4.184  0.00  0.00     0.053 C 
ATOM      9  C   UNL d   1       0.005  -1.800  -5.500  0.00  0.00     0.018 C 
ENDBRANCH   1   8
TORSDOF 1
ENDMDL
