MODEL 1
REMARK minimizedAffinity 7.38047695
REMARK minimizedRMSD -1
REMARK  1 active torsions:
REMARK  status: ('A' for Active; 'I' for Inactive)
REMARK    1  A    between atoms: C1_2  and  C2_3 
ROOT
ATOM      1  C2  UNL d   1      -2.474  -1.311   0.690  0.00  0.00    -0.076 A 
ATOM      2  C3  UNL d   1      -2.893  -0.252   1.514  0.00  0.00     0.004 A 
ATOM      3  C4  UNL d   1      -2.036   0.299   2.466  0.00  0.00    -0.003 A 
ATOM      4  C5  UNL d   1      -0.746  -0.200   2.608  0.00  0.00     0.000 A 
ATOM      5  C6  UNL d   1      -0.308  -1.238   1.788  0.00  0.00     0.000 A 
ATOM      6  C7  UNL d   1      -1.154  -1.794   0.813  0.00  0.00    -0.073 A 
ATOM      7  C8  UNL d   1      -0.631  -2.917  -0.041  0.00  0.00     0.078 C 
ENDROOT
BRANCH   1   8
ATOM      8  C1  UNL d   1      -3.456  -1.887  -0.305  0.00  0.00     0.053 C 
ATOM      9  C   UNL d   1      -3.826  -3.328   0.009  0.00  0.00     0.018 C 
ENDBRANCH   1   8
TORSDOF 1
ENDMDL
