MODEL 1
REMARK minimizedAffinity 2.79386139
REMARK minimizedRMSD -1
REMARK  1 active torsions:
REMARK  status: ('A' for Active; 'I' for Inactive)
REMARK    1  A    between atoms: C1_2  and  C2_3 
ROOT
ATOM      1  C2  UNL d   1      -0.854  -1.110   3.631  0.00  0.00    -0.076 A 
ATOM      2  C3  UNL d   1      -0.752  -2.257   4.437  0.00  0.00     0.004 A 
ATOM      3  C4  UNL d   1      -1.874  -2.793   5.067  0.00  0.00    -0.003 A 
ATOM      4  C5  UNL d   1      -3.116  -2.191   4.901  0.00  0.00     0.000 A 
ATOM      5  C6  UNL d   1      -3.238  -1.062   4.091  0.00  0.00     0.000 A 
ATOM      6  C7  UNL d   1      -2.120  -0.519   3.435  0.00  0.00    -0.073 A 
ATOM      7  C8  UNL d   1      -2.309   0.702   2.578  0.00  0.00     0.078 C 
ENDROOT
BRANCH   1   8
ATOM      8  C1  UNL d   1       0.402  -0.558   2.995  0.00  0.00     0.053 C 
ATOM      9  C   UNL d   1       1.596  -1.485   3.163  0.00  0.00     0.018 C 
ENDBRANCH   1   8
TORSDOF 1
ENDMDL
