MODEL 1
REMARK minimizedAffinity 7.88223124
REMARK minimizedRMSD -1
REMARK  1 active torsions:
REMARK  status: ('A' for Active; 'I' for Inactive)
REMARK    1  A    between atoms: C1_2  and  C2_3 
ROOT
ATOM      1  C2  UNL d   1      -1.958  -0.378  -4.147  0.00  0.00    -0.076 A 
ATOM      2  C3  UNL d   1      -3.205  -0.945  -3.828  0.00  0.00     0.004 A 
ATOM      3  C4  UNL d   1      -4.341  -0.645  -4.577  0.00  0.00    -0.003 A 
ATOM      4  C5  UNL d   1      -4.250   0.225  -5.658  0.00  0.00     0.000 A 
ATOM      5  C6  UNL d   1      -3.019   0.783  -5.999  0.00  0.00     0.000 A 
ATOM      6  C7  UNL d   1      -1.860   0.479  -5.265  0.00  0.00    -0.073 A 
ATOM      7  C8  UNL d   1      -0.559   1.113  -5.673  0.00  0.00     0.078 C 
ENDROOT
BRANCH   1   8
ATOM      8  C1  UNL d   1      -0.766  -0.718  -3.283  0.00  0.00     0.053 C 
ATOM      9  C   UNL d   1      -0.058  -1.985  -3.739  0.00  0.00     0.018 C 
ENDBRANCH   1   8
TORSDOF 1
ENDMDL
