MODEL 1
REMARK minimizedAffinity -1.32759809
REMARK minimizedRMSD -1
REMARK  1 active torsions:
REMARK  status: ('A' for Active; 'I' for Inactive)
REMARK    1  A    between atoms: C1_2  and  C2_3 
ROOT
ATOM      1  C2  UNL d   1      -1.584  -0.580  -4.245  0.00  0.00    -0.076 A 
ATOM      2  C3  UNL d   1      -2.068  -1.098  -3.031  0.00  0.00     0.004 A 
ATOM      3  C4  UNL d   1      -1.335  -2.039  -2.310  0.00  0.00    -0.003 A 
ATOM      4  C5  UNL d   1      -0.106  -2.477  -2.790  0.00  0.00     0.000 A 
ATOM      5  C6  UNL d   1       0.398  -1.960  -3.984  0.00  0.00     0.000 A 
ATOM      6  C7  UNL d   1      -0.321  -0.999  -4.715  0.00  0.00    -0.073 A 
ATOM      7  C8  UNL d   1       0.267  -0.480  -5.999  0.00  0.00     0.078 C 
ENDROOT
BRANCH   1   8
ATOM      8  C1  UNL d   1      -2.435   0.418  -4.997  0.00  0.00     0.053 C 
ATOM      9  C   UNL d   1      -3.806  -0.137  -5.354  0.00  0.00     0.018 C 
ENDBRANCH   1   8
TORSDOF 1
ENDMDL
