MODEL 1
REMARK minimizedAffinity 10.1509447
REMARK minimizedRMSD -1
REMARK  1 active torsions:
REMARK  status: ('A' for Active; 'I' for Inactive)
REMARK    1  A    between atoms: C1_2  and  C2_3 
ROOT
ATOM      1  C2  UNL d   1      -1.202  -0.415   2.037  0.00  0.00    -0.076 A 
ATOM      2  C3  UNL d   1      -0.012  -0.243   2.766  0.00  0.00     0.004 A 
ATOM      3  C4  UNL d   1       1.152  -0.922   2.409  0.00  0.00    -0.003 A 
ATOM      4  C5  UNL d   1       1.145  -1.783   1.317  0.00  0.00     0.000 A 
ATOM      5  C6  UNL d   1      -0.022  -1.952   0.572  0.00  0.00     0.000 A 
ATOM      6  C7  UNL d   1      -1.200  -1.263   0.909  0.00  0.00    -0.073 A 
ATOM      7  C8  UNL d   1      -2.431  -1.487   0.075  0.00  0.00     0.078 C 
ENDROOT
BRANCH   1   8
ATOM      8  C1  UNL d   1      -2.441   0.327   2.488  0.00  0.00     0.053 C 
ATOM      9  C   UNL d   1      -2.562   1.701   1.848  0.00  0.00     0.018 C 
ENDBRANCH   1   8
TORSDOF 1
ENDMDL
