MODEL 1
REMARK minimizedAffinity 11.2030182
REMARK minimizedRMSD -1
REMARK  0 active torsions:
REMARK  status: ('A' for Active; 'I' for Inactive)
ROOT
ATOM      1  O1  BZF d   1       3.640   4.124   3.652  0.00  0.00    -0.204 OA
ATOM      2  C2  BZF d   1       4.541   5.133   3.372  0.00  0.00     0.174 A 
ATOM      3  C3  BZF d   1       4.030   5.995   2.469  0.00  0.00    -0.012 A 
ATOM      4  C3A BZF d   1       2.692   5.545   2.236  0.00  0.00    -0.107 A 
ATOM      5  C4  BZF d   1       1.672   6.000   1.450  0.00  0.00     0.055 A 
ATOM      6  C5  BZF d   1       0.514   5.290   1.393  0.00  0.00    -0.016 A 
ATOM      7  C6  BZF d   1       0.345   4.120   2.104  0.00  0.00     0.022 A 
ATOM      8  C7  BZF d   1       1.326   3.631   2.901  0.00  0.00     0.029 A 
ATOM      9  C7A BZF d   1       2.485   4.364   2.986  0.00  0.00     0.058 A 
ENDROOT
TORSDOF 0
ENDMDL
