MODEL 1
REMARK minimizedAffinity 8.14232731
REMARK minimizedRMSD -1
REMARK  0 active torsions:
REMARK  status: ('A' for Active; 'I' for Inactive)
ROOT
ATOM      1  O1  BZF d   1       4.878   1.860  -3.003  0.00  0.00    -0.204 OA
ATOM      2  C2  BZF d   1       5.981   2.538  -2.521  0.00  0.00     0.174 A 
ATOM      3  C3  BZF d   1       6.000   2.523  -1.173  0.00  0.00    -0.012 A 
ATOM      4  C3A BZF d   1       4.886   1.711  -0.790  0.00  0.00    -0.107 A 
ATOM      5  C4  BZF d   1       4.389   1.308   0.417  0.00  0.00     0.055 A 
ATOM      6  C5  BZF d   1       3.243   0.579   0.448  0.00  0.00    -0.016 A 
ATOM      7  C6  BZF d   1       2.566   0.239  -0.705  0.00  0.00     0.022 A 
ATOM      8  C7  BZF d   1       3.024   0.611  -1.925  0.00  0.00     0.029 A 
ATOM      9  C7A BZF d   1       4.199   1.321  -1.963  0.00  0.00     0.058 A 
ENDROOT
TORSDOF 0
ENDMDL
