MODEL 1
REMARK minimizedAffinity 6.28752756
REMARK minimizedRMSD -1
REMARK  0 active torsions:
REMARK  status: ('A' for Active; 'I' for Inactive)
ROOT
ATOM      1  O1  BZF d   1       4.323   1.419  -3.064  0.00  0.00    -0.204 OA
ATOM      2  C2  BZF d   1       5.386   2.275  -2.847  0.00  0.00     0.174 A 
ATOM      3  C3  BZF d   1       5.586   2.465  -1.527  0.00  0.00    -0.012 A 
ATOM      4  C3A BZF d   1       4.645   1.606  -0.876  0.00  0.00    -0.107 A 
ATOM      5  C4  BZF d   1       4.367   1.339   0.434  0.00  0.00     0.055 A 
ATOM      6  C5  BZF d   1       3.337   0.505   0.734  0.00  0.00    -0.016 A 
ATOM      7  C6  BZF d   1       2.562  -0.074  -0.249  0.00  0.00     0.022 A 
ATOM      8  C7  BZF d   1       2.801   0.158  -1.563  0.00  0.00     0.029 A 
ATOM      9  C7A BZF d   1       3.863   0.974  -1.870  0.00  0.00     0.058 A 
ENDROOT
TORSDOF 0
ENDMDL
