MODEL 1
REMARK minimizedAffinity 1.92922318
REMARK minimizedRMSD -1
REMARK  0 active torsions:
REMARK  status: ('A' for Active; 'I' for Inactive)
ROOT
ATOM      1  O1  BZF d   1       4.519   0.754  -3.690  0.00  0.00    -0.204 OA
ATOM      2  C2  BZF d   1       5.684   1.496  -3.702  0.00  0.00     0.174 A 
ATOM      3  C3  BZF d   1       5.988   1.930  -2.462  0.00  0.00    -0.012 A 
ATOM      4  C3A BZF d   1       4.998   1.350  -1.608  0.00  0.00    -0.107 A 
ATOM      5  C4  BZF d   1       4.775   1.398  -0.261  0.00  0.00     0.055 A 
ATOM      6  C5  BZF d   1       3.678   0.780   0.249  0.00  0.00    -0.016 A 
ATOM      7  C6  BZF d   1       2.780   0.112  -0.557  0.00  0.00     0.022 A 
ATOM      8  C7  BZF d   1       2.961   0.033  -1.898  0.00  0.00     0.029 A 
ATOM      9  C7A BZF d   1       4.087   0.628  -2.413  0.00  0.00     0.058 A 
ENDROOT
TORSDOF 0
ENDMDL
