MODEL 1
REMARK minimizedAffinity 13.6074476
REMARK minimizedRMSD -1
REMARK  0 active torsions:
REMARK  status: ('A' for Active; 'I' for Inactive)
ROOT
ATOM      1  O1  BZF d   1      -1.888   3.321  -0.789  0.00  0.00    -0.204 OA
ATOM      2  C2  BZF d   1      -1.405   2.042  -0.993  0.00  0.00     0.174 A 
ATOM      3  C3  BZF d   1      -0.359   1.791  -0.180  0.00  0.00    -0.012 A 
ATOM      4  C3A BZF d   1      -0.235   2.954   0.644  0.00  0.00    -0.107 A 
ATOM      5  C4  BZF d   1       0.612   3.299   1.659  0.00  0.00     0.055 A 
ATOM      6  C5  BZF d   1       0.514   4.539   2.207  0.00  0.00    -0.016 A 
ATOM      7  C6  BZF d   1      -0.412   5.459   1.762  0.00  0.00     0.022 A 
ATOM      8  C7  BZF d   1      -1.277   5.160   0.761  0.00  0.00     0.029 A 
ATOM      9  C7A BZF d   1      -1.203   3.897   0.228  0.00  0.00     0.058 A 
ENDROOT
TORSDOF 0
ENDMDL
