MODEL 1
REMARK minimizedAffinity 3.67957902
REMARK minimizedRMSD -1
REMARK  0 active torsions:
REMARK  status: ('A' for Active; 'I' for Inactive)
ROOT
ATOM      1  O1  BZF d   1       2.203   1.626   1.133  0.00  0.00    -0.204 OA
ATOM      2  C2  BZF d   1       2.572   0.738   0.142  0.00  0.00     0.174 A 
ATOM      3  C3  BZF d   1       1.608   0.641  -0.797  0.00  0.00    -0.012 A 
ATOM      4  C3A BZF d   1       0.612   1.593  -0.412  0.00  0.00    -0.107 A 
ATOM      5  C4  BZF d   1      -0.582   1.975  -0.956  0.00  0.00     0.055 A 
ATOM      6  C5  BZF d   1      -1.350   2.879  -0.294  0.00  0.00    -0.016 A 
ATOM      7  C6  BZF d   1      -0.959   3.418   0.914  0.00  0.00     0.022 A 
ATOM      8  C7  BZF d   1       0.219   3.074   1.490  0.00  0.00     0.029 A 
ATOM      9  C7A BZF d   1       1.013   2.185   0.808  0.00  0.00     0.058 A 
ENDROOT
TORSDOF 0
ENDMDL
