MODEL 1
REMARK minimizedAffinity 4.89956188
REMARK minimizedRMSD -1
REMARK  0 active torsions:
REMARK  status: ('A' for Active; 'I' for Inactive)
ROOT
ATOM      1  O1  BZF d   1       1.021  -1.932  -1.918  0.00  0.00    -0.204 OA
ATOM      2  C2  BZF d   1       0.864  -2.815  -2.969  0.00  0.00     0.174 A 
ATOM      3  C3  BZF d   1       1.622  -2.445  -4.021  0.00  0.00    -0.012 A 
ATOM      4  C3A BZF d   1       2.366  -1.309  -3.568  0.00  0.00    -0.107 A 
ATOM      5  C4  BZF d   1       3.302  -0.505  -4.154  0.00  0.00     0.055 A 
ATOM      6  C5  BZF d   1       3.779   0.564  -3.464  0.00  0.00    -0.016 A 
ATOM      7  C6  BZF d   1       3.339   0.861  -2.191  0.00  0.00     0.022 A 
ATOM      8  C7  BZF d   1       2.416   0.090  -1.567  0.00  0.00     0.029 A 
ATOM      9  C7A BZF d   1       1.956  -1.010  -2.249  0.00  0.00     0.058 A 
ENDROOT
TORSDOF 0
ENDMDL
