MODEL 1
REMARK minimizedAffinity -4.52058363
REMARK minimizedRMSD -1
REMARK  3 active torsions:
REMARK  status: ('A' for Active; 'I' for Inactive)
REMARK    1  A    between atoms: C3'_2  and  C2'_3 
REMARK    2  A    between atoms: C2'_3  and  C1'_4 
REMARK    3  A    between atoms: C1'_4  and  C1_5 
ROOT
ATOM      1  C1  N4B d   1       0.314  -0.128   0.209  0.00  0.00    -0.075 A 
ATOM      2  C2  N4B d   1       1.060   0.527   1.214  0.00  0.00     0.002 A 
ATOM      3  C3  N4B d   1       0.419   1.307   2.146  0.00  0.00     0.002 A 
ATOM      4  C4  N4B d   1      -0.957   1.461   2.081  0.00  0.00    -0.004 A 
ATOM      5  C5  N4B d   1      -1.673   0.805   1.123  0.00  0.00     0.002 A 
ATOM      6  C6  N4B d   1      -1.043   0.015   0.183  0.00  0.00     0.002 A 
ENDROOT
BRANCH   1   7
ATOM      7  C1' N4B d   1       0.978  -0.922  -0.882  0.00  0.00     0.057 C 
BRANCH   7   8
ATOM      8  C2' N4B d   1       0.350  -0.554  -2.223  0.00  0.00     0.009 C 
BRANCH   8   9
ATOM      9  C3' N4B d   1       1.236   0.383  -3.027  0.00  0.00     0.004 C 
ATOM     10  C4' N4B d   1       0.564   0.897  -4.265  0.00  0.00     0.003 C 
ENDBRANCH   8   9
ENDBRANCH   7   8
ENDBRANCH   1   7
TORSDOF 3
ENDMDL
