MODEL 1
REMARK minimizedAffinity -4.02782154
REMARK minimizedRMSD -1
REMARK  3 active torsions:
REMARK  status: ('A' for Active; 'I' for Inactive)
REMARK    1  A    between atoms: C3'_2  and  C2'_3 
REMARK    2  A    between atoms: C2'_3  and  C1'_4 
REMARK    3  A    between atoms: C1'_4  and  C1_5 
ROOT
ATOM      1  C1  N4B d   1      -0.034   0.170  -0.075  0.00  0.00    -0.075 A 
ATOM      2  C2  N4B d   1      -1.358  -0.060   0.359  0.00  0.00     0.002 A 
ATOM      3  C3  N4B d   1      -1.813   0.524   1.516  0.00  0.00     0.002 A 
ATOM      4  C4  N4B d   1      -0.959   1.322   2.263  0.00  0.00    -0.004 A 
ATOM      5  C5  N4B d   1       0.311   1.559   1.824  0.00  0.00     0.002 A 
ATOM      6  C6  N4B d   1       0.779   0.983   0.660  0.00  0.00     0.002 A 
ENDROOT
BRANCH   1   7
ATOM      7  C1' N4B d   1       0.534  -0.515  -1.288  0.00  0.00     0.057 C 
BRANCH   7   8
ATOM      8  C2' N4B d   1       1.964  -0.031  -1.512  0.00  0.00     0.009 C 
BRANCH   8   9
ATOM      9  C3' N4B d   1       2.126   0.662  -2.853  0.00  0.00     0.004 C 
ATOM     10  C4' N4B d   1       1.044   0.301  -3.828  0.00  0.00     0.003 C 
ENDBRANCH   8   9
ENDBRANCH   7   8
ENDBRANCH   1   7
TORSDOF 3
ENDMDL
