MODEL 1
REMARK minimizedAffinity -5.34894609
REMARK minimizedRMSD -1
REMARK  3 active torsions:
REMARK  status: ('A' for Active; 'I' for Inactive)
REMARK    1  A    between atoms: C3'_2  and  C2'_3 
REMARK    2  A    between atoms: C2'_3  and  C1'_4 
REMARK    3  A    between atoms: C1'_4  and  C1_5 
ROOT
ATOM      1  C1  N4B d   1       0.985  -0.605  -1.849  0.00  0.00    -0.075 A 
ATOM      2  C2  N4B d   1       0.421  -1.201  -2.998  0.00  0.00     0.002 A 
ATOM      3  C3  N4B d   1       0.800  -0.777  -4.248  0.00  0.00     0.002 A 
ATOM      4  C4  N4B d   1       1.724   0.249  -4.374  0.00  0.00    -0.004 A 
ATOM      5  C5  N4B d   1       2.283   0.803  -3.259  0.00  0.00     0.002 A 
ATOM      6  C6  N4B d   1       1.915   0.384  -1.997  0.00  0.00     0.002 A 
ENDROOT
BRANCH   1   7
ATOM      7  C1' N4B d   1       0.539  -0.975  -0.461  0.00  0.00     0.057 C 
BRANCH   7   8
ATOM      8  C2' N4B d   1      -0.881  -0.462  -0.238  0.00  0.00     0.009 C 
BRANCH   8   9
ATOM      9  C3' N4B d   1      -1.039   0.199   1.120  0.00  0.00     0.004 C 
ATOM     10  C4' N4B d   1      -0.038   1.290   1.355  0.00  0.00     0.003 C 
ENDBRANCH   8   9
ENDBRANCH   7   8
ENDBRANCH   1   7
TORSDOF 3
ENDMDL
