MODEL 1
REMARK minimizedAffinity -4.2798748
REMARK minimizedRMSD -1
REMARK  3 active torsions:
REMARK  status: ('A' for Active; 'I' for Inactive)
REMARK    1  A    between atoms: C3'_2  and  C2'_3 
REMARK    2  A    between atoms: C2'_3  and  C1'_4 
REMARK    3  A    between atoms: C1'_4  and  C1_5 
ROOT
ATOM      1  C1  N4B d   1      -0.200  -0.131  -0.287  0.00  0.00    -0.075 A 
ATOM      2  C2  N4B d   1       0.810   0.322   0.590  0.00  0.00     0.002 A 
ATOM      3  C3  N4B d   1       0.471   0.939   1.768  0.00  0.00     0.002 A 
ATOM      4  C4  N4B d   1      -0.867   1.132   2.081  0.00  0.00    -0.004 A 
ATOM      5  C5  N4B d   1      -1.837   0.669   1.241  0.00  0.00     0.002 A 
ATOM      6  C6  N4B d   1      -1.510   0.043   0.055  0.00  0.00     0.002 A 
ENDROOT
BRANCH   1   7
ATOM      7  C1' N4B d   1       0.123  -0.735  -1.627  0.00  0.00     0.057 C 
BRANCH   7   8
ATOM      8  C2' N4B d   1       1.249   0.063  -2.277  0.00  0.00     0.009 C 
BRANCH   8   9
ATOM      9  C3' N4B d   1       0.954   0.379  -3.733  0.00  0.00     0.004 C 
ATOM     10  C4' N4B d   1       0.148  -0.690  -4.408  0.00  0.00     0.003 C 
ENDBRANCH   8   9
ENDBRANCH   7   8
ENDBRANCH   1   7
TORSDOF 3
ENDMDL
