MODEL 1
REMARK minimizedAffinity 17.3538189
REMARK minimizedRMSD -1
REMARK  0 active torsions:
REMARK  status: ('A' for Active; 'I' for Inactive)
ROOT
ATOM      1  C1  DEN d   1       0.032   0.665   3.420  0.00  0.00     0.130 A 
ATOM      2  C2  DEN d   1      -0.387  -0.059   2.223  0.00  0.00    -0.031 A 
ATOM      3  C3  DEN d   1       0.159  -1.429   2.303  0.00  0.00     0.027 A 
ATOM      4  C4  DEN d   1       1.601  -2.495   4.157  0.00  0.00     0.027 A 
ATOM      5  C5  DEN d   1       2.222  -2.269   5.366  0.00  0.00    -0.003 A 
ATOM      6  C6  DEN d   1       2.185  -1.049   5.989  0.00  0.00     0.001 A 
ATOM      7  C7  DEN d   1       1.475  -0.021   5.427  0.00  0.00     0.017 A 
ATOM      8  C8  DEN d   1       0.853  -0.239   4.205  0.00  0.00    -0.094 A 
ATOM      9  C9  DEN d   1       0.892  -1.483   3.597  0.00  0.00    -0.072 A 
ENDROOT
TORSDOF 0
ENDMDL
