MODEL 1
REMARK minimizedAffinity 3.56720829
REMARK minimizedRMSD -1
REMARK  0 active torsions:
REMARK  status: ('A' for Active; 'I' for Inactive)
ROOT
ATOM      1  C1  DEN d   1       0.995  -4.123  -2.375  0.00  0.00     0.130 A 
ATOM      2  C2  DEN d   1       2.086  -5.087  -2.256  0.00  0.00    -0.031 A 
ATOM      3  C3  DEN d   1       2.022  -5.995  -3.419  0.00  0.00     0.027 A 
ATOM      4  C4  DEN d   1       0.351  -6.000  -5.383  0.00  0.00     0.027 A 
ATOM      5  C5  DEN d   1      -0.758  -5.380  -5.915  0.00  0.00    -0.003 A 
ATOM      6  C6  DEN d   1      -1.376  -4.329  -5.292  0.00  0.00     0.001 A 
ATOM      7  C7  DEN d   1      -0.861  -3.835  -4.122  0.00  0.00     0.017 A 
ATOM      8  C8  DEN d   1       0.252  -4.459  -3.576  0.00  0.00    -0.094 A 
ATOM      9  C9  DEN d   1       0.870  -5.513  -4.228  0.00  0.00    -0.072 A 
ENDROOT
TORSDOF 0
ENDMDL
