MODEL 1
REMARK minimizedAffinity 6.87811136
REMARK minimizedRMSD -1
REMARK  0 active torsions:
REMARK  status: ('A' for Active; 'I' for Inactive)
ROOT
ATOM      1  C1  DEN d   1      -1.199  -1.352  -5.040  0.00  0.00     0.130 A 
ATOM      2  C2  DEN d   1      -0.309  -0.697  -5.995  0.00  0.00    -0.031 A 
ATOM      3  C3  DEN d   1      -0.075   0.684  -5.528  0.00  0.00     0.027 A 
ATOM      4  C4  DEN d   1      -0.997   1.864  -3.428  0.00  0.00     0.027 A 
ATOM      5  C5  DEN d   1      -1.802   1.718  -2.320  0.00  0.00    -0.003 A 
ATOM      6  C6  DEN d   1      -2.484   0.558  -2.062  0.00  0.00     0.001 A 
ATOM      7  C7  DEN d   1      -2.338  -0.516  -2.899  0.00  0.00     0.017 A 
ATOM      8  C8  DEN d   1      -1.534  -0.374  -4.021  0.00  0.00    -0.094 A 
ATOM      9  C9  DEN d   1      -0.843   0.803  -4.259  0.00  0.00    -0.072 A 
ENDROOT
TORSDOF 0
ENDMDL
