MODEL 1
REMARK minimizedAffinity 7.03712082
REMARK minimizedRMSD -1
REMARK  0 active torsions:
REMARK  status: ('A' for Active; 'I' for Inactive)
ROOT
ATOM      1  C1  DEN d   1       2.036  -1.830   2.173  0.00  0.00     0.130 A 
ATOM      2  C2  DEN d   1       0.653  -1.364   2.119  0.00  0.00    -0.031 A 
ATOM      3  C3  DEN d   1       0.354  -0.671   3.388  0.00  0.00     0.027 A 
ATOM      4  C4  DEN d   1       1.892  -0.273   5.421  0.00  0.00     0.027 A 
ATOM      5  C5  DEN d   1       3.149  -0.494   5.937  0.00  0.00    -0.003 A 
ATOM      6  C6  DEN d   1       4.105  -1.199   5.255  0.00  0.00     0.001 A 
ATOM      7  C7  DEN d   1       3.833  -1.670   3.997  0.00  0.00     0.017 A 
ATOM      8  C8  DEN d   1       2.565  -1.458   3.473  0.00  0.00    -0.094 A 
ATOM      9  C9  DEN d   1       1.616  -0.732   4.173  0.00  0.00    -0.072 A 
ENDROOT
TORSDOF 0
ENDMDL
