MODEL 1
REMARK minimizedAffinity 11.5073166
REMARK minimizedRMSD -1
REMARK  0 active torsions:
REMARK  status: ('A' for Active; 'I' for Inactive)
ROOT
ATOM      1  C1  DEN d   1       0.015  -2.103   3.179  0.00  0.00     0.130 A 
ATOM      2  C2  DEN d   1       1.221  -1.294   3.331  0.00  0.00    -0.031 A 
ATOM      3  C3  DEN d   1       0.943   0.047   2.779  0.00  0.00     0.027 A 
ATOM      4  C4  DEN d   1      -1.227   0.946   1.714  0.00  0.00     0.027 A 
ATOM      5  C5  DEN d   1      -2.518   0.625   1.355  0.00  0.00    -0.003 A 
ATOM      6  C6  DEN d   1      -3.039  -0.627   1.546  0.00  0.00     0.001 A 
ATOM      7  C7  DEN d   1      -2.281  -1.593   2.154  0.00  0.00     0.017 A 
ATOM      8  C8  DEN d   1      -0.976  -1.279   2.512  0.00  0.00    -0.094 A 
ATOM      9  C9  DEN d   1      -0.471  -0.004   2.321  0.00  0.00    -0.072 A 
ENDROOT
TORSDOF 0
ENDMDL
