MODEL 1
REMARK minimizedAffinity 5.86316776
REMARK minimizedRMSD -1
REMARK  0 active torsions:
REMARK  status: ('A' for Active; 'I' for Inactive)
ROOT
ATOM      1  C1  DEN d   1       3.068  -1.897   5.478  0.00  0.00     0.130 A 
ATOM      2  C2  DEN d   1       4.183  -0.958   5.577  0.00  0.00    -0.031 A 
ATOM      3  C3  DEN d   1       4.154  -0.088   4.384  0.00  0.00     0.027 A 
ATOM      4  C4  DEN d   1       2.497  -0.100   2.407  0.00  0.00     0.027 A 
ATOM      5  C5  DEN d   1       1.389  -0.721   1.874  0.00  0.00    -0.003 A 
ATOM      6  C6  DEN d   1       0.789  -1.791   2.483  0.00  0.00     0.001 A 
ATOM      7  C7  DEN d   1       1.266  -2.244   3.685  0.00  0.00     0.017 A 
ATOM      8  C8  DEN d   1       2.387  -1.627   4.225  0.00  0.00    -0.094 A 
ATOM      9  C9  DEN d   1       2.972  -0.539   3.600  0.00  0.00    -0.072 A 
ENDROOT
TORSDOF 0
ENDMDL
