MODEL 1
REMARK minimizedAffinity 2.56810546
REMARK minimizedRMSD -1
REMARK  0 active torsions:
REMARK  status: ('A' for Active; 'I' for Inactive)
ROOT
ATOM      1  C1  DEN d   1       1.192  -0.669   3.532  0.00  0.00     0.130 A 
ATOM      2  C2  DEN d   1       1.197  -1.984   4.168  0.00  0.00    -0.031 A 
ATOM      3  C3  DEN d   1      -0.141  -2.582   3.992  0.00  0.00     0.027 A 
ATOM      4  C4  DEN d   1      -2.210  -1.607   2.799  0.00  0.00     0.027 A 
ATOM      5  C5  DEN d   1      -2.702  -0.517   2.115  0.00  0.00    -0.003 A 
ATOM      6  C6  DEN d   1      -1.947   0.603   1.887  0.00  0.00     0.001 A 
ATOM      7  C7  DEN d   1      -0.644   0.641   2.308  0.00  0.00     0.017 A 
ATOM      8  C8  DEN d   1      -0.143  -0.451   3.004  0.00  0.00    -0.094 A 
ATOM      9  C9  DEN d   1      -0.918  -1.580   3.214  0.00  0.00    -0.072 A 
ENDROOT
TORSDOF 0
ENDMDL
