MODEL 1
REMARK minimizedAffinity 1.61018336
REMARK minimizedRMSD -1
REMARK  0 active torsions:
REMARK  status: ('A' for Active; 'I' for Inactive)
ROOT
ATOM      1  C1  DEN d   1       4.581  -2.298  -1.999  0.00  0.00     0.130 A 
ATOM      2  C2  DEN d   1       5.251  -1.132  -1.429  0.00  0.00    -0.031 A 
ATOM      3  C3  DEN d   1       5.928  -0.413  -2.527  0.00  0.00     0.027 A 
ATOM      4  C4  DEN d   1       6.000  -0.985  -5.041  0.00  0.00     0.027 A 
ATOM      5  C5  DEN d   1       5.590  -1.885  -5.999  0.00  0.00    -0.003 A 
ATOM      6  C6  DEN d   1       4.850  -2.995  -5.690  0.00  0.00     0.001 A 
ATOM      7  C7  DEN d   1       4.458  -3.210  -4.394  0.00  0.00     0.017 A 
ATOM      8  C8  DEN d   1       4.874  -2.311  -3.421  0.00  0.00    -0.094 A 
ATOM      9  C9  DEN d   1       5.611  -1.188  -3.757  0.00  0.00    -0.072 A 
ENDROOT
TORSDOF 0
ENDMDL
