MODEL 1
REMARK minimizedAffinity 11.4778318
REMARK minimizedRMSD -1
REMARK  0 active torsions:
REMARK  status: ('A' for Active; 'I' for Inactive)
ROOT
ATOM      1  C1  DEN d   1       1.913   3.756  -0.409  0.00  0.00     0.130 A 
ATOM      2  C2  DEN d   1       2.262   4.806   0.544  0.00  0.00    -0.031 A 
ATOM      3  C3  DEN d   1       1.244   5.871   0.444  0.00  0.00     0.027 A 
ATOM      4  C4  DEN d   1      -0.832   5.993  -1.082  0.00  0.00     0.027 A 
ATOM      5  C5  DEN d   1      -1.539   5.343  -2.069  0.00  0.00    -0.003 A 
ATOM      6  C6  DEN d   1      -1.130   4.145  -2.592  0.00  0.00     0.001 A 
ATOM      7  C7  DEN d   1      -0.007   3.537  -2.098  0.00  0.00     0.017 A 
ATOM      8  C8  DEN d   1       0.716   4.189  -1.108  0.00  0.00    -0.094 A 
ATOM      9  C9  DEN d   1       0.280   5.394  -0.584  0.00  0.00    -0.072 A 
ENDROOT
TORSDOF 0
ENDMDL
