MODEL 1
REMARK minimizedAffinity 4.58644962
REMARK minimizedRMSD -1
REMARK  0 active torsions:
REMARK  status: ('A' for Active; 'I' for Inactive)
ROOT
ATOM      1  C1  DEN d   1      -1.413  -2.905  -1.120  0.00  0.00     0.130 A 
ATOM      2  C2  DEN d   1      -2.455  -3.924  -1.024  0.00  0.00    -0.031 A 
ATOM      3  C3  DEN d   1      -1.954  -5.150  -1.677  0.00  0.00     0.027 A 
ATOM      4  C4  DEN d   1       0.321  -5.569  -2.817  0.00  0.00     0.027 A 
ATOM      5  C5  DEN d   1       1.528  -4.999  -3.157  0.00  0.00    -0.003 A 
ATOM      6  C6  DEN d   1       1.824  -3.692  -2.874  0.00  0.00     0.001 A 
ATOM      7  C7  DEN d   1       0.918  -2.923  -2.192  0.00  0.00     0.017 A 
ATOM      8  C8  DEN d   1      -0.304  -3.489  -1.853  0.00  0.00    -0.094 A 
ATOM      9  C9  DEN d   1      -0.579  -4.816  -2.137  0.00  0.00    -0.072 A 
ENDROOT
TORSDOF 0
ENDMDL
