MODEL 1
REMARK minimizedAffinity -4.27968788
REMARK minimizedRMSD -1
REMARK  0 active torsions:
REMARK  status: ('A' for Active; 'I' for Inactive)
ROOT
ATOM      1  C1  DEN d   1      -0.285  -2.024  -3.172  0.00  0.00     0.130 A 
ATOM      2  C2  DEN d   1      -0.452  -1.466  -4.511  0.00  0.00    -0.031 A 
ATOM      3  C3  DEN d   1      -0.270  -2.560  -5.487  0.00  0.00     0.027 A 
ATOM      4  C4  DEN d   1       0.245  -5.050  -5.056  0.00  0.00     0.027 A 
ATOM      5  C5  DEN d   1       0.486  -5.994  -4.083  0.00  0.00    -0.003 A 
ATOM      6  C6  DEN d   1       0.521  -5.678  -2.751  0.00  0.00     0.001 A 
ATOM      7  C7  DEN d   1       0.266  -4.392  -2.352  0.00  0.00     0.017 A 
ATOM      8  C8  DEN d   1       0.029  -3.433  -3.328  0.00  0.00    -0.094 A 
ATOM      9  C9  DEN d   1      -0.014  -3.775  -4.669  0.00  0.00    -0.072 A 
ENDROOT
TORSDOF 0
ENDMDL
