MODEL 1
REMARK minimizedAffinity 2.09243822
REMARK minimizedRMSD -1
REMARK  0 active torsions:
REMARK  status: ('A' for Active; 'I' for Inactive)
ROOT
ATOM      1  C   UNL d   1      -0.955  -5.999  -5.999  0.00  0.00     0.078 C 
ATOM      2  C1  UNL d   1       0.084  -5.824  -4.932  0.00  0.00    -0.077 A 
ATOM      3  C2  UNL d   1       1.444  -6.000  -5.215  0.00  0.00    -0.001 A 
ATOM      4  C3  UNL d   1       2.400  -5.843  -4.210  0.00  0.00     0.003 A 
ATOM      5  C4  UNL d   1       2.006  -5.511  -2.915  0.00  0.00    -0.005 A 
ATOM      6  C5  UNL d   1       0.655  -5.337  -2.623  0.00  0.00     0.003 A 
ATOM      7  C6  UNL d   1      -0.303  -5.493  -3.627  0.00  0.00    -0.001 A 
ENDROOT
TORSDOF 0
ENDMDL
