MODEL 1
REMARK minimizedAffinity -1.60871017
REMARK minimizedRMSD -1
REMARK  0 active torsions:
REMARK  status: ('A' for Active; 'I' for Inactive)
ROOT
ATOM      1  C   UNL d   1      -1.753   0.440   1.053  0.00  0.00     0.078 C 
ATOM      2  C1  UNL d   1      -0.660  -0.221   1.839  0.00  0.00    -0.077 A 
ATOM      3  C2  UNL d   1      -0.949  -0.967   2.989  0.00  0.00    -0.001 A 
ATOM      4  C3  UNL d   1       0.079  -1.569   3.716  0.00  0.00     0.003 A 
ATOM      5  C4  UNL d   1       1.403  -1.429   3.303  0.00  0.00    -0.005 A 
ATOM      6  C5  UNL d   1       1.700  -0.687   2.162  0.00  0.00     0.003 A 
ATOM      7  C6  UNL d   1       0.673  -0.085   1.433  0.00  0.00    -0.001 A 
ENDROOT
TORSDOF 0
ENDMDL
