MODEL 1
REMARK minimizedAffinity -5.14803076
REMARK minimizedRMSD -1
REMARK  0 active torsions:
REMARK  status: ('A' for Active; 'I' for Inactive)
ROOT
ATOM      1  C   UNL d   1      -1.008   0.779   1.293  0.00  0.00     0.078 C 
ATOM      2  C1  UNL d   1      -0.642  -0.402   2.142  0.00  0.00    -0.077 A 
ATOM      3  C2  UNL d   1       0.696  -0.696   2.432  0.00  0.00    -0.001 A 
ATOM      4  C3  UNL d   1       1.021  -1.803   3.216  0.00  0.00     0.003 A 
ATOM      5  C4  UNL d   1       0.015  -2.627   3.716  0.00  0.00    -0.005 A 
ATOM      6  C5  UNL d   1      -1.319  -2.343   3.432  0.00  0.00     0.003 A 
ATOM      7  C6  UNL d   1      -1.647  -1.236   2.648  0.00  0.00    -0.001 A 
ENDROOT
TORSDOF 0
ENDMDL
