MODEL 1
REMARK minimizedAffinity -1.71062624
REMARK minimizedRMSD -1
REMARK  0 active torsions:
REMARK  status: ('A' for Active; 'I' for Inactive)
ROOT
ATOM      1  C   UNL d   1      -0.674  -5.998  -5.908  0.00  0.00     0.078 C 
ATOM      2  C1  UNL d   1       0.258  -5.640  -4.789  0.00  0.00    -0.077 A 
ATOM      3  C2  UNL d   1      -0.031  -6.000  -3.467  0.00  0.00    -0.001 A 
ATOM      4  C3  UNL d   1       0.840  -5.651  -2.434  0.00  0.00     0.003 A 
ATOM      5  C4  UNL d   1       2.006  -4.941  -2.712  0.00  0.00    -0.005 A 
ATOM      6  C5  UNL d   1       2.301  -4.576  -4.024  0.00  0.00     0.003 A 
ATOM      7  C6  UNL d   1       1.431  -4.924  -5.058  0.00  0.00    -0.001 A 
ENDROOT
TORSDOF 0
ENDMDL
