MODEL 1
REMARK minimizedAffinity -4.63718605
REMARK minimizedRMSD -1
REMARK  0 active torsions:
REMARK  status: ('A' for Active; 'I' for Inactive)
ROOT
ATOM      1  C   UNL d   1       1.673  -1.611   4.373  0.00  0.00     0.078 C 
ATOM      2  C1  UNL d   1       0.607  -1.218   3.394  0.00  0.00    -0.077 A 
ATOM      3  C2  UNL d   1      -0.746  -1.234   3.755  0.00  0.00    -0.001 A 
ATOM      4  C3  UNL d   1      -1.728  -0.875   2.830  0.00  0.00     0.003 A 
ATOM      5  C4  UNL d   1      -1.368  -0.499   1.538  0.00  0.00    -0.005 A 
ATOM      6  C5  UNL d   1      -0.025  -0.482   1.168  0.00  0.00     0.003 A 
ATOM      7  C6  UNL d   1       0.959  -0.841   2.092  0.00  0.00    -0.001 A 
ENDROOT
TORSDOF 0
ENDMDL
