MODEL 1
REMARK minimizedAffinity 4.81487322
REMARK minimizedRMSD -1
REMARK  0 active torsions:
REMARK  status: ('A' for Active; 'I' for Inactive)
ROOT
ATOM      1  C   UNL d   1       2.654  -2.171   5.427  0.00  0.00     0.078 C 
ATOM      2  C1  UNL d   1       1.606  -1.746   4.442  0.00  0.00    -0.077 A 
ATOM      3  C2  UNL d   1       1.955  -1.077   3.263  0.00  0.00    -0.001 A 
ATOM      4  C3  UNL d   1       0.968  -0.679   2.359  0.00  0.00     0.003 A 
ATOM      5  C4  UNL d   1      -0.374  -0.945   2.626  0.00  0.00    -0.005 A 
ATOM      6  C5  UNL d   1      -0.730  -1.608   3.799  0.00  0.00     0.003 A 
ATOM      7  C6  UNL d   1       0.255  -2.007   4.703  0.00  0.00    -0.001 A 
ENDROOT
TORSDOF 0
ENDMDL
