MODEL 1
REMARK minimizedAffinity -0.672480941
REMARK minimizedRMSD -1
REMARK  0 active torsions:
REMARK  status: ('A' for Active; 'I' for Inactive)
ROOT
ATOM      1  C   UNL d   1       1.298  -0.493   1.147  0.00  0.00     0.078 C 
ATOM      2  C1  UNL d   1       0.287  -0.746   2.225  0.00  0.00    -0.077 A 
ATOM      3  C2  UNL d   1      -1.076  -0.862   1.922  0.00  0.00    -0.001 A 
ATOM      4  C3  UNL d   1      -2.007  -1.088   2.937  0.00  0.00     0.003 A 
ATOM      5  C4  UNL d   1      -1.587  -1.199   4.261  0.00  0.00    -0.005 A 
ATOM      6  C5  UNL d   1      -0.234  -1.083   4.572  0.00  0.00     0.003 A 
ATOM      7  C6  UNL d   1       0.699  -0.857   3.559  0.00  0.00    -0.001 A 
ENDROOT
TORSDOF 0
ENDMDL
