MODEL 1
REMARK minimizedAffinity -3.06317353
REMARK minimizedRMSD -1
REMARK  0 active torsions:
REMARK  status: ('A' for Active; 'I' for Inactive)
ROOT
ATOM      1  C   UNL d   1       2.487  -1.873   5.297  0.00  0.00     0.078 C 
ATOM      2  C1  UNL d   1       1.529  -1.568   4.185  0.00  0.00    -0.077 A 
ATOM      3  C2  UNL d   1       0.195  -1.988   4.246  0.00  0.00    -0.001 A 
ATOM      4  C3  UNL d   1      -0.683  -1.705   3.198  0.00  0.00     0.003 A 
ATOM      5  C4  UNL d   1      -0.236  -1.002   2.081  0.00  0.00    -0.005 A 
ATOM      6  C5  UNL d   1       1.091  -0.582   2.010  0.00  0.00     0.003 A 
ATOM      7  C6  UNL d   1       1.970  -0.864   3.057  0.00  0.00    -0.001 A 
ENDROOT
TORSDOF 0
ENDMDL
