MODEL 1
REMARK minimizedAffinity -1.52994192
REMARK minimizedRMSD -1
REMARK  0 active torsions:
REMARK  status: ('A' for Active; 'I' for Inactive)
ROOT
ATOM      1  C   UNL d   1       3.119  -4.800  -5.983  0.00  0.00     0.078 C 
ATOM      2  C1  UNL d   1       1.929  -5.226  -5.176  0.00  0.00    -0.077 A 
ATOM      3  C2  UNL d   1       0.732  -5.603  -5.799  0.00  0.00    -0.001 A 
ATOM      4  C3  UNL d   1      -0.370  -5.988  -5.035  0.00  0.00     0.003 A 
ATOM      5  C4  UNL d   1      -0.288  -6.000  -3.644  0.00  0.00    -0.005 A 
ATOM      6  C5  UNL d   1       0.897  -5.625  -3.015  0.00  0.00     0.003 A 
ATOM      7  C6  UNL d   1       2.001  -5.239  -3.777  0.00  0.00    -0.001 A 
ENDROOT
TORSDOF 0
ENDMDL
