MODEL 1
REMARK minimizedAffinity -1.9234724
REMARK minimizedRMSD -1
REMARK  0 active torsions:
REMARK  status: ('A' for Active; 'I' for Inactive)
ROOT
ATOM      1  C   UNL d   1       1.809  -1.737   4.150  0.00  0.00     0.078 C 
ATOM      2  C1  UNL d   1       0.847  -1.048   3.229  0.00  0.00    -0.077 A 
ATOM      3  C2  UNL d   1       1.188  -0.782   1.897  0.00  0.00    -0.001 A 
ATOM      4  C3  UNL d   1       0.286  -0.130   1.054  0.00  0.00     0.003 A 
ATOM      5  C4  UNL d   1      -0.962   0.262   1.534  0.00  0.00    -0.005 A 
ATOM      6  C5  UNL d   1      -1.309   0.003   2.859  0.00  0.00     0.003 A 
ATOM      7  C6  UNL d   1      -0.409  -0.648   3.703  0.00  0.00    -0.001 A 
ENDROOT
TORSDOF 0
ENDMDL
