MODEL 1
REMARK minimizedAffinity 0.389368802
REMARK minimizedRMSD -1
REMARK  0 active torsions:
REMARK  status: ('A' for Active; 'I' for Inactive)
ROOT
ATOM      1  C   UNL d   1       2.252  -2.519   5.388  0.00  0.00     0.078 C 
ATOM      2  C1  UNL d   1       1.138  -2.105   4.473  0.00  0.00    -0.077 A 
ATOM      3  C2  UNL d   1      -0.064  -2.822   4.429  0.00  0.00    -0.001 A 
ATOM      4  C3  UNL d   1      -1.088  -2.432   3.565  0.00  0.00     0.003 A 
ATOM      5  C4  UNL d   1      -0.921  -1.323   2.738  0.00  0.00    -0.005 A 
ATOM      6  C5  UNL d   1       0.272  -0.604   2.773  0.00  0.00     0.003 A 
ATOM      7  C6  UNL d   1       1.298  -0.993   3.636  0.00  0.00    -0.001 A 
ENDROOT
TORSDOF 0
ENDMDL
