MODEL 1
REMARK minimizedAffinity 1.28493416
REMARK minimizedRMSD -1
REMARK  0 active torsions:
REMARK  status: ('A' for Active; 'I' for Inactive)
ROOT
ATOM      1  C1  DEN d   1      -0.899   3.596  -0.156  0.00  0.00     0.130 A 
ATOM      2  C2  DEN d   1      -0.505   4.344  -1.346  0.00  0.00    -0.031 A 
ATOM      3  C3  DEN d   1       0.938   4.642  -1.242  0.00  0.00     0.027 A 
ATOM      4  C4  DEN d   1       2.592   4.016   0.636  0.00  0.00     0.027 A 
ATOM      5  C5  DEN d   1       2.720   3.392   1.857  0.00  0.00    -0.003 A 
ATOM      6  C6  DEN d   1       1.653   2.827   2.504  0.00  0.00     0.001 A 
ATOM      7  C7  DEN d   1       0.418   2.835   1.911  0.00  0.00     0.017 A 
ATOM      8  C8  DEN d   1       0.280   3.468   0.683  0.00  0.00    -0.094 A 
ATOM      9  C9  DEN d   1       1.373   4.023   0.039  0.00  0.00    -0.072 A 
ENDROOT
TORSDOF 0
ENDMDL
