MODEL 1
REMARK minimizedAffinity 23.6737728
REMARK minimizedRMSD -1
REMARK  0 active torsions:
REMARK  status: ('A' for Active; 'I' for Inactive)
ROOT
ATOM      1  C1  DEN d   1       5.118  -3.910  -4.494  0.00  0.00     0.130 A 
ATOM      2  C2  DEN d   1       4.500  -4.989  -5.259  0.00  0.00    -0.031 A 
ATOM      3  C3  DEN d   1       4.004  -6.000  -4.303  0.00  0.00     0.027 A 
ATOM      4  C4  DEN d   1       4.129  -5.996  -1.727  0.00  0.00     0.027 A 
ATOM      5  C5  DEN d   1       4.572  -5.298  -0.626  0.00  0.00    -0.003 A 
ATOM      6  C6  DEN d   1       5.252  -4.114  -0.737  0.00  0.00     0.001 A 
ATOM      7  C7  DEN d   1       5.470  -3.570  -1.975  0.00  0.00     0.017 A 
ATOM      8  C8  DEN d   1       5.033  -4.272  -3.090  0.00  0.00    -0.094 A 
ATOM      9  C9  DEN d   1       4.336  -5.461  -2.957  0.00  0.00    -0.072 A 
ENDROOT
TORSDOF 0
ENDMDL
