MODEL 1
REMARK minimizedAffinity 12.5806503
REMARK minimizedRMSD -1
REMARK  0 active torsions:
REMARK  status: ('A' for Active; 'I' for Inactive)
ROOT
ATOM      1  C1  DEN d   1      -0.861   4.204  -0.225  0.00  0.00     0.130 A 
ATOM      2  C2  DEN d   1       0.543   3.871   0.002  0.00  0.00    -0.031 A 
ATOM      3  C3  DEN d   1       1.316   4.326  -1.171  0.00  0.00     0.027 A 
ATOM      4  C4  DEN d   1       0.480   5.514  -3.303  0.00  0.00     0.027 A 
ATOM      5  C5  DEN d   1      -0.632   5.998  -3.955  0.00  0.00    -0.003 A 
ATOM      6  C6  DEN d   1      -1.892   5.889  -3.430  0.00  0.00     0.001 A 
ATOM      7  C7  DEN d   1      -2.066   5.322  -2.195  0.00  0.00     0.017 A 
ATOM      8  C8  DEN d   1      -0.950   4.824  -1.534  0.00  0.00    -0.094 A 
ATOM      9  C9  DEN d   1       0.317   4.955  -2.077  0.00  0.00    -0.072 A 
ENDROOT
TORSDOF 0
ENDMDL
