MODEL 1
REMARK minimizedAffinity 12.186202
REMARK minimizedRMSD -1
REMARK  0 active torsions:
REMARK  status: ('A' for Active; 'I' for Inactive)
ROOT
ATOM      1  C1  DEN d   1      -3.092  -0.916   3.086  0.00  0.00     0.130 A 
ATOM      2  C2  DEN d   1      -3.509   0.358   2.507  0.00  0.00    -0.031 A 
ATOM      3  C3  DEN d   1      -4.716   0.814   3.226  0.00  0.00     0.027 A 
ATOM      4  C4  DEN d   1      -5.969  -0.321   5.174  0.00  0.00     0.027 A 
ATOM      5  C5  DEN d   1      -5.998  -1.423   6.000  0.00  0.00    -0.003 A 
ATOM      6  C6  DEN d   1      -5.088  -2.441   5.891  0.00  0.00     0.001 A 
ATOM      7  C7  DEN d   1      -4.082  -2.357   4.964  0.00  0.00     0.017 A 
ATOM      8  C8  DEN d   1      -4.051  -1.252   4.123  0.00  0.00    -0.094 A 
ATOM      9  C9  DEN d   1      -4.973  -0.228   4.257  0.00  0.00    -0.072 A 
ENDROOT
TORSDOF 0
ENDMDL
