MODEL 1
REMARK minimizedAffinity 3.09409499
REMARK minimizedRMSD -1
REMARK  0 active torsions:
REMARK  status: ('A' for Active; 'I' for Inactive)
ROOT
ATOM      1  C1  DEN d   1      -4.276   3.450  -3.033  0.00  0.00     0.130 A 
ATOM      2  C2  DEN d   1      -5.165   3.378  -1.876  0.00  0.00    -0.031 A 
ATOM      3  C3  DEN d   1      -6.000   2.168  -2.015  0.00  0.00     0.027 A 
ATOM      4  C4  DEN d   1      -6.000   0.405  -3.898  0.00  0.00     0.027 A 
ATOM      5  C5  DEN d   1      -5.429   0.045  -5.098  0.00  0.00    -0.003 A 
ATOM      6  C6  DEN d   1      -4.467   0.806  -5.707  0.00  0.00     0.001 A 
ATOM      7  C7  DEN d   1      -4.013   1.943  -5.094  0.00  0.00     0.017 A 
ATOM      8  C8  DEN d   1      -4.588   2.317  -3.886  0.00  0.00    -0.094 A 
ATOM      9  C9  DEN d   1      -5.552   1.528  -3.281  0.00  0.00    -0.072 A 
ENDROOT
TORSDOF 0
ENDMDL
