MODEL 1
REMARK minimizedAffinity 11.7943459
REMARK minimizedRMSD -1
REMARK  0 active torsions:
REMARK  status: ('A' for Active; 'I' for Inactive)
ROOT
ATOM      1  C1  DEN d   1      -4.652   3.290  -5.625  0.00  0.00     0.130 A 
ATOM      2  C2  DEN d   1      -5.349   2.017  -5.785  0.00  0.00    -0.031 A 
ATOM      3  C3  DEN d   1      -6.000   1.689  -4.501  0.00  0.00     0.027 A 
ATOM      4  C4  DEN d   1      -6.000   3.024  -2.294  0.00  0.00     0.027 A 
ATOM      5  C5  DEN d   1      -5.535   4.160  -1.669  0.00  0.00    -0.003 A 
ATOM      6  C6  DEN d   1      -4.723   5.062  -2.304  0.00  0.00     0.001 A 
ATOM      7  C7  DEN d   1      -4.386   4.865  -3.617  0.00  0.00     0.017 A 
ATOM      8  C8  DEN d   1      -4.845   3.718  -4.251  0.00  0.00    -0.094 A 
ATOM      9  C9  DEN d   1      -5.675   2.825  -3.596  0.00  0.00    -0.072 A 
ENDROOT
TORSDOF 0
ENDMDL
