MODEL 1
REMARK minimizedAffinity -5.0898962
REMARK minimizedRMSD -1
REMARK  0 active torsions:
REMARK  status: ('A' for Active; 'I' for Inactive)
ROOT
ATOM      1  N1  IND d   1       1.122   0.037  -0.304  0.00  0.00    -0.196 N 
ATOM      2  C2  IND d   1       0.513  -0.714  -1.271  0.00  0.00     0.054 A 
ATOM      3  C3  IND d   1      -0.788  -0.912  -0.961  0.00  0.00    -0.031 A 
ATOM      4  C4  IND d   1      -2.152  -0.013   1.028  0.00  0.00     0.051 A 
ATOM      5  C5  IND d   1      -2.023   0.689   2.193  0.00  0.00    -0.031 A 
ATOM      6  C6  IND d   1      -0.814   1.222   2.593  0.00  0.00     0.015 A 
ATOM      7  C7  IND d   1       0.312   1.082   1.833  0.00  0.00    -0.016 A 
ATOM      8  C8  IND d   1       0.186   0.365   0.652  0.00  0.00    -0.047 A 
ATOM      9  C9  IND d   1      -1.029  -0.215   0.262  0.00  0.00    -0.096 A 
ATOM     10  HN1 IND d   1       1.951   0.266  -0.295  0.00  0.00     0.298 HD
ENDROOT
TORSDOF 0
ENDMDL
