MODEL 1
REMARK minimizedAffinity -4.71446466
REMARK minimizedRMSD -1
REMARK  0 active torsions:
REMARK  status: ('A' for Active; 'I' for Inactive)
ROOT
ATOM      1  N1  IND d   1      -0.860  -0.850  -0.458  0.00  0.00    -0.196 N 
ATOM      2  C2  IND d   1       0.407  -1.191  -0.842  0.00  0.00     0.054 A 
ATOM      3  C3  IND d   1       1.318  -0.576  -0.055  0.00  0.00    -0.031 A 
ATOM      4  C4  IND d   1       0.952   0.952   1.985  0.00  0.00     0.051 A 
ATOM      5  C5  IND d   1      -0.030   1.581   2.697  0.00  0.00    -0.031 A 
ATOM      6  C6  IND d   1      -1.366   1.426   2.390  0.00  0.00     0.015 A 
ATOM      7  C7  IND d   1      -1.772   0.624   1.361  0.00  0.00    -0.016 A 
ATOM      8  C8  IND d   1      -0.777  -0.010   0.631  0.00  0.00    -0.047 A 
ATOM      9  C9  IND d   1       0.582   0.177   0.911  0.00  0.00    -0.096 A 
ATOM     10  HN1 IND d   1      -1.587  -1.115  -0.834  0.00  0.00     0.298 HD
ENDROOT
TORSDOF 0
ENDMDL
