MODEL 1
REMARK minimizedAffinity -4.36519527
REMARK minimizedRMSD -1
REMARK  0 active torsions:
REMARK  status: ('A' for Active; 'I' for Inactive)
ROOT
ATOM      1  N1  IND d   1       1.191  -0.014   0.134  0.00  0.00    -0.196 N 
ATOM      2  C2  IND d   1       0.447  -0.573  -0.868  0.00  0.00     0.054 A 
ATOM      3  C3  IND d   1      -0.870  -0.508  -0.569  0.00  0.00    -0.031 A 
ATOM      4  C4  IND d   1      -2.035   0.562   1.462  0.00  0.00     0.051 A 
ATOM      5  C5  IND d   1      -1.773   1.164   2.661  0.00  0.00    -0.031 A 
ATOM      6  C6  IND d   1      -0.484   1.411   3.086  0.00  0.00     0.015 A 
ATOM      7  C7  IND d   1       0.596   1.075   2.319  0.00  0.00    -0.016 A 
ATOM      8  C8  IND d   1       0.334   0.457   1.105  0.00  0.00    -0.047 A 
ATOM      9  C9  IND d   1      -0.971   0.165   0.687  0.00  0.00    -0.096 A 
ATOM     10  HN1 IND d   1       2.049   0.035   0.155  0.00  0.00     0.298 HD
ENDROOT
TORSDOF 0
ENDMDL
