MODEL 1
REMARK minimizedAffinity -3.43198442
REMARK minimizedRMSD -1
REMARK  0 active torsions:
REMARK  status: ('A' for Active; 'I' for Inactive)
ROOT
ATOM      1  N1  IND d   1       0.008  -0.489  -5.967  0.00  0.00    -0.196 N 
ATOM      2  C2  IND d   1      -1.017  -1.131  -5.330  0.00  0.00     0.054 A 
ATOM      3  C3  IND d   1      -1.051  -0.784  -4.024  0.00  0.00    -0.031 A 
ATOM      4  C4  IND d   1       0.417   0.898  -2.741  0.00  0.00     0.051 A 
ATOM      5  C5  IND d   1       1.509   1.705  -2.888  0.00  0.00    -0.031 A 
ATOM      6  C6  IND d   1       2.169   1.827  -4.093  0.00  0.00     0.015 A 
ATOM      7  C7  IND d   1       1.752   1.151  -5.205  0.00  0.00    -0.016 A 
ATOM      8  C8  IND d   1       0.647   0.325  -5.058  0.00  0.00    -0.047 A 
ATOM      9  C9  IND d   1      -0.001   0.165  -3.827  0.00  0.00    -0.096 A 
ATOM     10  HN1 IND d   1       0.218  -0.579  -6.796  0.00  0.00     0.298 HD
ENDROOT
TORSDOF 0
ENDMDL
