MODEL 1
REMARK minimizedAffinity -2.10584164
REMARK minimizedRMSD -1
REMARK  0 active torsions:
REMARK  status: ('A' for Active; 'I' for Inactive)
ROOT
ATOM      1  N1  IND d   1      -0.946  -0.807   0.094  0.00  0.00    -0.196 N 
ATOM      2  C2  IND d   1       0.322  -0.941  -0.397  0.00  0.00     0.054 A 
ATOM      3  C3  IND d   1       1.151  -0.049   0.190  0.00  0.00    -0.031 A 
ATOM      4  C4  IND d   1       0.662   1.656   2.055  0.00  0.00     0.051 A 
ATOM      5  C5  IND d   1      -0.360   2.174   2.800  0.00  0.00    -0.031 A 
ATOM      6  C6  IND d   1      -1.656   1.714   2.681  0.00  0.00     0.015 A 
ATOM      7  C7  IND d   1      -1.976   0.706   1.816  0.00  0.00    -0.016 A 
ATOM      8  C8  IND d   1      -0.942   0.182   1.053  0.00  0.00    -0.047 A 
ATOM      9  C9  IND d   1       0.366   0.675   1.139  0.00  0.00    -0.096 A 
ATOM     10  HN1 IND d   1      -1.631  -1.263  -0.154  0.00  0.00     0.298 HD
ENDROOT
TORSDOF 0
ENDMDL
