MODEL 1
REMARK minimizedAffinity -5.68063116
REMARK minimizedRMSD -1
REMARK  0 active torsions:
REMARK  status: ('A' for Active; 'I' for Inactive)
ROOT
ATOM      1  N1  IND d   1       2.113  -1.250   1.042  0.00  0.00    -0.196 N 
ATOM      2  C2  IND d   1       1.734  -1.357  -0.267  0.00  0.00     0.054 A 
ATOM      3  C3  IND d   1       0.562  -0.715  -0.471  0.00  0.00    -0.031 A 
ATOM      4  C4  IND d   1      -0.856   0.664   1.176  0.00  0.00     0.051 A 
ATOM      5  C5  IND d   1      -0.935   1.019   2.494  0.00  0.00    -0.031 A 
ATOM      6  C6  IND d   1       0.018   0.630   3.412  0.00  0.00     0.015 A 
ATOM      7  C7  IND d   1       1.097  -0.122   3.044  0.00  0.00    -0.016 A 
ATOM      8  C8  IND d   1       1.178  -0.490   1.709  0.00  0.00    -0.047 A 
ATOM      9  C9  IND d   1       0.191  -0.134   0.780  0.00  0.00    -0.096 A 
ATOM     10  HN1 IND d   1       2.818  -1.599   1.390  0.00  0.00     0.298 HD
ENDROOT
TORSDOF 0
ENDMDL
