MODEL 1
REMARK minimizedAffinity -2.02786469
REMARK minimizedRMSD -1
REMARK  0 active torsions:
REMARK  status: ('A' for Active; 'I' for Inactive)
ROOT
ATOM      1  C   UNL d   1      -0.226  -0.370   1.116  0.00  0.00     0.172 C 
ATOM      2  N   UNL d   1       0.769  -0.111   0.103  0.00  0.00    -0.070 N 
ATOM      3  C1  UNL d   1       1.430  -1.061  -0.628  0.00  0.00    -0.004 A 
ATOM      4  C2  UNL d   1       2.293  -0.411  -1.484  0.00  0.00    -0.047 A 
ATOM      5  C3  UNL d   1       2.146   0.978  -1.258  0.00  0.00    -0.047 A 
ATOM      6  C4  UNL d   1       1.197   1.136  -0.271  0.00  0.00    -0.004 A 
ENDROOT
TORSDOF 0
ENDMDL
