MODEL 1
REMARK minimizedAffinity -2.49459815
REMARK minimizedRMSD -1
REMARK  0 active torsions:
REMARK  status: ('A' for Active; 'I' for Inactive)
ROOT
ATOM      1  C   UNL d   1       1.003  -2.277  -0.801  0.00  0.00     0.172 C 
ATOM      2  N   UNL d   1       0.592  -0.957  -0.383  0.00  0.00    -0.070 N 
ATOM      3  C1  UNL d   1       0.976   0.220  -0.967  0.00  0.00    -0.004 A 
ATOM      4  C2  UNL d   1       0.371   1.250  -0.279  0.00  0.00    -0.047 A 
ATOM      5  C3  UNL d   1      -0.404   0.670   0.755  0.00  0.00    -0.047 A 
ATOM      6  C4  UNL d   1      -0.248  -0.697   0.667  0.00  0.00    -0.004 A 
ENDROOT
TORSDOF 0
ENDMDL
