MODEL 1
REMARK minimizedAffinity -2.61822796
REMARK minimizedRMSD -1
REMARK  0 active torsions:
REMARK  status: ('A' for Active; 'I' for Inactive)
ROOT
ATOM      1  C   UNL d   1      -0.629  -0.549   1.050  0.00  0.00     0.172 C 
ATOM      2  N   UNL d   1      -1.921  -0.048   1.457  0.00  0.00    -0.070 N 
ATOM      3  C1  UNL d   1      -3.122  -0.387   0.893  0.00  0.00    -0.004 A 
ATOM      4  C2  UNL d   1      -4.111   0.301   1.562  0.00  0.00    -0.047 A 
ATOM      5  C3  UNL d   1      -3.482   1.081   2.562  0.00  0.00    -0.047 A 
ATOM      6  C4  UNL d   1      -2.126   0.846   2.474  0.00  0.00    -0.004 A 
ENDROOT
TORSDOF 0
ENDMDL
