MODEL 1
REMARK minimizedAffinity -2.25383377
REMARK minimizedRMSD -1
REMARK  0 active torsions:
REMARK  status: ('A' for Active; 'I' for Inactive)
ROOT
ATOM      1  C   UNL d   1      -1.045  -0.193   0.608  0.00  0.00     0.172 C 
ATOM      2  N   UNL d   1       0.107  -0.072  -0.254  0.00  0.00    -0.070 N 
ATOM      3  C1  UNL d   1       0.722  -1.103  -0.913  0.00  0.00    -0.004 A 
ATOM      4  C2  UNL d   1       1.777  -0.578  -1.627  0.00  0.00    -0.047 A 
ATOM      5  C3  UNL d   1       1.797   0.817  -1.388  0.00  0.00    -0.047 A 
ATOM      6  C4  UNL d   1       0.753   1.103  -0.535  0.00  0.00    -0.004 A 
ENDROOT
TORSDOF 0
ENDMDL
