MODEL 1
REMARK minimizedAffinity -2.28115082
REMARK minimizedRMSD -1
REMARK  0 active torsions:
REMARK  status: ('A' for Active; 'I' for Inactive)
ROOT
ATOM      1  C   UNL d   1      -0.207   0.225   0.152  0.00  0.00     0.172 C 
ATOM      2  N   UNL d   1      -1.381   0.381   0.978  0.00  0.00    -0.070 N 
ATOM      3  C1  UNL d   1      -2.668   0.488   0.524  0.00  0.00    -0.004 A 
ATOM      4  C2  UNL d   1      -3.493   0.621   1.620  0.00  0.00    -0.047 A 
ATOM      5  C3  UNL d   1      -2.673   0.593   2.773  0.00  0.00    -0.047 A 
ATOM      6  C4  UNL d   1      -1.370   0.443   2.347  0.00  0.00    -0.004 A 
ENDROOT
TORSDOF 0
ENDMDL
