MODEL 1
REMARK minimizedAffinity -4.33496952
REMARK minimizedRMSD -1
REMARK  0 active torsions:
REMARK  status: ('A' for Active; 'I' for Inactive)
ROOT
ATOM      1  C   UNL d   1       0.401   0.002   0.610  0.00  0.00     0.172 C 
ATOM      2  N   UNL d   1       0.977  -0.204  -0.698  0.00  0.00    -0.070 N 
ATOM      3  C1  UNL d   1       1.473   0.776  -1.515  0.00  0.00    -0.004 A 
ATOM      4  C2  UNL d   1       1.929   0.174  -2.668  0.00  0.00    -0.047 A 
ATOM      5  C3  UNL d   1       1.700  -1.217  -2.538  0.00  0.00    -0.047 A 
ATOM      6  C4  UNL d   1       1.109  -1.423  -1.309  0.00  0.00    -0.004 A 
ENDROOT
TORSDOF 0
ENDMDL
