MODEL 1
REMARK minimizedAffinity -2.20523119
REMARK minimizedRMSD -1
REMARK  0 active torsions:
REMARK  status: ('A' for Active; 'I' for Inactive)
ROOT
ATOM      1  C   UNL d   1      -0.406  -0.517   1.282  0.00  0.00     0.172 C 
ATOM      2  N   UNL d   1       0.170   0.379   0.307  0.00  0.00    -0.070 N 
ATOM      3  C1  UNL d   1       0.722   0.009  -0.890  0.00  0.00    -0.004 A 
ATOM      4  C2  UNL d   1       1.157   1.151  -1.526  0.00  0.00    -0.047 A 
ATOM      5  C3  UNL d   1       0.856   2.247  -0.682  0.00  0.00    -0.047 A 
ATOM      6  C4  UNL d   1       0.245   1.740   0.446  0.00  0.00    -0.004 A 
ENDROOT
TORSDOF 0
ENDMDL
