MODEL 1
REMARK minimizedAffinity -1.85195971
REMARK minimizedRMSD -1
REMARK  0 active torsions:
REMARK  status: ('A' for Active; 'I' for Inactive)
ROOT
ATOM      1  C   UNL d   1      -0.510  -0.007   1.019  0.00  0.00     0.172 C 
ATOM      2  N   UNL d   1       0.471   0.230  -0.014  0.00  0.00    -0.070 N 
ATOM      3  C1  UNL d   1       1.256  -0.724  -0.604  0.00  0.00    -0.004 A 
ATOM      4  C2  UNL d   1       2.055  -0.096  -1.536  0.00  0.00    -0.047 A 
ATOM      5  C3  UNL d   1       1.740   1.283  -1.503  0.00  0.00    -0.047 A 
ATOM      6  C4  UNL d   1       0.756   1.457  -0.553  0.00  0.00    -0.004 A 
ENDROOT
TORSDOF 0
ENDMDL
