MODEL 1
REMARK minimizedAffinity -2.43637896
REMARK minimizedRMSD -1
REMARK  0 active torsions:
REMARK  status: ('A' for Active; 'I' for Inactive)
ROOT
ATOM      1  C   UNL d   1      -0.568  -0.022   1.057  0.00  0.00     0.172 C 
ATOM      2  N   UNL d   1       0.262   0.104  -0.119  0.00  0.00    -0.070 N 
ATOM      3  C1  UNL d   1       0.844  -0.931  -0.800  0.00  0.00    -0.004 A 
ATOM      4  C2  UNL d   1       1.550  -0.397  -1.856  0.00  0.00    -0.047 A 
ATOM      5  C3  UNL d   1       1.387   1.008  -1.808  0.00  0.00    -0.047 A 
ATOM      6  C4  UNL d   1       0.585   1.291  -0.722  0.00  0.00    -0.004 A 
ENDROOT
TORSDOF 0
ENDMDL
