MODEL 1
REMARK minimizedAffinity -2.81582522
REMARK minimizedRMSD -1
REMARK  0 active torsions:
REMARK  status: ('A' for Active; 'I' for Inactive)
ROOT
ATOM      1  C   UNL d   1      -3.882   4.893  -5.842  0.00  0.00     0.172 C 
ATOM      2  N   UNL d   1      -4.436   3.560  -5.843  0.00  0.00    -0.070 N 
ATOM      3  C1  UNL d   1      -3.716   2.396  -5.856  0.00  0.00    -0.004 A 
ATOM      4  C2  UNL d   1      -4.609   1.346  -5.852  0.00  0.00    -0.047 A 
ATOM      5  C3  UNL d   1      -5.912   1.899  -5.836  0.00  0.00    -0.047 A 
ATOM      6  C4  UNL d   1      -5.775   3.272  -5.831  0.00  0.00    -0.004 A 
ENDROOT
TORSDOF 0
ENDMDL
