MODEL 1
REMARK minimizedAffinity -3.6336453
REMARK minimizedRMSD -1
REMARK  0 active torsions:
REMARK  status: ('A' for Active; 'I' for Inactive)
ROOT
ATOM      1  C   UNL d   1      -0.524  -0.224   0.883  0.00  0.00     0.172 C 
ATOM      2  N   UNL d   1       0.366   0.262  -0.144  0.00  0.00    -0.070 N 
ATOM      3  C1  UNL d   1       1.306   1.246   0.014  0.00  0.00    -0.004 A 
ATOM      4  C2  UNL d   1       1.946   1.416  -1.195  0.00  0.00    -0.047 A 
ATOM      5  C3  UNL d   1       1.370   0.504  -2.111  0.00  0.00    -0.047 A 
ATOM      6  C4  UNL d   1       0.395  -0.198  -1.434  0.00  0.00    -0.004 A 
ENDROOT
TORSDOF 0
ENDMDL
