MODEL 1
REMARK minimizedAffinity -1.72374153
REMARK minimizedRMSD -1
REMARK  0 active torsions:
REMARK  status: ('A' for Active; 'I' for Inactive)
ROOT
ATOM      1  C   UNL d   1      -5.596   2.356  -5.437  0.00  0.00     0.172 C 
ATOM      2  N   UNL d   1      -5.164   3.716  -5.659  0.00  0.00    -0.070 N 
ATOM      3  C1  UNL d   1      -5.988   4.801  -5.809  0.00  0.00    -0.004 A 
ATOM      4  C2  UNL d   1      -5.193   5.910  -6.000  0.00  0.00    -0.047 A 
ATOM      5  C3  UNL d   1      -3.846   5.478  -5.965  0.00  0.00    -0.047 A 
ATOM      6  C4  UNL d   1      -3.857   4.116  -5.753  0.00  0.00    -0.004 A 
ENDROOT
TORSDOF 0
ENDMDL
