MODEL 1
REMARK minimizedAffinity -2.39849353
REMARK minimizedRMSD -1
REMARK  0 active torsions:
REMARK  status: ('A' for Active; 'I' for Inactive)
ROOT
ATOM      1  C   UNL d   1      -0.125  -0.435   0.809  0.00  0.00     0.172 C 
ATOM      2  N   UNL d   1      -1.343   0.000   1.451  0.00  0.00    -0.070 N 
ATOM      3  C1  UNL d   1      -2.602  -0.092   0.920  0.00  0.00    -0.004 A 
ATOM      4  C2  UNL d   1      -3.487   0.429   1.839  0.00  0.00    -0.047 A 
ATOM      5  C3  UNL d   1      -2.734   0.850   2.961  0.00  0.00    -0.047 A 
ATOM      6  C4  UNL d   1      -1.410   0.573   2.694  0.00  0.00    -0.004 A 
ENDROOT
TORSDOF 0
ENDMDL
