MODEL 1
REMARK minimizedAffinity -1.89426923
REMARK minimizedRMSD -1
REMARK  0 active torsions:
REMARK  status: ('A' for Active; 'I' for Inactive)
ROOT
ATOM      1  C   UNL d   1      -0.474   0.594  -0.308  0.00  0.00     0.172 C 
ATOM      2  N   UNL d   1      -1.598   0.439   0.586  0.00  0.00    -0.070 N 
ATOM      3  C1  UNL d   1      -2.852   0.950   0.387  0.00  0.00    -0.004 A 
ATOM      4  C2  UNL d   1      -3.633   0.583   1.462  0.00  0.00    -0.047 A 
ATOM      5  C3  UNL d   1      -2.819  -0.175   2.337  0.00  0.00    -0.047 A 
ATOM      6  C4  UNL d   1      -1.564  -0.248   1.770  0.00  0.00    -0.004 A 
ENDROOT
TORSDOF 0
ENDMDL
