MODEL 1
REMARK minimizedAffinity -2.15809107
REMARK minimizedRMSD -1
REMARK  0 active torsions:
REMARK  status: ('A' for Active; 'I' for Inactive)
ROOT
ATOM      1  C   UNL d   1      -4.042   2.227  -5.999  0.00  0.00     0.172 C 
ATOM      2  N   UNL d   1      -4.565   3.571  -5.941  0.00  0.00    -0.070 N 
ATOM      3  C1  UNL d   1      -3.823   4.720  -5.999  0.00  0.00    -0.004 A 
ATOM      4  C2  UNL d   1      -4.690   5.788  -5.912  0.00  0.00    -0.047 A 
ATOM      5  C3  UNL d   1      -5.999   5.263  -5.797  0.00  0.00    -0.047 A 
ATOM      6  C4  UNL d   1      -5.892   3.888  -5.817  0.00  0.00    -0.004 A 
ENDROOT
TORSDOF 0
ENDMDL
