MODEL 1
REMARK minimizedAffinity -2.47641397
REMARK minimizedRMSD -1
REMARK  0 active torsions:
REMARK  status: ('A' for Active; 'I' for Inactive)
ROOT
ATOM      1  C   UNL d   1       0.718  -2.343   0.238  0.00  0.00     0.172 C 
ATOM      2  N   UNL d   1       0.439  -0.934   0.384  0.00  0.00    -0.070 N 
ATOM      3  C1  UNL d   1      -0.709  -0.397   0.903  0.00  0.00    -0.004 A 
ATOM      4  C2  UNL d   1      -0.586   0.975   0.869  0.00  0.00    -0.047 A 
ATOM      5  C3  UNL d   1       0.680   1.273   0.310  0.00  0.00    -0.047 A 
ATOM      6  C4  UNL d   1       1.293   0.073   0.019  0.00  0.00    -0.004 A 
ENDROOT
TORSDOF 0
ENDMDL
