MODEL 1
REMARK minimizedAffinity -3.3540473
REMARK minimizedRMSD -1
REMARK  0 active torsions:
REMARK  status: ('A' for Active; 'I' for Inactive)
ROOT
ATOM      1  O1  BZF d   1       1.057   1.071   0.208  0.00  0.00    -0.204 OA
ATOM      2  C2  BZF d   1      -0.155   1.478  -0.314  0.00  0.00     0.174 A 
ATOM      3  C3  BZF d   1      -0.928   0.415  -0.615  0.00  0.00    -0.012 A 
ATOM      4  C3A BZF d   1      -0.186  -0.726  -0.173  0.00  0.00    -0.107 A 
ATOM      5  C4  BZF d   1      -0.435  -2.069  -0.183  0.00  0.00     0.055 A 
ATOM      6  C5  BZF d   1       0.527  -2.922   0.257  0.00  0.00    -0.016 A 
ATOM      7  C6  BZF d   1       1.749  -2.468   0.708  0.00  0.00     0.022 A 
ATOM      8  C7  BZF d   1       2.040  -1.145   0.742  0.00  0.00     0.029 A 
ATOM      9  C7A BZF d   1       1.057  -0.278   0.328  0.00  0.00     0.058 A 
ENDROOT
TORSDOF 0
ENDMDL
