MODEL 1
REMARK minimizedAffinity -3.48149395
REMARK minimizedRMSD -1
REMARK  0 active torsions:
REMARK  status: ('A' for Active; 'I' for Inactive)
ROOT
ATOM      1  O1  BZF d   1       0.065   1.112  -1.174  0.00  0.00    -0.204 OA
ATOM      2  C2  BZF d   1      -0.943   1.648  -0.396  0.00  0.00     0.174 A 
ATOM      3  C3  BZF d   1      -1.109   0.930   0.733  0.00  0.00    -0.012 A 
ATOM      4  C3A BZF d   1      -0.082  -0.066   0.700  0.00  0.00    -0.107 A 
ATOM      5  C4  BZF d   1       0.280  -1.070   1.552  0.00  0.00     0.055 A 
ATOM      6  C5  BZF d   1       1.283  -1.913   1.191  0.00  0.00    -0.016 A 
ATOM      7  C6  BZF d   1       1.940  -1.785  -0.015  0.00  0.00     0.022 A 
ATOM      8  C7  BZF d   1       1.619  -0.802  -0.891  0.00  0.00     0.029 A 
ATOM      9  C7A BZF d   1       0.629   0.072  -0.515  0.00  0.00     0.058 A 
ENDROOT
TORSDOF 0
ENDMDL
