MODEL 1
REMARK minimizedAffinity -4.98040867
REMARK minimizedRMSD -1
REMARK  0 active torsions:
REMARK  status: ('A' for Active; 'I' for Inactive)
ROOT
ATOM      1  O1  BZF d   1      -1.182   0.012   0.010  0.00  0.00    -0.204 OA
ATOM      2  C2  BZF d   1      -0.472   1.109  -0.439  0.00  0.00     0.174 A 
ATOM      3  C3  BZF d   1       0.854   0.864  -0.411  0.00  0.00    -0.012 A 
ATOM      4  C3A BZF d   1       0.976  -0.501  -0.001  0.00  0.00    -0.107 A 
ATOM      5  C4  BZF d   1       2.043  -1.330   0.198  0.00  0.00     0.055 A 
ATOM      6  C5  BZF d   1       1.826  -2.585   0.671  0.00  0.00    -0.016 A 
ATOM      7  C6  BZF d   1       0.557  -3.043   0.959  0.00  0.00     0.022 A 
ATOM      8  C7  BZF d   1      -0.534  -2.259   0.773  0.00  0.00     0.029 A 
ATOM      9  C7A BZF d   1      -0.320  -1.001   0.265  0.00  0.00     0.058 A 
ENDROOT
TORSDOF 0
ENDMDL
