MODEL 1
REMARK minimizedAffinity -0.464949727
REMARK minimizedRMSD -1
REMARK  0 active torsions:
REMARK  status: ('A' for Active; 'I' for Inactive)
ROOT
ATOM      1  O1  BZF d   1       2.374  -0.054  -0.122  0.00  0.00    -0.204 OA
ATOM      2  C2  BZF d   1       2.737  -1.285   0.390  0.00  0.00     0.174 A 
ATOM      3  C3  BZF d   1       1.690  -1.877   1.000  0.00  0.00    -0.012 A 
ATOM      4  C3A BZF d   1       0.581  -0.999   0.781  0.00  0.00    -0.107 A 
ATOM      5  C4  BZF d   1      -0.738  -1.048   1.130  0.00  0.00     0.055 A 
ATOM      6  C5  BZF d   1      -1.541   0.005   0.825  0.00  0.00    -0.016 A 
ATOM      7  C6  BZF d   1      -1.058   1.123   0.176  0.00  0.00     0.022 A 
ATOM      8  C7  BZF d   1       0.242   1.214  -0.195  0.00  0.00     0.029 A 
ATOM      9  C7A BZF d   1       1.049   0.138   0.083  0.00  0.00     0.058 A 
ENDROOT
TORSDOF 0
ENDMDL
