MODEL 1
REMARK minimizedAffinity -6.1871171
REMARK minimizedRMSD -1
REMARK  0 active torsions:
REMARK  status: ('A' for Active; 'I' for Inactive)
ROOT
ATOM      1  O1  BZF d   1      -0.743   0.420   0.466  0.00  0.00    -0.204 OA
ATOM      2  C2  BZF d   1       0.118   0.763  -0.559  0.00  0.00     0.174 A 
ATOM      3  C3  BZF d   1       1.215  -0.021  -0.547  0.00  0.00    -0.012 A 
ATOM      4  C3A BZF d   1       0.986  -0.971   0.499  0.00  0.00    -0.107 A 
ATOM      5  C4  BZF d   1       1.708  -2.021   0.987  0.00  0.00     0.055 A 
ATOM      6  C5  BZF d   1       1.236  -2.704   2.063  0.00  0.00    -0.016 A 
ATOM      7  C6  BZF d   1       0.050  -2.361   2.678  0.00  0.00     0.022 A 
ATOM      8  C7  BZF d   1      -0.704  -1.329   2.226  0.00  0.00     0.029 A 
ATOM      9  C7A BZF d   1      -0.246  -0.658   1.119  0.00  0.00     0.058 A 
ENDROOT
TORSDOF 0
ENDMDL
