MODEL 1
REMARK minimizedAffinity -5.10132837
REMARK minimizedRMSD -1
REMARK  0 active torsions:
REMARK  status: ('A' for Active; 'I' for Inactive)
ROOT
ATOM      1  O1  BZF d   1       2.475  -1.921   0.003  0.00  0.00    -0.204 OA
ATOM      2  C2  BZF d   1       1.979  -2.911   0.830  0.00  0.00     0.174 A 
ATOM      3  C3  BZF d   1       0.718  -2.626   1.214  0.00  0.00    -0.012 A 
ATOM      4  C3A BZF d   1       0.373  -1.428   0.512  0.00  0.00    -0.107 A 
ATOM      5  C4  BZF d   1      -0.755  -0.659   0.466  0.00  0.00     0.055 A 
ATOM      6  C5  BZF d   1      -0.742   0.489  -0.261  0.00  0.00    -0.016 A 
ATOM      7  C6  BZF d   1       0.381   0.901  -0.948  0.00  0.00     0.022 A 
ATOM      8  C7  BZF d   1       1.522   0.169  -0.936  0.00  0.00     0.029 A 
ATOM      9  C7A BZF d   1       1.501  -1.008  -0.229  0.00  0.00     0.058 A 
ENDROOT
TORSDOF 0
ENDMDL
