MODEL 1
REMARK minimizedAffinity -5.81394863
REMARK minimizedRMSD -1
REMARK  0 active torsions:
REMARK  status: ('A' for Active; 'I' for Inactive)
ROOT
ATOM      1  O1  BZF d   1      -0.830   0.770   0.376  0.00  0.00    -0.204 OA
ATOM      2  C2  BZF d   1      -0.029   1.661  -0.311  0.00  0.00     0.174 A 
ATOM      3  C3  BZF d   1       1.159   1.100  -0.616  0.00  0.00    -0.012 A 
ATOM      4  C3A BZF d   1       1.061  -0.255  -0.167  0.00  0.00    -0.107 A 
ATOM      5  C4  BZF d   1       1.915  -1.320  -0.203  0.00  0.00     0.055 A 
ATOM      6  C5  BZF d   1       1.542  -2.486   0.388  0.00  0.00    -0.016 A 
ATOM      7  C6  BZF d   1       0.327  -2.620   1.026  0.00  0.00     0.022 A 
ATOM      8  C7  BZF d   1      -0.556  -1.594   1.083  0.00  0.00     0.029 A 
ATOM      9  C7A BZF d   1      -0.196  -0.424   0.459  0.00  0.00     0.058 A 
ENDROOT
TORSDOF 0
ENDMDL
