MODEL 1
REMARK minimizedAffinity -3.63307476
REMARK minimizedRMSD -1
REMARK  0 active torsions:
REMARK  status: ('A' for Active; 'I' for Inactive)
ROOT
ATOM      1  O1  BZF d   1       1.929  -0.570  -0.294  0.00  0.00    -0.204 OA
ATOM      2  C2  BZF d   1       1.532   0.752  -0.352  0.00  0.00     0.174 A 
ATOM      3  C3  BZF d   1       0.353   0.926   0.280  0.00  0.00    -0.012 A 
ATOM      4  C3A BZF d   1       0.036  -0.350   0.842  0.00  0.00    -0.107 A 
ATOM      5  C4  BZF d   1      -1.004  -0.811   1.599  0.00  0.00     0.055 A 
ATOM      6  C5  BZF d   1      -1.052  -2.130   1.923  0.00  0.00    -0.016 A 
ATOM      7  C6  BZF d   1      -0.082  -3.016   1.503  0.00  0.00     0.022 A 
ATOM      8  C7  BZF d   1       0.971  -2.605   0.755  0.00  0.00     0.029 A 
ATOM      9  C7A BZF d   1       1.040  -1.267   0.454  0.00  0.00     0.058 A 
ENDROOT
TORSDOF 0
ENDMDL
