MODEL 1
REMARK minimizedAffinity -4.86297226
REMARK minimizedRMSD -1
REMARK  0 active torsions:
REMARK  status: ('A' for Active; 'I' for Inactive)
ROOT
ATOM      1  O1  BZF d   1      -1.230   0.990   1.064  0.00  0.00    -0.204 OA
ATOM      2  C2  BZF d   1      -0.491   1.484   0.007  0.00  0.00     0.174 A 
ATOM      3  C3  BZF d   1       0.611   0.734  -0.198  0.00  0.00    -0.012 A 
ATOM      4  C3A BZF d   1       0.509  -0.347   0.734  0.00  0.00    -0.107 A 
ATOM      5  C4  BZF d   1       1.294  -1.432   1.004  0.00  0.00     0.055 A 
ATOM      6  C5  BZF d   1       0.950  -2.258   2.027  0.00  0.00    -0.016 A 
ATOM      7  C6  BZF d   1      -0.167  -2.027   2.802  0.00  0.00     0.022 A 
ATOM      8  C7  BZF d   1      -0.979  -0.967   2.570  0.00  0.00     0.029 A 
ATOM      9  C7A BZF d   1      -0.652  -0.149   1.516  0.00  0.00     0.058 A 
ENDROOT
TORSDOF 0
ENDMDL
