MODEL 1
REMARK minimizedAffinity -0.749627113
REMARK minimizedRMSD -1
REMARK  0 active torsions:
REMARK  status: ('A' for Active; 'I' for Inactive)
ROOT
ATOM      1  O1  BZF d   1      -1.167   0.239   1.428  0.00  0.00    -0.204 OA
ATOM      2  C2  BZF d   1      -1.217   1.174   0.413  0.00  0.00     0.174 A 
ATOM      3  C3  BZF d   1      -0.121   1.091  -0.368  0.00  0.00    -0.012 A 
ATOM      4  C3A BZF d   1       0.620  -0.023   0.139  0.00  0.00    -0.107 A 
ATOM      5  C4  BZF d   1       1.794  -0.616  -0.228  0.00  0.00     0.055 A 
ATOM      6  C5  BZF d   1       2.279  -1.641   0.521  0.00  0.00    -0.016 A 
ATOM      7  C6  BZF d   1       1.619  -2.094   1.645  0.00  0.00     0.022 A 
ATOM      8  C7  BZF d   1       0.449  -1.541   2.046  0.00  0.00     0.029 A 
ATOM      9  C7A BZF d   1      -0.061  -0.527   1.272  0.00  0.00     0.058 A 
ENDROOT
TORSDOF 0
ENDMDL
