MODEL 1
REMARK minimizedAffinity -3.8275125
REMARK minimizedRMSD -1
REMARK  0 active torsions:
REMARK  status: ('A' for Active; 'I' for Inactive)
ROOT
ATOM      1  O1  BZF d   1      -0.723   0.326   0.354  0.00  0.00    -0.204 OA
ATOM      2  C2  BZF d   1      -0.075   0.867  -0.739  0.00  0.00     0.174 A 
ATOM      3  C3  BZF d   1       1.123   0.276  -0.925  0.00  0.00    -0.012 A 
ATOM      4  C3A BZF d   1       1.190  -0.758   0.061  0.00  0.00    -0.107 A 
ATOM      5  C4  BZF d   1       2.128  -1.701   0.371  0.00  0.00     0.055 A 
ATOM      6  C5  BZF d   1       1.919  -2.515   1.439  0.00  0.00    -0.016 A 
ATOM      7  C6  BZF d   1       0.788  -2.409   2.222  0.00  0.00     0.022 A 
ATOM      8  C7  BZF d   1      -0.173  -1.493   1.951  0.00  0.00     0.029 A 
ATOM      9  C7A BZF d   1       0.020  -0.691   0.852  0.00  0.00     0.058 A 
ENDROOT
TORSDOF 0
ENDMDL
