MODEL 1
REMARK minimizedAffinity -2.76909494
REMARK minimizedRMSD -1
REMARK  0 active torsions:
REMARK  status: ('A' for Active; 'I' for Inactive)
ROOT
ATOM      1  O1  BZF d   1       0.226  -2.228   1.624  0.00  0.00    -0.204 OA
ATOM      2  C2  BZF d   1       1.547  -2.579   1.423  0.00  0.00     0.174 A 
ATOM      3  C3  BZF d   1       2.161  -1.688   0.617  0.00  0.00    -0.012 A 
ATOM      4  C3A BZF d   1       1.186  -0.671   0.369  0.00  0.00    -0.107 A 
ATOM      5  C4  BZF d   1       1.202   0.491  -0.349  0.00  0.00     0.055 A 
ATOM      6  C5  BZF d   1       0.061   1.222  -0.450  0.00  0.00    -0.016 A 
ATOM      7  C6  BZF d   1      -1.114   0.819   0.150  0.00  0.00     0.022 A 
ATOM      8  C7  BZF d   1      -1.179  -0.323   0.877  0.00  0.00     0.029 A 
ATOM      9  C7A BZF d   1      -0.019  -1.047   1.008  0.00  0.00     0.058 A 
ENDROOT
TORSDOF 0
ENDMDL
