MODEL 1
REMARK minimizedAffinity -6.06981993
REMARK minimizedRMSD -1
REMARK  0 active torsions:
REMARK  status: ('A' for Active; 'I' for Inactive)
ROOT
ATOM      1  O1  BZF d   1      -0.659   0.238   0.385  0.00  0.00    -0.204 OA
ATOM      2  C2  BZF d   1       0.064   0.494  -0.764  0.00  0.00     0.174 A 
ATOM      3  C3  BZF d   1       1.107  -0.354  -0.871  0.00  0.00    -0.012 A 
ATOM      4  C3A BZF d   1       0.978  -1.252   0.235  0.00  0.00    -0.107 A 
ATOM      5  C4  BZF d   1       1.704  -2.326   0.662  0.00  0.00     0.055 A 
ATOM      6  C5  BZF d   1       1.353  -2.942   1.822  0.00  0.00    -0.016 A 
ATOM      7  C6  BZF d   1       0.287  -2.507   2.581  0.00  0.00     0.022 A 
ATOM      8  C7  BZF d   1      -0.467  -1.448   2.196  0.00  0.00     0.029 A 
ATOM      9  C7A BZF d   1      -0.135  -0.844   1.007  0.00  0.00     0.058 A 
ENDROOT
TORSDOF 0
ENDMDL
