MODEL 1
REMARK minimizedAffinity -4.35647821
REMARK minimizedRMSD -1
REMARK  0 active torsions:
REMARK  status: ('A' for Active; 'I' for Inactive)
ROOT
ATOM      1  O1  BZF d   1      -1.173  -1.062   2.342  0.00  0.00    -0.204 OA
ATOM      2  C2  BZF d   1      -0.914  -1.995   3.327  0.00  0.00     0.174 A 
ATOM      3  C3  BZF d   1       0.236  -2.652   3.073  0.00  0.00    -0.012 A 
ATOM      4  C3A BZF d   1       0.773  -2.031   1.901  0.00  0.00    -0.107 A 
ATOM      5  C4  BZF d   1       1.907  -2.232   1.168  0.00  0.00     0.055 A 
ATOM      6  C5  BZF d   1       2.100  -1.505   0.036  0.00  0.00    -0.016 A 
ATOM      7  C6  BZF d   1       1.178  -0.573  -0.394  0.00  0.00     0.022 A 
ATOM      8  C7  BZF d   1       0.040  -0.335   0.303  0.00  0.00     0.029 A 
ATOM      9  C7A BZF d   1      -0.142  -1.045   1.464  0.00  0.00     0.058 A 
ENDROOT
TORSDOF 0
ENDMDL
