MODEL 1
REMARK minimizedAffinity -5.59070635
REMARK minimizedRMSD -1
REMARK  0 active torsions:
REMARK  status: ('A' for Active; 'I' for Inactive)
ROOT
ATOM      1  O1  BZF d   1      -0.861   0.352   0.489  0.00  0.00    -0.204 OA
ATOM      2  C2  BZF d   1      -0.223   0.595  -0.712  0.00  0.00     0.174 A 
ATOM      3  C3  BZF d   1       0.777  -0.288  -0.909  0.00  0.00    -0.012 A 
ATOM      4  C3A BZF d   1       0.704  -1.193   0.197  0.00  0.00    -0.107 A 
ATOM      5  C4  BZF d   1       1.422  -2.297   0.556  0.00  0.00     0.055 A 
ATOM      6  C5  BZF d   1       1.143  -2.912   1.735  0.00  0.00    -0.016 A 
ATOM      7  C6  BZF d   1       0.156  -2.448   2.580  0.00  0.00     0.022 A 
ATOM      8  C7  BZF d   1      -0.587  -1.360   2.265  0.00  0.00     0.029 A 
ATOM      9  C7A BZF d   1      -0.329  -0.755   1.059  0.00  0.00     0.058 A 
ENDROOT
TORSDOF 0
ENDMDL
