MODEL 1
REMARK minimizedAffinity -3.92412376
REMARK minimizedRMSD -1
REMARK  0 active torsions:
REMARK  status: ('A' for Active; 'I' for Inactive)
ROOT
ATOM      1  O1  BZF d   1       2.391  -2.064   0.549  0.00  0.00    -0.204 OA
ATOM      2  C2  BZF d   1       1.720  -3.172   1.030  0.00  0.00     0.174 A 
ATOM      3  C3  BZF d   1       0.392  -2.945   1.076  0.00  0.00    -0.012 A 
ATOM      4  C3A BZF d   1       0.213  -1.644   0.507  0.00  0.00    -0.107 A 
ATOM      5  C4  BZF d   1      -0.885  -0.869   0.263  0.00  0.00     0.055 A 
ATOM      6  C5  BZF d   1      -0.712   0.383  -0.235  0.00  0.00    -0.016 A 
ATOM      7  C6  BZF d   1       0.543   0.893  -0.497  0.00  0.00     0.022 A 
ATOM      8  C7  BZF d   1       1.662   0.160  -0.276  0.00  0.00     0.029 A 
ATOM      9  C7A BZF d   1       1.488  -1.118   0.197  0.00  0.00     0.058 A 
ENDROOT
TORSDOF 0
ENDMDL
