MODEL 1
REMARK minimizedAffinity -3.07610989
REMARK minimizedRMSD -1
REMARK  0 active torsions:
REMARK  status: ('A' for Active; 'I' for Inactive)
ROOT
ATOM      1  O1  BZF d   1       0.954   1.129  -0.319  0.00  0.00    -0.204 OA
ATOM      2  C2  BZF d   1      -0.316   1.660  -0.209  0.00  0.00     0.174 A 
ATOM      3  C3  BZF d   1      -1.168   0.758   0.320  0.00  0.00    -0.012 A 
ATOM      4  C3A BZF d   1      -0.360  -0.379   0.641  0.00  0.00    -0.107 A 
ATOM      5  C4  BZF d   1      -0.629  -1.592   1.207  0.00  0.00     0.055 A 
ATOM      6  C5  BZF d   1       0.370  -2.507   1.313  0.00  0.00    -0.016 A 
ATOM      7  C6  BZF d   1       1.646  -2.245   0.860  0.00  0.00     0.022 A 
ATOM      8  C7  BZF d   1       1.962  -1.054   0.296  0.00  0.00     0.029 A 
ATOM      9  C7A BZF d   1       0.963  -0.115   0.217  0.00  0.00     0.058 A 
ENDROOT
TORSDOF 0
ENDMDL
