MODEL 1
REMARK minimizedAffinity -5.31876278
REMARK minimizedRMSD -1
REMARK  0 active torsions:
REMARK  status: ('A' for Active; 'I' for Inactive)
ROOT
ATOM      1  C   UNL d   1       3.639  -1.414   1.571  0.00  0.00    -0.002 A 
ATOM      2  C1  UNL d   1       2.849  -2.335   2.245  0.00  0.00     0.010 A 
ATOM      3  C2  UNL d   1       1.457  -2.220   2.233  0.00  0.00     0.041 A 
ATOM      4  C3  UNL d   1       0.867  -1.156   1.524  0.00  0.00    -0.075 A 
ATOM      5  S   UNL d   1      -0.816  -0.816   1.370  0.00  0.00     0.015 SA
ATOM      6  C4  UNL d   1      -0.527   0.559   0.405  0.00  0.00     0.022 A 
ATOM      7  C5  UNL d   1       0.816   0.769   0.196  0.00  0.00     0.026 A 
ATOM      8  C6  UNL d   1       1.641  -0.216   0.837  0.00  0.00    -0.082 A 
ATOM      9  C7  UNL d   1       3.049  -0.359   0.869  0.00  0.00     0.045 A 
ENDROOT
TORSDOF 0
ENDMDL
