MODEL 1
REMARK minimizedAffinity -4.20805836
REMARK minimizedRMSD -1
REMARK  0 active torsions:
REMARK  status: ('A' for Active; 'I' for Inactive)
ROOT
ATOM      1  C   UNL d   1      -2.987   1.861  -3.583  0.00  0.00    -0.002 A 
ATOM      2  C1  UNL d   1      -2.322   0.664  -3.812  0.00  0.00     0.010 A 
ATOM      3  C2  UNL d   1      -1.669   0.004  -2.770  0.00  0.00     0.041 A 
ATOM      4  C3  UNL d   1      -1.698   0.570  -1.480  0.00  0.00    -0.075 A 
ATOM      5  S   UNL d   1      -0.970  -0.062  -0.051  0.00  0.00     0.015 SA
ATOM      6  C4  UNL d   1      -1.526   1.241   0.898  0.00  0.00     0.022 A 
ATOM      7  C5  UNL d   1      -2.251   2.145   0.158  0.00  0.00     0.026 A 
ATOM      8  C6  UNL d   1      -2.363   1.773  -1.224  0.00  0.00    -0.082 A 
ATOM      9  C7  UNL d   1      -3.014   2.419  -2.303  0.00  0.00     0.045 A 
ENDROOT
TORSDOF 0
ENDMDL
