MODEL 1
REMARK minimizedAffinity -4.50697947
REMARK minimizedRMSD -1
REMARK  0 active torsions:
REMARK  status: ('A' for Active; 'I' for Inactive)
ROOT
ATOM      1  C   UNL d   1       3.041  -0.769   0.736  0.00  0.00    -0.002 A 
ATOM      2  C1  UNL d   1       2.833   0.252  -0.181  0.00  0.00     0.010 A 
ATOM      3  C2  UNL d   1       1.540   0.603  -0.573  0.00  0.00     0.041 A 
ATOM      4  C3  UNL d   1       0.448  -0.095  -0.021  0.00  0.00    -0.075 A 
ATOM      5  S   UNL d   1      -1.224   0.162  -0.353  0.00  0.00     0.015 SA
ATOM      6  C4  UNL d   1      -1.703  -1.077   0.716  0.00  0.00     0.022 A 
ATOM      7  C5  UNL d   1      -0.627  -1.682   1.319  0.00  0.00     0.026 A 
ATOM      8  C6  UNL d   1       0.631  -1.126   0.905  0.00  0.00    -0.082 A 
ATOM      9  C7  UNL d   1       1.955  -1.459   1.281  0.00  0.00     0.045 A 
ENDROOT
TORSDOF 0
ENDMDL
