MODEL 1
REMARK minimizedAffinity 1.65057445
REMARK minimizedRMSD -1
REMARK  0 active torsions:
REMARK  status: ('A' for Active; 'I' for Inactive)
ROOT
ATOM      1  C   UNL d   1       3.486  -0.373   1.275  0.00  0.00    -0.002 A 
ATOM      2  C1  UNL d   1       3.051   0.730   1.995  0.00  0.00     0.010 A 
ATOM      3  C2  UNL d   1       1.739   1.191   1.867  0.00  0.00     0.041 A 
ATOM      4  C3  UNL d   1       0.862   0.516   0.995  0.00  0.00    -0.075 A 
ATOM      5  S   UNL d   1      -0.788   0.900   0.678  0.00  0.00     0.015 SA
ATOM      6  C4  UNL d   1      -0.956  -0.392  -0.420  0.00  0.00     0.022 A 
ATOM      7  C5  UNL d   1       0.209  -1.109  -0.554  0.00  0.00     0.026 A 
ATOM      8  C6  UNL d   1       1.276  -0.598   0.259  0.00  0.00    -0.082 A 
ATOM      9  C7  UNL d   1       2.613  -1.040   0.411  0.00  0.00     0.045 A 
ENDROOT
TORSDOF 0
ENDMDL
