MODEL 1
REMARK minimizedAffinity 0.529411018
REMARK minimizedRMSD -1
REMARK  0 active torsions:
REMARK  status: ('A' for Active; 'I' for Inactive)
ROOT
ATOM      1  C   UNL d   1       3.492   0.160   1.978  0.00  0.00    -0.002 A 
ATOM      2  C1  UNL d   1       3.152   1.390   2.523  0.00  0.00     0.010 A 
ATOM      3  C2  UNL d   1       1.938   1.999   2.198  0.00  0.00     0.041 A 
ATOM      4  C3  UNL d   1       1.063   1.344   1.309  0.00  0.00    -0.075 A 
ATOM      5  S   UNL d   1      -0.477   1.899   0.768  0.00  0.00     0.015 SA
ATOM      6  C4  UNL d   1      -0.720   0.516  -0.197  0.00  0.00     0.022 A 
ATOM      7  C5  UNL d   1       0.338  -0.358  -0.121  0.00  0.00     0.026 A 
ATOM      8  C6  UNL d   1       1.383   0.104   0.749  0.00  0.00    -0.082 A 
ATOM      9  C7  UNL d   1       2.621  -0.487   1.098  0.00  0.00     0.045 A 
ENDROOT
TORSDOF 0
ENDMDL
