MODEL 1
REMARK minimizedAffinity -1.76895976
REMARK minimizedRMSD -1
REMARK  0 active torsions:
REMARK  status: ('A' for Active; 'I' for Inactive)
ROOT
ATOM      1  C   UNL d   1      -3.020  -0.351  -3.340  0.00  0.00    -0.002 A 
ATOM      2  C1  UNL d   1      -3.672  -1.221  -2.478  0.00  0.00     0.010 A 
ATOM      3  C2  UNL d   1      -3.171  -1.459  -1.196  0.00  0.00     0.041 A 
ATOM      4  C3  UNL d   1      -1.994  -0.801  -0.792  0.00  0.00    -0.075 A 
ATOM      5  S   UNL d   1      -1.197  -0.938   0.731  0.00  0.00     0.015 SA
ATOM      6  C4  UNL d   1       0.028   0.156   0.273  0.00  0.00     0.022 A 
ATOM      7  C5  UNL d   1      -0.151   0.623  -1.008  0.00  0.00     0.026 A 
ATOM      8  C6  UNL d   1      -1.319   0.080  -1.642  0.00  0.00    -0.082 A 
ATOM      9  C7  UNL d   1      -1.852   0.300  -2.935  0.00  0.00     0.045 A 
ENDROOT
TORSDOF 0
ENDMDL
