MODEL 1
REMARK minimizedAffinity -3.49041629
REMARK minimizedRMSD -1
REMARK  0 active torsions:
REMARK  status: ('A' for Active; 'I' for Inactive)
ROOT
ATOM      1  C   UNL d   1       2.942  -1.078   0.963  0.00  0.00    -0.002 A 
ATOM      2  C1  UNL d   1       1.849  -1.840   0.576  0.00  0.00     0.010 A 
ATOM      3  C2  UNL d   1       0.626  -1.232   0.284  0.00  0.00     0.041 A 
ATOM      4  C3  UNL d   1       0.520   0.169   0.386  0.00  0.00    -0.075 A 
ATOM      5  S   UNL d   1      -0.876   1.132   0.077  0.00  0.00     0.015 SA
ATOM      6  C4  UNL d   1      -0.054   2.577   0.450  0.00  0.00     0.022 A 
ATOM      7  C5  UNL d   1       1.254   2.350   0.805  0.00  0.00     0.026 A 
ATOM      8  C6  UNL d   1       1.607   0.958   0.773  0.00  0.00    -0.082 A 
ATOM      9  C7  UNL d   1       2.833   0.312   1.064  0.00  0.00     0.045 A 
ENDROOT
TORSDOF 0
ENDMDL
