MODEL 1
REMARK minimizedAffinity -4.96990013
REMARK minimizedRMSD -1
REMARK  1 active torsions:
REMARK  status: ('A' for Active; 'I' for Inactive)
REMARK    1  A    between atoms: C1_2  and  C2_3 
ROOT
ATOM      1  C2  UNL d   1      -0.632  -0.440  -3.284  0.00  0.00    -0.077 A 
ATOM      2  C3  UNL d   1      -1.294  -0.337  -2.052  0.00  0.00     0.002 A 
ATOM      3  C4  UNL d   1      -0.625  -0.640  -0.864  0.00  0.00     0.002 A 
ATOM      4  C5  UNL d   1       0.708  -1.042  -0.896  0.00  0.00    -0.004 A 
ATOM      5  C6  UNL d   1       1.375  -1.148  -2.116  0.00  0.00     0.002 A 
ATOM      6  C7  UNL d   1       0.708  -0.848  -3.304  0.00  0.00     0.002 A 
ENDROOT
BRANCH   1   7
ATOM      7  C1  UNL d   1      -1.337  -0.067  -4.562  0.00  0.00     0.055 C 
ATOM      8  C   UNL d   1      -2.162  -1.227  -5.097  0.00  0.00     0.019 C 
ENDBRANCH   1   7
TORSDOF 1
ENDMDL
