MODEL 1
REMARK minimizedAffinity -5.21071196
REMARK minimizedRMSD -1
REMARK  1 active torsions:
REMARK  status: ('A' for Active; 'I' for Inactive)
REMARK    1  A    between atoms: C1_2  and  C2_3 
ROOT
ATOM      1  C2  UNL d   1       0.086  -0.077   0.515  0.00  0.00    -0.077 A 
ATOM      2  C3  UNL d   1       0.840   0.700   1.405  0.00  0.00     0.002 A 
ATOM      3  C4  UNL d   1       0.209   1.435   2.411  0.00  0.00     0.002 A 
ATOM      4  C5  UNL d   1      -1.178   1.397   2.538  0.00  0.00    -0.004 A 
ATOM      5  C6  UNL d   1      -1.937   0.628   1.656  0.00  0.00     0.002 A 
ATOM      6  C7  UNL d   1      -1.308  -0.106   0.650  0.00  0.00     0.002 A 
ENDROOT
BRANCH   1   7
ATOM      7  C1  UNL d   1       0.768  -0.910  -0.539  0.00  0.00     0.055 C 
ATOM      8  C   UNL d   1       0.088  -0.757  -1.891  0.00  0.00     0.019 C 
ENDBRANCH   1   7
TORSDOF 1
ENDMDL
