MODEL 1
REMARK minimizedAffinity -4.90639114
REMARK minimizedRMSD -1
REMARK  1 active torsions:
REMARK  status: ('A' for Active; 'I' for Inactive)
REMARK    1  A    between atoms: C1_2  and  C2_3 
ROOT
ATOM      1  C2  UNL d   1       0.259  -0.283   0.178  0.00  0.00    -0.077 A 
ATOM      2  C3  UNL d   1       0.955   0.491   1.117  0.00  0.00     0.002 A 
ATOM      3  C4  UNL d   1       0.261   1.228   2.078  0.00  0.00     0.002 A 
ATOM      4  C5  UNL d   1      -1.131   1.195   2.113  0.00  0.00    -0.004 A 
ATOM      5  C6  UNL d   1      -1.833   0.429   1.182  0.00  0.00     0.002 A 
ATOM      6  C7  UNL d   1      -1.141  -0.307   0.220  0.00  0.00     0.002 A 
ENDROOT
BRANCH   1   7
ATOM      7  C1  UNL d   1       1.007  -1.118  -0.828  0.00  0.00     0.055 C 
ATOM      8  C   UNL d   1       1.010  -0.460  -2.201  0.00  0.00     0.019 C 
ENDBRANCH   1   7
TORSDOF 1
ENDMDL
