MODEL 1
REMARK minimizedAffinity -4.68760109
REMARK minimizedRMSD -1
REMARK  1 active torsions:
REMARK  status: ('A' for Active; 'I' for Inactive)
REMARK    1  A    between atoms: C1_2  and  C2_3 
ROOT
ATOM      1  C2  UNL d   1      -0.270   0.358   0.674  0.00  0.00    -0.077 A 
ATOM      2  C3  UNL d   1      -1.530  -0.099   1.084  0.00  0.00     0.002 A 
ATOM      3  C4  UNL d   1      -2.009   0.201   2.361  0.00  0.00     0.002 A 
ATOM      4  C5  UNL d   1      -1.235   0.960   3.236  0.00  0.00    -0.004 A 
ATOM      5  C6  UNL d   1       0.021   1.417   2.838  0.00  0.00     0.002 A 
ATOM      6  C7  UNL d   1       0.501   1.118   1.562  0.00  0.00     0.002 A 
ENDROOT
BRANCH   1   7
ATOM      7  C1  UNL d   1       0.227   0.078  -0.721  0.00  0.00     0.055 C 
ATOM      8  C   UNL d   1       0.144  -1.405  -1.051  0.00  0.00     0.019 C 
ENDBRANCH   1   7
TORSDOF 1
ENDMDL
