MODEL 1
REMARK minimizedAffinity -4.7444644
REMARK minimizedRMSD -1
REMARK  1 active torsions:
REMARK  status: ('A' for Active; 'I' for Inactive)
REMARK    1  A    between atoms: C1_2  and  C2_3 
ROOT
ATOM      1  C2  UNL d   1      -0.021  -0.054   0.374  0.00  0.00    -0.077 A 
ATOM      2  C3  UNL d   1       0.508   0.454   1.569  0.00  0.00     0.002 A 
ATOM      3  C4  UNL d   1      -0.339   0.942   2.565  0.00  0.00     0.002 A 
ATOM      4  C5  UNL d   1      -1.719   0.923   2.379  0.00  0.00    -0.004 A 
ATOM      5  C6  UNL d   1      -2.255   0.423   1.194  0.00  0.00     0.002 A 
ATOM      6  C7  UNL d   1      -1.410  -0.064   0.196  0.00  0.00     0.002 A 
ENDROOT
BRANCH   1   7
ATOM      7  C1  UNL d   1       0.889  -0.626  -0.682  0.00  0.00     0.055 C 
ATOM      8  C   UNL d   1       0.573  -0.050  -2.055  0.00  0.00     0.019 C 
ENDBRANCH   1   7
TORSDOF 1
ENDMDL
