MODEL 1
REMARK minimizedAffinity -3.73247313
REMARK minimizedRMSD -1
REMARK  1 active torsions:
REMARK  status: ('A' for Active; 'I' for Inactive)
REMARK    1  A    between atoms: C1_2  and  C2_3 
ROOT
ATOM      1  C2  UNL d   1       0.268   0.181   0.112  0.00  0.00    -0.077 A 
ATOM      2  C3  UNL d   1       1.405   0.357   0.912  0.00  0.00     0.002 A 
ATOM      3  C4  UNL d   1       1.287   0.874   2.203  0.00  0.00     0.002 A 
ATOM      4  C5  UNL d   1       0.033   1.215   2.707  0.00  0.00    -0.004 A 
ATOM      5  C6  UNL d   1      -1.104   1.045   1.918  0.00  0.00     0.002 A 
ATOM      6  C7  UNL d   1      -0.987   0.530   0.627  0.00  0.00     0.002 A 
ENDROOT
BRANCH   1   7
ATOM      7  C1  UNL d   1       0.388  -0.423  -1.263  0.00  0.00     0.055 C 
ATOM      8  C   UNL d   1       1.277   0.423  -2.163  0.00  0.00     0.019 C 
ENDBRANCH   1   7
TORSDOF 1
ENDMDL
