MODEL 1
REMARK minimizedAffinity -4.11780691
REMARK minimizedRMSD -1
REMARK  1 active torsions:
REMARK  status: ('A' for Active; 'I' for Inactive)
REMARK    1  A    between atoms: C1_2  and  C2_3 
ROOT
ATOM      1  C2  UNL d   1      -0.294  -0.037   0.820  0.00  0.00    -0.077 A 
ATOM      2  C3  UNL d   1       0.931   0.045   1.497  0.00  0.00     0.002 A 
ATOM      3  C4  UNL d   1       0.969   0.385   2.850  0.00  0.00     0.002 A 
ATOM      4  C5  UNL d   1      -0.215   0.641   3.539  0.00  0.00    -0.004 A 
ATOM      5  C6  UNL d   1      -1.438   0.565   2.875  0.00  0.00     0.002 A 
ATOM      6  C7  UNL d   1      -1.477   0.226   1.521  0.00  0.00     0.002 A 
ENDROOT
BRANCH   1   7
ATOM      7  C1  UNL d   1      -0.340  -0.451  -0.628  0.00  0.00     0.055 C 
ATOM      8  C   UNL d   1       1.057  -0.696  -1.178  0.00  0.00     0.019 C 
ENDBRANCH   1   7
TORSDOF 1
ENDMDL
