MODEL 1
REMARK minimizedAffinity -3.82119656
REMARK minimizedRMSD -1
REMARK  1 active torsions:
REMARK  status: ('A' for Active; 'I' for Inactive)
REMARK    1  A    between atoms: C1_2  and  C2_3 
ROOT
ATOM      1  C2  UNL d   1      -0.123   0.350   0.800  0.00  0.00    -0.077 A 
ATOM      2  C3  UNL d   1      -1.480   0.228   1.127  0.00  0.00     0.002 A 
ATOM      3  C4  UNL d   1      -2.034   1.006   2.146  0.00  0.00     0.002 A 
ATOM      4  C5  UNL d   1      -1.239   1.914   2.842  0.00  0.00    -0.004 A 
ATOM      5  C6  UNL d   1       0.113   2.041   2.526  0.00  0.00     0.002 A 
ATOM      6  C7  UNL d   1       0.669   1.263   1.509  0.00  0.00     0.002 A 
ENDROOT
BRANCH   1   7
ATOM      7  C1  UNL d   1       0.465  -0.452  -0.331  0.00  0.00     0.055 C 
ATOM      8  C   UNL d   1       0.505   0.355  -1.621  0.00  0.00     0.019 C 
ENDBRANCH   1   7
TORSDOF 1
ENDMDL
