MODEL 1
REMARK minimizedAffinity 17.9052849
REMARK minimizedRMSD -1
REMARK  2 active torsions:
REMARK  status: ('A' for Active; 'I' for Inactive)
REMARK    1  A    between atoms: C2'_3  and  C1'_4 
REMARK    2  A    between atoms: C1'_4  and  C1_5 
ROOT
ATOM      1  C1  I4B d   1       3.488  -2.030  -0.474  0.00  0.00    -0.075 A 
ATOM      2  C2  I4B d   1       3.093  -1.052  -1.351  0.00  0.00     0.003 A 
ATOM      3  C3  I4B d   1       1.945  -1.239  -2.159  0.00  0.00     0.002 A 
ATOM      4  C4  I4B d   1       1.255  -2.432  -2.093  0.00  0.00    -0.004 A 
ATOM      5  C5  I4B d   1       1.643  -3.414  -1.186  0.00  0.00     0.002 A 
ATOM      6  C6  I4B d   1       2.759  -3.207  -0.362  0.00  0.00     0.003 A 
ENDROOT
BRANCH   1   7
ATOM      7  C1' I4B d   1       4.724  -1.813   0.340  0.00  0.00     0.060 C 
BRANCH   7   8
ATOM      8  C2' I4B d   1       4.298  -1.479   1.755  0.00  0.00    -0.013 C 
ATOM      9  C4' I4B d   1       5.434  -1.670   2.726  0.00  0.00     0.013 C 
ATOM     10  C3' I4B d   1       3.808  -0.062   1.769  0.00  0.00     0.013 C 
ENDBRANCH   7   8
ENDBRANCH   1   7
TORSDOF 2
ENDMDL
