MODEL 1
REMARK minimizedAffinity 1.15537167
REMARK minimizedRMSD -1
REMARK  2 active torsions:
REMARK  status: ('A' for Active; 'I' for Inactive)
REMARK    1  A    between atoms: C2'_3  and  C1'_4 
REMARK    2  A    between atoms: C1'_4  and  C1_5 
ROOT
ATOM      1  C1  I4B d   1       4.446   5.735   2.243  0.00  0.00    -0.075 A 
ATOM      2  C2  I4B d   1       5.702   5.984   1.749  0.00  0.00     0.003 A 
ATOM      3  C3  I4B d   1       6.000   5.715   0.391  0.00  0.00     0.002 A 
ATOM      4  C4  I4B d   1       5.034   5.154  -0.419  0.00  0.00    -0.004 A 
ATOM      5  C5  I4B d   1       3.754   4.924   0.078  0.00  0.00     0.002 A 
ATOM      6  C6  I4B d   1       3.454   5.227   1.414  0.00  0.00     0.003 A 
ENDROOT
BRANCH   1   7
ATOM      7  C1' I4B d   1       4.175   6.000   3.690  0.00  0.00     0.060 C 
BRANCH   7   8
ATOM      8  C2' I4B d   1       5.470   5.806   4.451  0.00  0.00    -0.013 C 
ATOM      9  C4' I4B d   1       5.262   5.970   5.933  0.00  0.00     0.013 C 
ATOM     10  C3' I4B d   1       5.998   4.441   4.126  0.00  0.00     0.013 C 
ENDBRANCH   7   8
ENDBRANCH   1   7
TORSDOF 2
ENDMDL
