MODEL 1
REMARK minimizedAffinity -0.719055355
REMARK minimizedRMSD -1
REMARK  2 active torsions:
REMARK  status: ('A' for Active; 'I' for Inactive)
REMARK    1  A    between atoms: C2'_3  and  C1'_4 
REMARK    2  A    between atoms: C1'_4  and  C1_5 
ROOT
ATOM      1  C1  I4B d   1       4.613   5.722   1.382  0.00  0.00    -0.075 A 
ATOM      2  C2  I4B d   1       3.611   6.000   2.278  0.00  0.00     0.003 A 
ATOM      3  C3  I4B d   1       3.796   5.738   3.657  0.00  0.00     0.002 A 
ATOM      4  C4  I4B d   1       4.970   5.155   4.087  0.00  0.00    -0.004 A 
ATOM      5  C5  I4B d   1       5.994   4.895   3.180  0.00  0.00     0.002 A 
ATOM      6  C6  I4B d   1       5.819   5.191   1.821  0.00  0.00     0.003 A 
ENDROOT
BRANCH   1   7
ATOM      7  C1' I4B d   1       4.372   5.980  -0.072  0.00  0.00     0.060 C 
BRANCH   7   8
ATOM      8  C2' I4B d   1       3.150   5.189  -0.490  0.00  0.00    -0.013 C 
ATOM      9  C4' I4B d   1       1.888   5.985  -0.286  0.00  0.00     0.013 C 
ATOM     10  C3' I4B d   1       3.319   4.802  -1.929  0.00  0.00     0.013 C 
ENDBRANCH   7   8
ENDBRANCH   1   7
TORSDOF 2
ENDMDL
