MODEL 1
REMARK minimizedAffinity 13.7456865
REMARK minimizedRMSD -1
REMARK  2 active torsions:
REMARK  status: ('A' for Active; 'I' for Inactive)
REMARK    1  A    between atoms: C2'_3  and  C1'_4 
REMARK    2  A    between atoms: C1'_4  and  C1_5 
ROOT
ATOM      1  C1  I4B d   1       0.976  -2.733  -1.117  0.00  0.00    -0.075 A 
ATOM      2  C2  I4B d   1      -0.234  -3.123  -0.601  0.00  0.00     0.003 A 
ATOM      3  C3  I4B d   1      -0.286  -3.964   0.538  0.00  0.00     0.002 A 
ATOM      4  C4  I4B d   1       0.889  -4.429   1.093  0.00  0.00    -0.004 A 
ATOM      5  C5  I4B d   1       2.115  -4.014   0.582  0.00  0.00     0.002 A 
ATOM      6  C6  I4B d   1       2.160  -3.151  -0.523  0.00  0.00     0.003 A 
ENDROOT
BRANCH   1   7
ATOM      7  C1' I4B d   1       0.994  -1.872  -2.340  0.00  0.00     0.060 C 
BRANCH   7   8
ATOM      8  C2' I4B d   1       1.143  -0.432  -1.894  0.00  0.00    -0.013 C 
ATOM      9  C4' I4B d   1       2.577   0.020  -1.977  0.00  0.00     0.013 C 
ATOM     10  C3' I4B d   1       0.258   0.415  -2.760  0.00  0.00     0.013 C 
ENDBRANCH   7   8
ENDBRANCH   1   7
TORSDOF 2
ENDMDL
