MODEL 1
REMARK minimizedAffinity 9.3998642
REMARK minimizedRMSD -1
REMARK  2 active torsions:
REMARK  status: ('A' for Active; 'I' for Inactive)
REMARK    1  A    between atoms: C2'_3  and  C1'_4 
REMARK    2  A    between atoms: C1'_4  and  C1_5 
ROOT
ATOM      1  C1  I4B d   1      -0.501  -3.158  -1.395  0.00  0.00    -0.075 A 
ATOM      2  C2  I4B d   1       0.434  -2.600  -2.231  0.00  0.00     0.003 A 
ATOM      3  C3  I4B d   1       1.815  -2.768  -1.970  0.00  0.00     0.002 A 
ATOM      4  C4  I4B d   1       2.215  -3.454  -0.841  0.00  0.00    -0.004 A 
ATOM      5  C5  I4B d   1       1.266  -4.038  -0.006  0.00  0.00     0.002 A 
ATOM      6  C6  I4B d   1      -0.100  -3.900  -0.291  0.00  0.00     0.003 A 
ENDROOT
BRANCH   1   7
ATOM      7  C1' I4B d   1      -1.951  -2.932  -1.682  0.00  0.00     0.060 C 
BRANCH   7   8
ATOM      8  C2' I4B d   1      -2.512  -2.047  -0.588  0.00  0.00    -0.013 C 
ATOM      9  C4' I4B d   1      -1.980  -0.642  -0.697  0.00  0.00     0.013 C 
ATOM     10  C3' I4B d   1      -4.008  -2.069  -0.696  0.00  0.00     0.013 C 
ENDBRANCH   7   8
ENDBRANCH   1   7
TORSDOF 2
ENDMDL
