MODEL 1
REMARK minimizedAffinity 9.1024847
REMARK minimizedRMSD -1
REMARK  2 active torsions:
REMARK  status: ('A' for Active; 'I' for Inactive)
REMARK    1  A    between atoms: C2'_3  and  C1'_4 
REMARK    2  A    between atoms: C1'_4  and  C1_5 
ROOT
ATOM      1  C1  I4B d   1      -2.705   3.431   3.570  0.00  0.00    -0.075 A 
ATOM      2  C2  I4B d   1      -1.789   2.541   4.071  0.00  0.00     0.003 A 
ATOM      3  C3  I4B d   1      -1.851   1.173   3.708  0.00  0.00     0.002 A 
ATOM      4  C4  I4B d   1      -2.870   0.734   2.887  0.00  0.00    -0.004 A 
ATOM      5  C5  I4B d   1      -3.785   1.642   2.362  0.00  0.00     0.002 A 
ATOM      6  C6  I4B d   1      -3.695   3.001   2.695  0.00  0.00     0.003 A 
ENDROOT
BRANCH   1   7
ATOM      7  C1' I4B d   1      -2.630   4.862   4.000  0.00  0.00     0.060 C 
BRANCH   7   8
ATOM      8  C2' I4B d   1      -2.572   4.892   5.514  0.00  0.00    -0.013 C 
ATOM      9  C4' I4B d   1      -1.212   5.321   5.999  0.00  0.00     0.013 C 
ATOM     10  C3' I4B d   1      -3.640   5.826   6.000  0.00  0.00     0.013 C 
ENDBRANCH   7   8
ENDBRANCH   1   7
TORSDOF 2
ENDMDL
