MODEL 1
REMARK minimizedAffinity 7.28462648
REMARK minimizedRMSD -1
REMARK  2 active torsions:
REMARK  status: ('A' for Active; 'I' for Inactive)
REMARK    1  A    between atoms: C2'_3  and  C1'_4 
REMARK    2  A    between atoms: C1'_4  and  C1_5 
ROOT
ATOM      1  C1  I4B d   1       0.462  -0.551  -1.886  0.00  0.00    -0.075 A 
ATOM      2  C2  I4B d   1       1.789  -0.517  -1.536  0.00  0.00     0.003 A 
ATOM      3  C3  I4B d   1       2.631   0.507  -2.032  0.00  0.00     0.002 A 
ATOM      4  C4  I4B d   1       2.120   1.441  -2.910  0.00  0.00    -0.004 A 
ATOM      5  C5  I4B d   1       0.769   1.419  -3.245  0.00  0.00     0.002 A 
ATOM      6  C6  I4B d   1      -0.068   0.424  -2.721  0.00  0.00     0.003 A 
ENDROOT
BRANCH   1   7
ATOM      7  C1' I4B d   1      -0.391  -1.666  -1.370  0.00  0.00     0.060 C 
BRANCH   7   8
ATOM      8  C2' I4B d   1      -1.761  -1.099  -1.056  0.00  0.00    -0.013 C 
ATOM      9  C4' I4B d   1      -2.834  -2.142  -1.227  0.00  0.00     0.013 C 
ATOM     10  C3' I4B d   1      -1.734  -0.575   0.348  0.00  0.00     0.013 C 
ENDBRANCH   7   8
ENDBRANCH   1   7
TORSDOF 2
ENDMDL
