MODEL 1
REMARK minimizedAffinity 13.2902689
REMARK minimizedRMSD -1
REMARK  2 active torsions:
REMARK  status: ('A' for Active; 'I' for Inactive)
REMARK    1  A    between atoms: C2'_3  and  C1'_4 
REMARK    2  A    between atoms: C1'_4  and  C1_5 
ROOT
ATOM      1  C1  I4B d   1       3.309  -5.246   4.068  0.00  0.00    -0.075 A 
ATOM      2  C2  I4B d   1       3.892  -5.992   3.074  0.00  0.00     0.003 A 
ATOM      3  C3  I4B d   1       3.366  -5.963   1.759  0.00  0.00     0.002 A 
ATOM      4  C4  I4B d   1       2.233  -5.220   1.497  0.00  0.00    -0.004 A 
ATOM      5  C5  I4B d   1       1.657  -4.447   2.501  0.00  0.00     0.002 A 
ATOM      6  C6  I4B d   1       2.205  -4.450   3.792  0.00  0.00     0.003 A 
ENDROOT
BRANCH   1   7
ATOM      7  C1' I4B d   1       3.871  -5.326   5.452  0.00  0.00     0.060 C 
BRANCH   7   8
ATOM      8  C2' I4B d   1       5.373  -5.151   5.356  0.00  0.00    -0.013 C 
ATOM      9  C4' I4B d   1       5.951  -5.998   4.253  0.00  0.00     0.013 C 
ATOM     10  C3' I4B d   1       5.657  -3.697   5.128  0.00  0.00     0.013 C 
ENDBRANCH   7   8
ENDBRANCH   1   7
TORSDOF 2
ENDMDL
