MODEL 1
REMARK minimizedAffinity 10.9714975
REMARK minimizedRMSD -1
REMARK  2 active torsions:
REMARK  status: ('A' for Active; 'I' for Inactive)
REMARK    1  A    between atoms: C2'_3  and  C1'_4 
REMARK    2  A    between atoms: C1'_4  and  C1_5 
ROOT
ATOM      1  C1  I4B d   1       1.362  -4.167   0.381  0.00  0.00    -0.075 A 
ATOM      2  C2  I4B d   1       0.034  -4.119   0.726  0.00  0.00     0.003 A 
ATOM      3  C3  I4B d   1      -0.484  -5.015   1.693  0.00  0.00     0.002 A 
ATOM      4  C4  I4B d   1       0.345  -5.968   2.248  0.00  0.00    -0.004 A 
ATOM      5  C5  I4B d   1       1.696  -6.000   1.914  0.00  0.00     0.002 A 
ATOM      6  C6  I4B d   1       2.211  -5.086   0.984  0.00  0.00     0.003 A 
ENDROOT
BRANCH   1   7
ATOM      7  C1' I4B d   1       1.868  -3.228  -0.668  0.00  0.00     0.060 C 
BRANCH   7   8
ATOM      8  C2' I4B d   1       0.819  -2.155  -0.880  0.00  0.00    -0.013 C 
ATOM      9  C4' I4B d   1       1.406  -0.943  -1.553  0.00  0.00     0.013 C 
ATOM     10  C3' I4B d   1      -0.289  -2.747  -1.700  0.00  0.00     0.013 C 
ENDBRANCH   7   8
ENDBRANCH   1   7
TORSDOF 2
ENDMDL
