MODEL 1
REMARK minimizedAffinity -3.91387391
REMARK minimizedRMSD -1
REMARK  2 active torsions:
REMARK  status: ('A' for Active; 'I' for Inactive)
REMARK    1  A    between atoms: C2'_3  and  C1'_4 
REMARK    2  A    between atoms: C1'_4  and  C1_5 
ROOT
ATOM      1  C1  I4B d   1       5.335  -3.357   5.335  0.00  0.00    -0.075 A 
ATOM      2  C2  I4B d   1       5.996  -4.402   5.932  0.00  0.00     0.003 A 
ATOM      3  C3  I4B d   1       5.573  -5.734   5.708  0.00  0.00     0.002 A 
ATOM      4  C4  I4B d   1       4.461  -5.972   4.926  0.00  0.00    -0.004 A 
ATOM      5  C5  I4B d   1       3.806  -4.914   4.303  0.00  0.00     0.002 A 
ATOM      6  C6  I4B d   1       4.253  -3.599   4.498  0.00  0.00     0.003 A 
ENDROOT
BRANCH   1   7
ATOM      7  C1' I4B d   1       5.789  -1.961   5.619  0.00  0.00     0.060 C 
BRANCH   7   8
ATOM      8  C2' I4B d   1       5.980  -1.253   4.293  0.00  0.00    -0.013 C 
ATOM      9  C4' I4B d   1       5.996  -2.233   3.150  0.00  0.00     0.013 C 
ATOM     10  C3' I4B d   1       4.871  -0.255   4.136  0.00  0.00     0.013 C 
ENDBRANCH   7   8
ENDBRANCH   1   7
TORSDOF 2
ENDMDL
