MODEL 1
REMARK minimizedAffinity 20.4738064
REMARK minimizedRMSD -1
REMARK  2 active torsions:
REMARK  status: ('A' for Active; 'I' for Inactive)
REMARK    1  A    between atoms: C2'_3  and  C1'_4 
REMARK    2  A    between atoms: C1'_4  and  C1_5 
ROOT
ATOM      1  C1  I4B d   1       1.764  -3.966   0.205  0.00  0.00    -0.075 A 
ATOM      2  C2  I4B d   1       0.500  -3.483  -0.019  0.00  0.00     0.003 A 
ATOM      3  C3  I4B d   1      -0.603  -4.015   0.692  0.00  0.00     0.002 A 
ATOM      4  C4  I4B d   1      -0.404  -5.056   1.575  0.00  0.00    -0.004 A 
ATOM      5  C5  I4B d   1       0.882  -5.529   1.818  0.00  0.00     0.002 A 
ATOM      6  C6  I4B d   1       1.975  -4.973   1.138  0.00  0.00     0.003 A 
ENDROOT
BRANCH   1   7
ATOM      7  C1' I4B d   1       2.902  -3.404  -0.588  0.00  0.00     0.060 C 
BRANCH   7   8
ATOM      8  C2' I4B d   1       2.391  -2.194  -1.343  0.00  0.00    -0.013 C 
ATOM      9  C4' I4B d   1       3.514  -1.249  -1.682  0.00  0.00     0.013 C 
ATOM     10  C3' I4B d   1       1.699  -2.679  -2.581  0.00  0.00     0.013 C 
ENDBRANCH   7   8
ENDBRANCH   1   7
TORSDOF 2
ENDMDL
