MODEL 1
REMARK minimizedAffinity 1.75450718
REMARK minimizedRMSD -1
REMARK  2 active torsions:
REMARK  status: ('A' for Active; 'I' for Inactive)
REMARK    1  A    between atoms: C2'_3  and  C1'_4 
REMARK    2  A    between atoms: C1'_4  and  C1_5 
ROOT
ATOM      1  C1  I4B d   1       1.450  -0.500  -2.117  0.00  0.00    -0.075 A 
ATOM      2  C2  I4B d   1       2.533   0.298  -1.846  0.00  0.00     0.003 A 
ATOM      3  C3  I4B d   1       3.647  -0.227  -1.146  0.00  0.00     0.002 A 
ATOM      4  C4  I4B d   1       3.614  -1.531  -0.695  0.00  0.00    -0.004 A 
ATOM      5  C5  I4B d   1       2.524  -2.344  -0.991  0.00  0.00     0.002 A 
ATOM      6  C6  I4B d   1       1.440  -1.830  -1.717  0.00  0.00     0.003 A 
ENDROOT
BRANCH   1   7
ATOM      7  C1' I4B d   1       0.277   0.096  -2.829  0.00  0.00     0.060 C 
BRANCH   7   8
ATOM      8  C2' I4B d   1      -0.312   1.171  -1.939  0.00  0.00    -0.013 C 
ATOM      9  C4' I4B d   1      -0.781   2.352  -2.748  0.00  0.00     0.013 C 
ATOM     10  C3' I4B d   1      -1.443   0.563  -1.164  0.00  0.00     0.013 C 
ENDBRANCH   7   8
ENDBRANCH   1   7
TORSDOF 2
ENDMDL
