MODEL 1
REMARK minimizedAffinity 11.0541067
REMARK minimizedRMSD -1
REMARK  2 active torsions:
REMARK  status: ('A' for Active; 'I' for Inactive)
REMARK    1  A    between atoms: C2'_3  and  C1'_4 
REMARK    2  A    between atoms: C1'_4  and  C1_5 
ROOT
ATOM      1  C1  I4B d   1       0.630   0.066  -2.253  0.00  0.00    -0.075 A 
ATOM      2  C2  I4B d   1       0.677   1.216  -3.001  0.00  0.00     0.003 A 
ATOM      3  C3  I4B d   1      -0.270   2.247  -2.785  0.00  0.00     0.002 A 
ATOM      4  C4  I4B d   1      -1.271   2.066  -1.852  0.00  0.00    -0.004 A 
ATOM      5  C5  I4B d   1      -1.304   0.909  -1.079  0.00  0.00     0.002 A 
ATOM      6  C6  I4B d   1      -0.341  -0.092  -1.272  0.00  0.00     0.003 A 
ENDROOT
BRANCH   1   7
ATOM      7  C1' I4B d   1       1.625  -1.015  -2.530  0.00  0.00     0.060 C 
BRANCH   7   8
ATOM      8  C2' I4B d   1       1.000  -2.337  -2.133  0.00  0.00    -0.013 C 
ATOM      9  C4' I4B d   1       0.297  -2.980  -3.299  0.00  0.00     0.013 C 
ATOM     10  C3' I4B d   1       2.088  -3.222  -1.601  0.00  0.00     0.013 C 
ENDBRANCH   7   8
ENDBRANCH   1   7
TORSDOF 2
ENDMDL
