MODEL 1
REMARK minimizedAffinity 15.7993832
REMARK minimizedRMSD -1
REMARK  1 active torsions:
REMARK  status: ('A' for Active; 'I' for Inactive)
REMARK    1  A    between atoms: C1_2  and  C2_3 
ROOT
ATOM      1  C2  UNL d   1       4.574   4.523   2.703  0.00  0.00    -0.077 A 
ATOM      2  C3  UNL d   1       4.120   4.203   1.415  0.00  0.00     0.002 A 
ATOM      3  C4  UNL d   1       3.754   2.893   1.100  0.00  0.00     0.002 A 
ATOM      4  C5  UNL d   1       3.835   1.894   2.067  0.00  0.00    -0.004 A 
ATOM      5  C6  UNL d   1       4.287   2.201   3.350  0.00  0.00     0.002 A 
ATOM      6  C7  UNL d   1       4.654   3.509   3.667  0.00  0.00     0.002 A 
ENDROOT
BRANCH   1   7
ATOM      7  C1  UNL d   1       4.922   5.944   3.059  0.00  0.00     0.055 C 
ATOM      8  C   UNL d   1       5.999   5.998   4.133  0.00  0.00     0.019 C 
ENDBRANCH   1   7
TORSDOF 1
ENDMDL
