MODEL 1
REMARK minimizedAffinity 4.86259651
REMARK minimizedRMSD -1
REMARK  1 active torsions:
REMARK  status: ('A' for Active; 'I' for Inactive)
REMARK    1  A    between atoms: C1_2  and  C2_3 
ROOT
ATOM      1  C2  UNL d   1      -1.709  -0.658   2.928  0.00  0.00    -0.077 A 
ATOM      2  C3  UNL d   1      -0.833   0.342   2.484  0.00  0.00     0.002 A 
ATOM      3  C4  UNL d   1       0.537   0.242   2.734  0.00  0.00     0.002 A 
ATOM      4  C5  UNL d   1       1.043  -0.857   3.424  0.00  0.00    -0.004 A 
ATOM      5  C6  UNL d   1       0.180  -1.856   3.871  0.00  0.00     0.002 A 
ATOM      6  C7  UNL d   1      -1.190  -1.758   3.623  0.00  0.00     0.002 A 
ENDROOT
BRANCH   1   7
ATOM      7  C1  UNL d   1      -3.181  -0.577   2.616  0.00  0.00     0.055 C 
ATOM      8  C   UNL d   1      -3.928  -1.789   3.155  0.00  0.00     0.019 C 
ENDBRANCH   1   7
TORSDOF 1
ENDMDL
