MODEL 1
REMARK minimizedAffinity 11.0170994
REMARK minimizedRMSD -1
REMARK  1 active torsions:
REMARK  status: ('A' for Active; 'I' for Inactive)
REMARK    1  A    between atoms: C1_2  and  C2_3 
ROOT
ATOM      1  C2  UNL d   1       4.173   2.491   3.104  0.00  0.00    -0.077 A 
ATOM      2  C3  UNL d   1       4.333   3.682   3.827  0.00  0.00     0.002 A 
ATOM      3  C4  UNL d   1       4.404   4.908   3.162  0.00  0.00     0.002 A 
ATOM      4  C5  UNL d   1       4.311   4.955   1.773  0.00  0.00    -0.004 A 
ATOM      5  C6  UNL d   1       4.154   3.776   1.045  0.00  0.00     0.002 A 
ATOM      6  C7  UNL d   1       4.084   2.550   1.708  0.00  0.00     0.002 A 
ENDROOT
BRANCH   1   7
ATOM      7  C1  UNL d   1       4.047   1.173   3.823  0.00  0.00     0.055 C 
ATOM      8  C   UNL d   1       2.727   0.489   3.496  0.00  0.00     0.019 C 
ENDBRANCH   1   7
TORSDOF 1
ENDMDL
