MODEL 1
REMARK minimizedAffinity 6.61026525
REMARK minimizedRMSD -1
REMARK  1 active torsions:
REMARK  status: ('A' for Active; 'I' for Inactive)
REMARK    1  A    between atoms: C1_2  and  C2_3 
ROOT
ATOM      1  C2  UNL d   1       4.817   3.349   4.952  0.00  0.00    -0.077 A 
ATOM      2  C3  UNL d   1       3.794   3.755   5.820  0.00  0.00     0.002 A 
ATOM      3  C4  UNL d   1       3.342   5.076   5.809  0.00  0.00     0.002 A 
ATOM      4  C5  UNL d   1       3.904   5.999   4.930  0.00  0.00    -0.004 A 
ATOM      5  C6  UNL d   1       4.923   5.605   4.064  0.00  0.00     0.002 A 
ATOM      6  C7  UNL d   1       5.377   4.286   4.075  0.00  0.00     0.002 A 
ENDROOT
BRANCH   1   7
ATOM      7  C1  UNL d   1       5.272   1.913   4.928  0.00  0.00     0.055 C 
ATOM      8  C   UNL d   1       5.682   1.485   3.526  0.00  0.00     0.019 C 
ENDBRANCH   1   7
TORSDOF 1
ENDMDL
