MODEL 1
REMARK minimizedAffinity 3.84454393
REMARK minimizedRMSD -1
REMARK  1 active torsions:
REMARK  status: ('A' for Active; 'I' for Inactive)
REMARK    1  A    between atoms: C1_2  and  C2_3 
ROOT
ATOM      1  C2  UNL d   1       0.437   0.534   3.506  0.00  0.00    -0.077 A 
ATOM      2  C3  UNL d   1      -0.034  -0.322   2.500  0.00  0.00     0.002 A 
ATOM      3  C4  UNL d   1       0.298  -1.678   2.515  0.00  0.00     0.002 A 
ATOM      4  C5  UNL d   1       1.098  -2.191   3.534  0.00  0.00    -0.004 A 
ATOM      5  C6  UNL d   1       1.573  -1.348   4.537  0.00  0.00     0.002 A 
ATOM      6  C7  UNL d   1       1.243   0.008   4.524  0.00  0.00     0.002 A 
ENDROOT
BRANCH   1   7
ATOM      7  C1  UNL d   1       0.040   1.987   3.520  0.00  0.00     0.055 C 
ATOM      8  C   UNL d   1      -0.243   2.470   4.935  0.00  0.00     0.019 C 
ENDBRANCH   1   7
TORSDOF 1
ENDMDL
