MODEL 1
REMARK minimizedAffinity -1.62421715
REMARK minimizedRMSD -1
REMARK  1 active torsions:
REMARK  status: ('A' for Active; 'I' for Inactive)
REMARK    1  A    between atoms: N_2  and  C1_3 
ROOT
ATOM      1  C1  UNL d   1       0.608  -0.947   0.016  0.00  0.00     0.143 A 
ATOM      2  C2  UNL d   1      -0.697  -0.663  -0.400  0.00  0.00    -0.057 A 
ATOM      3  C3  UNL d   1      -1.723  -0.444   0.528  0.00  0.00     0.033 A 
ATOM      4  C4  UNL d   1      -1.466  -0.535   1.892  0.00  0.00    -0.042 A 
ATOM      5  C5  UNL d   1      -0.181  -0.840   2.327  0.00  0.00     0.033 A 
ATOM      6  C6  UNL d   1       0.840  -1.051   1.396  0.00  0.00    -0.057 A 
ENDROOT
BRANCH   1   7
ATOM      7  N   UNL d   1       1.649  -1.272  -0.858  0.00  0.00    -0.732 N 
ATOM      8  C   UNL d   1       2.397  -0.233  -1.532  0.00  0.00     0.284 C 
ATOM      9  H3  UNL d   1       2.222  -2.038  -0.512  0.00  0.00     0.395 HD
ENDBRANCH   1   7
TORSDOF 1
ENDMDL
