MODEL 1
REMARK minimizedAffinity -4.87666368
REMARK minimizedRMSD -1
REMARK  1 active torsions:
REMARK  status: ('A' for Active; 'I' for Inactive)
REMARK    1  A    between atoms: N_2  and  C1_3 
ROOT
ATOM      1  C1  UNL d   1      -0.898   1.305  -2.018  0.00  0.00     0.143 A 
ATOM      2  C2  UNL d   1      -2.279   1.395  -1.812  0.00  0.00    -0.057 A 
ATOM      3  C3  UNL d   1      -3.078   2.230  -2.602  0.00  0.00     0.033 A 
ATOM      4  C4  UNL d   1      -2.504   3.014  -3.598  0.00  0.00    -0.042 A 
ATOM      5  C5  UNL d   1      -1.130   2.959  -3.804  0.00  0.00     0.033 A 
ATOM      6  C6  UNL d   1      -0.338   2.118  -3.015  0.00  0.00    -0.057 A 
ENDROOT
BRANCH   1   7
ATOM      7  N   UNL d   1      -0.036   0.568  -1.201  0.00  0.00    -0.732 N 
ATOM      8  C   UNL d   1      -0.532  -0.090  -0.012  0.00  0.00     0.284 C 
ATOM      9  H3  UNL d   1       0.628   0.015  -1.737  0.00  0.00     0.395 HD
ENDBRANCH   1   7
TORSDOF 1
ENDMDL
