MODEL 1
REMARK minimizedAffinity 9.40328026
REMARK minimizedRMSD -1
REMARK  1 active torsions:
REMARK  status: ('A' for Active; 'I' for Inactive)
REMARK    1  A    between atoms: N_2  and  C1_3 
ROOT
ATOM      1  C1  UNL d   1      -4.642   1.378  -4.284  0.00  0.00     0.143 A 
ATOM      2  C2  UNL d   1      -3.540   1.727  -3.496  0.00  0.00    -0.057 A 
ATOM      3  C3  UNL d   1      -3.339   3.046  -3.072  0.00  0.00     0.033 A 
ATOM      4  C4  UNL d   1      -4.224   4.049  -3.455  0.00  0.00    -0.042 A 
ATOM      5  C5  UNL d   1      -5.312   3.730  -4.259  0.00  0.00     0.033 A 
ATOM      6  C6  UNL d   1      -5.511   2.409  -4.674  0.00  0.00    -0.057 A 
ENDROOT
BRANCH   1   7
ATOM      7  N   UNL d   1      -4.843   0.104  -4.819  0.00  0.00    -0.732 N 
ATOM      8  C   UNL d   1      -3.907  -0.452  -5.773  0.00  0.00     0.284 C 
ATOM      9  H3  UNL d   1      -5.172  -0.562  -4.124  0.00  0.00     0.395 HD
ENDBRANCH   1   7
TORSDOF 1
ENDMDL
