MODEL 1
REMARK minimizedAffinity 4.70273209
REMARK minimizedRMSD -1
REMARK  1 active torsions:
REMARK  status: ('A' for Active; 'I' for Inactive)
REMARK    1  A    between atoms: N_2  and  C1_3 
ROOT
ATOM      1  C1  UNL d   1      -0.864   3.151  -3.167  0.00  0.00     0.143 A 
ATOM      2  C2  UNL d   1       0.085   2.654  -2.266  0.00  0.00    -0.057 A 
ATOM      3  C3  UNL d   1       1.445   2.607  -2.596  0.00  0.00     0.033 A 
ATOM      4  C4  UNL d   1       1.878   3.030  -3.849  0.00  0.00    -0.042 A 
ATOM      5  C5  UNL d   1       0.950   3.505  -4.769  0.00  0.00     0.033 A 
ATOM      6  C6  UNL d   1      -0.406   3.556  -4.431  0.00  0.00    -0.057 A 
ENDROOT
BRANCH   1   7
ATOM      7  N   UNL d   1      -2.241   3.132  -2.935  0.00  0.00    -0.732 N 
ATOM      8  C   UNL d   1      -3.129   3.981  -3.700  0.00  0.00     0.284 C 
ATOM      9  H3  UNL d   1      -2.596   2.191  -2.780  0.00  0.00     0.395 HD
ENDBRANCH   1   7
TORSDOF 1
ENDMDL
