MODEL 1
REMARK minimizedAffinity -3.40942049
REMARK minimizedRMSD -1
REMARK  1 active torsions:
REMARK  status: ('A' for Active; 'I' for Inactive)
REMARK    1  A    between atoms: N_2  and  C1_3 
ROOT
ATOM      1  C1  UNL d   1      -0.466   1.214  -0.935  0.00  0.00     0.143 A 
ATOM      2  C2  UNL d   1       0.272   2.372  -1.200  0.00  0.00    -0.057 A 
ATOM      3  C3  UNL d   1      -0.031   3.191  -2.295  0.00  0.00     0.033 A 
ATOM      4  C4  UNL d   1      -1.063   2.849  -3.163  0.00  0.00    -0.042 A 
ATOM      5  C5  UNL d   1      -1.794   1.689  -2.932  0.00  0.00     0.033 A 
ATOM      6  C6  UNL d   1      -1.491   0.879  -1.834  0.00  0.00    -0.057 A 
ENDROOT
BRANCH   1   7
ATOM      7  N   UNL d   1      -0.152   0.307   0.080  0.00  0.00    -0.732 N 
ATOM      8  C   UNL d   1      -0.673   0.487   1.418  0.00  0.00     0.284 C 
ATOM      9  H3  UNL d   1      -0.163  -0.658  -0.244  0.00  0.00     0.395 HD
ENDBRANCH   1   7
TORSDOF 1
ENDMDL
