MODEL 1
REMARK minimizedAffinity -2.67988515
REMARK minimizedRMSD -1
REMARK  1 active torsions:
REMARK  status: ('A' for Active; 'I' for Inactive)
REMARK    1  A    between atoms: N_2  and  C1_3 
ROOT
ATOM      1  C1  UNL d   1       0.186  -0.720   0.623  0.00  0.00     0.143 A 
ATOM      2  C2  UNL d   1      -0.011  -1.090   1.958  0.00  0.00    -0.057 A 
ATOM      3  C3  UNL d   1       0.860  -1.979   2.601  0.00  0.00     0.033 A 
ATOM      4  C4  UNL d   1       1.929  -2.537   1.909  0.00  0.00    -0.042 A 
ATOM      5  C5  UNL d   1       2.130  -2.202   0.574  0.00  0.00     0.033 A 
ATOM      6  C6  UNL d   1       1.261  -1.310  -0.060  0.00  0.00    -0.057 A 
ENDROOT
BRANCH   1   7
ATOM      7  N   UNL d   1      -0.700   0.081  -0.101  0.00  0.00    -0.732 N 
ATOM      8  C   UNL d   1      -0.500   0.311  -1.515  0.00  0.00     0.284 C 
ATOM      9  H3  UNL d   1      -1.671  -0.078   0.161  0.00  0.00     0.395 HD
ENDBRANCH   1   7
TORSDOF 1
ENDMDL
