MODEL 1
REMARK minimizedAffinity -2.422472
REMARK minimizedRMSD -1
REMARK  1 active torsions:
REMARK  status: ('A' for Active; 'I' for Inactive)
REMARK    1  A    between atoms: N_2  and  C1_3 
ROOT
ATOM      1  C1  UNL d   1      -0.024  -0.214   0.041  0.00  0.00     0.143 A 
ATOM      2  C2  UNL d   1       1.035  -1.002  -0.421  0.00  0.00    -0.057 A 
ATOM      3  C3  UNL d   1       1.659  -1.940   0.412  0.00  0.00     0.033 A 
ATOM      4  C4  UNL d   1       1.251  -2.086   1.733  0.00  0.00    -0.042 A 
ATOM      5  C5  UNL d   1       0.216  -1.295   2.221  0.00  0.00     0.033 A 
ATOM      6  C6  UNL d   1      -0.407  -0.365   1.383  0.00  0.00    -0.057 A 
ENDROOT
BRANCH   1   7
ATOM      7  N   UNL d   1      -0.619   0.805  -0.708  0.00  0.00    -0.732 N 
ATOM      8  C   UNL d   1      -1.142   0.538  -2.031  0.00  0.00     0.284 C 
ATOM      9  H3  UNL d   1      -1.210   1.409  -0.141  0.00  0.00     0.395 HD
ENDBRANCH   1   7
TORSDOF 1
ENDMDL
