MODEL 1
REMARK minimizedAffinity -0.513007879
REMARK minimizedRMSD -1
REMARK  1 active torsions:
REMARK  status: ('A' for Active; 'I' for Inactive)
REMARK    1  A    between atoms: N_2  and  C1_3 
ROOT
ATOM      1  C1  UNL d   1       0.080  -1.417   1.872  0.00  0.00     0.143 A 
ATOM      2  C2  UNL d   1       0.717  -1.110   0.665  0.00  0.00    -0.057 A 
ATOM      3  C3  UNL d   1       0.403   0.055  -0.045  0.00  0.00     0.033 A 
ATOM      4  C4  UNL d   1      -0.578   0.922   0.427  0.00  0.00    -0.042 A 
ATOM      5  C5  UNL d   1      -1.241   0.623   1.611  0.00  0.00     0.033 A 
ATOM      6  C6  UNL d   1      -0.919  -0.538   2.319  0.00  0.00    -0.057 A 
ENDROOT
BRANCH   1   7
ATOM      7  N   UNL d   1       0.278  -2.609   2.574  0.00  0.00    -0.732 N 
ATOM      8  C   UNL d   1      -0.765  -3.610   2.635  0.00  0.00     0.284 C 
ATOM      9  H3  UNL d   1       1.212  -2.989   2.439  0.00  0.00     0.395 HD
ENDBRANCH   1   7
TORSDOF 1
ENDMDL
