MODEL 1
REMARK minimizedAffinity -2.10821915
REMARK minimizedRMSD -1
REMARK  1 active torsions:
REMARK  status: ('A' for Active; 'I' for Inactive)
REMARK    1  A    between atoms: N_2  and  C1_3 
ROOT
ATOM      1  C1  UNL d   1       0.252  -0.414   0.232  0.00  0.00     0.143 A 
ATOM      2  C2  UNL d   1      -0.567  -0.192   1.343  0.00  0.00    -0.057 A 
ATOM      3  C3  UNL d   1      -0.383  -0.903   2.535  0.00  0.00     0.033 A 
ATOM      4  C4  UNL d   1       0.611  -1.872   2.627  0.00  0.00    -0.042 A 
ATOM      5  C5  UNL d   1       1.421  -2.128   1.527  0.00  0.00     0.033 A 
ATOM      6  C6  UNL d   1       1.236  -1.410   0.341  0.00  0.00    -0.057 A 
ENDROOT
BRANCH   1   7
ATOM      7  N   UNL d   1       0.056   0.190  -1.013  0.00  0.00    -0.732 N 
ATOM      8  C   UNL d   1      -0.741   1.392  -1.131  0.00  0.00     0.284 C 
ATOM      9  H3  UNL d   1       0.900   0.193  -1.581  0.00  0.00     0.395 HD
ENDBRANCH   1   7
TORSDOF 1
ENDMDL
