MODEL 1
REMARK minimizedAffinity -6.03924274
REMARK minimizedRMSD -1
REMARK  0 active torsions:
REMARK  status: ('A' for Active; 'I' for Inactive)
ROOT
ATOM      1  C1  DEN d   1      -0.851  -2.000  -0.302  0.00  0.00     0.130 A 
ATOM      2  C2  DEN d   1       0.000  -3.029   0.289  0.00  0.00    -0.031 A 
ATOM      3  C3  DEN d   1       0.919  -2.372   1.240  0.00  0.00     0.027 A 
ATOM      4  C4  DEN d   1       1.100   0.126   1.857  0.00  0.00     0.027 A 
ATOM      5  C5  DEN d   1       0.596   1.383   1.608  0.00  0.00    -0.003 A 
ATOM      6  C6  DEN d   1      -0.395   1.604   0.688  0.00  0.00     0.001 A 
ATOM      7  C7  DEN d   1      -0.944   0.544   0.015  0.00  0.00     0.017 A 
ATOM      8  C8  DEN d   1      -0.436  -0.725   0.255  0.00  0.00    -0.094 A 
ATOM      9  C9  DEN d   1       0.557  -0.929   1.198  0.00  0.00    -0.072 A 
ENDROOT
TORSDOF 0
ENDMDL
