MODEL 1
REMARK minimizedAffinity -2.9547286
REMARK minimizedRMSD -1
REMARK  0 active torsions:
REMARK  status: ('A' for Active; 'I' for Inactive)
ROOT
ATOM      1  C1  DEN d   1       1.911   2.284   1.562  0.00  0.00     0.130 A 
ATOM      2  C2  DEN d   1       2.081   3.522   0.806  0.00  0.00    -0.031 A 
ATOM      3  C3  DEN d   1       1.304   3.403  -0.444  0.00  0.00     0.027 A 
ATOM      4  C4  DEN d   1      -0.141   1.435  -1.276  0.00  0.00     0.027 A 
ATOM      5  C5  DEN d   1      -0.581   0.163  -0.984  0.00  0.00    -0.003 A 
ATOM      6  C6  DEN d   1      -0.197  -0.499   0.152  0.00  0.00     0.001 A 
ATOM      7  C7  DEN d   1       0.616   0.126   1.060  0.00  0.00     0.017 A 
ATOM      8  C8  DEN d   1       1.069   1.406   0.769  0.00  0.00    -0.094 A 
ATOM      9  C9  DEN d   1       0.660   2.063  -0.379  0.00  0.00    -0.072 A 
ENDROOT
TORSDOF 0
ENDMDL
