MODEL 1
REMARK minimizedAffinity -0.252963394
REMARK minimizedRMSD -1
REMARK  0 active torsions:
REMARK  status: ('A' for Active; 'I' for Inactive)
ROOT
ATOM      1  C1  DEN d   1       1.599   3.414  -0.382  0.00  0.00     0.130 A 
ATOM      2  C2  DEN d   1       3.004   3.673  -0.080  0.00  0.00    -0.031 A 
ATOM      3  C3  DEN d   1       3.084   4.216   1.291  0.00  0.00     0.027 A 
ATOM      4  C4  DEN d   1       1.178   4.675   2.968  0.00  0.00     0.027 A 
ATOM      5  C5  DEN d   1      -0.185   4.625   3.159  0.00  0.00    -0.003 A 
ATOM      6  C6  DEN d   1      -1.045   4.204   2.179  0.00  0.00     0.001 A 
ATOM      7  C7  DEN d   1      -0.546   3.773   0.978  0.00  0.00     0.017 A 
ATOM      8  C8  DEN d   1       0.826   3.827   0.776  0.00  0.00    -0.094 A 
ATOM      9  C9  DEN d   1       1.680   4.244   1.783  0.00  0.00    -0.072 A 
ENDROOT
TORSDOF 0
ENDMDL
