MODEL 1
REMARK minimizedAffinity -4.6479249
REMARK minimizedRMSD -1
REMARK  0 active torsions:
REMARK  status: ('A' for Active; 'I' for Inactive)
ROOT
ATOM      1  C1  DEN d   1      -1.066  -0.555  -0.010  0.00  0.00     0.130 A 
ATOM      2  C2  DEN d   1       0.015  -1.126  -0.808  0.00  0.00    -0.031 A 
ATOM      3  C3  DEN d   1       0.712  -0.018  -1.492  0.00  0.00     0.027 A 
ATOM      4  C4  DEN d   1       0.227   2.513  -1.390  0.00  0.00     0.027 A 
ATOM      5  C5  DEN d   1      -0.598   3.477  -0.855  0.00  0.00    -0.003 A 
ATOM      6  C6  DEN d   1      -1.650   3.165  -0.035  0.00  0.00     0.001 A 
ATOM      7  C7  DEN d   1      -1.877   1.858   0.311  0.00  0.00     0.017 A 
ATOM      8  C8  DEN d   1      -1.053   0.880  -0.230  0.00  0.00    -0.094 A 
ATOM      9  C9  DEN d   1       0.012   1.217  -1.048  0.00  0.00    -0.072 A 
ENDROOT
TORSDOF 0
ENDMDL
