MODEL 1
REMARK minimizedAffinity -4.35207987
REMARK minimizedRMSD -1
REMARK  0 active torsions:
REMARK  status: ('A' for Active; 'I' for Inactive)
ROOT
ATOM      1  C1  DEN d   1      -1.618   0.303   0.583  0.00  0.00     0.130 A 
ATOM      2  C2  DEN d   1      -0.727  -0.716   0.035  0.00  0.00    -0.031 A 
ATOM      3  C3  DEN d   1       0.487  -0.041  -0.465  0.00  0.00     0.027 A 
ATOM      4  C4  DEN d   1       1.074   2.471  -0.439  0.00  0.00     0.027 A 
ATOM      5  C5  DEN d   1       0.626   3.724  -0.087  0.00  0.00    -0.003 A 
ATOM      6  C6  DEN d   1      -0.606   3.928   0.478  0.00  0.00     0.001 A 
ATOM      7  C7  DEN d   1      -1.414   2.855   0.748  0.00  0.00     0.017 A 
ATOM      8  C8  DEN d   1      -0.972   1.589   0.389  0.00  0.00    -0.094 A 
ATOM      9  C9  DEN d   1       0.281   1.403  -0.169  0.00  0.00    -0.072 A 
ENDROOT
TORSDOF 0
ENDMDL
