MODEL 1
REMARK minimizedAffinity -4.69334984
REMARK minimizedRMSD -1
REMARK  0 active torsions:
REMARK  status: ('A' for Active; 'I' for Inactive)
ROOT
ATOM      1  C1  DEN d   1      -1.503   2.224  -0.336  0.00  0.00     0.130 A 
ATOM      2  C2  DEN d   1      -0.525   1.534  -1.172  0.00  0.00    -0.031 A 
ATOM      3  C3  DEN d   1       0.804   2.114  -0.893  0.00  0.00     0.027 A 
ATOM      4  C4  DEN d   1       1.439   4.000   0.747  0.00  0.00     0.027 A 
ATOM      5  C5  DEN d   1       0.948   4.900   1.668  0.00  0.00    -0.003 A 
ATOM      6  C6  DEN d   1      -0.387   4.993   1.957  0.00  0.00     0.001 A 
ATOM      7  C7  DEN d   1      -1.274   4.141   1.353  0.00  0.00     0.017 A 
ATOM      8  C8  DEN d   1      -0.788   3.236   0.419  0.00  0.00    -0.094 A 
ATOM      9  C9  DEN d   1       0.568   3.149   0.149  0.00  0.00    -0.072 A 
ENDROOT
TORSDOF 0
ENDMDL
