MODEL 1
REMARK minimizedAffinity 0.689079642
REMARK minimizedRMSD -1
REMARK  0 active torsions:
REMARK  status: ('A' for Active; 'I' for Inactive)
ROOT
ATOM      1  C1  DEN d   1      -1.287   1.636   1.098  0.00  0.00     0.130 A 
ATOM      2  C2  DEN d   1      -0.900   2.853   0.391  0.00  0.00    -0.031 A 
ATOM      3  C3  DEN d   1      -0.212   2.458  -0.855  0.00  0.00     0.027 A 
ATOM      4  C4  DEN d   1       0.283   0.092  -1.755  0.00  0.00     0.027 A 
ATOM      5  C5  DEN d   1       0.157  -1.255  -1.498  0.00  0.00    -0.003 A 
ATOM      6  C6  DEN d   1      -0.424  -1.729  -0.352  0.00  0.00     0.001 A 
ATOM      7  C7  DEN d   1      -0.942  -0.849   0.561  0.00  0.00     0.017 A 
ATOM      8  C8  DEN d   1      -0.812   0.511   0.313  0.00  0.00    -0.094 A 
ATOM      9  C9  DEN d   1      -0.232   0.971  -0.858  0.00  0.00    -0.072 A 
ENDROOT
TORSDOF 0
ENDMDL
