MODEL 1
REMARK minimizedAffinity -4.49994087
REMARK minimizedRMSD -1
REMARK  0 active torsions:
REMARK  status: ('A' for Active; 'I' for Inactive)
ROOT
ATOM      1  C1  DEN d   1       1.971   3.008  -0.173  0.00  0.00     0.130 A 
ATOM      2  C2  DEN d   1       3.168   3.576   0.441  0.00  0.00    -0.031 A 
ATOM      3  C3  DEN d   1       2.738   4.578   1.437  0.00  0.00     0.027 A 
ATOM      4  C4  DEN d   1       0.348   5.297   2.087  0.00  0.00     0.027 A 
ATOM      5  C5  DEN d   1      -0.992   5.104   1.831  0.00  0.00    -0.003 A 
ATOM      6  C6  DEN d   1      -1.433   4.231   0.872  0.00  0.00     0.001 A 
ATOM      7  C7  DEN d   1      -0.527   3.484   0.166  0.00  0.00     0.017 A 
ATOM      8  C8  DEN d   1       0.825   3.679   0.414  0.00  0.00    -0.094 A 
ATOM      9  C9  DEN d   1       1.251   4.557   1.396  0.00  0.00    -0.072 A 
ENDROOT
TORSDOF 0
ENDMDL
