MODEL 1
REMARK minimizedAffinity -2.74212909
REMARK minimizedRMSD -1
REMARK  0 active torsions:
REMARK  status: ('A' for Active; 'I' for Inactive)
ROOT
ATOM      1  C1  DEN d   1       2.297   0.696  -0.011  0.00  0.00     0.130 A 
ATOM      2  C2  DEN d   1       1.281   0.639  -1.058  0.00  0.00    -0.031 A 
ATOM      3  C3  DEN d   1       1.224   1.962  -1.712  0.00  0.00     0.027 A 
ATOM      4  C4  DEN d   1       2.607   4.081  -1.211  0.00  0.00     0.027 A 
ATOM      5  C5  DEN d   1       3.585   4.618  -0.403  0.00  0.00    -0.003 A 
ATOM      6  C6  DEN d   1       4.173   3.902   0.606  0.00  0.00     0.001 A 
ATOM      7  C7  DEN d   1       3.821   2.593   0.805  0.00  0.00     0.017 A 
ATOM      8  C8  DEN d   1       2.830   2.047  -0.001  0.00  0.00    -0.094 A 
ATOM      9  C9  DEN d   1       2.256   2.783  -1.024  0.00  0.00    -0.072 A 
ENDROOT
TORSDOF 0
ENDMDL
