MODEL 1
REMARK minimizedAffinity -2.29620862
REMARK minimizedRMSD -1
REMARK  0 active torsions:
REMARK  status: ('A' for Active; 'I' for Inactive)
ROOT
ATOM      1  C1  DEN d   1       0.223  -0.692  -1.995  0.00  0.00     0.130 A 
ATOM      2  C2  DEN d   1       0.097   0.692  -2.443  0.00  0.00    -0.031 A 
ATOM      3  C3  DEN d   1      -0.673   1.433  -1.424  0.00  0.00     0.027 A 
ATOM      4  C4  DEN d   1      -1.672   0.577   0.794  0.00  0.00     0.027 A 
ATOM      5  C5  DEN d   1      -1.835  -0.528   1.600  0.00  0.00    -0.003 A 
ATOM      6  C6  DEN d   1      -1.356  -1.763   1.251  0.00  0.00     0.001 A 
ATOM      7  C7  DEN d   1      -0.652  -1.913   0.085  0.00  0.00     0.017 A 
ATOM      8  C8  DEN d   1      -0.490  -0.805  -0.736  0.00  0.00    -0.094 A 
ATOM      9  C9  DEN d   1      -0.971   0.438  -0.359  0.00  0.00    -0.072 A 
ENDROOT
TORSDOF 0
ENDMDL
