MODEL 1
REMARK minimizedAffinity -3.71878886
REMARK minimizedRMSD -1
REMARK  0 active torsions:
REMARK  status: ('A' for Active; 'I' for Inactive)
ROOT
ATOM      1  C1  DEN d   1       0.254  -2.041   0.140  0.00  0.00     0.130 A 
ATOM      2  C2  DEN d   1      -0.884  -2.917   0.404  0.00  0.00    -0.031 A 
ATOM      3  C3  DEN d   1      -2.034  -2.070   0.781  0.00  0.00     0.027 A 
ATOM      4  C4  DEN d   1      -2.163   0.499   0.976  0.00  0.00     0.027 A 
ATOM      5  C5  DEN d   1      -1.447   1.670   0.861  0.00  0.00    -0.003 A 
ATOM      6  C6  DEN d   1      -0.117   1.685   0.534  0.00  0.00     0.001 A 
ATOM      7  C7  DEN d   1       0.528   0.507   0.266  0.00  0.00     0.017 A 
ATOM      8  C8  DEN d   1      -0.184  -0.679   0.386  0.00  0.00    -0.094 A 
ATOM      9  C9  DEN d   1      -1.531  -0.672   0.706  0.00  0.00    -0.072 A 
ENDROOT
TORSDOF 0
ENDMDL
