MODEL 1
REMARK minimizedAffinity -4.71592855
REMARK minimizedRMSD -1
REMARK  0 active torsions:
REMARK  status: ('A' for Active; 'I' for Inactive)
ROOT
ATOM      1  C1  DEN d   1      -1.972  -0.185   0.963  0.00  0.00     0.130 A 
ATOM      2  C2  DEN d   1      -1.508  -1.417   0.332  0.00  0.00    -0.031 A 
ATOM      3  C3  DEN d   1      -0.388  -1.075  -0.568  0.00  0.00     0.027 A 
ATOM      4  C4  DEN d   1       0.670   1.230  -1.038  0.00  0.00     0.027 A 
ATOM      5  C5  DEN d   1       0.606   2.575  -0.746  0.00  0.00    -0.003 A 
ATOM      6  C6  DEN d   1      -0.335   3.094   0.103  0.00  0.00     0.001 A 
ATOM      7  C7  DEN d   1      -1.223   2.257   0.725  0.00  0.00     0.017 A 
ATOM      8  C8  DEN d   1      -1.170   0.902   0.430  0.00  0.00    -0.094 A 
ATOM      9  C9  DEN d   1      -0.204   0.394  -0.422  0.00  0.00    -0.072 A 
ENDROOT
TORSDOF 0
ENDMDL
