MODEL 1
REMARK minimizedAffinity -3.12219119
REMARK minimizedRMSD -1
REMARK  0 active torsions:
REMARK  status: ('A' for Active; 'I' for Inactive)
ROOT
ATOM      1  C1  DEN d   1       0.478   1.653  -0.323  0.00  0.00     0.130 A 
ATOM      2  C2  DEN d   1      -0.899   1.182  -0.447  0.00  0.00    -0.031 A 
ATOM      3  C3  DEN d   1      -1.782   2.177   0.193  0.00  0.00     0.027 A 
ATOM      4  C4  DEN d   1      -1.155   4.394   1.353  0.00  0.00     0.027 A 
ATOM      5  C5  DEN d   1      -0.110   5.215   1.716  0.00  0.00    -0.003 A 
ATOM      6  C6  DEN d   1       1.196   4.892   1.457  0.00  0.00     0.001 A 
ATOM      7  C7  DEN d   1       1.488   3.740   0.776  0.00  0.00     0.017 A 
ATOM      8  C8  DEN d   1       0.440   2.904   0.414  0.00  0.00    -0.094 A 
ATOM      9  C9  DEN d   1      -0.874   3.253   0.674  0.00  0.00    -0.072 A 
ENDROOT
TORSDOF 0
ENDMDL
