MODEL 1
REMARK minimizedAffinity -4.20388651
REMARK minimizedRMSD -1
REMARK  0 active torsions:
REMARK  status: ('A' for Active; 'I' for Inactive)
ROOT
ATOM      1  C1  DEN d   1       1.622   2.798  -0.120  0.00  0.00     0.130 A 
ATOM      2  C2  DEN d   1       2.905   3.198   0.451  0.00  0.00    -0.031 A 
ATOM      3  C3  DEN d   1       2.637   4.113   1.579  0.00  0.00     0.027 A 
ATOM      4  C4  DEN d   1       0.372   4.940   2.494  0.00  0.00     0.027 A 
ATOM      5  C5  DEN d   1      -0.994   4.882   2.329  0.00  0.00    -0.003 A 
ATOM      6  C6  DEN d   1      -1.578   4.159   1.323  0.00  0.00     0.001 A 
ATOM      7  C7  DEN d   1      -0.794   3.427   0.470  0.00  0.00     0.017 A 
ATOM      8  C8  DEN d   1       0.584   3.486   0.626  0.00  0.00    -0.094 A 
ATOM      9  C9  DEN d   1       1.155   4.214   1.657  0.00  0.00    -0.072 A 
ENDROOT
TORSDOF 0
ENDMDL
