MODEL 1
REMARK minimizedAffinity -3.21481514
REMARK minimizedRMSD -1
REMARK  0 active torsions:
REMARK  status: ('A' for Active; 'I' for Inactive)
ROOT
ATOM      1  C1  DEN d   1      -0.017  -0.030   1.940  0.00  0.00     0.130 A 
ATOM      2  C2  DEN d   1      -0.797  -1.091   1.309  0.00  0.00    -0.031 A 
ATOM      3  C3  DEN d   1      -1.056  -0.697  -0.090  0.00  0.00     0.027 A 
ATOM      4  C4  DEN d   1      -0.323   1.440  -1.337  0.00  0.00     0.027 A 
ATOM      5  C5  DEN d   1       0.347   2.637  -1.214  0.00  0.00    -0.003 A 
ATOM      6  C6  DEN d   1       0.909   3.041  -0.032  0.00  0.00     0.001 A 
ATOM      7  C7  DEN d   1       0.850   2.221   1.063  0.00  0.00     0.017 A 
ATOM      8  C8  DEN d   1       0.170   1.015   0.949  0.00  0.00    -0.094 A 
ATOM      9  C9  DEN d   1      -0.381   0.619  -0.257  0.00  0.00    -0.072 A 
ENDROOT
TORSDOF 0
ENDMDL
