MODEL 1
REMARK minimizedAffinity 19.5464878
REMARK minimizedRMSD -1
REMARK  1 active torsions:
REMARK  status: ('A' for Active; 'I' for Inactive)
REMARK    1  A    between atoms: C1_2  and  C2_3 
ROOT
ATOM      1  C2  UNL d   1      -0.472   4.761  -0.141  0.00  0.00    -0.081 A 
ATOM      2  C3  UNL d   1      -1.478   5.055  -1.071  0.00  0.00     0.006 A 
ATOM      3  C4  UNL d   1      -1.148   5.466  -2.364  0.00  0.00     0.002 A 
ATOM      4  C5  UNL d   1       0.191   5.584  -2.752  0.00  0.00    -0.080 A 
ATOM      5  C6  UNL d   1       0.559   5.996  -4.147  0.00  0.00     0.076 C 
ATOM      6  C7  UNL d   1       1.196   5.308  -1.818  0.00  0.00     0.002 A 
ATOM      7  C8  UNL d   1       0.866   4.897  -0.525  0.00  0.00     0.006 A 
ENDROOT
BRANCH   1   8
ATOM      8  C1  UNL d   1      -0.824   4.255   1.234  0.00  0.00     0.054 C 
ATOM      9  C   UNL d   1      -0.056   2.985   1.570  0.00  0.00     0.018 C 
ENDBRANCH   1   8
TORSDOF 1
ENDMDL
