MODEL 1
REMARK minimizedAffinity 15.2699394
REMARK minimizedRMSD -1
REMARK  1 active torsions:
REMARK  status: ('A' for Active; 'I' for Inactive)
REMARK    1  A    between atoms: C1_2  and  C2_3 
ROOT
ATOM      1  C2  UNL d   1       2.878  -1.677   4.588  0.00  0.00    -0.081 A 
ATOM      2  C3  UNL d   1       3.048  -2.800   3.769  0.00  0.00     0.006 A 
ATOM      3  C4  UNL d   1       4.065  -3.721   4.033  0.00  0.00     0.002 A 
ATOM      4  C5  UNL d   1       4.923  -3.538   5.123  0.00  0.00    -0.080 A 
ATOM      5  C6  UNL d   1       6.000  -4.534   5.436  0.00  0.00     0.076 C 
ATOM      6  C7  UNL d   1       4.764  -2.406   5.931  0.00  0.00     0.002 A 
ATOM      7  C8  UNL d   1       3.747  -1.485   5.667  0.00  0.00     0.006 A 
ENDROOT
BRANCH   1   8
ATOM      8  C1  UNL d   1       1.742  -0.717   4.344  0.00  0.00     0.054 C 
ATOM      9  C   UNL d   1       0.816  -0.637   5.550  0.00  0.00     0.018 C 
ENDBRANCH   1   8
TORSDOF 1
ENDMDL
