MODEL 1
REMARK minimizedAffinity 5.83925343
REMARK minimizedRMSD -1
REMARK  1 active torsions:
REMARK  status: ('A' for Active; 'I' for Inactive)
REMARK    1  A    between atoms: C1_2  and  C2_3 
ROOT
ATOM      1  C2  UNL d   1       3.545  -1.662  -0.633  0.00  0.00    -0.081 A 
ATOM      2  C3  UNL d   1       4.601  -1.857  -1.532  0.00  0.00     0.006 A 
ATOM      3  C4  UNL d   1       5.405  -2.996  -1.443  0.00  0.00     0.002 A 
ATOM      4  C5  UNL d   1       5.163  -3.961  -0.460  0.00  0.00    -0.080 A 
ATOM      5  C6  UNL d   1       6.000  -5.203  -0.373  0.00  0.00     0.076 C 
ATOM      6  C7  UNL d   1       4.120  -3.757   0.449  0.00  0.00     0.002 A 
ATOM      7  C8  UNL d   1       3.315  -2.619   0.361  0.00  0.00     0.006 A 
ENDROOT
BRANCH   1   8
ATOM      8  C1  UNL d   1       2.636  -0.467  -0.767  0.00  0.00     0.054 C 
ATOM      9  C   UNL d   1       1.221  -0.887  -1.135  0.00  0.00     0.018 C 
ENDBRANCH   1   8
TORSDOF 1
ENDMDL
