MODEL 1
REMARK minimizedAffinity 10.2027779
REMARK minimizedRMSD -1
REMARK  1 active torsions:
REMARK  status: ('A' for Active; 'I' for Inactive)
REMARK    1  A    between atoms: C1_2  and  C2_3 
ROOT
ATOM      1  C2  UNL d   1       5.252  -3.076  -3.073  0.00  0.00    -0.081 A 
ATOM      2  C3  UNL d   1       4.460  -3.652  -2.072  0.00  0.00     0.006 A 
ATOM      3  C4  UNL d   1       4.410  -3.088  -0.795  0.00  0.00     0.002 A 
ATOM      4  C5  UNL d   1       5.144  -1.934  -0.500  0.00  0.00    -0.080 A 
ATOM      5  C6  UNL d   1       5.076  -1.300   0.857  0.00  0.00     0.076 C 
ATOM      6  C7  UNL d   1       5.949  -1.369  -1.495  0.00  0.00     0.002 A 
ATOM      7  C8  UNL d   1       6.000  -1.933  -2.771  0.00  0.00     0.006 A 
ENDROOT
BRANCH   1   8
ATOM      8  C1  UNL d   1       5.257  -3.645  -4.468  0.00  0.00     0.054 C 
ATOM      9  C   UNL d   1       4.476  -4.950  -4.537  0.00  0.00     0.018 C 
ENDBRANCH   1   8
TORSDOF 1
ENDMDL
