MODEL 1
REMARK minimizedAffinity 2.64385986
REMARK minimizedRMSD -1
REMARK  1 active torsions:
REMARK  status: ('A' for Active; 'I' for Inactive)
REMARK    1  A    between atoms: C1_2  and  C2_3 
ROOT
ATOM      1  C2  UNL d   1      -0.372   3.772   1.806  0.00  0.00    -0.081 A 
ATOM      2  C3  UNL d   1      -0.623   5.149   1.757  0.00  0.00     0.006 A 
ATOM      3  C4  UNL d   1      -0.370   5.874   0.590  0.00  0.00     0.002 A 
ATOM      4  C5  UNL d   1       0.131   5.233  -0.548  0.00  0.00    -0.080 A 
ATOM      5  C6  UNL d   1       0.379   5.994  -1.817  0.00  0.00     0.076 C 
ATOM      6  C7  UNL d   1       0.399   3.861  -0.494  0.00  0.00     0.002 A 
ATOM      7  C8  UNL d   1       0.146   3.136   0.673  0.00  0.00     0.006 A 
ENDROOT
BRANCH   1   8
ATOM      8  C1  UNL d   1      -0.705   2.976   3.042  0.00  0.00     0.054 C 
ATOM      9  C   UNL d   1       0.406   1.994   3.383  0.00  0.00     0.018 C 
ENDBRANCH   1   8
TORSDOF 1
ENDMDL
