MODEL 1
REMARK minimizedAffinity 7.73727226
REMARK minimizedRMSD -1
REMARK  1 active torsions:
REMARK  status: ('A' for Active; 'I' for Inactive)
REMARK    1  A    between atoms: C1_2  and  C2_3 
ROOT
ATOM      1  C2  UNL d   1       1.089   3.212   1.887  0.00  0.00    -0.081 A 
ATOM      2  C3  UNL d   1       0.070   2.872   0.989  0.00  0.00     0.006 A 
ATOM      3  C4  UNL d   1      -0.093   3.585  -0.201  0.00  0.00     0.002 A 
ATOM      4  C5  UNL d   1       0.765   4.643  -0.518  0.00  0.00    -0.080 A 
ATOM      5  C6  UNL d   1       0.621   5.397  -1.806  0.00  0.00     0.076 C 
ATOM      6  C7  UNL d   1       1.773   4.994   0.387  0.00  0.00     0.002 A 
ATOM      7  C8  UNL d   1       1.936   4.283   1.578  0.00  0.00     0.006 A 
ENDROOT
BRANCH   1   8
ATOM      8  C1  UNL d   1       1.308   2.405   3.140  0.00  0.00     0.054 C 
ATOM      9  C   UNL d   1      -0.010   1.902   3.711  0.00  0.00     0.018 C 
ENDBRANCH   1   8
TORSDOF 1
ENDMDL
