MODEL 1
REMARK minimizedAffinity -2.98516941
REMARK minimizedRMSD -1
REMARK  3 active torsions:
REMARK  status: ('A' for Active; 'I' for Inactive)
REMARK    1  A    between atoms: C3'_2  and  C2'_3 
REMARK    2  A    between atoms: C2'_3  and  C1'_4 
REMARK    3  A    between atoms: C1'_4  and  C1_5 
ROOT
ATOM      1  C1  N4B d   1       3.600   1.722  -5.235  0.00  0.00    -0.075 A 
ATOM      2  C2  N4B d   1       4.814   2.439  -5.147  0.00  0.00     0.002 A 
ATOM      3  C3  N4B d   1       5.997   1.830  -5.484  0.00  0.00     0.002 A 
ATOM      4  C4  N4B d   1       5.995   0.504  -5.892  0.00  0.00    -0.004 A 
ATOM      5  C5  N4B d   1       4.816  -0.174  -5.999  0.00  0.00     0.002 A 
ATOM      6  C6  N4B d   1       3.618   0.427  -5.667  0.00  0.00     0.002 A 
ENDROOT
BRANCH   1   7
ATOM      7  C1' N4B d   1       2.291   2.319  -4.795  0.00  0.00     0.057 C 
BRANCH   7   8
ATOM      8  C2' N4B d   1       1.417   1.222  -4.194  0.00  0.00     0.009 C 
BRANCH   8   9
ATOM      9  C3' N4B d   1       1.490   1.204  -2.677  0.00  0.00     0.004 C 
ATOM     10  C4' N4B d   1       0.149   1.385  -2.030  0.00  0.00     0.003 C 
ENDBRANCH   8   9
ENDBRANCH   7   8
ENDBRANCH   1   7
TORSDOF 3
ENDMDL
