MODEL 1
REMARK minimizedAffinity 4.82840776
REMARK minimizedRMSD -1
REMARK  3 active torsions:
REMARK  status: ('A' for Active; 'I' for Inactive)
REMARK    1  A    between atoms: C3'_2  and  C2'_3 
REMARK    2  A    between atoms: C2'_3  and  C1'_4 
REMARK    3  A    between atoms: C1'_4  and  C1_5 
ROOT
ATOM      1  C1  N4B d   1       2.348   2.117  -5.579  0.00  0.00    -0.075 A 
ATOM      2  C2  N4B d   1       1.125   1.956  -4.892  0.00  0.00     0.002 A 
ATOM      3  C3  N4B d   1       0.329   3.048  -4.644  0.00  0.00     0.002 A 
ATOM      4  C4  N4B d   1       0.742   4.306  -5.055  0.00  0.00    -0.004 A 
ATOM      5  C5  N4B d   1       1.913   4.449  -5.740  0.00  0.00     0.002 A 
ATOM      6  C6  N4B d   1       2.722   3.360  -6.000  0.00  0.00     0.002 A 
ENDROOT
BRANCH   1   7
ATOM      7  C1' N4B d   1       3.293   0.967  -5.798  0.00  0.00     0.057 C 
BRANCH   7   8
ATOM      8  C2' N4B d   1       4.729   1.467  -5.673  0.00  0.00     0.009 C 
BRANCH   8   9
ATOM      9  C3' N4B d   1       5.678   0.366  -5.233  0.00  0.00     0.004 C 
ATOM     10  C4' N4B d   1       5.992   0.421  -3.767  0.00  0.00     0.003 C 
ENDBRANCH   8   9
ENDBRANCH   7   8
ENDBRANCH   1   7
TORSDOF 3
ENDMDL
