MODEL 1
REMARK minimizedAffinity -3.90343118
REMARK minimizedRMSD -1
REMARK  3 active torsions:
REMARK  status: ('A' for Active; 'I' for Inactive)
REMARK    1  A    between atoms: C3'_2  and  C2'_3 
REMARK    2  A    between atoms: C2'_3  and  C1'_4 
REMARK    3  A    between atoms: C1'_4  and  C1_5 
ROOT
ATOM      1  C1  N4B d   1       2.656   1.445  -4.654  0.00  0.00    -0.075 A 
ATOM      2  C2  N4B d   1       1.396   2.081  -4.622  0.00  0.00     0.002 A 
ATOM      3  C3  N4B d   1       0.550   1.876  -3.559  0.00  0.00     0.002 A 
ATOM      4  C4  N4B d   1       0.934   1.028  -2.531  0.00  0.00    -0.004 A 
ATOM      5  C5  N4B d   1       2.164   0.438  -2.557  0.00  0.00     0.002 A 
ATOM      6  C6  N4B d   1       3.026   0.638  -3.617  0.00  0.00     0.002 A 
ENDROOT
BRANCH   1   7
ATOM      7  C1' N4B d   1       3.579   1.570  -5.835  0.00  0.00     0.057 C 
BRANCH   7   8
ATOM      8  C2' N4B d   1       5.000   1.817  -5.337  0.00  0.00     0.009 C 
BRANCH   8   9
ATOM      9  C3' N4B d   1       6.000   0.871  -5.980  0.00  0.00     0.004 C 
ATOM     10  C4' N4B d   1       5.999  -0.490  -5.352  0.00  0.00     0.003 C 
ENDBRANCH   8   9
ENDBRANCH   7   8
ENDBRANCH   1   7
TORSDOF 3
ENDMDL
