MODEL 1
REMARK minimizedAffinity -1.18388569
REMARK minimizedRMSD -1
REMARK  3 active torsions:
REMARK  status: ('A' for Active; 'I' for Inactive)
REMARK    1  A    between atoms: C3'_2  and  C2'_3 
REMARK    2  A    between atoms: C2'_3  and  C1'_4 
REMARK    3  A    between atoms: C1'_4  and  C1_5 
ROOT
ATOM      1  C1  N4B d   1      -2.664   0.440   0.909  0.00  0.00    -0.075 A 
ATOM      2  C2  N4B d   1      -3.440   0.771  -0.224  0.00  0.00     0.002 A 
ATOM      3  C3  N4B d   1      -3.648   2.089  -0.552  0.00  0.00     0.002 A 
ATOM      4  C4  N4B d   1      -3.107   3.087   0.244  0.00  0.00    -0.004 A 
ATOM      5  C5  N4B d   1      -2.338   2.759   1.321  0.00  0.00     0.002 A 
ATOM      6  C6  N4B d   1      -2.117   1.439   1.661  0.00  0.00     0.002 A 
ENDROOT
BRANCH   1   7
ATOM      7  C1' N4B d   1      -2.481  -0.984   1.357  0.00  0.00     0.057 C 
BRANCH   7   8
ATOM      8  C2' N4B d   1      -1.615  -1.722   0.339  0.00  0.00     0.009 C 
BRANCH   8   9
ATOM      9  C3' N4B d   1      -1.391  -3.173   0.730  0.00  0.00     0.004 C 
ATOM     10  C4' N4B d   1       0.032  -3.460   1.106  0.00  0.00     0.003 C 
ENDBRANCH   8   9
ENDBRANCH   7   8
ENDBRANCH   1   7
TORSDOF 3
ENDMDL
