MODEL 1
REMARK minimizedAffinity 0.611183345
REMARK minimizedRMSD -1
REMARK  3 active torsions:
REMARK  status: ('A' for Active; 'I' for Inactive)
REMARK    1  A    between atoms: C3'_2  and  C2'_3 
REMARK    2  A    between atoms: C2'_3  and  C1'_4 
REMARK    3  A    between atoms: C1'_4  and  C1_5 
ROOT
ATOM      1  C1  N4B d   1       5.516   2.517   2.598  0.00  0.00    -0.075 A 
ATOM      2  C2  N4B d   1       5.904   2.315   3.941  0.00  0.00     0.002 A 
ATOM      3  C3  N4B d   1       5.998   1.040   4.443  0.00  0.00     0.002 A 
ATOM      4  C4  N4B d   1       5.693  -0.042   3.631  0.00  0.00    -0.004 A 
ATOM      5  C5  N4B d   1       5.344   0.162   2.328  0.00  0.00     0.002 A 
ATOM      6  C6  N4B d   1       5.249   1.437   1.808  0.00  0.00     0.002 A 
ENDROOT
BRANCH   1   7
ATOM      7  C1' N4B d   1       5.316   3.895   2.029  0.00  0.00     0.057 C 
BRANCH   7   8
ATOM      8  C2' N4B d   1       4.402   3.806   0.811  0.00  0.00     0.009 C 
BRANCH   8   9
ATOM      9  C3' N4B d   1       2.934   3.809   1.201  0.00  0.00     0.004 C 
ATOM     10  C4' N4B d   1       2.018   3.858   0.015  0.00  0.00     0.003 C 
ENDBRANCH   8   9
ENDBRANCH   7   8
ENDBRANCH   1   7
TORSDOF 3
ENDMDL
