MODEL 1
REMARK minimizedAffinity -1.90673208
REMARK minimizedRMSD -1
REMARK  3 active torsions:
REMARK  status: ('A' for Active; 'I' for Inactive)
REMARK    1  A    between atoms: C3'_2  and  C2'_3 
REMARK    2  A    between atoms: C2'_3  and  C1'_4 
REMARK    3  A    between atoms: C1'_4  and  C1_5 
ROOT
ATOM      1  C1  N4B d   1      -3.144   0.152   3.060  0.00  0.00    -0.075 A 
ATOM      2  C2  N4B d   1      -4.214  -0.202   3.910  0.00  0.00     0.002 A 
ATOM      3  C3  N4B d   1      -4.853   0.764   4.648  0.00  0.00     0.002 A 
ATOM      4  C4  N4B d   1      -4.429   2.081   4.567  0.00  0.00    -0.004 A 
ATOM      5  C5  N4B d   1      -3.410   2.419   3.724  0.00  0.00     0.002 A 
ATOM      6  C6  N4B d   1      -2.762   1.459   2.973  0.00  0.00     0.002 A 
ENDROOT
BRANCH   1   7
ATOM      7  C1' N4B d   1      -2.359  -0.882   2.298  0.00  0.00     0.057 C 
BRANCH   7   8
ATOM      8  C2' N4B d   1      -2.866  -0.937   0.860  0.00  0.00     0.009 C 
BRANCH   8   9
ATOM      9  C3' N4B d   1      -2.089  -1.937   0.022  0.00  0.00     0.004 C 
ATOM     10  C4' N4B d   1      -1.844  -3.231   0.739  0.00  0.00     0.003 C 
ENDBRANCH   8   9
ENDBRANCH   7   8
ENDBRANCH   1   7
TORSDOF 3
ENDMDL
