MODEL 1
REMARK minimizedAffinity -1.81097686
REMARK minimizedRMSD -1
REMARK  1 active torsions:
REMARK  status: ('A' for Active; 'I' for Inactive)
REMARK    1  A    between atoms: C3_4  and  O_7 
ROOT
ATOM      1  C   UNL d   1       0.522   3.765   0.796  0.00  0.00    -0.033 A 
ATOM      2  C1  UNL d   1      -0.011   3.062  -0.286  0.00  0.00     0.039 A 
ATOM      3  C2  UNL d   1      -0.039   1.666  -0.269  0.00  0.00    -0.080 A 
ATOM      4  C3  UNL d   1       0.468   0.986   0.835  0.00  0.00     0.150 A 
ATOM      5  C4  UNL d   1       0.996   1.680   1.919  0.00  0.00    -0.007 A 
ATOM      6  C5  UNL d   1       1.024   3.074   1.899  0.00  0.00     0.039 A 
ENDROOT
BRANCH   4   7
ATOM      7  O   UNL d   1       0.467  -0.376   0.896  0.00  0.00    -0.526 OA
ATOM      8  H5  UNL d   1       0.098  -0.720   0.066  0.00  0.00     0.418 HD
ENDBRANCH   4   7
TORSDOF 1
ENDMDL
