MODEL 1
REMARK minimizedAffinity 7.74971008
REMARK minimizedRMSD -1
REMARK  1 active torsions:
REMARK  status: ('A' for Active; 'I' for Inactive)
REMARK    1  A    between atoms: C3_4  and  O_7 
ROOT
ATOM      1  C   UNL d   1       0.058   3.436  -1.317  0.00  0.00    -0.033 A 
ATOM      2  C1  UNL d   1       0.252   2.055  -1.236  0.00  0.00     0.039 A 
ATOM      3  C2  UNL d   1       0.530   1.458  -0.005  0.00  0.00    -0.080 A 
ATOM      4  C3  UNL d   1       0.610   2.251   1.136  0.00  0.00     0.150 A 
ATOM      5  C4  UNL d   1       0.414   3.626   1.064  0.00  0.00    -0.007 A 
ATOM      6  C5  UNL d   1       0.137   4.221  -0.166  0.00  0.00     0.039 A 
ENDROOT
BRANCH   4   7
ATOM      7  O   UNL d   1       0.883   1.714   2.359  0.00  0.00    -0.526 OA
ATOM      8  H5  UNL d   1       1.023   0.758   2.251  0.00  0.00     0.418 HD
ENDBRANCH   4   7
TORSDOF 1
ENDMDL
