MODEL 1
REMARK minimizedAffinity 2.87233734
REMARK minimizedRMSD -1
REMARK  1 active torsions:
REMARK  status: ('A' for Active; 'I' for Inactive)
REMARK    1  A    between atoms: C3_4  and  O_7 
ROOT
ATOM      1  C   UNL d   1       0.601  -5.419  -1.625  0.00  0.00    -0.033 A 
ATOM      2  C1  UNL d   1      -0.665  -4.940  -1.964  0.00  0.00     0.039 A 
ATOM      3  C2  UNL d   1      -1.066  -4.904  -3.301  0.00  0.00    -0.080 A 
ATOM      4  C3  UNL d   1      -0.192  -5.352  -4.288  0.00  0.00     0.150 A 
ATOM      5  C4  UNL d   1       1.070  -5.835  -3.957  0.00  0.00    -0.007 A 
ATOM      6  C5  UNL d   1       1.468  -5.868  -2.622  0.00  0.00     0.039 A 
ENDROOT
BRANCH   4   7
ATOM      7  O   UNL d   1      -0.537  -5.333  -5.607  0.00  0.00    -0.526 OA
ATOM      8  H5  UNL d   1      -1.426  -4.947  -5.687  0.00  0.00     0.418 HD
ENDBRANCH   4   7
TORSDOF 1
ENDMDL
