MODEL 1
REMARK minimizedAffinity 0.158243194
REMARK minimizedRMSD -1
REMARK  1 active torsions:
REMARK  status: ('A' for Active; 'I' for Inactive)
REMARK    1  A    between atoms: C3_4  and  O_7 
ROOT
ATOM      1  C   UNL d   1      -6.000  -0.365   5.999  0.00  0.00    -0.033 A 
ATOM      2  C1  UNL d   1      -5.423  -1.584   5.639  0.00  0.00     0.039 A 
ATOM      3  C2  UNL d   1      -4.838  -1.737   4.380  0.00  0.00    -0.080 A 
ATOM      4  C3  UNL d   1      -4.836  -0.665   3.493  0.00  0.00     0.150 A 
ATOM      5  C4  UNL d   1      -5.405   0.554   3.847  0.00  0.00    -0.007 A 
ATOM      6  C5  UNL d   1      -5.989   0.705   5.104  0.00  0.00     0.039 A 
ENDROOT
BRANCH   4   7
ATOM      7  O   UNL d   1      -4.281  -0.768   2.252  0.00  0.00    -0.526 OA
ATOM      8  H5  UNL d   1      -3.953  -1.675   2.136  0.00  0.00     0.418 HD
ENDBRANCH   4   7
TORSDOF 1
ENDMDL
