MODEL 1
REMARK minimizedAffinity 4.30847836
REMARK minimizedRMSD -1
REMARK  1 active torsions:
REMARK  status: ('A' for Active; 'I' for Inactive)
REMARK    1  A    between atoms: C3_4  and  O_7 
ROOT
ATOM      1  C   UNL d   1       0.131   0.655  -3.386  0.00  0.00    -0.033 A 
ATOM      2  C1  UNL d   1      -0.726  -0.159  -4.130  0.00  0.00     0.039 A 
ATOM      3  C2  UNL d   1      -1.243  -1.328  -3.569  0.00  0.00    -0.080 A 
ATOM      4  C3  UNL d   1      -0.896  -1.672  -2.265  0.00  0.00     0.150 A 
ATOM      5  C4  UNL d   1      -0.047  -0.863  -1.517  0.00  0.00    -0.007 A 
ATOM      6  C5  UNL d   1       0.469   0.304  -2.079  0.00  0.00     0.039 A 
ENDROOT
BRANCH   4   7
ATOM      7  O   UNL d   1      -1.372  -2.806  -1.676  0.00  0.00    -0.526 OA
ATOM      8  H5  UNL d   1      -1.923  -3.279  -2.321  0.00  0.00     0.418 HD
ENDBRANCH   4   7
TORSDOF 1
ENDMDL
