MODEL 1
REMARK minimizedAffinity 3.47658944
REMARK minimizedRMSD -1
REMARK  1 active torsions:
REMARK  status: ('A' for Active; 'I' for Inactive)
REMARK    1  A    between atoms: C3_4  and  O_7 
ROOT
ATOM      1  C   UNL d   1      -0.269   1.421   1.554  0.00  0.00    -0.033 A 
ATOM      2  C1  UNL d   1       0.815   0.752   0.981  0.00  0.00     0.039 A 
ATOM      3  C2  UNL d   1       1.410  -0.318   1.651  0.00  0.00    -0.080 A 
ATOM      4  C3  UNL d   1       0.913  -0.710   2.891  0.00  0.00     0.150 A 
ATOM      5  C4  UNL d   1      -0.169  -0.050   3.466  0.00  0.00    -0.007 A 
ATOM      6  C5  UNL d   1      -0.762   1.019   2.796  0.00  0.00     0.039 A 
ENDROOT
BRANCH   4   7
ATOM      7  O   UNL d   1       1.464  -1.745   3.585  0.00  0.00    -0.526 OA
ATOM      8  H5  UNL d   1       2.221  -2.087   3.080  0.00  0.00     0.418 HD
ENDBRANCH   4   7
TORSDOF 1
ENDMDL
