MODEL 1
REMARK minimizedAffinity -0.502802193
REMARK minimizedRMSD -1
REMARK  1 active torsions:
REMARK  status: ('A' for Active; 'I' for Inactive)
REMARK    1  A    between atoms: C3_4  and  O_7 
ROOT
ATOM      1  C   UNL d   1       0.310   0.710   3.371  0.00  0.00    -0.033 A 
ATOM      2  C1  UNL d   1       0.013  -0.465   2.679  0.00  0.00     0.039 A 
ATOM      3  C2  UNL d   1       0.184  -0.524   1.294  0.00  0.00    -0.080 A 
ATOM      4  C3  UNL d   1       0.653   0.597   0.615  0.00  0.00     0.150 A 
ATOM      5  C4  UNL d   1       0.956   1.770   1.300  0.00  0.00    -0.007 A 
ATOM      6  C5  UNL d   1       0.783   1.827   2.682  0.00  0.00     0.039 A 
ENDROOT
BRANCH   4   7
ATOM      7  O   UNL d   1       0.832   0.589  -0.736  0.00  0.00    -0.526 OA
ATOM      8  H5  UNL d   1       0.555  -0.278  -1.078  0.00  0.00     0.418 HD
ENDBRANCH   4   7
TORSDOF 1
ENDMDL
