MODEL 1
REMARK minimizedAffinity 2.52255416
REMARK minimizedRMSD -1
REMARK  1 active torsions:
REMARK  status: ('A' for Active; 'I' for Inactive)
REMARK    1  A    between atoms: C3_4  and  O_7 
ROOT
ATOM      1  C   UNL d   1       0.838  -0.582   0.820  0.00  0.00    -0.033 A 
ATOM      2  C1  UNL d   1       1.190  -0.499   2.168  0.00  0.00     0.039 A 
ATOM      3  C2  UNL d   1       0.939   0.671   2.887  0.00  0.00    -0.080 A 
ATOM      4  C3  UNL d   1       0.335   1.750   2.246  0.00  0.00     0.150 A 
ATOM      5  C4  UNL d   1      -0.021   1.673   0.904  0.00  0.00    -0.007 A 
ATOM      6  C5  UNL d   1       0.231   0.503   0.188  0.00  0.00     0.039 A 
ENDROOT
BRANCH   4   7
ATOM      7  O   UNL d   1       0.074   2.915   2.904  0.00  0.00    -0.526 OA
ATOM      8  H5  UNL d   1       0.401   2.833   3.816  0.00  0.00     0.418 HD
ENDBRANCH   4   7
TORSDOF 1
ENDMDL
