MODEL 1
REMARK minimizedAffinity -2.04159141
REMARK minimizedRMSD -1
REMARK  1 active torsions:
REMARK  status: ('A' for Active; 'I' for Inactive)
REMARK    1  A    between atoms: C3_4  and  O_7 
ROOT
ATOM      1  C   UNL d   1       1.049   0.153   1.656  0.00  0.00    -0.033 A 
ATOM      2  C1  UNL d   1       1.309   0.958   2.767  0.00  0.00     0.039 A 
ATOM      3  C2  UNL d   1       1.152   2.343   2.680  0.00  0.00    -0.080 A 
ATOM      4  C3  UNL d   1       0.733   2.909   1.479  0.00  0.00     0.150 A 
ATOM      5  C4  UNL d   1       0.468   2.112   0.370  0.00  0.00    -0.007 A 
ATOM      6  C5  UNL d   1       0.626   0.730   0.458  0.00  0.00     0.039 A 
ENDROOT
BRANCH   4   7
ATOM      7  O   UNL d   1       0.570   4.255   1.344  0.00  0.00    -0.526 OA
ATOM      8  H5  UNL d   1       0.817   4.681   2.183  0.00  0.00     0.418 HD
ENDBRANCH   4   7
TORSDOF 1
ENDMDL
