MODEL 1
REMARK minimizedAffinity 6.6429553
REMARK minimizedRMSD -1
REMARK  0 active torsions:
REMARK  status: ('A' for Active; 'I' for Inactive)
ROOT
ATOM      1  C   UNL d   1       1.510  -2.654   1.518  0.00  0.00     0.077 C 
ATOM      2  C1  UNL d   1       2.813  -3.329   1.829  0.00  0.00    -0.074 A 
ATOM      3  C2  UNL d   1       3.641  -3.800   0.804  0.00  0.00    -0.005 A 
ATOM      4  C3  UNL d   1       4.854  -4.418   1.109  0.00  0.00     0.006 A 
ATOM      5  C4  UNL d   1       5.251  -4.570   2.438  0.00  0.00    -0.005 A 
ATOM      6  C5  UNL d   1       4.436  -4.105   3.475  0.00  0.00    -0.074 A 
ATOM      7  C6  UNL d   1       4.852  -4.252   4.908  0.00  0.00     0.077 C 
ATOM      8  C7  UNL d   1       3.222  -3.479   3.161  0.00  0.00    -0.001 A 
ENDROOT
TORSDOF 0
ENDMDL
