MODEL 1
REMARK minimizedAffinity 11.8714218
REMARK minimizedRMSD -1
REMARK  0 active torsions:
REMARK  status: ('A' for Active; 'I' for Inactive)
ROOT
ATOM      1  C   UNL d   1       3.876  -2.742  -0.463  0.00  0.00     0.077 C 
ATOM      2  C1  UNL d   1       3.559  -1.288  -0.648  0.00  0.00    -0.074 A 
ATOM      3  C2  UNL d   1       4.469  -0.299  -0.262  0.00  0.00    -0.005 A 
ATOM      4  C3  UNL d   1       4.164   1.049  -0.448  0.00  0.00     0.006 A 
ATOM      5  C4  UNL d   1       2.947   1.421  -1.021  0.00  0.00    -0.005 A 
ATOM      6  C5  UNL d   1       2.025   0.447  -1.414  0.00  0.00    -0.074 A 
ATOM      7  C6  UNL d   1       0.717   0.829  -2.041  0.00  0.00     0.077 C 
ATOM      8  C7  UNL d   1       2.342  -0.906  -1.230  0.00  0.00    -0.001 A 
ENDROOT
TORSDOF 0
ENDMDL
