MODEL 1
REMARK minimizedAffinity 0.448645473
REMARK minimizedRMSD -1
REMARK  0 active torsions:
REMARK  status: ('A' for Active; 'I' for Inactive)
ROOT
ATOM      1  C   UNL d   1       3.305   0.955  -1.197  0.00  0.00     0.077 C 
ATOM      2  C1  UNL d   1       3.856  -0.320  -0.631  0.00  0.00    -0.074 A 
ATOM      3  C2  UNL d   1       5.236  -0.543  -0.573  0.00  0.00    -0.005 A 
ATOM      4  C3  UNL d   1       5.734  -1.729  -0.035  0.00  0.00     0.006 A 
ATOM      5  C4  UNL d   1       4.860  -2.703   0.448  0.00  0.00    -0.005 A 
ATOM      6  C5  UNL d   1       3.478  -2.498   0.399  0.00  0.00    -0.074 A 
ATOM      7  C6  UNL d   1       2.524  -3.530   0.924  0.00  0.00     0.077 C 
ATOM      8  C7  UNL d   1       2.985  -1.300  -0.136  0.00  0.00    -0.001 A 
ENDROOT
TORSDOF 0
ENDMDL
