MODEL 1
REMARK minimizedAffinity 0.604348421
REMARK minimizedRMSD -1
REMARK  0 active torsions:
REMARK  status: ('A' for Active; 'I' for Inactive)
ROOT
ATOM      1  C   UNL d   1      -0.927  -0.022   1.715  0.00  0.00     0.077 C 
ATOM      2  C1  UNL d   1      -0.718  -1.398   2.274  0.00  0.00    -0.074 A 
ATOM      3  C2  UNL d   1      -1.547  -1.897   3.283  0.00  0.00    -0.005 A 
ATOM      4  C3  UNL d   1      -1.346  -3.183   3.787  0.00  0.00     0.006 A 
ATOM      5  C4  UNL d   1      -0.316  -3.980   3.287  0.00  0.00    -0.005 A 
ATOM      6  C5  UNL d   1       0.523  -3.497   2.277  0.00  0.00    -0.074 A 
ATOM      7  C6  UNL d   1       1.629  -4.345   1.722  0.00  0.00     0.077 C 
ATOM      8  C7  UNL d   1       0.310  -2.207   1.772  0.00  0.00    -0.001 A 
ENDROOT
TORSDOF 0
ENDMDL
