MODEL 1
REMARK minimizedAffinity 2.30664611
REMARK minimizedRMSD -1
REMARK  0 active torsions:
REMARK  status: ('A' for Active; 'I' for Inactive)
ROOT
ATOM      1  C   UNL d   1       1.905  -0.526  -0.795  0.00  0.00     0.077 C 
ATOM      2  C1  UNL d   1       0.588  -0.384  -0.091  0.00  0.00    -0.074 A 
ATOM      3  C2  UNL d   1      -0.573  -0.055  -0.798  0.00  0.00    -0.005 A 
ATOM      4  C3  UNL d   1      -1.792   0.065  -0.132  0.00  0.00     0.006 A 
ATOM      5  C4  UNL d   1      -1.863  -0.143   1.246  0.00  0.00    -0.005 A 
ATOM      6  C5  UNL d   1      -0.713  -0.474   1.970  0.00  0.00    -0.074 A 
ATOM      7  C6  UNL d   1      -0.774  -0.711   3.450  0.00  0.00     0.077 C 
ATOM      8  C7  UNL d   1       0.507  -0.599   1.292  0.00  0.00    -0.001 A 
ENDROOT
TORSDOF 0
ENDMDL
