MODEL 1
REMARK minimizedAffinity -0.63315624
REMARK minimizedRMSD -1
REMARK  0 active torsions:
REMARK  status: ('A' for Active; 'I' for Inactive)
ROOT
ATOM      1  C   UNL d   1      -0.121   3.581  -1.724  0.00  0.00     0.020 A 
ATOM      2  C1  UNL d   1      -0.885   2.418  -1.629  0.00  0.00     0.020 A 
ATOM      3  C2  UNL d   1      -1.175   1.874  -0.377  0.00  0.00     0.034 A 
ATOM      4  C3  UNL d   1      -0.700   2.491   0.786  0.00  0.00     0.017 A 
ATOM      5  C4  UNL d   1       0.066   3.658   0.690  0.00  0.00     0.017 A 
ATOM      6  C5  UNL d   1       0.354   4.199  -0.567  0.00  0.00     0.034 A 
ATOM      7 Cl   UNL d   1       0.687   4.476   2.080  0.00  0.00    -0.070 Cl
ATOM      8 Cl1  UNL d   1      -1.097   1.763   2.302  0.00  0.00    -0.070 Cl
ENDROOT
TORSDOF 0
ENDMDL
