MODEL 1
REMARK minimizedAffinity 5.34751844
REMARK minimizedRMSD -1
REMARK  0 active torsions:
REMARK  status: ('A' for Active; 'I' for Inactive)
ROOT
ATOM      1  C   UNL d   1      -1.484   3.490  -3.017  0.00  0.00     0.020 A 
ATOM      2  C1  UNL d   1      -1.919   3.083  -1.757  0.00  0.00     0.020 A 
ATOM      3  C2  UNL d   1      -1.073   3.206  -0.653  0.00  0.00     0.034 A 
ATOM      4  C3  UNL d   1       0.212   3.738  -0.807  0.00  0.00     0.017 A 
ATOM      5  C4  UNL d   1       0.648   4.147  -2.072  0.00  0.00     0.017 A 
ATOM      6  C5  UNL d   1      -0.203   4.021  -3.175  0.00  0.00     0.034 A 
ATOM      7 Cl   UNL d   1       2.221   4.812  -2.341  0.00  0.00    -0.070 Cl
ATOM      8 Cl1  UNL d   1       1.205   3.862   0.602  0.00  0.00    -0.070 Cl
ENDROOT
TORSDOF 0
ENDMDL
