MODEL 1
REMARK minimizedAffinity 4.61491013
REMARK minimizedRMSD -1
REMARK  0 active torsions:
REMARK  status: ('A' for Active; 'I' for Inactive)
ROOT
ATOM      1  C   UNL d   1      -0.558   2.427   0.121  0.00  0.00     0.020 A 
ATOM      2  C1  UNL d   1       0.317   3.399   0.605  0.00  0.00     0.020 A 
ATOM      3  C2  UNL d   1       0.520   3.532   1.980  0.00  0.00     0.034 A 
ATOM      4  C3  UNL d   1      -0.152   2.693   2.876  0.00  0.00     0.017 A 
ATOM      5  C4  UNL d   1      -1.031   1.718   2.389  0.00  0.00     0.017 A 
ATOM      6  C5  UNL d   1      -1.230   1.589   1.011  0.00  0.00     0.034 A 
ATOM      7 Cl   UNL d   1      -1.896   0.646   3.432  0.00  0.00    -0.070 Cl
ATOM      8 Cl1  UNL d   1       0.147   2.914   4.563  0.00  0.00    -0.070 Cl
ENDROOT
TORSDOF 0
ENDMDL
