MODEL 1
REMARK minimizedAffinity 2.29607248
REMARK minimizedRMSD -1
REMARK  0 active torsions:
REMARK  status: ('A' for Active; 'I' for Inactive)
ROOT
ATOM      1  C   UNL d   1      -0.388   3.840  -2.289  0.00  0.00     0.020 A 
ATOM      2  C1  UNL d   1      -1.061   2.624  -2.173  0.00  0.00     0.020 A 
ATOM      3  C2  UNL d   1      -1.106   1.965  -0.942  0.00  0.00     0.034 A 
ATOM      4  C3  UNL d   1      -0.476   2.522   0.177  0.00  0.00     0.017 A 
ATOM      5  C4  UNL d   1       0.200   3.742   0.060  0.00  0.00     0.017 A 
ATOM      6  C5  UNL d   1       0.241   4.397  -1.175  0.00  0.00     0.034 A 
ATOM      7 Cl   UNL d   1       1.001   4.490   1.396  0.00  0.00    -0.070 Cl
ATOM      8 Cl1  UNL d   1      -0.571   1.652   1.667  0.00  0.00    -0.070 Cl
ENDROOT
TORSDOF 0
ENDMDL
