MODEL 1
REMARK minimizedAffinity 6.15726089
REMARK minimizedRMSD -1
REMARK  0 active torsions:
REMARK  status: ('A' for Active; 'I' for Inactive)
ROOT
ATOM      1  C   UNL d   1       0.186   3.526  -1.478  0.00  0.00     0.020 A 
ATOM      2  C1  UNL d   1       0.292   3.474  -0.089  0.00  0.00     0.020 A 
ATOM      3  C2  UNL d   1      -0.591   4.208   0.706  0.00  0.00     0.034 A 
ATOM      4  C3  UNL d   1      -1.584   4.997   0.113  0.00  0.00     0.017 A 
ATOM      5  C4  UNL d   1      -1.689   5.048  -1.282  0.00  0.00     0.017 A 
ATOM      6  C5  UNL d   1      -0.802   4.311  -2.073  0.00  0.00     0.034 A 
ATOM      7 Cl   UNL d   1      -2.887   5.998  -2.087  0.00  0.00    -0.070 Cl
ATOM      8 Cl1  UNL d   1      -2.641   5.878   1.157  0.00  0.00    -0.070 Cl
ENDROOT
TORSDOF 0
ENDMDL
