MODEL 1
REMARK minimizedAffinity 13.1616602
REMARK minimizedRMSD -1
REMARK  0 active torsions:
REMARK  status: ('A' for Active; 'I' for Inactive)
ROOT
ATOM      1  C   UNL d   1       1.560  -0.451  -5.982  0.00  0.00     0.020 A 
ATOM      2  C1  UNL d   1       0.429  -1.265  -5.991  0.00  0.00     0.020 A 
ATOM      3  C2  UNL d   1       0.569  -2.655  -5.996  0.00  0.00     0.034 A 
ATOM      4  C3  UNL d   1       1.843  -3.234  -5.991  0.00  0.00     0.017 A 
ATOM      5  C4  UNL d   1       2.978  -2.416  -5.981  0.00  0.00     0.017 A 
ATOM      6  C5  UNL d   1       2.832  -1.025  -5.977  0.00  0.00     0.034 A 
ATOM      7 Cl   UNL d   1       4.583  -3.057  -5.975  0.00  0.00    -0.070 Cl
ATOM      8 Cl1  UNL d   1       1.941  -4.959  -5.996  0.00  0.00    -0.070 Cl
ENDROOT
TORSDOF 0
ENDMDL
