MODEL 1
REMARK minimizedAffinity 5.97930908
REMARK minimizedRMSD -1
REMARK  0 active torsions:
REMARK  status: ('A' for Active; 'I' for Inactive)
ROOT
ATOM      1  C   UNL d   1       0.832   3.463  -0.036  0.00  0.00     0.020 A 
ATOM      2  C1  UNL d   1       0.280   4.583   0.585  0.00  0.00     0.020 A 
ATOM      3  C2  UNL d   1      -0.746   5.294  -0.041  0.00  0.00     0.034 A 
ATOM      4  C3  UNL d   1      -1.224   4.886  -1.292  0.00  0.00     0.017 A 
ATOM      5  C4  UNL d   1      -0.669   3.761  -1.914  0.00  0.00     0.017 A 
ATOM      6  C5  UNL d   1       0.358   3.053  -1.283  0.00  0.00     0.034 A 
ATOM      7 Cl   UNL d   1      -1.206   3.197  -3.457  0.00  0.00    -0.070 Cl
ATOM      8 Cl1  UNL d   1      -2.495   5.812  -2.008  0.00  0.00    -0.070 Cl
ENDROOT
TORSDOF 0
ENDMDL
