MODEL 1
REMARK minimizedAffinity 8.67508698
REMARK minimizedRMSD -1
REMARK  0 active torsions:
REMARK  status: ('A' for Active; 'I' for Inactive)
ROOT
ATOM      1  C   UNL d   1       1.363   4.908   0.088  0.00  0.00     0.020 A 
ATOM      2  C1  UNL d   1       1.369   5.256  -1.263  0.00  0.00     0.020 A 
ATOM      3  C2  UNL d   1       0.603   4.526  -2.174  0.00  0.00     0.034 A 
ATOM      4  C3  UNL d   1      -0.172   3.445  -1.737  0.00  0.00     0.017 A 
ATOM      5  C4  UNL d   1      -0.177   3.097  -0.381  0.00  0.00     0.017 A 
ATOM      6  C5  UNL d   1       0.592   3.832   0.527  0.00  0.00     0.034 A 
ATOM      7 Cl   UNL d   1      -1.107   1.777   0.234  0.00  0.00    -0.070 Cl
ATOM      8 Cl1  UNL d   1      -1.095   2.587  -2.919  0.00  0.00    -0.070 Cl
ENDROOT
TORSDOF 0
ENDMDL
