MODEL 1
REMARK minimizedAffinity 10.6409798
REMARK minimizedRMSD -1
REMARK  0 active torsions:
REMARK  status: ('A' for Active; 'I' for Inactive)
ROOT
ATOM      1  C   UNL d   1      -0.023   3.207   0.970  0.00  0.00     0.020 A 
ATOM      2  C1  UNL d   1      -1.023   2.455   0.355  0.00  0.00     0.020 A 
ATOM      3  C2  UNL d   1      -1.363   2.702  -0.977  0.00  0.00     0.034 A 
ATOM      4  C3  UNL d   1      -0.703   3.703  -1.698  0.00  0.00     0.017 A 
ATOM      5  C4  UNL d   1       0.301   4.457  -1.079  0.00  0.00     0.017 A 
ATOM      6  C5  UNL d   1       0.637   4.206   0.254  0.00  0.00     0.034 A 
ATOM      7 Cl   UNL d   1       1.161   5.709  -1.905  0.00  0.00    -0.070 Cl
ATOM      8 Cl1  UNL d   1      -1.174   3.953  -3.341  0.00  0.00    -0.070 Cl
ENDROOT
TORSDOF 0
ENDMDL
