MODEL 1
REMARK minimizedAffinity 9.09866714
REMARK minimizedRMSD -1
REMARK  0 active torsions:
REMARK  status: ('A' for Active; 'I' for Inactive)
ROOT
ATOM      1  C   UNL d   1      -0.935   3.863  -2.426  0.00  0.00     0.020 A 
ATOM      2  C1  UNL d   1      -0.167   5.003  -2.194  0.00  0.00     0.020 A 
ATOM      3  C2  UNL d   1       0.494   5.164  -0.975  0.00  0.00     0.034 A 
ATOM      4  C3  UNL d   1       0.388   4.182   0.018  0.00  0.00     0.017 A 
ATOM      5  C4  UNL d   1      -0.383   3.038  -0.216  0.00  0.00     0.017 A 
ATOM      6  C5  UNL d   1      -1.043   2.883  -1.439  0.00  0.00     0.034 A 
ATOM      7 Cl   UNL d   1      -0.562   1.784   0.960  0.00  0.00    -0.070 Cl
ATOM      8 Cl1  UNL d   1       1.233   4.446   1.502  0.00  0.00    -0.070 Cl
ENDROOT
TORSDOF 0
ENDMDL
