MODEL 1
REMARK minimizedAffinity 6.88153934
REMARK minimizedRMSD -1
REMARK  0 active torsions:
REMARK  status: ('A' for Active; 'I' for Inactive)
ROOT
ATOM      1  C   UNL d   1      -0.087   2.688   0.793  0.00  0.00     0.020 A 
ATOM      2  C1  UNL d   1       0.455   3.723   0.032  0.00  0.00     0.020 A 
ATOM      3  C2  UNL d   1       0.060   3.892  -1.297  0.00  0.00     0.034 A 
ATOM      4  C3  UNL d   1      -0.879   3.025  -1.868  0.00  0.00     0.017 A 
ATOM      5  C4  UNL d   1      -1.422   1.987  -1.103  0.00  0.00     0.017 A 
ATOM      6  C5  UNL d   1      -1.023   1.823   0.227  0.00  0.00     0.034 A 
ATOM      7 Cl   UNL d   1      -2.585   0.878  -1.738  0.00  0.00    -0.070 Cl
ATOM      8 Cl1  UNL d   1      -1.321   3.293  -3.517  0.00  0.00    -0.070 Cl
ENDROOT
TORSDOF 0
ENDMDL
