MODEL 1
REMARK minimizedAffinity 1.93484569
REMARK minimizedRMSD -1
REMARK  0 active torsions:
REMARK  status: ('A' for Active; 'I' for Inactive)
ROOT
ATOM      1  C   UNL d   1       0.348   4.464  -1.743  0.00  0.00     0.020 A 
ATOM      2  C1  UNL d   1       0.777   4.533  -0.418  0.00  0.00     0.020 A 
ATOM      3  C2  UNL d   1       0.376   3.558   0.498  0.00  0.00     0.034 A 
ATOM      4  C3  UNL d   1      -0.456   2.509   0.090  0.00  0.00     0.017 A 
ATOM      5  C4  UNL d   1      -0.885   2.440  -1.240  0.00  0.00     0.017 A 
ATOM      6  C5  UNL d   1      -0.481   3.419  -2.153  0.00  0.00     0.034 A 
ATOM      7 Cl   UNL d   1      -1.913   1.175  -1.818  0.00  0.00    -0.070 Cl
ATOM      8 Cl1  UNL d   1      -0.912   1.338   1.276  0.00  0.00    -0.070 Cl
ENDROOT
TORSDOF 0
ENDMDL
