MODEL 1
REMARK minimizedAffinity 11.9682064
REMARK minimizedRMSD -1
REMARK  0 active torsions:
REMARK  status: ('A' for Active; 'I' for Inactive)
ROOT
ATOM      1  C   UNL d   1       1.183   5.103   0.172  0.00  0.00     0.020 A 
ATOM      2  C1  UNL d   1       1.057   5.536  -1.148  0.00  0.00     0.020 A 
ATOM      3  C2  UNL d   1       0.448   4.713  -2.097  0.00  0.00     0.034 A 
ATOM      4  C3  UNL d   1      -0.038   3.453  -1.729  0.00  0.00     0.017 A 
ATOM      5  C4  UNL d   1       0.089   3.020  -0.404  0.00  0.00     0.017 A 
ATOM      6  C5  UNL d   1       0.699   3.848   0.543  0.00  0.00     0.034 A 
ATOM      7 Cl   UNL d   1      -0.487   1.479   0.126  0.00  0.00    -0.070 Cl
ATOM      8 Cl1  UNL d   1      -0.780   2.489  -2.955  0.00  0.00    -0.070 Cl
ENDROOT
TORSDOF 0
ENDMDL
