MODEL 1
REMARK minimizedAffinity 14.6722937
REMARK minimizedRMSD -1
REMARK  0 active torsions:
REMARK  status: ('A' for Active; 'I' for Inactive)
ROOT
ATOM      1  C   UNL d   1      -1.382   1.235  -0.317  0.00  0.00     0.020 A 
ATOM      2  C1  UNL d   1      -1.054   2.444  -0.930  0.00  0.00     0.020 A 
ATOM      3  C2  UNL d   1      -0.019   3.229  -0.416  0.00  0.00     0.034 A 
ATOM      4  C3  UNL d   1       0.690   2.806   0.714  0.00  0.00     0.017 A 
ATOM      5  C4  UNL d   1       0.359   1.593   1.329  0.00  0.00     0.017 A 
ATOM      6  C5  UNL d   1      -0.677   0.811   0.810  0.00  0.00     0.034 A 
ATOM      7 Cl   UNL d   1       1.189   1.006   2.726  0.00  0.00    -0.070 Cl
ATOM      8 Cl1  UNL d   1       1.957   3.827   1.295  0.00  0.00    -0.070 Cl
ENDROOT
TORSDOF 0
ENDMDL
