MODEL 1
REMARK minimizedAffinity 6.80943727
REMARK minimizedRMSD -1
REMARK  0 active torsions:
REMARK  status: ('A' for Active; 'I' for Inactive)
ROOT
ATOM      1  C   UNL d   1      -0.483  -2.150   3.998  0.00  0.00     0.020 A 
ATOM      2  C1  UNL d   1      -1.872  -2.257   3.934  0.00  0.00     0.020 A 
ATOM      3  C2  UNL d   1      -2.634  -1.185   3.466  0.00  0.00     0.034 A 
ATOM      4  C3  UNL d   1      -2.009  -0.001   3.061  0.00  0.00     0.017 A 
ATOM      5  C4  UNL d   1      -0.615   0.106   3.125  0.00  0.00     0.017 A 
ATOM      6  C5  UNL d   1       0.144  -0.971   3.594  0.00  0.00     0.034 A 
ATOM      7 Cl   UNL d   1       0.229   1.536   2.642  0.00  0.00    -0.070 Cl
ATOM      8 Cl1  UNL d   1      -3.014   1.285   2.493  0.00  0.00    -0.070 Cl
ENDROOT
TORSDOF 0
ENDMDL
