MODEL 1
REMARK minimizedAffinity 0.415084124
REMARK minimizedRMSD -1
REMARK  0 active torsions:
REMARK  status: ('A' for Active; 'I' for Inactive)
ROOT
ATOM      1  C   UNL d   1      -4.441  -3.585   6.000  0.00  0.00     0.020 A 
ATOM      2  C1  UNL d   1      -4.418  -2.308   5.441  0.00  0.00     0.020 A 
ATOM      3  C2  UNL d   1      -3.238  -1.813   4.881  0.00  0.00     0.034 A 
ATOM      4  C3  UNL d   1      -2.077  -2.594   4.880  0.00  0.00     0.017 A 
ATOM      5  C4  UNL d   1      -2.102  -3.876   5.441  0.00  0.00     0.017 A 
ATOM      6  C5  UNL d   1      -3.286  -4.368   6.000  0.00  0.00     0.034 A 
ATOM      7 Cl   UNL d   1      -0.709  -4.900   5.477  0.00  0.00    -0.070 Cl
ATOM      8 Cl1  UNL d   1      -0.654  -1.918   4.171  0.00  0.00    -0.070 Cl
ENDROOT
TORSDOF 0
ENDMDL
