MODEL 1
REMARK minimizedAffinity 9.45827389
REMARK minimizedRMSD -1
REMARK  0 active torsions:
REMARK  status: ('A' for Active; 'I' for Inactive)
ROOT
ATOM      1  C   UNL d   1      -2.455  -2.182   4.278  0.00  0.00     0.020 A 
ATOM      2  C1  UNL d   1      -1.477  -3.168   4.157  0.00  0.00     0.020 A 
ATOM      3  C2  UNL d   1      -0.208  -2.838   3.678  0.00  0.00     0.034 A 
ATOM      4  C3  UNL d   1       0.087  -1.518   3.317  0.00  0.00     0.017 A 
ATOM      5  C4  UNL d   1      -0.896  -0.529   3.439  0.00  0.00     0.017 A 
ATOM      6  C5  UNL d   1      -2.165  -0.865   3.920  0.00  0.00     0.034 A 
ATOM      7 Cl   UNL d   1      -0.607   1.122   3.014  0.00  0.00    -0.070 Cl
ATOM      8 Cl1  UNL d   1       1.677  -1.181   2.732  0.00  0.00    -0.070 Cl
ENDROOT
TORSDOF 0
ENDMDL
