MODEL 1
REMARK minimizedAffinity -5.17783928
REMARK minimizedRMSD -1
REMARK  0 active torsions:
REMARK  status: ('A' for Active; 'I' for Inactive)
ROOT
ATOM      1  O1  BZF d   1       1.086  -0.333   1.025  0.00  0.00    -0.204 OA
ATOM      2  C2  BZF d   1       0.773  -1.146  -0.047  0.00  0.00     0.174 A 
ATOM      3  C3  BZF d   1      -0.364  -0.735  -0.644  0.00  0.00    -0.012 A 
ATOM      4  C3A BZF d   1      -0.739   0.462   0.046  0.00  0.00    -0.107 A 
ATOM      5  C4  BZF d   1      -1.773   1.342  -0.096  0.00  0.00     0.055 A 
ATOM      6  C5  BZF d   1      -1.892   2.369   0.786  0.00  0.00    -0.016 A 
ATOM      7  C6  BZF d   1      -1.000   2.542   1.824  0.00  0.00     0.022 A 
ATOM      8  C7  BZF d   1       0.045   1.697   2.002  0.00  0.00     0.029 A 
ATOM      9  C7A BZF d   1       0.187   0.678   1.093  0.00  0.00     0.058 A 
ENDROOT
TORSDOF 0
ENDMDL
