MODEL 1
REMARK minimizedAffinity -4.23720455
REMARK minimizedRMSD -1
REMARK  0 active torsions:
REMARK  status: ('A' for Active; 'I' for Inactive)
ROOT
ATOM      1  O1  BZF d   1       2.420  -4.327  -0.330  0.00  0.00    -0.204 OA
ATOM      2  C2  BZF d   1       2.219  -5.647   0.023  0.00  0.00     0.174 A 
ATOM      3  C3  BZF d   1       0.930  -6.000  -0.157  0.00  0.00    -0.012 A 
ATOM      4  C3A BZF d   1       0.304  -4.853  -0.741  0.00  0.00    -0.107 A 
ATOM      5  C4  BZF d   1      -0.967  -4.591  -1.164  0.00  0.00     0.055 A 
ATOM      6  C5  BZF d   1      -1.269  -3.346  -1.619  0.00  0.00    -0.016 A 
ATOM      7  C6  BZF d   1      -0.326  -2.340  -1.659  0.00  0.00     0.022 A 
ATOM      8  C7  BZF d   1       0.950  -2.553  -1.254  0.00  0.00     0.029 A 
ATOM      9  C7A BZF d   1       1.266  -3.819  -0.825  0.00  0.00     0.058 A 
ENDROOT
TORSDOF 0
ENDMDL
