MODEL 1
REMARK minimizedAffinity 1.25834846
REMARK minimizedRMSD -1
REMARK  0 active torsions:
REMARK  status: ('A' for Active; 'I' for Inactive)
ROOT
ATOM      1  O1  BZF d   1      -0.109   3.282   0.228  0.00  0.00    -0.204 OA
ATOM      2  C2  BZF d   1       0.085   3.382   1.592  0.00  0.00     0.174 A 
ATOM      3  C3  BZF d   1       0.313   2.167   2.133  0.00  0.00    -0.012 A 
ATOM      4  C3A BZF d   1       0.350   1.263   1.025  0.00  0.00    -0.107 A 
ATOM      5  C4  BZF d   1       0.556  -0.083   0.918  0.00  0.00     0.055 A 
ATOM      6  C5  BZF d   1       0.456  -0.671  -0.303  0.00  0.00    -0.016 A 
ATOM      7  C6  BZF d   1       0.146   0.053  -1.435  0.00  0.00     0.022 A 
ATOM      8  C7  BZF d   1      -0.061   1.391  -1.380  0.00  0.00     0.029 A 
ATOM      9  C7A BZF d   1       0.072   1.994  -0.153  0.00  0.00     0.058 A 
ENDROOT
TORSDOF 0
ENDMDL
