MODEL 1
REMARK minimizedAffinity -2.40282202
REMARK minimizedRMSD -1
REMARK  0 active torsions:
REMARK  status: ('A' for Active; 'I' for Inactive)
ROOT
ATOM      1  O1  BZF d   1      -1.319   2.491   0.158  0.00  0.00    -0.204 OA
ATOM      2  C2  BZF d   1      -1.205   2.901   1.472  0.00  0.00     0.174 A 
ATOM      3  C3  BZF d   1      -0.602   1.954   2.219  0.00  0.00    -0.012 A 
ATOM      4  C3A BZF d   1      -0.238   0.923   1.296  0.00  0.00    -0.107 A 
ATOM      5  C4  BZF d   1       0.404  -0.275   1.431  0.00  0.00     0.055 A 
ATOM      6  C5  BZF d   1       0.537  -1.080   0.344  0.00  0.00    -0.016 A 
ATOM      7  C6  BZF d   1       0.035  -0.722  -0.890  0.00  0.00     0.022 A 
ATOM      8  C7  BZF d   1      -0.606   0.458  -1.074  0.00  0.00     0.029 A 
ATOM      9  C7A BZF d   1      -0.712   1.288   0.015  0.00  0.00     0.058 A 
ENDROOT
TORSDOF 0
ENDMDL
