MODEL 1
REMARK minimizedAffinity -5.17139673
REMARK minimizedRMSD -1
REMARK  0 active torsions:
REMARK  status: ('A' for Active; 'I' for Inactive)
ROOT
ATOM      1  O1  BZF d   1       0.188   0.275  -0.863  0.00  0.00    -0.204 OA
ATOM      2  C2  BZF d   1       0.670  -0.623   0.071  0.00  0.00     0.174 A 
ATOM      3  C3  BZF d   1       0.598  -0.104   1.314  0.00  0.00    -0.012 A 
ATOM      4  C3A BZF d   1      -0.050   1.162   1.157  0.00  0.00    -0.107 A 
ATOM      5  C4  BZF d   1      -0.420   2.142   2.033  0.00  0.00     0.055 A 
ATOM      6  C5  BZF d   1      -0.967   3.288   1.549  0.00  0.00    -0.016 A 
ATOM      7  C6  BZF d   1      -1.153   3.489   0.197  0.00  0.00     0.022 A 
ATOM      8  C7  BZF d   1      -0.806   2.544  -0.710  0.00  0.00     0.029 A 
ATOM      9  C7A BZF d   1      -0.283   1.371  -0.222  0.00  0.00     0.058 A 
ENDROOT
TORSDOF 0
ENDMDL
