MODEL 1
REMARK minimizedAffinity -4.13353586
REMARK minimizedRMSD -1
REMARK  0 active torsions:
REMARK  status: ('A' for Active; 'I' for Inactive)
ROOT
ATOM      1  O1  BZF d   1      -0.613   1.850   2.266  0.00  0.00    -0.204 OA
ATOM      2  C2  BZF d   1      -1.305   2.893   1.682  0.00  0.00     0.174 A 
ATOM      3  C3  BZF d   1      -1.182   2.856   0.340  0.00  0.00    -0.012 A 
ATOM      4  C3A BZF d   1      -0.438   1.666   0.062  0.00  0.00    -0.107 A 
ATOM      5  C4  BZF d   1      -0.009   1.074  -1.091  0.00  0.00     0.055 A 
ATOM      6  C5  BZF d   1       0.758  -0.045  -1.014  0.00  0.00    -0.016 A 
ATOM      7  C6  BZF d   1       1.118  -0.596   0.199  0.00  0.00     0.022 A 
ATOM      8  C7  BZF d   1       0.713  -0.047   1.370  0.00  0.00     0.029 A 
ATOM      9  C7A BZF d   1      -0.090   1.065   1.294  0.00  0.00     0.058 A 
ENDROOT
TORSDOF 0
ENDMDL
