MODEL 1
REMARK minimizedAffinity -2.7540226
REMARK minimizedRMSD -1
REMARK  0 active torsions:
REMARK  status: ('A' for Active; 'I' for Inactive)
ROOT
ATOM      1  O1  BZF d   1       0.200  -1.005   0.037  0.00  0.00    -0.204 OA
ATOM      2  C2  BZF d   1       0.253  -0.007  -0.918  0.00  0.00     0.174 A 
ATOM      3  C3  BZF d   1       0.305  -0.534  -2.158  0.00  0.00    -0.012 A 
ATOM      4  C3A BZF d   1       0.190  -1.948  -1.971  0.00  0.00    -0.107 A 
ATOM      5  C4  BZF d   1       0.161  -3.010  -2.830  0.00  0.00     0.055 A 
ATOM      6  C5  BZF d   1       0.114  -4.269  -2.322  0.00  0.00    -0.016 A 
ATOM      7  C6  BZF d   1       0.099  -4.504  -0.963  0.00  0.00     0.022 A 
ATOM      8  C7  BZF d   1       0.122  -3.483  -0.072  0.00  0.00     0.029 A 
ATOM      9  C7A BZF d   1       0.136  -2.208  -0.582  0.00  0.00     0.058 A 
ENDROOT
TORSDOF 0
ENDMDL
