MODEL 1
REMARK minimizedAffinity -3.74916291
REMARK minimizedRMSD -1
REMARK  0 active torsions:
REMARK  status: ('A' for Active; 'I' for Inactive)
ROOT
ATOM      1  O1  BZF d   1      -0.196   0.201  -0.741  0.00  0.00    -0.204 OA
ATOM      2  C2  BZF d   1       0.302  -0.709   0.171  0.00  0.00     0.174 A 
ATOM      3  C3  BZF d   1       0.274  -0.200   1.420  0.00  0.00    -0.012 A 
ATOM      4  C3A BZF d   1      -0.362   1.076   1.291  0.00  0.00    -0.107 A 
ATOM      5  C4  BZF d   1      -0.694   2.054   2.185  0.00  0.00     0.055 A 
ATOM      6  C5  BZF d   1      -1.240   3.210   1.725  0.00  0.00    -0.016 A 
ATOM      7  C6  BZF d   1      -1.463   3.424   0.381  0.00  0.00     0.022 A 
ATOM      8  C7  BZF d   1      -1.156   2.481  -0.543  0.00  0.00     0.029 A 
ATOM      9  C7A BZF d   1      -0.634   1.298  -0.079  0.00  0.00     0.058 A 
ENDROOT
TORSDOF 0
ENDMDL
