MODEL 1
REMARK minimizedAffinity -0.516626596
REMARK minimizedRMSD -1
REMARK  0 active torsions:
REMARK  status: ('A' for Active; 'I' for Inactive)
ROOT
ATOM      1  O1  BZF d   1       0.174   1.958   0.503  0.00  0.00    -0.204 OA
ATOM      2  C2  BZF d   1       0.013   1.449   1.777  0.00  0.00     0.174 A 
ATOM      3  C3  BZF d   1      -0.131   0.108   1.742  0.00  0.00    -0.012 A 
ATOM      4  C3A BZF d   1       0.038  -0.252   0.368  0.00  0.00    -0.107 A 
ATOM      5  C4  BZF d   1       0.022  -1.444  -0.299  0.00  0.00     0.055 A 
ATOM      6  C5  BZF d   1       0.147  -1.446  -1.652  0.00  0.00    -0.016 A 
ATOM      7  C6  BZF d   1       0.283  -0.276  -2.370  0.00  0.00     0.022 A 
ATOM      8  C7  BZF d   1       0.310   0.930  -1.753  0.00  0.00     0.029 A 
ATOM      9  C7A BZF d   1       0.217   0.933  -0.382  0.00  0.00     0.058 A 
ENDROOT
TORSDOF 0
ENDMDL
