MODEL 1
REMARK minimizedAffinity 12.0418787
REMARK minimizedRMSD -1
REMARK  1 active torsions:
REMARK  status: ('A' for Active; 'I' for Inactive)
REMARK    1  A    between atoms: C1_2  and  C2_3 
ROOT
ATOM      1  C2  UNL d   1       3.671   0.563  -0.714  0.00  0.00    -0.081 A 
ATOM      2  C3  UNL d   1       2.967  -0.166   0.252  0.00  0.00     0.006 A 
ATOM      3  C4  UNL d   1       2.266  -1.321  -0.103  0.00  0.00     0.002 A 
ATOM      4  C5  UNL d   1       2.263  -1.771  -1.427  0.00  0.00    -0.080 A 
ATOM      5  C6  UNL d   1       1.540  -3.025  -1.816  0.00  0.00     0.076 C 
ATOM      6  C7  UNL d   1       2.952  -1.033  -2.396  0.00  0.00     0.002 A 
ATOM      7  C8  UNL d   1       3.653   0.122  -2.042  0.00  0.00     0.006 A 
ENDROOT
BRANCH   1   8
ATOM      8  C1  UNL d   1       4.481   1.772  -0.323  0.00  0.00     0.054 C 
ATOM      9  C   UNL d   1       5.912   1.390   0.026  0.00  0.00     0.018 C 
ENDBRANCH   1   8
TORSDOF 1
ENDMDL
