MODEL 1
REMARK minimizedAffinity -0.0773599073
REMARK minimizedRMSD -1
REMARK  1 active torsions:
REMARK  status: ('A' for Active; 'I' for Inactive)
REMARK    1  A    between atoms: C1_2  and  C2_3 
ROOT
ATOM      1  C2  UNL d   1       0.070  -1.742   5.180  0.00  0.00    -0.081 A 
ATOM      2  C3  UNL d   1       1.226  -2.471   4.877  0.00  0.00     0.006 A 
ATOM      3  C4  UNL d   1       1.281  -3.845   5.122  0.00  0.00     0.002 A 
ATOM      4  C5  UNL d   1       0.179  -4.514   5.665  0.00  0.00    -0.080 A 
ATOM      5  C6  UNL d   1       0.214  -5.994   5.904  0.00  0.00     0.076 C 
ATOM      6  C7  UNL d   1      -0.970  -3.783   5.983  0.00  0.00     0.002 A 
ATOM      7  C8  UNL d   1      -1.025  -2.409   5.740  0.00  0.00     0.006 A 
ENDROOT
BRANCH   1   8
ATOM      8  C1  UNL d   1      -0.016  -0.272   4.858  0.00  0.00     0.054 C 
ATOM      9  C   UNL d   1       0.760   0.562   5.868  0.00  0.00     0.018 C 
ENDBRANCH   1   8
TORSDOF 1
ENDMDL
