MODEL 1
REMARK minimizedAffinity -2.87058449
REMARK minimizedRMSD -1
REMARK  1 active torsions:
REMARK  status: ('A' for Active; 'I' for Inactive)
REMARK    1  A    between atoms: C1_2  and  C2_3 
ROOT
ATOM      1  C2  UNL d   1      -4.794   5.959   3.985  0.00  0.00    -0.081 A 
ATOM      2  C3  UNL d   1      -5.944   5.975   3.186  0.00  0.00     0.006 A 
ATOM      3  C4  UNL d   1      -5.838   5.998   1.793  0.00  0.00     0.002 A 
ATOM      4  C5  UNL d   1      -4.582   5.998   1.177  0.00  0.00    -0.080 A 
ATOM      5  C6  UNL d   1      -4.455   5.991  -0.318  0.00  0.00     0.076 C 
ATOM      6  C7  UNL d   1      -3.434   6.000   1.975  0.00  0.00     0.002 A 
ATOM      7  C8  UNL d   1      -3.539   5.978   3.368  0.00  0.00     0.006 A 
ENDROOT
BRANCH   1   8
ATOM      8  C1  UNL d   1      -4.905   5.869   5.486  0.00  0.00     0.054 C 
ATOM      9  C   UNL d   1      -5.963   4.858   5.903  0.00  0.00     0.018 C 
ENDBRANCH   1   8
TORSDOF 1
ENDMDL
