MODEL 1
REMARK minimizedAffinity 1.57898653
REMARK minimizedRMSD -1
REMARK  1 active torsions:
REMARK  status: ('A' for Active; 'I' for Inactive)
REMARK    1  A    between atoms: C1_2  and  C2_3 
ROOT
ATOM      1  C2  UNL d   1      -4.314   5.621   1.764  0.00  0.00    -0.081 A 
ATOM      2  C3  UNL d   1      -3.330   5.866   2.729  0.00  0.00     0.006 A 
ATOM      3  C4  UNL d   1      -3.676   5.999   4.076  0.00  0.00     0.002 A 
ATOM      4  C5  UNL d   1      -5.010   5.883   4.480  0.00  0.00    -0.080 A 
ATOM      5  C6  UNL d   1      -5.392   5.994   5.927  0.00  0.00     0.076 C 
ATOM      6  C7  UNL d   1      -5.996   5.656   3.514  0.00  0.00     0.002 A 
ATOM      7  C8  UNL d   1      -5.651   5.523   2.167  0.00  0.00     0.006 A 
ENDROOT
BRANCH   1   8
ATOM      8  C1  UNL d   1      -3.937   5.413   0.319  0.00  0.00     0.054 C 
ATOM      9  C   UNL d   1      -4.824   4.366  -0.339  0.00  0.00     0.018 C 
ENDBRANCH   1   8
TORSDOF 1
ENDMDL
