MODEL 1
REMARK minimizedAffinity 5.31153202
REMARK minimizedRMSD -1
REMARK  1 active torsions:
REMARK  status: ('A' for Active; 'I' for Inactive)
REMARK    1  A    between atoms: C1_2  and  C2_3 
ROOT
ATOM      1  C2  UNL d   1      -3.289   2.388  -3.387  0.00  0.00    -0.081 A 
ATOM      2  C3  UNL d   1      -2.796   1.143  -3.799  0.00  0.00     0.006 A 
ATOM      3  C4  UNL d   1      -3.671   0.142  -4.228  0.00  0.00     0.002 A 
ATOM      4  C5  UNL d   1      -5.051   0.370  -4.259  0.00  0.00    -0.080 A 
ATOM      5  C6  UNL d   1      -5.998  -0.685  -4.745  0.00  0.00     0.076 C 
ATOM      6  C7  UNL d   1      -5.544   1.607  -3.831  0.00  0.00     0.002 A 
ATOM      7  C8  UNL d   1      -4.670   2.609  -3.401  0.00  0.00     0.006 A 
ENDROOT
BRANCH   1   8
ATOM      8  C1  UNL d   1      -2.344   3.491  -2.986  0.00  0.00     0.054 C 
ATOM      9  C   UNL d   1      -2.277   4.577  -4.051  0.00  0.00     0.018 C 
ENDBRANCH   1   8
TORSDOF 1
ENDMDL
