MODEL 1
REMARK minimizedAffinity 6.35118866
REMARK minimizedRMSD -1
REMARK  2 active torsions:
REMARK  status: ('A' for Active; 'I' for Inactive)
REMARK    1  A    between atoms: C2'_3  and  C1'_4 
REMARK    2  A    between atoms: C1'_4  and  C1_5 
ROOT
ATOM      1  C1  I4B d   1       1.842   0.846   0.185  0.00  0.00    -0.075 A 
ATOM      2  C2  I4B d   1       1.582   1.250   1.471  0.00  0.00     0.003 A 
ATOM      3  C3  I4B d   1       0.322   1.805   1.803  0.00  0.00     0.002 A 
ATOM      4  C4  I4B d   1      -0.624   1.983   0.814  0.00  0.00    -0.004 A 
ATOM      5  C5  I4B d   1      -0.367   1.551  -0.484  0.00  0.00     0.002 A 
ATOM      6  C6  I4B d   1       0.869   0.968  -0.799  0.00  0.00     0.003 A 
ENDROOT
BRANCH   1   7
ATOM      7  C1' I4B d   1       3.194   0.295  -0.138  0.00  0.00     0.060 C 
BRANCH   7   8
ATOM      8  C2' I4B d   1       4.161   1.457  -0.237  0.00  0.00    -0.013 C 
ATOM      9  C4' I4B d   1       5.438   1.169   0.507  0.00  0.00     0.013 C 
ATOM     10  C3' I4B d   1       4.427   1.716  -1.690  0.00  0.00     0.013 C 
ENDBRANCH   7   8
ENDBRANCH   1   7
TORSDOF 2
ENDMDL
