MODEL 1
REMARK minimizedAffinity 10.9262419
REMARK minimizedRMSD -1
REMARK  2 active torsions:
REMARK  status: ('A' for Active; 'I' for Inactive)
REMARK    1  A    between atoms: C2'_3  and  C1'_4 
REMARK    2  A    between atoms: C1'_4  and  C1_5 
ROOT
ATOM      1  C1  I4B d   1       3.027   1.167   3.603  0.00  0.00    -0.075 A 
ATOM      2  C2  I4B d   1       2.620   0.741   4.842  0.00  0.00     0.003 A 
ATOM      3  C3  I4B d   1       3.343   1.117   6.000  0.00  0.00     0.002 A 
ATOM      4  C4  I4B d   1       4.490   1.874   5.868  0.00  0.00    -0.004 A 
ATOM      5  C5  I4B d   1       4.889   2.324   4.613  0.00  0.00     0.002 A 
ATOM      6  C6  I4B d   1       4.147   1.979   3.474  0.00  0.00     0.003 A 
ENDROOT
BRANCH   1   7
ATOM      7  C1' I4B d   1       2.259   0.724   2.399  0.00  0.00     0.060 C 
BRANCH   7   8
ATOM      8  C2' I4B d   1       0.851   0.383   2.844  0.00  0.00    -0.013 C 
ATOM      9  C4' I4B d   1      -0.170   0.901   1.865  0.00  0.00     0.013 C 
ATOM     10  C3' I4B d   1       0.757  -1.107   2.985  0.00  0.00     0.013 C 
ENDBRANCH   7   8
ENDBRANCH   1   7
TORSDOF 2
ENDMDL
