MODEL 1
REMARK minimizedAffinity 6.84528828
REMARK minimizedRMSD -1
REMARK  2 active torsions:
REMARK  status: ('A' for Active; 'I' for Inactive)
REMARK    1  A    between atoms: C2'_3  and  C1'_4 
REMARK    2  A    between atoms: C1'_4  and  C1_5 
ROOT
ATOM      1  C1  I4B d   1       4.777   1.073  -0.934  0.00  0.00    -0.075 A 
ATOM      2  C2  I4B d   1       5.188   0.964   0.371  0.00  0.00     0.003 A 
ATOM      3  C3  I4B d   1       5.787   2.069   1.024  0.00  0.00     0.002 A 
ATOM      4  C4  I4B d   1       6.000   3.239   0.324  0.00  0.00    -0.004 A 
ATOM      5  C5  I4B d   1       5.561   3.355  -0.992  0.00  0.00     0.002 A 
ATOM      6  C6  I4B d   1       4.935   2.269  -1.622  0.00  0.00     0.003 A 
ENDROOT
BRANCH   1   7
ATOM      7  C1' I4B d   1       4.178  -0.123  -1.603  0.00  0.00     0.060 C 
BRANCH   7   8
ATOM      8  C2' I4B d   1       3.152  -0.720  -0.661  0.00  0.00    -0.013 C 
ATOM      9  C4' I4B d   1       1.976   0.203  -0.481  0.00  0.00     0.013 C 
ATOM     10  C3' I4B d   1       2.722  -2.042  -1.223  0.00  0.00     0.013 C 
ENDBRANCH   7   8
ENDBRANCH   1   7
TORSDOF 2
ENDMDL
