MODEL 1
REMARK minimizedAffinity 4.47776222
REMARK minimizedRMSD -1
REMARK  2 active torsions:
REMARK  status: ('A' for Active; 'I' for Inactive)
REMARK    1  A    between atoms: C2'_3  and  C1'_4 
REMARK    2  A    between atoms: C1'_4  and  C1_5 
ROOT
ATOM      1  C1  I4B d   1       2.391  -2.223  -0.463  0.00  0.00    -0.075 A 
ATOM      2  C2  I4B d   1       1.870  -2.978   0.558  0.00  0.00     0.003 A 
ATOM      3  C3  I4B d   1       0.689  -3.733   0.355  0.00  0.00     0.002 A 
ATOM      4  C4  I4B d   1       0.039  -3.664  -0.861  0.00  0.00    -0.004 A 
ATOM      5  C5  I4B d   1       0.581  -2.915  -1.901  0.00  0.00     0.002 A 
ATOM      6  C6  I4B d   1       1.772  -2.200  -1.706  0.00  0.00     0.003 A 
ENDROOT
BRANCH   1   7
ATOM      7  C1' I4B d   1       3.621  -1.412  -0.204  0.00  0.00     0.060 C 
BRANCH   7   8
ATOM      8  C2' I4B d   1       3.369  -0.006  -0.710  0.00  0.00    -0.013 C 
ATOM      9  C4' I4B d   1       2.594   0.804   0.296  0.00  0.00     0.013 C 
ATOM     10  C3' I4B d   1       4.697   0.625  -1.005  0.00  0.00     0.013 C 
ENDBRANCH   7   8
ENDBRANCH   1   7
TORSDOF 2
ENDMDL
