MODEL 1
REMARK minimizedAffinity 15.9824991
REMARK minimizedRMSD -1
REMARK  3 active torsions:
REMARK  status: ('A' for Active; 'I' for Inactive)
REMARK    1  A    between atoms: C3'_2  and  C2'_3 
REMARK    2  A    between atoms: C2'_3  and  C1'_4 
REMARK    3  A    between atoms: C1'_4  and  C1_5 
ROOT
ATOM      1  C1  N4B d   1      -3.837  -3.068   4.029  0.00  0.00    -0.075 A 
ATOM      2  C2  N4B d   1      -4.761  -4.073   4.392  0.00  0.00     0.002 A 
ATOM      3  C3  N4B d   1      -5.770  -4.422   3.529  0.00  0.00     0.002 A 
ATOM      4  C4  N4B d   1      -5.886  -3.771   2.310  0.00  0.00    -0.004 A 
ATOM      5  C5  N4B d   1      -4.974  -2.820   1.955  0.00  0.00     0.002 A 
ATOM      6  C6  N4B d   1      -3.953  -2.461   2.812  0.00  0.00     0.002 A 
ENDROOT
BRANCH   1   7
ATOM      7  C1' N4B d   1      -2.769  -2.592   4.975  0.00  0.00     0.057 C 
BRANCH   7   8
ATOM      8  C2' N4B d   1      -1.414  -2.663   4.277  0.00  0.00     0.009 C 
BRANCH   8   9
ATOM      9  C3' N4B d   1      -0.758  -4.023   4.445  0.00  0.00     0.004 C 
ATOM     10  C4' N4B d   1      -0.179  -4.223   5.813  0.00  0.00     0.003 C 
ENDBRANCH   8   9
ENDBRANCH   7   8
ENDBRANCH   1   7
TORSDOF 3
ENDMDL
