MODEL 1
REMARK minimizedAffinity 17.5758247
REMARK minimizedRMSD -1
REMARK  3 active torsions:
REMARK  status: ('A' for Active; 'I' for Inactive)
REMARK    1  A    between atoms: C3'_2  and  C2'_3 
REMARK    2  A    between atoms: C2'_3  and  C1'_4 
REMARK    3  A    between atoms: C1'_4  and  C1_5 
ROOT
ATOM      1  C1  N4B d   1       0.388   3.133  -1.139  0.00  0.00    -0.075 A 
ATOM      2  C2  N4B d   1       1.000   2.548  -0.009  0.00  0.00     0.002 A 
ATOM      3  C3  N4B d   1       0.238   1.861   0.905  0.00  0.00     0.002 A 
ATOM      4  C4  N4B d   1      -1.133   1.764   0.720  0.00  0.00    -0.004 A 
ATOM      5  C5  N4B d   1      -1.712   2.311  -0.387  0.00  0.00     0.002 A 
ATOM      6  C6  N4B d   1      -0.959   3.000  -1.316  0.00  0.00     0.002 A 
ENDROOT
BRANCH   1   7
ATOM      7  C1' N4B d   1       1.166   3.967  -2.121  0.00  0.00     0.057 C 
BRANCH   7   8
ATOM      8  C2' N4B d   1       0.210   4.531  -3.167  0.00  0.00     0.009 C 
BRANCH   8   9
ATOM      9  C3' N4B d   1       0.660   5.891  -3.673  0.00  0.00     0.004 C 
ATOM     10  C4' N4B d   1       2.150   5.997  -3.806  0.00  0.00     0.003 C 
ENDBRANCH   8   9
ENDBRANCH   7   8
ENDBRANCH   1   7
TORSDOF 3
ENDMDL
