MODEL 1
REMARK minimizedAffinity 6.61892796
REMARK minimizedRMSD -1
REMARK  3 active torsions:
REMARK  status: ('A' for Active; 'I' for Inactive)
REMARK    1  A    between atoms: C3'_2  and  C2'_3 
REMARK    2  A    between atoms: C2'_3  and  C1'_4 
REMARK    3  A    between atoms: C1'_4  and  C1_5 
ROOT
ATOM      1  C1  N4B d   1      -0.826   3.573   0.474  0.00  0.00    -0.075 A 
ATOM      2  C2  N4B d   1      -2.084   4.016   0.939  0.00  0.00     0.002 A 
ATOM      3  C3  N4B d   1      -2.891   3.164   1.652  0.00  0.00     0.002 A 
ATOM      4  C4  N4B d   1      -2.470   1.865   1.897  0.00  0.00    -0.004 A 
ATOM      5  C5  N4B d   1      -1.243   1.453   1.467  0.00  0.00     0.002 A 
ATOM      6  C6  N4B d   1      -0.420   2.300   0.752  0.00  0.00     0.002 A 
ENDROOT
BRANCH   1   7
ATOM      7  C1' N4B d   1       0.054   4.441  -0.384  0.00  0.00     0.057 C 
BRANCH   7   8
ATOM      8  C2' N4B d   1      -0.045   3.976  -1.833  0.00  0.00     0.009 C 
BRANCH   8   9
ATOM      9  C3' N4B d   1      -1.440   4.175  -2.400  0.00  0.00     0.004 C 
ATOM     10  C4' N4B d   1      -1.544   3.775  -3.842  0.00  0.00     0.003 C 
ENDBRANCH   8   9
ENDBRANCH   7   8
ENDBRANCH   1   7
TORSDOF 3
ENDMDL
