MODEL 1
REMARK minimizedAffinity 4.10417128
REMARK minimizedRMSD -1
REMARK  3 active torsions:
REMARK  status: ('A' for Active; 'I' for Inactive)
REMARK    1  A    between atoms: C3'_2  and  C2'_3 
REMARK    2  A    between atoms: C2'_3  and  C1'_4 
REMARK    3  A    between atoms: C1'_4  and  C1_5 
ROOT
ATOM      1  C1  N4B d   1      -0.734   2.845  -0.167  0.00  0.00    -0.075 A 
ATOM      2  C2  N4B d   1      -1.014   2.813  -1.551  0.00  0.00     0.002 A 
ATOM      3  C3  N4B d   1      -0.646   3.868  -2.350  0.00  0.00     0.002 A 
ATOM      4  C4  N4B d   1      -0.016   4.968  -1.787  0.00  0.00    -0.004 A 
ATOM      5  C5  N4B d   1       0.273   4.980  -0.454  0.00  0.00     0.002 A 
ATOM      6  C6  N4B d   1      -0.088   3.925   0.360  0.00  0.00     0.002 A 
ENDROOT
BRANCH   1   7
ATOM      7  C1' N4B d   1      -1.194   1.754   0.761  0.00  0.00     0.057 C 
BRANCH   7   8
ATOM      8  C2' N4B d   1      -0.078   1.438   1.753  0.00  0.00     0.009 C 
BRANCH   8   9
ATOM      9  C3' N4B d   1      -0.622   1.079   3.125  0.00  0.00     0.004 C 
ATOM     10  C4' N4B d   1       0.423   1.140   4.198  0.00  0.00     0.003 C 
ENDBRANCH   8   9
ENDBRANCH   7   8
ENDBRANCH   1   7
TORSDOF 3
ENDMDL
