MODEL 1
REMARK minimizedAffinity 1.8313334
REMARK minimizedRMSD -1
REMARK  3 active torsions:
REMARK  status: ('A' for Active; 'I' for Inactive)
REMARK    1  A    between atoms: C3'_2  and  C2'_3 
REMARK    2  A    between atoms: C2'_3  and  C1'_4 
REMARK    3  A    between atoms: C1'_4  and  C1_5 
ROOT
ATOM      1  C1  N4B d   1      -0.357   3.642  -1.670  0.00  0.00    -0.075 A 
ATOM      2  C2  N4B d   1      -0.406   2.502  -0.838  0.00  0.00     0.002 A 
ATOM      3  C3  N4B d   1      -0.232   2.633   0.518  0.00  0.00     0.002 A 
ATOM      4  C4  N4B d   1       0.009   3.886   1.060  0.00  0.00    -0.004 A 
ATOM      5  C5  N4B d   1       0.029   4.986   0.253  0.00  0.00     0.002 A 
ATOM      6  C6  N4B d   1      -0.148   4.870  -1.111  0.00  0.00     0.002 A 
ENDROOT
BRANCH   1   7
ATOM      7  C1' N4B d   1      -0.456   3.538  -3.167  0.00  0.00     0.057 C 
BRANCH   7   8
ATOM      8  C2' N4B d   1      -1.239   2.280  -3.531  0.00  0.00     0.009 C 
BRANCH   8   9
ATOM      9  C3' N4B d   1      -2.659   2.318  -2.991  0.00  0.00     0.004 C 
ATOM     10  C4' N4B d   1      -3.074   1.024  -2.358  0.00  0.00     0.003 C 
ENDBRANCH   8   9
ENDBRANCH   7   8
ENDBRANCH   1   7
TORSDOF 3
ENDMDL
