MODEL 1
REMARK minimizedAffinity 17.3408813
REMARK minimizedRMSD -1
REMARK  3 active torsions:
REMARK  status: ('A' for Active; 'I' for Inactive)
REMARK    1  A    between atoms: C3'_2  and  C2'_3 
REMARK    2  A    between atoms: C2'_3  and  C1'_4 
REMARK    3  A    between atoms: C1'_4  and  C1_5 
ROOT
ATOM      1  C1  N4B d   1       1.082  -2.565   1.754  0.00  0.00    -0.075 A 
ATOM      2  C2  N4B d   1       0.873  -1.355   2.453  0.00  0.00     0.002 A 
ATOM      3  C3  N4B d   1       0.061  -1.334   3.560  0.00  0.00     0.002 A 
ATOM      4  C4  N4B d   1      -0.565  -2.500   3.975  0.00  0.00    -0.004 A 
ATOM      5  C5  N4B d   1      -0.337  -3.669   3.309  0.00  0.00     0.002 A 
ATOM      6  C6  N4B d   1       0.480  -3.706   2.197  0.00  0.00     0.002 A 
ENDROOT
BRANCH   1   7
ATOM      7  C1' N4B d   1       1.893  -2.621   0.488  0.00  0.00     0.057 C 
BRANCH   7   8
ATOM      8  C2' N4B d   1       1.114  -3.394  -0.571  0.00  0.00     0.009 C 
BRANCH   8   9
ATOM      9  C3' N4B d   1       2.001  -3.824  -1.727  0.00  0.00     0.004 C 
ATOM     10  C4' N4B d   1       1.941  -5.300  -1.988  0.00  0.00     0.003 C 
ENDBRANCH   8   9
ENDBRANCH   7   8
ENDBRANCH   1   7
TORSDOF 3
ENDMDL
