MODEL 1
REMARK minimizedAffinity -1.05530596
REMARK minimizedRMSD -1
REMARK  1 active torsions:
REMARK  status: ('A' for Active; 'I' for Inactive)
REMARK    1  A    between atoms: C3_4  and  O_7 
ROOT
ATOM      1  C   UNL d   1      -0.355   1.550   1.049  0.00  0.00    -0.033 A 
ATOM      2  C1  UNL d   1       0.784   1.692   1.845  0.00  0.00     0.039 A 
ATOM      3  C2  UNL d   1       1.785   0.719   1.814  0.00  0.00    -0.080 A 
ATOM      4  C3  UNL d   1       1.636  -0.388   0.983  0.00  0.00     0.150 A 
ATOM      5  C4  UNL d   1       0.506  -0.533   0.184  0.00  0.00    -0.007 A 
ATOM      6  C5  UNL d   1      -0.493   0.439   0.218  0.00  0.00     0.039 A 
ENDROOT
BRANCH   4   7
ATOM      7  O   UNL d   1       2.584  -1.366   0.922  0.00  0.00    -0.526 OA
ATOM      8  H5  UNL d   1       3.293  -1.146   1.548  0.00  0.00     0.418 HD
ENDBRANCH   4   7
TORSDOF 1
ENDMDL
