MODEL 1
REMARK minimizedAffinity -2.92962646
REMARK minimizedRMSD -1
REMARK  1 active torsions:
REMARK  status: ('A' for Active; 'I' for Inactive)
REMARK    1  A    between atoms: C3_4  and  O_7 
ROOT
ATOM      1  C   UNL d   1       2.598   0.850  -3.388  0.00  0.00    -0.033 A 
ATOM      2  C1  UNL d   1       1.572   0.035  -2.908  0.00  0.00     0.039 A 
ATOM      3  C2  UNL d   1       0.343  -0.006  -3.569  0.00  0.00    -0.080 A 
ATOM      4  C3  UNL d   1       0.154   0.771  -4.709  0.00  0.00     0.150 A 
ATOM      5  C4  UNL d   1       1.173   1.583  -5.195  0.00  0.00    -0.007 A 
ATOM      6  C5  UNL d   1       2.400   1.623  -4.533  0.00  0.00     0.039 A 
ENDROOT
BRANCH   4   7
ATOM      7  O   UNL d   1      -1.030   0.768  -5.385  0.00  0.00    -0.526 OA
ATOM      8  H5  UNL d   1      -1.649   0.183  -4.918  0.00  0.00     0.418 HD
ENDBRANCH   4   7
TORSDOF 1
ENDMDL
