MODEL 1
REMARK minimizedAffinity -3.21404314
REMARK minimizedRMSD -1
REMARK  1 active torsions:
REMARK  status: ('A' for Active; 'I' for Inactive)
REMARK    1  A    between atoms: C3_4  and  O_7 
ROOT
ATOM      1  C   UNL d   1       1.081  -0.532   0.635  0.00  0.00    -0.033 A 
ATOM      2  C1  UNL d   1      -0.102  -0.041   0.081  0.00  0.00     0.039 A 
ATOM      3  C2  UNL d   1      -0.857   0.909   0.772  0.00  0.00    -0.080 A 
ATOM      4  C3  UNL d   1      -0.417   1.358   2.014  0.00  0.00     0.150 A 
ATOM      5  C4  UNL d   1       0.763   0.876   2.570  0.00  0.00    -0.007 A 
ATOM      6  C5  UNL d   1       1.515  -0.073   1.879  0.00  0.00     0.039 A 
ENDROOT
BRANCH   4   7
ATOM      7  O   UNL d   1      -1.123   2.281   2.729  0.00  0.00    -0.526 OA
ATOM      8  H5  UNL d   1      -1.930   2.502   2.234  0.00  0.00     0.418 HD
ENDBRANCH   4   7
TORSDOF 1
ENDMDL
