MODEL 1
REMARK minimizedAffinity -2.53621697
REMARK minimizedRMSD -1
REMARK  1 active torsions:
REMARK  status: ('A' for Active; 'I' for Inactive)
REMARK    1  A    between atoms: C3_4  and  O_7 
ROOT
ATOM      1  C   UNL d   1       0.777   0.106  -0.086  0.00  0.00    -0.033 A 
ATOM      2  C1  UNL d   1       0.694   0.748   1.151  0.00  0.00     0.039 A 
ATOM      3  C2  UNL d   1      -0.512   0.759   1.854  0.00  0.00    -0.080 A 
ATOM      4  C3  UNL d   1      -1.625   0.125   1.311  0.00  0.00     0.150 A 
ATOM      5  C4  UNL d   1      -1.549  -0.520   0.080  0.00  0.00    -0.007 A 
ATOM      6  C5  UNL d   1      -0.344  -0.529  -0.621  0.00  0.00     0.039 A 
ENDROOT
BRANCH   4   7
ATOM      7  O   UNL d   1      -2.825   0.113   1.958  0.00  0.00    -0.526 OA
ATOM      8  H5  UNL d   1      -2.736   0.621   2.781  0.00  0.00     0.418 HD
ENDBRANCH   4   7
TORSDOF 1
ENDMDL
