MODEL 1
REMARK minimizedAffinity -4.61303329
REMARK minimizedRMSD -1
REMARK  1 active torsions:
REMARK  status: ('A' for Active; 'I' for Inactive)
REMARK    1  A    between atoms: C3_4  and  O_7 
ROOT
ATOM      1  C   UNL d   1      -1.290   1.242   3.134  0.00  0.00    -0.033 A 
ATOM      2  C1  UNL d   1      -2.015   0.192   2.568  0.00  0.00     0.039 A 
ATOM      3  C2  UNL d   1      -1.623  -0.348   1.341  0.00  0.00    -0.080 A 
ATOM      4  C3  UNL d   1      -0.505   0.170   0.693  0.00  0.00     0.150 A 
ATOM      5  C4  UNL d   1       0.224   1.213   1.253  0.00  0.00    -0.007 A 
ATOM      6  C5  UNL d   1      -0.169   1.752   2.477  0.00  0.00     0.039 A 
ENDROOT
BRANCH   4   7
ATOM      7  O   UNL d   1      -0.087  -0.322  -0.508  0.00  0.00    -0.526 OA
ATOM      8  H5  UNL d   1      -0.704  -1.019  -0.787  0.00  0.00     0.418 HD
ENDBRANCH   4   7
TORSDOF 1
ENDMDL
