MODEL 1
REMARK minimizedAffinity -3.95238662
REMARK minimizedRMSD -1
REMARK  1 active torsions:
REMARK  status: ('A' for Active; 'I' for Inactive)
REMARK    1  A    between atoms: C3_4  and  O_7 
ROOT
ATOM      1  C   UNL d   1       1.059   0.185   0.232  0.00  0.00    -0.033 A 
ATOM      2  C1  UNL d   1      -0.330   0.256   0.104  0.00  0.00     0.039 A 
ATOM      3  C2  UNL d   1      -1.087   0.936   1.060  0.00  0.00    -0.080 A 
ATOM      4  C3  UNL d   1      -0.444   1.541   2.137  0.00  0.00     0.150 A 
ATOM      5  C4  UNL d   1       0.939   1.478   2.268  0.00  0.00    -0.007 A 
ATOM      6  C5  UNL d   1       1.693   0.798   1.313  0.00  0.00     0.039 A 
ENDROOT
BRANCH   4   7
ATOM      7  O   UNL d   1      -1.142   2.212   3.097  0.00  0.00    -0.526 OA
ATOM      8  H5  UNL d   1      -2.089   2.148   2.890  0.00  0.00     0.418 HD
ENDBRANCH   4   7
TORSDOF 1
ENDMDL
