MODEL 1
REMARK minimizedAffinity -1.53563356
REMARK minimizedRMSD -1
REMARK  1 active torsions:
REMARK  status: ('A' for Active; 'I' for Inactive)
REMARK    1  A    between atoms: C3_4  and  O_7 
ROOT
ATOM      1  C   UNL d   1       0.650   1.506   1.285  0.00  0.00    -0.033 A 
ATOM      2  C1  UNL d   1       0.654   0.209   1.800  0.00  0.00     0.039 A 
ATOM      3  C2  UNL d   1       0.119  -0.843   1.052  0.00  0.00    -0.080 A 
ATOM      4  C3  UNL d   1      -0.414  -0.583  -0.207  0.00  0.00     0.150 A 
ATOM      5  C4  UNL d   1      -0.418   0.707  -0.728  0.00  0.00    -0.007 A 
ATOM      6  C5  UNL d   1       0.116   1.755   0.020  0.00  0.00     0.039 A 
ENDROOT
BRANCH   4   7
ATOM      7  O   UNL d   1      -0.952  -1.576  -0.972  0.00  0.00    -0.526 OA
ATOM      8  H5  UNL d   1      -0.906  -2.408  -0.472  0.00  0.00     0.418 HD
ENDBRANCH   4   7
TORSDOF 1
ENDMDL
