MODEL 1
REMARK minimizedAffinity -1.07432044
REMARK minimizedRMSD -1
REMARK  1 active torsions:
REMARK  status: ('A' for Active; 'I' for Inactive)
REMARK    1  A    between atoms: C3_4  and  O_7 
ROOT
ATOM      1  C   UNL d   1      -0.414  -1.861  -3.020  0.00  0.00    -0.033 A 
ATOM      2  C1  UNL d   1      -1.210  -2.352  -1.983  0.00  0.00     0.039 A 
ATOM      3  C2  UNL d   1      -0.981  -1.940  -0.669  0.00  0.00    -0.080 A 
ATOM      4  C3  UNL d   1       0.046  -1.037  -0.405  0.00  0.00     0.150 A 
ATOM      5  C4  UNL d   1       0.840  -0.541  -1.433  0.00  0.00    -0.007 A 
ATOM      6  C5  UNL d   1       0.610  -0.954  -2.745  0.00  0.00     0.039 A 
ENDROOT
BRANCH   4   7
ATOM      7  O   UNL d   1       0.310  -0.610   0.862  0.00  0.00    -0.526 OA
ATOM      8  H5  UNL d   1      -0.299  -1.058   1.472  0.00  0.00     0.418 HD
ENDBRANCH   4   7
TORSDOF 1
ENDMDL
