MODEL 1
REMARK minimizedAffinity -3.23948979
REMARK minimizedRMSD -1
REMARK  1 active torsions:
REMARK  status: ('A' for Active; 'I' for Inactive)
REMARK    1  A    between atoms: C3_4  and  O_7 
ROOT
ATOM      1  C   UNL d   1       0.865  -1.011  -0.088  0.00  0.00    -0.033 A 
ATOM      2  C1  UNL d   1       1.582  -0.675   1.062  0.00  0.00     0.039 A 
ATOM      3  C2  UNL d   1       1.065   0.259   1.961  0.00  0.00    -0.080 A 
ATOM      4  C3  UNL d   1      -0.169   0.848   1.700  0.00  0.00     0.150 A 
ATOM      5  C4  UNL d   1      -0.891   0.516   0.559  0.00  0.00    -0.007 A 
ATOM      6  C5  UNL d   1      -0.372  -0.417  -0.339  0.00  0.00     0.039 A 
ENDROOT
BRANCH   4   7
ATOM      7  O   UNL d   1      -0.712   1.769   2.546  0.00  0.00    -0.526 OA
ATOM      8  H5  UNL d   1      -0.089   1.921   3.277  0.00  0.00     0.418 HD
ENDBRANCH   4   7
TORSDOF 1
ENDMDL
