MODEL 1
REMARK minimizedAffinity -4.17881346
REMARK minimizedRMSD -1
REMARK  0 active torsions:
REMARK  status: ('A' for Active; 'I' for Inactive)
ROOT
ATOM      1  C   UNL d   1      -1.922  -2.724   0.704  0.00  0.00     0.077 C 
ATOM      2  C1  UNL d   1      -0.780  -1.764   0.548  0.00  0.00    -0.074 A 
ATOM      3  C2  UNL d   1       0.543  -2.217   0.527  0.00  0.00    -0.005 A 
ATOM      4  C3  UNL d   1       1.593  -1.313   0.372  0.00  0.00     0.006 A 
ATOM      5  C4  UNL d   1       1.332   0.051   0.238  0.00  0.00    -0.005 A 
ATOM      6  C5  UNL d   1       0.016   0.523   0.256  0.00  0.00    -0.074 A 
ATOM      7  C6  UNL d   1      -0.283   1.985   0.103  0.00  0.00     0.077 C 
ATOM      8  C7  UNL d   1      -1.035  -0.393   0.405  0.00  0.00    -0.001 A 
ENDROOT
TORSDOF 0
ENDMDL
