MODEL 1
REMARK minimizedAffinity -2.53114128
REMARK minimizedRMSD -1
REMARK  0 active torsions:
REMARK  status: ('A' for Active; 'I' for Inactive)
ROOT
ATOM      1  C   UNL d   1      -0.136   1.682  -0.627  0.00  0.00     0.077 C 
ATOM      2  C1  UNL d   1       0.121   0.272  -0.185  0.00  0.00    -0.074 A 
ATOM      3  C2  UNL d   1       1.415  -0.260  -0.195  0.00  0.00    -0.005 A 
ATOM      4  C3  UNL d   1       1.640  -1.570   0.227  0.00  0.00     0.006 A 
ATOM      5  C4  UNL d   1       0.576  -2.361   0.662  0.00  0.00    -0.005 A 
ATOM      6  C5  UNL d   1      -0.724  -1.846   0.679  0.00  0.00    -0.074 A 
ATOM      7  C6  UNL d   1      -1.878  -2.680   1.153  0.00  0.00     0.077 C 
ATOM      8  C7  UNL d   1      -0.942  -0.527   0.260  0.00  0.00    -0.001 A 
ENDROOT
TORSDOF 0
ENDMDL
