MODEL 1
REMARK minimizedAffinity -3.00451231
REMARK minimizedRMSD -1
REMARK  0 active torsions:
REMARK  status: ('A' for Active; 'I' for Inactive)
ROOT
ATOM      1  C   UNL d   1      -1.785  -3.172   0.388  0.00  0.00     0.077 C 
ATOM      2  C1  UNL d   1      -0.995  -1.897   0.414  0.00  0.00    -0.074 A 
ATOM      3  C2  UNL d   1       0.386  -1.903   0.193  0.00  0.00    -0.005 A 
ATOM      4  C3  UNL d   1       1.106  -0.708   0.211  0.00  0.00     0.006 A 
ATOM      5  C4  UNL d   1       0.453   0.502   0.451  0.00  0.00    -0.005 A 
ATOM      6  C5  UNL d   1      -0.927   0.527   0.673  0.00  0.00    -0.074 A 
ATOM      7  C6  UNL d   1      -1.646   1.820   0.923  0.00  0.00     0.077 C 
ATOM      8  C7  UNL d   1      -1.645  -0.677   0.647  0.00  0.00    -0.001 A 
ENDROOT
TORSDOF 0
ENDMDL
