MODEL 1
REMARK minimizedAffinity -2.76001859
REMARK minimizedRMSD -1
REMARK  0 active torsions:
REMARK  status: ('A' for Active; 'I' for Inactive)
ROOT
ATOM      1  C   UNL d   1      -2.006  -2.903   1.485  0.00  0.00     0.077 C 
ATOM      2  C1  UNL d   1      -0.831  -2.005   1.240  0.00  0.00    -0.074 A 
ATOM      3  C2  UNL d   1       0.434  -2.320   1.748  0.00  0.00    -0.005 A 
ATOM      4  C3  UNL d   1       1.520  -1.480   1.503  0.00  0.00     0.006 A 
ATOM      5  C4  UNL d   1       1.353  -0.318   0.749  0.00  0.00    -0.005 A 
ATOM      6  C5  UNL d   1       0.097   0.013   0.231  0.00  0.00    -0.074 A 
ATOM      7  C6  UNL d   1      -0.097   1.253  -0.590  0.00  0.00     0.077 C 
ATOM      8  C7  UNL d   1      -0.988  -0.840   0.476  0.00  0.00    -0.001 A 
ENDROOT
TORSDOF 0
ENDMDL
