MODEL 1
REMARK minimizedAffinity -3.34898782
REMARK minimizedRMSD -1
REMARK  0 active torsions:
REMARK  status: ('A' for Active; 'I' for Inactive)
ROOT
ATOM      1  C   UNL d   1      -2.233  -2.961   1.006  0.00  0.00     0.077 C 
ATOM      2  C1  UNL d   1      -0.996  -2.151   0.755  0.00  0.00    -0.074 A 
ATOM      3  C2  UNL d   1       0.263  -2.758   0.705  0.00  0.00    -0.005 A 
ATOM      4  C3  UNL d   1       1.403  -1.992   0.460  0.00  0.00     0.006 A 
ATOM      5  C4  UNL d   1       1.296  -0.615   0.264  0.00  0.00    -0.005 A 
ATOM      6  C5  UNL d   1       0.045   0.009   0.309  0.00  0.00    -0.074 A 
ATOM      7  C6  UNL d   1      -0.089   1.487   0.090  0.00  0.00     0.077 C 
ATOM      8  C7  UNL d   1      -1.097  -0.768   0.548  0.00  0.00    -0.001 A 
ENDROOT
TORSDOF 0
ENDMDL
