MODEL 1
REMARK minimizedAffinity -2.55877471
REMARK minimizedRMSD -1
REMARK  0 active torsions:
REMARK  status: ('A' for Active; 'I' for Inactive)
ROOT
ATOM      1  C   UNL d   1      -2.074   1.989   1.191  0.00  0.00     0.077 C 
ATOM      2  C1  UNL d   1      -1.098   0.929   0.776  0.00  0.00    -0.074 A 
ATOM      3  C2  UNL d   1       0.085   1.263   0.109  0.00  0.00    -0.005 A 
ATOM      4  C3  UNL d   1       0.988   0.267  -0.262  0.00  0.00     0.006 A 
ATOM      5  C4  UNL d   1       0.718  -1.071   0.029  0.00  0.00    -0.005 A 
ATOM      6  C5  UNL d   1      -0.460  -1.424   0.696  0.00  0.00    -0.074 A 
ATOM      7  C6  UNL d   1      -0.761  -2.855   1.026  0.00  0.00     0.077 C 
ATOM      8  C7  UNL d   1      -1.359  -0.416   1.072  0.00  0.00    -0.001 A 
ENDROOT
TORSDOF 0
ENDMDL
