MODEL 1
REMARK minimizedAffinity -4.5441246
REMARK minimizedRMSD -1
REMARK  0 active torsions:
REMARK  status: ('A' for Active; 'I' for Inactive)
ROOT
ATOM      1  C   UNL d   1      -1.955  -2.487   0.325  0.00  0.00     0.077 C 
ATOM      2  C1  UNL d   1      -0.805  -1.525   0.289  0.00  0.00    -0.074 A 
ATOM      3  C2  UNL d   1       0.487  -1.960  -0.024  0.00  0.00    -0.005 A 
ATOM      4  C3  UNL d   1       1.545  -1.052  -0.063  0.00  0.00     0.006 A 
ATOM      5  C4  UNL d   1       1.323   0.298   0.211  0.00  0.00    -0.005 A 
ATOM      6  C5  UNL d   1       0.037   0.752   0.525  0.00  0.00    -0.074 A 
ATOM      7  C6  UNL d   1      -0.221   2.201   0.811  0.00  0.00     0.077 C 
ATOM      8  C7  UNL d   1      -1.022  -0.166   0.555  0.00  0.00    -0.001 A 
ENDROOT
TORSDOF 0
ENDMDL
