MODEL 1
REMARK minimizedAffinity -3.01076007
REMARK minimizedRMSD -1
REMARK  0 active torsions:
REMARK  status: ('A' for Active; 'I' for Inactive)
ROOT
ATOM      1  C   UNL d   1       1.500   1.855  -1.767  0.00  0.00     0.077 C 
ATOM      2  C1  UNL d   1       0.701   0.882  -0.952  0.00  0.00    -0.074 A 
ATOM      3  C2  UNL d   1       1.176  -0.410  -0.704  0.00  0.00    -0.005 A 
ATOM      4  C3  UNL d   1       0.426  -1.301   0.063  0.00  0.00     0.006 A 
ATOM      5  C4  UNL d   1      -0.805  -0.909   0.591  0.00  0.00    -0.005 A 
ATOM      6  C5  UNL d   1      -1.296   0.378   0.354  0.00  0.00    -0.074 A 
ATOM      7  C6  UNL d   1      -2.613   0.818   0.922  0.00  0.00     0.077 C 
ATOM      8  C7  UNL d   1      -0.534   1.270  -0.412  0.00  0.00    -0.001 A 
ENDROOT
TORSDOF 0
ENDMDL
