MODEL 1
REMARK minimizedAffinity -1.69726181
REMARK minimizedRMSD -1
REMARK  0 active torsions:
REMARK  status: ('A' for Active; 'I' for Inactive)
ROOT
ATOM      1  C   UNL d   1       0.292  -1.560   0.018  0.00  0.00     0.077 C 
ATOM      2  C1  UNL d   1       0.408  -0.131  -0.423  0.00  0.00    -0.074 A 
ATOM      3  C2  UNL d   1       0.235   0.918   0.486  0.00  0.00    -0.005 A 
ATOM      4  C3  UNL d   1       0.355   2.242   0.064  0.00  0.00     0.006 A 
ATOM      5  C4  UNL d   1       0.648   2.530  -1.270  0.00  0.00    -0.005 A 
ATOM      6  C5  UNL d   1       0.824   1.494  -2.193  0.00  0.00    -0.074 A 
ATOM      7  C6  UNL d   1       1.149   1.787  -3.628  0.00  0.00     0.077 C 
ATOM      8  C7  UNL d   1       0.709   0.167  -1.760  0.00  0.00    -0.001 A 
ENDROOT
TORSDOF 0
ENDMDL
