MODEL 1
REMARK minimizedAffinity -5.27250099
REMARK minimizedRMSD -1
REMARK  0 active torsions:
REMARK  status: ('A' for Active; 'I' for Inactive)
ROOT
ATOM      1  C   UNL d   1      -1.201  -2.079   0.650  0.00  0.00     0.077 C 
ATOM      2  C1  UNL d   1      -1.080  -0.597   0.452  0.00  0.00    -0.074 A 
ATOM      3  C2  UNL d   1      -2.072   0.274   0.915  0.00  0.00    -0.005 A 
ATOM      4  C3  UNL d   1      -1.941   1.650   0.731  0.00  0.00     0.006 A 
ATOM      5  C4  UNL d   1      -0.818   2.169   0.085  0.00  0.00    -0.005 A 
ATOM      6  C5  UNL d   1       0.185   1.314  -0.383  0.00  0.00    -0.074 A 
ATOM      7  C6  UNL d   1       1.402   1.856  -1.071  0.00  0.00     0.077 C 
ATOM      8  C7  UNL d   1       0.049  -0.067  -0.189  0.00  0.00    -0.001 A 
ENDROOT
TORSDOF 0
ENDMDL
