MODEL 1
REMARK minimizedAffinity -3.96812057
REMARK minimizedRMSD -1
REMARK  0 active torsions:
REMARK  status: ('A' for Active; 'I' for Inactive)
ROOT
ATOM      1  C   UNL d   1      -1.409  -2.723   0.575  0.00  0.00     0.077 C 
ATOM      2  C1  UNL d   1      -0.631  -1.446   0.472  0.00  0.00    -0.074 A 
ATOM      3  C2  UNL d   1       0.746  -1.461   0.229  0.00  0.00    -0.005 A 
ATOM      4  C3  UNL d   1       1.456  -0.264   0.125  0.00  0.00     0.006 A 
ATOM      5  C4  UNL d   1       0.796   0.958   0.264  0.00  0.00    -0.005 A 
ATOM      6  C5  UNL d   1      -0.581   0.992   0.506  0.00  0.00    -0.074 A 
ATOM      7  C6  UNL d   1      -1.307   2.297   0.647  0.00  0.00     0.077 C 
ATOM      8  C7  UNL d   1      -1.288  -0.214   0.601  0.00  0.00    -0.001 A 
ENDROOT
TORSDOF 0
ENDMDL
