MODEL 1
REMARK minimizedAffinity -3.55477834
REMARK minimizedRMSD -1
REMARK  0 active torsions:
REMARK  status: ('A' for Active; 'I' for Inactive)
ROOT
ATOM      1  C   UNL d   1      -2.203  -2.331  -0.806  0.00  0.00     0.077 C 
ATOM      2  C1  UNL d   1      -1.447  -1.178  -0.216  0.00  0.00    -0.074 A 
ATOM      3  C2  UNL d   1      -0.049  -1.166  -0.203  0.00  0.00    -0.005 A 
ATOM      4  C3  UNL d   1       0.640  -0.083   0.341  0.00  0.00     0.006 A 
ATOM      5  C4  UNL d   1      -0.060   0.999   0.877  0.00  0.00    -0.005 A 
ATOM      6  C5  UNL d   1      -1.459   1.005   0.871  0.00  0.00    -0.074 A 
ATOM      7  C6  UNL d   1      -2.227   2.164   1.434  0.00  0.00     0.077 C 
ATOM      8  C7  UNL d   1      -2.144  -0.084   0.317  0.00  0.00    -0.001 A 
ENDROOT
TORSDOF 0
ENDMDL
