MODEL 1
REMARK minimizedAffinity -2.47530365
REMARK minimizedRMSD -1
REMARK  0 active torsions:
REMARK  status: ('A' for Active; 'I' for Inactive)
ROOT
ATOM      1  C   UNL d   1       0.463  -2.542   1.481  0.00  0.00     0.077 C 
ATOM      2  C1  UNL d   1      -0.030  -1.413   0.625  0.00  0.00    -0.074 A 
ATOM      3  C2  UNL d   1      -1.376  -1.033   0.641  0.00  0.00    -0.005 A 
ATOM      4  C3  UNL d   1      -1.818   0.025  -0.154  0.00  0.00     0.006 A 
ATOM      5  C4  UNL d   1      -0.919   0.712  -0.971  0.00  0.00    -0.005 A 
ATOM      6  C5  UNL d   1       0.430   0.347  -0.999  0.00  0.00    -0.074 A 
ATOM      7  C6  UNL d   1       1.410   1.083  -1.864  0.00  0.00     0.077 C 
ATOM      8  C7  UNL d   1       0.868  -0.712  -0.193  0.00  0.00    -0.001 A 
ENDROOT
TORSDOF 0
ENDMDL
