MODEL 1
REMARK minimizedAffinity -5.66395569
REMARK minimizedRMSD -1
REMARK  0 active torsions:
REMARK  status: ('A' for Active; 'I' for Inactive)
ROOT
ATOM      1  C   UNL d   1      -3.053   0.396   1.977  0.00  0.00     0.077 C 
ATOM      2  C1  UNL d   1      -1.830  -0.164   1.314  0.00  0.00    -0.074 A 
ATOM      3  C2  UNL d   1      -1.413  -1.475   1.563  0.00  0.00    -0.005 A 
ATOM      4  C3  UNL d   1      -0.278  -1.985   0.932  0.00  0.00     0.006 A 
ATOM      5  C4  UNL d   1       0.450  -1.189   0.046  0.00  0.00    -0.005 A 
ATOM      6  C5  UNL d   1       0.047   0.124  -0.217  0.00  0.00    -0.074 A 
ATOM      7  C6  UNL d   1       0.813   0.989  -1.174  0.00  0.00     0.077 C 
ATOM      8  C7  UNL d   1      -1.098   0.627   0.416  0.00  0.00    -0.001 A 
ENDROOT
TORSDOF 0
ENDMDL
