MODEL 1
REMARK minimizedAffinity -4.53790569
REMARK minimizedRMSD -1
REMARK  0 active torsions:
REMARK  status: ('A' for Active; 'I' for Inactive)
ROOT
ATOM      1  C   UNL d   1       2.359  -1.007   0.605  0.00  0.00     0.077 C 
ATOM      2  C1  UNL d   1       0.863  -0.957   0.518  0.00  0.00    -0.074 A 
ATOM      3  C2  UNL d   1       0.210   0.160  -0.012  0.00  0.00    -0.005 A 
ATOM      4  C3  UNL d   1      -1.182   0.188  -0.095  0.00  0.00     0.006 A 
ATOM      5  C4  UNL d   1      -1.934  -0.900   0.350  0.00  0.00    -0.005 A 
ATOM      6  C5  UNL d   1      -1.299  -2.026   0.883  0.00  0.00    -0.074 A 
ATOM      7  C6  UNL d   1      -2.092  -3.207   1.357  0.00  0.00     0.077 C 
ATOM      8  C7  UNL d   1       0.101  -2.049   0.956  0.00  0.00    -0.001 A 
ENDROOT
TORSDOF 0
ENDMDL
