MODEL 1
REMARK minimizedAffinity -4.10510969
REMARK minimizedRMSD -1
REMARK  0 active torsions:
REMARK  status: ('A' for Active; 'I' for Inactive)
ROOT
ATOM      1  C   UNL d   1      -0.935   0.047   0.062  0.00  0.00     0.077 C 
ATOM      2  C1  UNL d   1      -0.259   0.784  -1.056  0.00  0.00    -0.074 A 
ATOM      3  C2  UNL d   1      -0.972   1.171  -2.195  0.00  0.00    -0.005 A 
ATOM      4  C3  UNL d   1      -0.333   1.864  -3.223  0.00  0.00     0.006 A 
ATOM      5  C4  UNL d   1       1.023   2.176  -3.122  0.00  0.00    -0.005 A 
ATOM      6  C5  UNL d   1       1.752   1.798  -1.991  0.00  0.00    -0.074 A 
ATOM      7  C6  UNL d   1       3.208   2.134  -1.862  0.00  0.00     0.077 C 
ATOM      8  C7  UNL d   1       1.101   1.108  -0.959  0.00  0.00    -0.001 A 
ENDROOT
TORSDOF 0
ENDMDL
