MODEL 1
REMARK minimizedAffinity -4.25183439
REMARK minimizedRMSD -1
REMARK  0 active torsions:
REMARK  status: ('A' for Active; 'I' for Inactive)
ROOT
ATOM      1  C   UNL d   1      -2.184  -4.227  -5.998  0.00  0.00     0.077 C 
ATOM      2  C1  UNL d   1      -3.315  -3.585  -5.251  0.00  0.00    -0.074 A 
ATOM      3  C2  UNL d   1      -3.584  -3.927  -3.921  0.00  0.00    -0.005 A 
ATOM      4  C3  UNL d   1      -4.633  -3.314  -3.236  0.00  0.00     0.006 A 
ATOM      5  C4  UNL d   1      -5.422  -2.354  -3.872  0.00  0.00    -0.005 A 
ATOM      6  C5  UNL d   1      -5.167  -1.998  -5.200  0.00  0.00    -0.074 A 
ATOM      7  C6  UNL d   1      -5.999  -0.962  -5.895  0.00  0.00     0.077 C 
ATOM      8  C7  UNL d   1      -4.107  -2.614  -5.880  0.00  0.00    -0.001 A 
ENDROOT
TORSDOF 0
ENDMDL
