MODEL 1
REMARK minimizedAffinity 0.894576848
REMARK minimizedRMSD -1
REMARK  0 active torsions:
REMARK  status: ('A' for Active; 'I' for Inactive)
ROOT
ATOM      1  C   UNL d   1       1.633  -0.495   3.058  0.00  0.00     0.078 C 
ATOM      2  C1  UNL d   1       0.554   0.117   2.216  0.00  0.00    -0.077 A 
ATOM      3  C2  UNL d   1       0.258   1.482   2.304  0.00  0.00    -0.001 A 
ATOM      4  C3  UNL d   1      -0.756   2.037   1.520  0.00  0.00     0.003 A 
ATOM      5  C4  UNL d   1      -1.482   1.233   0.644  0.00  0.00    -0.005 A 
ATOM      6  C5  UNL d   1      -1.196  -0.128   0.551  0.00  0.00     0.003 A 
ATOM      7  C6  UNL d   1      -0.183  -0.684   1.334  0.00  0.00    -0.001 A 
ENDROOT
TORSDOF 0
ENDMDL
