MODEL 1
REMARK minimizedAffinity -2.60349727
REMARK minimizedRMSD -1
REMARK  0 active torsions:
REMARK  status: ('A' for Active; 'I' for Inactive)
ROOT
ATOM      1  C   UNL d   1      -4.279   1.799   4.184  0.00  0.00     0.078 C 
ATOM      2  C1  UNL d   1      -3.098   1.470   3.321  0.00  0.00    -0.077 A 
ATOM      3  C2  UNL d   1      -2.804   0.145   2.977  0.00  0.00    -0.001 A 
ATOM      4  C3  UNL d   1      -1.695  -0.148   2.181  0.00  0.00     0.003 A 
ATOM      5  C4  UNL d   1      -0.872   0.878   1.723  0.00  0.00    -0.005 A 
ATOM      6  C5  UNL d   1      -1.156   2.200   2.062  0.00  0.00     0.003 A 
ATOM      7  C6  UNL d   1      -2.264   2.494   2.858  0.00  0.00    -0.001 A 
ENDROOT
TORSDOF 0
ENDMDL
