MODEL 1
REMARK minimizedAffinity -3.41028976
REMARK minimizedRMSD -1
REMARK  0 active torsions:
REMARK  status: ('A' for Active; 'I' for Inactive)
ROOT
ATOM      1  C   UNL d   1      -3.340   1.909   3.469  0.00  0.00     0.078 C 
ATOM      2  C1  UNL d   1      -2.178   1.422   2.656  0.00  0.00    -0.077 A 
ATOM      3  C2  UNL d   1      -2.039   0.066   2.336  0.00  0.00    -0.001 A 
ATOM      4  C3  UNL d   1      -0.947  -0.374   1.587  0.00  0.00     0.003 A 
ATOM      5  C4  UNL d   1       0.016   0.535   1.153  0.00  0.00    -0.005 A 
ATOM      6  C5  UNL d   1      -0.113   1.886   1.468  0.00  0.00     0.003 A 
ATOM      7  C6  UNL d   1      -1.204   2.328   2.218  0.00  0.00    -0.001 A 
ENDROOT
TORSDOF 0
ENDMDL
