MODEL 1
REMARK minimizedAffinity -6.09179783
REMARK minimizedRMSD -1
REMARK  0 active torsions:
REMARK  status: ('A' for Active; 'I' for Inactive)
ROOT
ATOM      1  C   UNL d   1      -3.566   1.523   3.453  0.00  0.00     0.078 C 
ATOM      2  C1  UNL d   1      -2.382   1.126   2.622  0.00  0.00    -0.077 A 
ATOM      3  C2  UNL d   1      -2.216  -0.194   2.188  0.00  0.00    -0.001 A 
ATOM      4  C3  UNL d   1      -1.104  -0.551   1.423  0.00  0.00     0.003 A 
ATOM      5  C4  UNL d   1      -0.149   0.406   1.087  0.00  0.00    -0.005 A 
ATOM      6  C5  UNL d   1      -0.305   1.723   1.517  0.00  0.00     0.003 A 
ATOM      7  C6  UNL d   1      -1.416   2.081   2.282  0.00  0.00    -0.001 A 
ENDROOT
TORSDOF 0
ENDMDL
