MODEL 1
REMARK minimizedAffinity -0.873086631
REMARK minimizedRMSD -1
REMARK  0 active torsions:
REMARK  status: ('A' for Active; 'I' for Inactive)
ROOT
ATOM      1  C   UNL d   1      -1.546   4.134   1.511  0.00  0.00     0.078 C 
ATOM      2  C1  UNL d   1      -0.798   2.839   1.607  0.00  0.00    -0.077 A 
ATOM      3  C2  UNL d   1      -0.305   2.203   0.460  0.00  0.00    -0.001 A 
ATOM      4  C3  UNL d   1       0.381   0.992   0.564  0.00  0.00     0.003 A 
ATOM      5  C4  UNL d   1       0.580   0.406   1.812  0.00  0.00    -0.005 A 
ATOM      6  C5  UNL d   1       0.092   1.029   2.958  0.00  0.00     0.003 A 
ATOM      7  C6  UNL d   1      -0.595   2.240   2.857  0.00  0.00    -0.001 A 
ENDROOT
TORSDOF 0
ENDMDL
