MODEL 1
REMARK minimizedAffinity -0.680758476
REMARK minimizedRMSD -1
REMARK  0 active torsions:
REMARK  status: ('A' for Active; 'I' for Inactive)
ROOT
ATOM      1  C   UNL d   1      -1.875  -2.146   3.898  0.00  0.00     0.078 C 
ATOM      2  C1  UNL d   1      -1.201  -1.093   3.071  0.00  0.00    -0.077 A 
ATOM      3  C2  UNL d   1       0.195  -1.032   2.978  0.00  0.00    -0.001 A 
ATOM      4  C3  UNL d   1       0.809  -0.040   2.213  0.00  0.00     0.003 A 
ATOM      5  C4  UNL d   1       0.036   0.900   1.534  0.00  0.00    -0.005 A 
ATOM      6  C5  UNL d   1      -1.354   0.848   1.621  0.00  0.00     0.003 A 
ATOM      7  C6  UNL d   1      -1.970  -0.143   2.387  0.00  0.00    -0.001 A 
ENDROOT
TORSDOF 0
ENDMDL
