MODEL 1
REMARK minimizedAffinity 2.03414083
REMARK minimizedRMSD -1
REMARK  0 active torsions:
REMARK  status: ('A' for Active; 'I' for Inactive)
ROOT
ATOM      1  C   UNL d   1      -2.288   2.941   1.792  0.00  0.00     0.078 C 
ATOM      2  C1  UNL d   1      -1.039   2.123   1.657  0.00  0.00    -0.077 A 
ATOM      3  C2  UNL d   1      -0.786   1.046   2.515  0.00  0.00    -0.001 A 
ATOM      4  C3  UNL d   1       0.385   0.299   2.385  0.00  0.00     0.003 A 
ATOM      5  C4  UNL d   1       1.315   0.621   1.398  0.00  0.00    -0.005 A 
ATOM      6  C5  UNL d   1       1.073   1.693   0.540  0.00  0.00     0.003 A 
ATOM      7  C6  UNL d   1      -0.098   2.441   0.670  0.00  0.00    -0.001 A 
ENDROOT
TORSDOF 0
ENDMDL
