MODEL 1
REMARK minimizedAffinity -2.52032542
REMARK minimizedRMSD -1
REMARK  0 active torsions:
REMARK  status: ('A' for Active; 'I' for Inactive)
ROOT
ATOM      1  C   UNL d   1       0.981   0.354   1.073  0.00  0.00     0.078 C 
ATOM      2  C1  UNL d   1      -0.404   0.655   1.564  0.00  0.00    -0.077 A 
ATOM      3  C2  UNL d   1      -0.833   1.975   1.747  0.00  0.00    -0.001 A 
ATOM      4  C3  UNL d   1      -2.121   2.240   2.214  0.00  0.00     0.003 A 
ATOM      5  C4  UNL d   1      -2.990   1.190   2.504  0.00  0.00    -0.005 A 
ATOM      6  C5  UNL d   1      -2.571  -0.127   2.328  0.00  0.00     0.003 A 
ATOM      7  C6  UNL d   1      -1.283  -0.394   1.860  0.00  0.00    -0.001 A 
ENDROOT
TORSDOF 0
ENDMDL
