MODEL 1
REMARK minimizedAffinity -1.3557632
REMARK minimizedRMSD -1
REMARK  0 active torsions:
REMARK  status: ('A' for Active; 'I' for Inactive)
ROOT
ATOM      1  C   UNL d   1      -2.782  -0.162   2.501  0.00  0.00     0.078 C 
ATOM      2  C1  UNL d   1      -1.403   0.386   2.281  0.00  0.00    -0.077 A 
ATOM      3  C2  UNL d   1      -0.308  -0.104   3.003  0.00  0.00    -0.001 A 
ATOM      4  C3  UNL d   1       0.967   0.423   2.795  0.00  0.00     0.003 A 
ATOM      5  C4  UNL d   1       1.160   1.443   1.866  0.00  0.00    -0.005 A 
ATOM      6  C5  UNL d   1       0.076   1.939   1.145  0.00  0.00     0.003 A 
ATOM      7  C6  UNL d   1      -1.200   1.414   1.351  0.00  0.00    -0.001 A 
ENDROOT
TORSDOF 0
ENDMDL
