MODEL 1
REMARK minimizedAffinity -0.338966399
REMARK minimizedRMSD -1
REMARK  0 active torsions:
REMARK  status: ('A' for Active; 'I' for Inactive)
ROOT
ATOM      1  C   UNL d   1       1.132  -0.403   2.633  0.00  0.00     0.078 C 
ATOM      2  C1  UNL d   1       0.438   0.765   1.999  0.00  0.00    -0.077 A 
ATOM      3  C2  UNL d   1      -0.866   1.116   2.368  0.00  0.00    -0.001 A 
ATOM      4  C3  UNL d   1      -1.503   2.200   1.763  0.00  0.00     0.003 A 
ATOM      5  C4  UNL d   1      -0.845   2.941   0.783  0.00  0.00    -0.005 A 
ATOM      6  C5  UNL d   1       0.452   2.597   0.407  0.00  0.00     0.003 A 
ATOM      7  C6  UNL d   1       1.091   1.514   1.012  0.00  0.00    -0.001 A 
ENDROOT
TORSDOF 0
ENDMDL
