MODEL 1
REMARK minimizedAffinity -1.05045974
REMARK minimizedRMSD -1
REMARK  0 active torsions:
REMARK  status: ('A' for Active; 'I' for Inactive)
ROOT
ATOM      1  C   UNL d   1      -4.692   1.997   4.873  0.00  0.00     0.078 C 
ATOM      2  C1  UNL d   1      -3.573   1.419   4.059  0.00  0.00    -0.077 A 
ATOM      3  C2  UNL d   1      -2.448   2.186   3.733  0.00  0.00    -0.001 A 
ATOM      4  C3  UNL d   1      -1.418   1.638   2.967  0.00  0.00     0.003 A 
ATOM      5  C4  UNL d   1      -1.503   0.321   2.520  0.00  0.00    -0.005 A 
ATOM      6  C5  UNL d   1      -2.620  -0.449   2.838  0.00  0.00     0.003 A 
ATOM      7  C6  UNL d   1      -3.651   0.097   3.604  0.00  0.00    -0.001 A 
ENDROOT
TORSDOF 0
ENDMDL
