MODEL 1
REMARK minimizedAffinity -2.57119465
REMARK minimizedRMSD -1
REMARK  0 active torsions:
REMARK  status: ('A' for Active; 'I' for Inactive)
ROOT
ATOM      1  C   UNL d   1      -3.305   1.374   3.498  0.00  0.00     0.078 C 
ATOM      2  C1  UNL d   1      -2.103   1.437   2.604  0.00  0.00    -0.077 A 
ATOM      3  C2  UNL d   1      -1.524   0.270   2.091  0.00  0.00    -0.001 A 
ATOM      4  C3  UNL d   1      -0.399   0.343   1.268  0.00  0.00     0.003 A 
ATOM      5  C4  UNL d   1       0.157   1.581   0.951  0.00  0.00    -0.005 A 
ATOM      6  C5  UNL d   1      -0.412   2.747   1.458  0.00  0.00     0.003 A 
ATOM      7  C6  UNL d   1      -1.536   2.676   2.281  0.00  0.00    -0.001 A 
ENDROOT
TORSDOF 0
ENDMDL
