MODEL 1
REMARK minimizedAffinity -2.55708742
REMARK minimizedRMSD -1
REMARK  0 active torsions:
REMARK  status: ('A' for Active; 'I' for Inactive)
ROOT
ATOM      1  C   UNL d   1      -2.987   1.775   3.433  0.00  0.00     0.078 C 
ATOM      2  C1  UNL d   1      -1.777   1.678   2.552  0.00  0.00    -0.077 A 
ATOM      3  C2  UNL d   1      -0.942   0.555   2.596  0.00  0.00    -0.001 A 
ATOM      4  C3  UNL d   1       0.186   0.482   1.777  0.00  0.00     0.003 A 
ATOM      5  C4  UNL d   1       0.489   1.529   0.909  0.00  0.00    -0.005 A 
ATOM      6  C5  UNL d   1      -0.335   2.651   0.860  0.00  0.00     0.003 A 
ATOM      7  C6  UNL d   1      -1.463   2.726   1.678  0.00  0.00    -0.001 A 
ENDROOT
TORSDOF 0
ENDMDL
