MODEL 1
REMARK minimizedAffinity -3.04271173
REMARK minimizedRMSD -1
REMARK  0 active torsions:
REMARK  status: ('A' for Active; 'I' for Inactive)
ROOT
ATOM      1  C   UNL d   1       0.707   0.938   0.712  0.00  0.00     0.078 C 
ATOM      2  C1  UNL d   1      -0.534   1.076   1.542  0.00  0.00    -0.077 A 
ATOM      3  C2  UNL d   1      -0.979   2.333   1.971  0.00  0.00    -0.001 A 
ATOM      4  C3  UNL d   1      -2.130   2.446   2.751  0.00  0.00     0.003 A 
ATOM      5  C4  UNL d   1      -2.846   1.305   3.112  0.00  0.00    -0.005 A 
ATOM      6  C5  UNL d   1      -2.409   0.050   2.692  0.00  0.00     0.003 A 
ATOM      7  C6  UNL d   1      -1.258  -0.064   1.911  0.00  0.00    -0.001 A 
ENDROOT
TORSDOF 0
ENDMDL
