MODEL 1
REMARK minimizedAffinity -1.73521364
REMARK minimizedRMSD -1
REMARK  0 active torsions:
REMARK  status: ('A' for Active; 'I' for Inactive)
ROOT
ATOM      1  C   UNL d   1      -2.917   2.186   2.963  0.00  0.00     0.078 C 
ATOM      2  C1  UNL d   1      -1.815   1.466   2.245  0.00  0.00    -0.077 A 
ATOM      3  C2  UNL d   1      -1.858   0.078   2.064  0.00  0.00    -0.001 A 
ATOM      4  C3  UNL d   1      -0.820  -0.580   1.403  0.00  0.00     0.003 A 
ATOM      5  C4  UNL d   1       0.269   0.142   0.918  0.00  0.00    -0.005 A 
ATOM      6  C5  UNL d   1       0.322   1.523   1.095  0.00  0.00     0.003 A 
ATOM      7  C6  UNL d   1      -0.715   2.183   1.756  0.00  0.00    -0.001 A 
ENDROOT
TORSDOF 0
ENDMDL
