MODEL 1
REMARK minimizedAffinity -2.12198853
REMARK minimizedRMSD -1
REMARK  0 active torsions:
REMARK  status: ('A' for Active; 'I' for Inactive)
ROOT
ATOM      1  C   UNL d   1       1.111   0.827   0.811  0.00  0.00     0.078 C 
ATOM      2  C1  UNL d   1      -0.193   0.793   1.551  0.00  0.00    -0.077 A 
ATOM      3  C2  UNL d   1      -0.915  -0.399   1.686  0.00  0.00    -0.001 A 
ATOM      4  C3  UNL d   1      -2.132  -0.413   2.369  0.00  0.00     0.003 A 
ATOM      5  C4  UNL d   1      -2.639   0.762   2.921  0.00  0.00    -0.005 A 
ATOM      6  C5  UNL d   1      -1.928   1.953   2.790  0.00  0.00     0.003 A 
ATOM      7  C6  UNL d   1      -0.711   1.969   2.107  0.00  0.00    -0.001 A 
ENDROOT
TORSDOF 0
ENDMDL
