MODEL 1
REMARK minimizedAffinity -4.89568853
REMARK minimizedRMSD -1
REMARK  0 active torsions:
REMARK  status: ('A' for Active; 'I' for Inactive)
ROOT
ATOM      1  C   UNL d   1      -2.654   1.941   2.973  0.00  0.00     0.078 C 
ATOM      2  C1  UNL d   1      -1.515   1.282   2.254  0.00  0.00    -0.077 A 
ATOM      3  C2  UNL d   1      -1.605  -0.050   1.830  0.00  0.00    -0.001 A 
ATOM      4  C3  UNL d   1      -0.533  -0.654   1.171  0.00  0.00     0.003 A 
ATOM      5  C4  UNL d   1       0.636   0.065   0.931  0.00  0.00    -0.005 A 
ATOM      6  C5  UNL d   1       0.736   1.389   1.352  0.00  0.00     0.003 A 
ATOM      7  C6  UNL d   1      -0.335   1.995   2.011  0.00  0.00    -0.001 A 
ENDROOT
TORSDOF 0
ENDMDL
