MODEL 1
REMARK minimizedAffinity 1.91923881
REMARK minimizedRMSD -1
REMARK  0 active torsions:
REMARK  status: ('A' for Active; 'I' for Inactive)
ROOT
ATOM      1  C   UNL d   1      -4.524   2.405   5.127  0.00  0.00     0.078 C 
ATOM      2  C1  UNL d   1      -3.555   1.869   4.115  0.00  0.00    -0.077 A 
ATOM      3  C2  UNL d   1      -3.577   0.520   3.740  0.00  0.00    -0.001 A 
ATOM      4  C3  UNL d   1      -2.664   0.033   2.804  0.00  0.00     0.003 A 
ATOM      5  C4  UNL d   1      -1.721   0.887   2.237  0.00  0.00    -0.005 A 
ATOM      6  C5  UNL d   1      -1.689   2.230   2.605  0.00  0.00     0.003 A 
ATOM      7  C6  UNL d   1      -2.602   2.720   3.541  0.00  0.00    -0.001 A 
ENDROOT
TORSDOF 0
ENDMDL
