MODEL 1
REMARK minimizedAffinity 0.121597663
REMARK minimizedRMSD -1
REMARK  0 active torsions:
REMARK  status: ('A' for Active; 'I' for Inactive)
ROOT
ATOM      1  C   UNL d   1      -4.376  -3.278   4.623  0.00  0.00     0.078 C 
ATOM      2  C1  UNL d   1      -3.244  -2.667   3.852  0.00  0.00    -0.077 A 
ATOM      3  C2  UNL d   1      -3.465  -1.606   2.965  0.00  0.00    -0.001 A 
ATOM      4  C3  UNL d   1      -2.404  -1.053   2.247  0.00  0.00     0.003 A 
ATOM      5  C4  UNL d   1      -1.114  -1.556   2.407  0.00  0.00    -0.005 A 
ATOM      6  C5  UNL d   1      -0.885  -2.613   3.285  0.00  0.00     0.003 A 
ATOM      7  C6  UNL d   1      -1.945  -3.167   4.004  0.00  0.00    -0.001 A 
ENDROOT
TORSDOF 0
ENDMDL
