MODEL 1
REMARK minimizedAffinity -2.23158979
REMARK minimizedRMSD -1
REMARK  0 active torsions:
REMARK  status: ('A' for Active; 'I' for Inactive)
ROOT
ATOM      1  C   UNL d   1       5.816   3.135  -6.000  0.00  0.00     0.020 A 
ATOM      2  C1  UNL d   1       5.546   4.502  -6.000  0.00  0.00     0.020 A 
ATOM      3  C2  UNL d   1       4.224   4.953  -6.000  0.00  0.00     0.034 A 
ATOM      4  C3  UNL d   1       3.168   4.036  -6.000  0.00  0.00     0.017 A 
ATOM      5  C4  UNL d   1       3.439   2.663  -6.000  0.00  0.00     0.017 A 
ATOM      6  C5  UNL d   1       4.765   2.217  -6.000  0.00  0.00     0.034 A 
ATOM      7 Cl   UNL d   1       2.188   1.470  -6.000  0.00  0.00    -0.070 Cl
ATOM      8 Cl1  UNL d   1       1.558   4.664  -6.000  0.00  0.00    -0.070 Cl
ENDROOT
TORSDOF 0
ENDMDL
