MODEL 1
REMARK minimizedAffinity -2.62846923
REMARK minimizedRMSD -1
REMARK  0 active torsions:
REMARK  status: ('A' for Active; 'I' for Inactive)
ROOT
ATOM      1  C   UNL d   1       5.094   1.958  -5.935  0.00  0.00     0.020 A 
ATOM      2  C1  UNL d   1       3.700   1.947  -5.937  0.00  0.00     0.020 A 
ATOM      3  C2  UNL d   1       2.992   3.151  -5.956  0.00  0.00     0.034 A 
ATOM      4  C3  UNL d   1       3.678   4.371  -5.973  0.00  0.00     0.017 A 
ATOM      5  C4  UNL d   1       5.077   4.381  -5.972  0.00  0.00     0.017 A 
ATOM      6  C5  UNL d   1       5.781   3.173  -5.953  0.00  0.00     0.034 A 
ATOM      7 Cl   UNL d   1       5.994   5.846  -5.992  0.00  0.00    -0.070 Cl
ATOM      8 Cl1  UNL d   1       2.738   5.821  -5.997  0.00  0.00    -0.070 Cl
ENDROOT
TORSDOF 0
ENDMDL
