MODEL 1
REMARK minimizedAffinity 2.59944749
REMARK minimizedRMSD -1
REMARK  0 active torsions:
REMARK  status: ('A' for Active; 'I' for Inactive)
ROOT
ATOM      1  C   UNL d   1       1.934  -2.967   0.030  0.00  0.00     0.020 A 
ATOM      2  C1  UNL d   1       1.611  -2.566   1.325  0.00  0.00     0.020 A 
ATOM      3  C2  UNL d   1       2.408  -2.968   2.399  0.00  0.00     0.034 A 
ATOM      4  C3  UNL d   1       3.531  -3.774   2.180  0.00  0.00     0.017 A 
ATOM      5  C4  UNL d   1       3.854  -4.176   0.879  0.00  0.00     0.017 A 
ATOM      6  C5  UNL d   1       3.053  -3.770  -0.193  0.00  0.00     0.034 A 
ATOM      7 Cl   UNL d   1       5.225  -5.170   0.529  0.00  0.00    -0.070 Cl
ATOM      8 Cl1  UNL d   1       4.472  -4.233   3.555  0.00  0.00    -0.070 Cl
ENDROOT
TORSDOF 0
ENDMDL
