MODEL 1
REMARK minimizedAffinity 3.88859248
REMARK minimizedRMSD -1
REMARK  0 active torsions:
REMARK  status: ('A' for Active; 'I' for Inactive)
ROOT
ATOM      1  C   UNL d   1       2.619   5.975  -5.998  0.00  0.00     0.020 A 
ATOM      2  C1  UNL d   1       4.009   5.892  -5.929  0.00  0.00     0.020 A 
ATOM      3  C2  UNL d   1       4.632   4.644  -5.859  0.00  0.00     0.034 A 
ATOM      4  C3  UNL d   1       3.864   3.474  -5.858  0.00  0.00     0.017 A 
ATOM      5  C4  UNL d   1       2.468   3.558  -5.927  0.00  0.00     0.017 A 
ATOM      6  C5  UNL d   1       1.851   4.811  -5.997  0.00  0.00     0.034 A 
ATOM      7 Cl   UNL d   1       1.454   2.159  -5.930  0.00  0.00    -0.070 Cl
ATOM      8 Cl1  UNL d   1       4.700   1.964  -5.769  0.00  0.00    -0.070 Cl
ENDROOT
TORSDOF 0
ENDMDL
