MODEL 1
REMARK minimizedAffinity 16.6918221
REMARK minimizedRMSD -1
REMARK  0 active torsions:
REMARK  status: ('A' for Active; 'I' for Inactive)
ROOT
ATOM      1  C   UNL d   1       4.805   2.402  -5.874  0.00  0.00     0.020 A 
ATOM      2  C1  UNL d   1       5.205   3.738  -5.874  0.00  0.00     0.020 A 
ATOM      3  C2  UNL d   1       4.247   4.753  -5.899  0.00  0.00     0.034 A 
ATOM      4  C3  UNL d   1       2.885   4.435  -5.925  0.00  0.00     0.017 A 
ATOM      5  C4  UNL d   1       2.484   3.094  -5.925  0.00  0.00     0.017 A 
ATOM      6  C5  UNL d   1       3.448   2.081  -5.900  0.00  0.00     0.034 A 
ATOM      7 Cl   UNL d   1       0.821   2.623  -5.956  0.00  0.00    -0.070 Cl
ATOM      8 Cl1  UNL d   1       1.755   5.742  -5.954  0.00  0.00    -0.070 Cl
ENDROOT
TORSDOF 0
ENDMDL
