MODEL 1
REMARK minimizedAffinity 10.103157
REMARK minimizedRMSD -1
REMARK  0 active torsions:
REMARK  status: ('A' for Active; 'I' for Inactive)
ROOT
ATOM      1  C   UNL d   1       1.919  -2.469   0.048  0.00  0.00     0.020 A 
ATOM      2  C1  UNL d   1       3.021  -3.293   0.272  0.00  0.00     0.020 A 
ATOM      3  C2  UNL d   1       3.746  -3.180   1.460  0.00  0.00     0.034 A 
ATOM      4  C3  UNL d   1       3.370  -2.243   2.429  0.00  0.00     0.017 A 
ATOM      5  C4  UNL d   1       2.263  -1.417   2.203  0.00  0.00     0.017 A 
ATOM      6  C5  UNL d   1       1.540  -1.533   1.011  0.00  0.00     0.034 A 
ATOM      7 Cl   UNL d   1       1.737  -0.236   3.351  0.00  0.00    -0.070 Cl
ATOM      8 Cl1  UNL d   1       4.312  -2.158   3.875  0.00  0.00    -0.070 Cl
ENDROOT
TORSDOF 0
ENDMDL
