MODEL 1
REMARK minimizedAffinity 4.64971161
REMARK minimizedRMSD -1
REMARK  0 active torsions:
REMARK  status: ('A' for Active; 'I' for Inactive)
ROOT
ATOM      1  C   UNL d   1       5.666  -5.844  -2.326  0.00  0.00     0.020 A 
ATOM      2  C1  UNL d   1       5.995  -6.000  -0.980  0.00  0.00     0.020 A 
ATOM      3  C2  UNL d   1       5.342  -5.238  -0.009  0.00  0.00     0.034 A 
ATOM      4  C3  UNL d   1       4.358  -4.315  -0.383  0.00  0.00     0.017 A 
ATOM      5  C4  UNL d   1       4.029  -4.159  -1.734  0.00  0.00     0.017 A 
ATOM      6  C5  UNL d   1       4.685  -4.925  -2.702  0.00  0.00     0.034 A 
ATOM      7 Cl   UNL d   1       2.825  -3.042  -2.272  0.00  0.00    -0.070 Cl
ATOM      8 Cl1  UNL d   1       3.591  -3.406   0.871  0.00  0.00    -0.070 Cl
ENDROOT
TORSDOF 0
ENDMDL
