MODEL 1
REMARK minimizedAffinity 0.84067446
REMARK minimizedRMSD -1
REMARK  0 active torsions:
REMARK  status: ('A' for Active; 'I' for Inactive)
ROOT
ATOM      1  C   UNL d   1       1.001   2.238  -5.997  0.00  0.00     0.020 A 
ATOM      2  C1  UNL d   1       0.827   3.622  -5.997  0.00  0.00     0.020 A 
ATOM      3  C2  UNL d   1       1.940   4.466  -5.997  0.00  0.00     0.034 A 
ATOM      4  C3  UNL d   1       3.231   3.927  -5.998  0.00  0.00     0.017 A 
ATOM      5  C4  UNL d   1       3.405   2.538  -5.998  0.00  0.00     0.017 A 
ATOM      6  C5  UNL d   1       2.288   1.698  -5.998  0.00  0.00     0.034 A 
ATOM      7 Cl   UNL d   1       4.968   1.800  -5.999  0.00  0.00    -0.070 Cl
ATOM      8 Cl1  UNL d   1       4.562   5.030  -5.999  0.00  0.00    -0.070 Cl
ENDROOT
TORSDOF 0
ENDMDL
