MODEL 1
REMARK minimizedAffinity 3.51157761
REMARK minimizedRMSD -1
REMARK  0 active torsions:
REMARK  status: ('A' for Active; 'I' for Inactive)
ROOT
ATOM      1  C   UNL d   1      -3.005   2.411  -2.525  0.00  0.00     0.020 A 
ATOM      2  C1  UNL d   1      -3.015   3.712  -3.027  0.00  0.00     0.020 A 
ATOM      3  C2  UNL d   1      -3.948   4.078  -3.999  0.00  0.00     0.034 A 
ATOM      4  C3  UNL d   1      -4.875   3.143  -4.473  0.00  0.00     0.017 A 
ATOM      5  C4  UNL d   1      -4.864   1.837  -3.969  0.00  0.00     0.017 A 
ATOM      6  C5  UNL d   1      -3.928   1.476  -2.995  0.00  0.00     0.034 A 
ATOM      7 Cl   UNL d   1      -5.976   0.627  -4.505  0.00  0.00    -0.070 Cl
ATOM      8 Cl1  UNL d   1      -6.000   3.665  -5.676  0.00  0.00    -0.070 Cl
ENDROOT
TORSDOF 0
ENDMDL
