MODEL 1
REMARK minimizedAffinity -3.45966959
REMARK minimizedRMSD -1
REMARK  0 active torsions:
REMARK  status: ('A' for Active; 'I' for Inactive)
ROOT
ATOM      1  C1  BNZ d   1       0.433  -0.364   1.337  0.00  0.00     0.000 A 
ATOM      2  C2  BNZ d   1       0.933  -0.230   0.069  0.00  0.00     0.000 A 
ATOM      3  C3  BNZ d   1       0.123   0.146  -0.967  0.00  0.00     0.000 A 
ATOM      4  C4  BNZ d   1      -1.191   0.350  -0.741  0.00  0.00     0.000 A 
ATOM      5  C5  BNZ d   1      -1.711   0.210   0.530  0.00  0.00     0.000 A 
ATOM      6  C6  BNZ d   1      -0.886  -0.131   1.577  0.00  0.00     0.000 A 
ENDROOT
TORSDOF 0
ENDMDL
