MODEL 1
REMARK minimizedAffinity -4.15049219
REMARK minimizedRMSD -1
REMARK  0 active torsions:
REMARK  status: ('A' for Active; 'I' for Inactive)
ROOT
ATOM      1  C1  BNZ d   1       0.756   2.173  -2.507  0.00  0.00     0.000 A 
ATOM      2  C2  BNZ d   1      -0.376   2.903  -2.756  0.00  0.00     0.000 A 
ATOM      3  C3  BNZ d   1      -1.573   2.550  -2.199  0.00  0.00     0.000 A 
ATOM      4  C4  BNZ d   1      -1.645   1.446  -1.427  0.00  0.00     0.000 A 
ATOM      5  C5  BNZ d   1      -0.515   0.695  -1.173  0.00  0.00     0.000 A 
ATOM      6  C6  BNZ d   1       0.696   1.075  -1.704  0.00  0.00     0.000 A 
ENDROOT
TORSDOF 0
ENDMDL
