MODEL 1
REMARK minimizedAffinity -4.75521135
REMARK minimizedRMSD -1
REMARK  0 active torsions:
REMARK  status: ('A' for Active; 'I' for Inactive)
ROOT
ATOM      1  C1  BNZ d   1       1.452  -0.360   0.504  0.00  0.00     0.000 A 
ATOM      2  C2  BNZ d   1       0.439  -0.060  -0.367  0.00  0.00     0.000 A 
ATOM      3  C3  BNZ d   1      -0.855   0.024   0.066  0.00  0.00     0.000 A 
ATOM      4  C4  BNZ d   1      -1.139  -0.233   1.359  0.00  0.00     0.000 A 
ATOM      5  C5  BNZ d   1      -0.130  -0.546   2.248  0.00  0.00     0.000 A 
ATOM      6  C6  BNZ d   1       1.176  -0.591   1.816  0.00  0.00     0.000 A 
ENDROOT
TORSDOF 0
ENDMDL
