MODEL 1
REMARK minimizedAffinity -2.5160017
REMARK minimizedRMSD -1
REMARK  0 active torsions:
REMARK  status: ('A' for Active; 'I' for Inactive)
ROOT
ATOM      1  C1  BNZ d   1       1.356  -1.358  -0.080  0.00  0.00     0.000 A 
ATOM      2  C2  BNZ d   1       0.660  -1.010   1.047  0.00  0.00     0.000 A 
ATOM      3  C3  BNZ d   1      -0.493  -0.281   0.960  0.00  0.00     0.000 A 
ATOM      4  C4  BNZ d   1      -0.926   0.133  -0.249  0.00  0.00     0.000 A 
ATOM      5  C5  BNZ d   1      -0.230  -0.201  -1.393  0.00  0.00     0.000 A 
ATOM      6  C6  BNZ d   1       0.909  -0.968  -1.305  0.00  0.00     0.000 A 
ENDROOT
TORSDOF 0
ENDMDL
