MODEL 1
REMARK minimizedAffinity 14.6381941
REMARK minimizedRMSD -1
REMARK  3 active torsions:
REMARK  status: ('A' for Active; 'I' for Inactive)
REMARK    1  A    between atoms: C3'_2  and  C2'_3 
REMARK    2  A    between atoms: C2'_3  and  C1'_4 
REMARK    3  A    between atoms: C1'_4  and  C1_5 
ROOT
ATOM      1  C1  N4B d   1      -0.461   2.532   0.536  0.00  0.00    -0.075 A 
ATOM      2  C2  N4B d   1       0.820   2.129   0.974  0.00  0.00     0.002 A 
ATOM      3  C3  N4B d   1       0.962   1.488   2.180  0.00  0.00     0.002 A 
ATOM      4  C4  N4B d   1      -0.154   1.257   2.970  0.00  0.00    -0.004 A 
ATOM      5  C5  N4B d   1      -1.390   1.627   2.528  0.00  0.00     0.002 A 
ATOM      6  C6  N4B d   1      -1.549   2.269   1.316  0.00  0.00     0.002 A 
ENDROOT
BRANCH   1   7
ATOM      7  C1' N4B d   1      -0.656   3.313  -0.735  0.00  0.00     0.057 C 
BRANCH   7   8
ATOM      8  C2' N4B d   1       0.492   3.005  -1.693  0.00  0.00     0.009 C 
BRANCH   8   9
ATOM      9  C3' N4B d   1       1.237   4.261  -2.109  0.00  0.00     0.004 C 
ATOM     10  C4' N4B d   1       2.328   4.634  -1.149  0.00  0.00     0.003 C 
ENDBRANCH   8   9
ENDBRANCH   7   8
ENDBRANCH   1   7
TORSDOF 3
ENDMDL
