MODEL 1
REMARK minimizedAffinity 10.9195786
REMARK minimizedRMSD -1
REMARK  3 active torsions:
REMARK  status: ('A' for Active; 'I' for Inactive)
REMARK    1  A    between atoms: C3'_2  and  C2'_3 
REMARK    2  A    between atoms: C2'_3  and  C1'_4 
REMARK    3  A    between atoms: C1'_4  and  C1_5 
ROOT
ATOM      1  C1  N4B d   1       2.084  -1.792   3.525  0.00  0.00    -0.075 A 
ATOM      2  C2  N4B d   1       2.590  -2.954   4.149  0.00  0.00     0.002 A 
ATOM      3  C3  N4B d   1       2.102  -3.344   5.372  0.00  0.00     0.002 A 
ATOM      4  C4  N4B d   1       1.126  -2.582   5.996  0.00  0.00    -0.004 A 
ATOM      5  C5  N4B d   1       0.624  -1.476   5.375  0.00  0.00     0.002 A 
ATOM      6  C6  N4B d   1       1.103  -1.074   4.144  0.00  0.00     0.002 A 
ENDROOT
BRANCH   1   7
ATOM      7  C1' N4B d   1       2.647  -1.278   2.228  0.00  0.00     0.057 C 
BRANCH   7   8
ATOM      8  C2' N4B d   1       2.742  -2.430   1.232  0.00  0.00     0.009 C 
BRANCH   8   9
ATOM      9  C3' N4B d   1       2.254  -2.029  -0.149  0.00  0.00     0.004 C 
ATOM     10  C4' N4B d   1       1.335  -3.046  -0.758  0.00  0.00     0.003 C 
ENDBRANCH   8   9
ENDBRANCH   7   8
ENDBRANCH   1   7
TORSDOF 3
ENDMDL
