MODEL 1
REMARK minimizedAffinity 17.1932278
REMARK minimizedRMSD -1
REMARK  3 active torsions:
REMARK  status: ('A' for Active; 'I' for Inactive)
REMARK    1  A    between atoms: C3'_2  and  C2'_3 
REMARK    2  A    between atoms: C2'_3  and  C1'_4 
REMARK    3  A    between atoms: C1'_4  and  C1_5 
ROOT
ATOM      1  C1  N4B d   1       0.445   2.440   0.668  0.00  0.00    -0.075 A 
ATOM      2  C2  N4B d   1      -0.925   2.590   0.358  0.00  0.00     0.002 A 
ATOM      3  C3  N4B d   1      -1.301   3.216  -0.804  0.00  0.00     0.002 A 
ATOM      4  C4  N4B d   1      -0.330   3.715  -1.660  0.00  0.00    -0.004 A 
ATOM      5  C5  N4B d   1       0.991   3.543  -1.366  0.00  0.00     0.002 A 
ATOM      6  C6  N4B d   1       1.384   2.912  -0.203  0.00  0.00     0.002 A 
ENDROOT
BRANCH   1   7
ATOM      7  C1' N4B d   1       0.904   1.838   1.968  0.00  0.00     0.057 C 
BRANCH   7   8
ATOM      8  C2' N4B d   1       2.321   1.299   1.798  0.00  0.00     0.009 C 
BRANCH   8   9
ATOM      9  C3' N4B d   1       3.352   2.190   2.468  0.00  0.00     0.004 C 
ATOM     10  C4' N4B d   1       2.732   3.293   3.273  0.00  0.00     0.003 C 
ENDBRANCH   8   9
ENDBRANCH   7   8
ENDBRANCH   1   7
TORSDOF 3
ENDMDL
