MODEL 1
REMARK minimizedAffinity 23.0326843
REMARK minimizedRMSD -1
REMARK  3 active torsions:
REMARK  status: ('A' for Active; 'I' for Inactive)
REMARK    1  A    between atoms: C3'_2  and  C2'_3 
REMARK    2  A    between atoms: C2'_3  and  C1'_4 
REMARK    3  A    between atoms: C1'_4  and  C1_5 
ROOT
ATOM      1  C1  N4B d   1      -0.216   1.141   2.658  0.00  0.00    -0.075 A 
ATOM      2  C2  N4B d   1      -1.477   1.491   2.127  0.00  0.00     0.002 A 
ATOM      3  C3  N4B d   1      -1.565   2.032   0.868  0.00  0.00     0.002 A 
ATOM      4  C4  N4B d   1      -0.410   2.248   0.131  0.00  0.00    -0.004 A 
ATOM      5  C5  N4B d   1       0.801   1.883   0.641  0.00  0.00     0.002 A 
ATOM      6  C6  N4B d   1       0.905   1.335   1.904  0.00  0.00     0.002 A 
ENDROOT
BRANCH   1   7
ATOM      7  C1' N4B d   1      -0.061   0.626   4.063  0.00  0.00     0.057 C 
BRANCH   7   8
ATOM      8  C2' N4B d   1      -0.703  -0.754   4.164  0.00  0.00     0.009 C 
BRANCH   8   9
ATOM      9  C3' N4B d   1      -0.287  -1.482   5.431  0.00  0.00     0.004 C 
ATOM     10  C4' N4B d   1      -1.383  -2.335   5.997  0.00  0.00     0.003 C 
ENDBRANCH   8   9
ENDBRANCH   7   8
ENDBRANCH   1   7
TORSDOF 3
ENDMDL
