MODEL 1
REMARK minimizedAffinity 11.8318005
REMARK minimizedRMSD -1
REMARK  3 active torsions:
REMARK  status: ('A' for Active; 'I' for Inactive)
REMARK    1  A    between atoms: C3'_2  and  C2'_3 
REMARK    2  A    between atoms: C2'_3  and  C1'_4 
REMARK    3  A    between atoms: C1'_4  and  C1_5 
ROOT
ATOM      1  C1  N4B d   1       2.359  -4.958  -1.767  0.00  0.00    -0.075 A 
ATOM      2  C2  N4B d   1       1.758  -4.882  -3.042  0.00  0.00     0.002 A 
ATOM      3  C3  N4B d   1       0.667  -4.071  -3.239  0.00  0.00     0.002 A 
ATOM      4  C4  N4B d   1       0.150  -3.346  -2.176  0.00  0.00    -0.004 A 
ATOM      5  C5  N4B d   1       0.753  -3.406  -0.953  0.00  0.00     0.002 A 
ATOM      6  C6  N4B d   1       1.853  -4.213  -0.742  0.00  0.00     0.002 A 
ENDROOT
BRANCH   1   7
ATOM      7  C1' N4B d   1       3.501  -5.896  -1.483  0.00  0.00     0.057 C 
BRANCH   7   8
ATOM      8  C2' N4B d   1       4.640  -5.608  -2.456  0.00  0.00     0.009 C 
BRANCH   8   9
ATOM      9  C3' N4B d   1       5.994  -5.631  -1.769  0.00  0.00     0.004 C 
ATOM     10  C4' N4B d   1       6.000  -4.882  -0.471  0.00  0.00     0.003 C 
ENDBRANCH   8   9
ENDBRANCH   7   8
ENDBRANCH   1   7
TORSDOF 3
ENDMDL
