MODEL 1
REMARK minimizedAffinity -4.35313654
REMARK minimizedRMSD -1
REMARK  0 active torsions:
REMARK  status: ('A' for Active; 'I' for Inactive)
ROOT
ATOM      1  C4' PXY d   1      -1.953   2.107   1.887  0.00  0.00     0.077 C 
ATOM      2  C1' PXY d   1       0.943  -1.717  -1.338  0.00  0.00     0.077 C 
ATOM      3  C1  PXY d   1       0.181  -0.724  -0.484  0.00  0.00    -0.082 A 
ATOM      4  C2  PXY d   1      -0.281   0.389  -1.030  0.00  0.00     0.003 A 
ATOM      5  C3  PXY d   1      -0.945   1.314  -0.265  0.00  0.00     0.003 A 
ATOM      6  C4  PXY d   1      -1.185   1.071   1.060  0.00  0.00    -0.082 A 
ATOM      7  C5  PXY d   1      -0.727  -0.067   1.623  0.00  0.00     0.003 A 
ATOM      8  C6  PXY d   1      -0.019  -0.974   0.838  0.00  0.00     0.003 A 
ENDROOT
TORSDOF 0
ENDMDL
