MODEL 1
REMARK minimizedAffinity -6.1767025
REMARK minimizedRMSD -1
REMARK  0 active torsions:
REMARK  status: ('A' for Active; 'I' for Inactive)
ROOT
ATOM      1  C4' PXY d   1       0.531  -2.937  -1.231  0.00  0.00     0.077 C 
ATOM      2  C1' PXY d   1      -1.397   1.591   1.802  0.00  0.00     0.077 C 
ATOM      3  C1  PXY d   1      -0.889   0.411   0.996  0.00  0.00    -0.082 A 
ATOM      4  C2  PXY d   1      -1.264  -0.815   1.324  0.00  0.00     0.003 A 
ATOM      5  C3  PXY d   1      -0.789  -1.895   0.626  0.00  0.00     0.003 A 
ATOM      6  C4  PXY d   1       0.036  -1.716  -0.452  0.00  0.00    -0.082 A 
ATOM      7  C5  PXY d   1       0.414  -0.467  -0.800  0.00  0.00     0.003 A 
ATOM      8  C6  PXY d   1      -0.047   0.613  -0.053  0.00  0.00     0.003 A 
ENDROOT
TORSDOF 0
ENDMDL
