MODEL 1
REMARK minimizedAffinity -2.94976211
REMARK minimizedRMSD -1
REMARK  0 active torsions:
REMARK  status: ('A' for Active; 'I' for Inactive)
ROOT
ATOM      1  C4' PXY d   1       1.924   0.290  -1.398  0.00  0.00     0.077 C 
ATOM      2  C1' PXY d   1      -3.005   1.248   1.467  0.00  0.00     0.077 C 
ATOM      3  C1  PXY d   1      -1.707   0.993   0.727  0.00  0.00    -0.082 A 
ATOM      4  C2  PXY d   1      -1.446   1.659  -0.386  0.00  0.00     0.003 A 
ATOM      5  C3  PXY d   1      -0.292   1.417  -1.085  0.00  0.00     0.003 A 
ATOM      6  C4  PXY d   1       0.630   0.522  -0.612  0.00  0.00    -0.082 A 
ATOM      7  C5  PXY d   1       0.376  -0.154   0.528  0.00  0.00     0.003 A 
ATOM      8  C6  PXY d   1      -0.820   0.076   1.201  0.00  0.00     0.003 A 
ENDROOT
TORSDOF 0
ENDMDL
