MODEL 1
REMARK minimizedAffinity -4.52986002
REMARK minimizedRMSD -1
REMARK  0 active torsions:
REMARK  status: ('A' for Active; 'I' for Inactive)
ROOT
ATOM      1  C4' PXY d   1       0.913  -2.682  -1.436  0.00  0.00     0.077 C 
ATOM      2  C1' PXY d   1      -1.314   1.527   1.842  0.00  0.00     0.077 C 
ATOM      3  C1  PXY d   1      -0.732   0.430   0.971  0.00  0.00    -0.082 A 
ATOM      4  C2  PXY d   1      -0.691  -0.812   1.425  0.00  0.00     0.003 A 
ATOM      5  C3  PXY d   1      -0.140  -1.810   0.664  0.00  0.00     0.003 A 
ATOM      6  C4  PXY d   1       0.326  -1.544  -0.596  0.00  0.00    -0.082 A 
ATOM      7  C5  PXY d   1       0.278  -0.281  -1.070  0.00  0.00     0.003 A 
ATOM      8  C6  PXY d   1      -0.248   0.726  -0.266  0.00  0.00     0.003 A 
ENDROOT
TORSDOF 0
ENDMDL
