MODEL 1
REMARK minimizedAffinity -4.17372179
REMARK minimizedRMSD -1
REMARK  0 active torsions:
REMARK  status: ('A' for Active; 'I' for Inactive)
ROOT
ATOM      1  C4' PXY d   1       1.036  -1.764  -1.590  0.00  0.00     0.077 C 
ATOM      2  C1' PXY d   1      -1.615   2.081   1.816  0.00  0.00     0.077 C 
ATOM      3  C1  PXY d   1      -0.925   1.079   0.912  0.00  0.00    -0.082 A 
ATOM      4  C2  PXY d   1      -0.629  -0.124   1.375  0.00  0.00     0.003 A 
ATOM      5  C3  PXY d   1       0.024  -1.032   0.582  0.00  0.00     0.003 A 
ATOM      6  C4  PXY d   1       0.330  -0.723  -0.717  0.00  0.00    -0.082 A 
ATOM      7  C5  PXY d   1       0.022   0.499  -1.200  0.00  0.00     0.003 A 
ATOM      8  C6  PXY d   1      -0.604   1.420  -0.366  0.00  0.00     0.003 A 
ENDROOT
TORSDOF 0
ENDMDL
