MODEL 1
REMARK minimizedAffinity -3.39335179
REMARK minimizedRMSD -1
REMARK  0 active torsions:
REMARK  status: ('A' for Active; 'I' for Inactive)
ROOT
ATOM      1  C4' PXY d   1       1.245  -0.876  -0.091  0.00  0.00     0.077 C 
ATOM      2  C1' PXY d   1      -3.115   2.532   1.579  0.00  0.00     0.077 C 
ATOM      3  C1  PXY d   1      -1.979   1.635   1.131  0.00  0.00    -0.082 A 
ATOM      4  C2  PXY d   1      -1.104   1.192   2.020  0.00  0.00     0.003 A 
ATOM      5  C3  PXY d   1      -0.052   0.406   1.627  0.00  0.00     0.003 A 
ATOM      6  C4  PXY d   1       0.076   0.024   0.318  0.00  0.00    -0.082 A 
ATOM      7  C5  PXY d   1      -0.818   0.463  -0.594  0.00  0.00     0.003 A 
ATOM      8  C6  PXY d   1      -1.855   1.294  -0.181  0.00  0.00     0.003 A 
ENDROOT
TORSDOF 0
ENDMDL
