MODEL 1
REMARK minimizedAffinity -5.56900787
REMARK minimizedRMSD -1
REMARK  0 active torsions:
REMARK  status: ('A' for Active; 'I' for Inactive)
ROOT
ATOM      1  C4' PXY d   1      -1.864  -1.167   2.525  0.00  0.00     0.077 C 
ATOM      2  C1' PXY d   1       0.015   2.823  -1.212  0.00  0.00     0.077 C 
ATOM      3  C1  PXY d   1      -0.474   1.767  -0.240  0.00  0.00    -0.082 A 
ATOM      4  C2  PXY d   1      -1.381   2.085   0.670  0.00  0.00     0.003 A 
ATOM      5  C3  PXY d   1      -1.811   1.151   1.577  0.00  0.00     0.003 A 
ATOM      6  C4  PXY d   1      -1.348  -0.136   1.518  0.00  0.00    -0.082 A 
ATOM      7  C5  PXY d   1      -0.431  -0.471   0.585  0.00  0.00     0.003 A 
ATOM      8  C6  PXY d   1       0.023   0.502  -0.300  0.00  0.00     0.003 A 
ENDROOT
TORSDOF 0
ENDMDL
