MODEL 1
REMARK minimizedAffinity -2.17583132
REMARK minimizedRMSD -1
REMARK  0 active torsions:
REMARK  status: ('A' for Active; 'I' for Inactive)
ROOT
ATOM      1  C4' PXY d   1       1.239  -1.878  -1.168  0.00  0.00     0.077 C 
ATOM      2  C1' PXY d   1      -2.042   1.822   1.826  0.00  0.00     0.077 C 
ATOM      3  C1  PXY d   1      -1.187   0.856   1.030  0.00  0.00    -0.082 A 
ATOM      4  C2  PXY d   1      -0.729  -0.243   1.608  0.00  0.00     0.003 A 
ATOM      5  C3  PXY d   1       0.073  -1.111   0.912  0.00  0.00     0.003 A 
ATOM      6  C4  PXY d   1       0.364  -0.879  -0.405  0.00  0.00    -0.082 A 
ATOM      7  C5  PXY d   1      -0.108   0.233  -1.006  0.00  0.00     0.003 A 
ATOM      8  C6  PXY d   1      -0.886   1.123  -0.270  0.00  0.00     0.003 A 
ENDROOT
TORSDOF 0
ENDMDL
