MODEL 1
REMARK minimizedAffinity -4.73632669
REMARK minimizedRMSD -1
REMARK  0 active torsions:
REMARK  status: ('A' for Active; 'I' for Inactive)
ROOT
ATOM      1  C4' PXY d   1       0.855  -1.898  -0.736  0.00  0.00     0.077 C 
ATOM      2  C1' PXY d   1      -2.195   2.463   1.519  0.00  0.00     0.077 C 
ATOM      3  C1  PXY d   1      -1.391   1.316   0.940  0.00  0.00    -0.082 A 
ATOM      4  C2  PXY d   1      -1.067   1.327  -0.343  0.00  0.00     0.003 A 
ATOM      5  C3  PXY d   1      -0.367   0.283  -0.891  0.00  0.00     0.003 A 
ATOM      6  C4  PXY d   1       0.052  -0.758  -0.106  0.00  0.00    -0.082 A 
ATOM      7  C5  PXY d   1      -0.265  -0.771   1.206  0.00  0.00     0.003 A 
ATOM      8  C6  PXY d   1      -1.012   0.279   1.734  0.00  0.00     0.003 A 
ENDROOT
TORSDOF 0
ENDMDL
