MODEL 1
REMARK minimizedAffinity -5.13872576
REMARK minimizedRMSD -1
REMARK  0 active torsions:
REMARK  status: ('A' for Active; 'I' for Inactive)
ROOT
ATOM      1  C4' PXY d   1       1.401  -2.075   2.882  0.00  0.00     0.077 C 
ATOM      2  C1' PXY d   1      -1.793   1.567  -0.273  0.00  0.00     0.077 C 
ATOM      3  C1  PXY d   1      -0.951   0.606   0.543  0.00  0.00    -0.082 A 
ATOM      4  C2  PXY d   1      -1.292   0.336   1.793  0.00  0.00     0.003 A 
ATOM      5  C3  PXY d   1      -0.524  -0.505   2.555  0.00  0.00     0.003 A 
ATOM      6  C4  PXY d   1       0.575  -1.118   2.017  0.00  0.00    -0.082 A 
ATOM      7  C5  PXY d   1       0.924  -0.856   0.740  0.00  0.00     0.003 A 
ATOM      8  C6  PXY d   1       0.155   0.033  -0.005  0.00  0.00     0.003 A 
ENDROOT
TORSDOF 0
ENDMDL
