MODEL 1
REMARK minimizedAffinity -4.57530212
REMARK minimizedRMSD -1
REMARK  0 active torsions:
REMARK  status: ('A' for Active; 'I' for Inactive)
ROOT
ATOM      1  C4' PXY d   1       0.568  -1.788  -1.389  0.00  0.00     0.077 C 
ATOM      2  C1' PXY d   1      -2.428   2.384   1.264  0.00  0.00     0.077 C 
ATOM      3  C1  PXY d   1      -1.632   1.292   0.576  0.00  0.00    -0.082 A 
ATOM      4  C2  PXY d   1      -1.940   0.939  -0.662  0.00  0.00     0.003 A 
ATOM      5  C3  PXY d   1      -1.251  -0.068  -1.287  0.00  0.00     0.003 A 
ATOM      6  C4  PXY d   1      -0.202  -0.685  -0.659  0.00  0.00    -0.082 A 
ATOM      7  C5  PXY d   1       0.125  -0.323   0.600  0.00  0.00     0.003 A 
ATOM      8  C6  PXY d   1      -0.613   0.674   1.232  0.00  0.00     0.003 A 
ENDROOT
TORSDOF 0
ENDMDL
