MODEL 1
REMARK minimizedAffinity -4.39170456
REMARK minimizedRMSD -1
REMARK  0 active torsions:
REMARK  status: ('A' for Active; 'I' for Inactive)
ROOT
ATOM      1  C4' PXY d   1      -0.127   2.787  -1.524  0.00  0.00     0.077 C 
ATOM      2  C1' PXY d   1      -0.891  -1.283   2.508  0.00  0.00     0.077 C 
ATOM      3  C1  PXY d   1      -0.679  -0.220   1.448  0.00  0.00    -0.082 A 
ATOM      4  C2  PXY d   1      -1.380   0.900   1.496  0.00  0.00     0.003 A 
ATOM      5  C3  PXY d   1      -1.224   1.858   0.528  0.00  0.00     0.003 A 
ATOM      6  C4  PXY d   1      -0.301   1.691  -0.470  0.00  0.00    -0.082 A 
ATOM      7  C5  PXY d   1       0.426   0.555  -0.519  0.00  0.00     0.003 A 
ATOM      8  C6  PXY d   1       0.223  -0.423   0.450  0.00  0.00     0.003 A 
ENDROOT
TORSDOF 0
ENDMDL
