MODEL 1
REMARK minimizedAffinity -4.84956503
REMARK minimizedRMSD -1
REMARK  0 active torsions:
REMARK  status: ('A' for Active; 'I' for Inactive)
ROOT
ATOM      1  C4' PXY d   1      -2.542   2.535   1.738  0.00  0.00     0.077 C 
ATOM      2  C1' PXY d   1       1.193  -1.107  -0.751  0.00  0.00     0.077 C 
ATOM      3  C1  PXY d   1       0.212  -0.160  -0.089  0.00  0.00    -0.082 A 
ATOM      4  C2  PXY d   1      -0.457   0.711  -0.827  0.00  0.00     0.003 A 
ATOM      5  C3  PXY d   1      -1.324   1.596  -0.240  0.00  0.00     0.003 A 
ATOM      6  C4  PXY d   1      -1.549   1.554   1.110  0.00  0.00    -0.082 A 
ATOM      7  C5  PXY d   1      -0.878   0.661   1.869  0.00  0.00     0.003 A 
ATOM      8  C6  PXY d   1       0.029  -0.201   1.259  0.00  0.00     0.003 A 
ENDROOT
TORSDOF 0
ENDMDL
