MODEL 1
REMARK minimizedAffinity -2.4063766
REMARK minimizedRMSD -1
REMARK  0 active torsions:
REMARK  status: ('A' for Active; 'I' for Inactive)
ROOT
ATOM      1  C4' PXY d   1      -0.857   1.456   2.490  0.00  0.00     0.077 C 
ATOM      2  C1' PXY d   1       0.165  -1.668  -2.265  0.00  0.00     0.077 C 
ATOM      3  C1  PXY d   1      -0.104  -0.838  -1.025  0.00  0.00    -0.082 A 
ATOM      4  C2  PXY d   1       0.309  -1.272   0.154  0.00  0.00     0.003 A 
ATOM      5  C3  PXY d   1       0.046  -0.549   1.290  0.00  0.00     0.003 A 
ATOM      6  C4  PXY d   1      -0.599   0.656   1.210  0.00  0.00    -0.082 A 
ATOM      7  C5  PXY d   1      -1.014   1.110   0.009  0.00  0.00     0.003 A 
ATOM      8  C6  PXY d   1      -0.774   0.342  -1.127  0.00  0.00     0.003 A 
ENDROOT
TORSDOF 0
ENDMDL
