MODEL 1
REMARK minimizedAffinity -3.65899539
REMARK minimizedRMSD -1
REMARK  0 active torsions:
REMARK  status: ('A' for Active; 'I' for Inactive)
ROOT
ATOM      1  C4' PXY d   1       0.837  -1.968  -1.714  0.00  0.00     0.077 C 
ATOM      2  C1' PXY d   1      -0.715   2.198   1.980  0.00  0.00     0.077 C 
ATOM      3  C1  PXY d   1      -0.306   1.114   1.003  0.00  0.00    -0.082 A 
ATOM      4  C2  PXY d   1      -0.779  -0.112   1.149  0.00  0.00     0.003 A 
ATOM      5  C3  PXY d   1      -0.394  -1.112   0.293  0.00  0.00     0.003 A 
ATOM      6  C4  PXY d   1       0.443  -0.841  -0.756  0.00  0.00    -0.082 A 
ATOM      7  C5  PXY d   1       0.922   0.411  -0.919  0.00  0.00     0.003 A 
ATOM      8  C6  PXY d   1       0.552   1.402  -0.014  0.00  0.00     0.003 A 
ENDROOT
TORSDOF 0
ENDMDL
