MODEL 1
REMARK minimizedAffinity -5.34032822
REMARK minimizedRMSD -1
REMARK  0 active torsions:
REMARK  status: ('A' for Active; 'I' for Inactive)
ROOT
ATOM      1  C4' PXY d   1       1.133  -1.948  -0.987  0.00  0.00     0.077 C 
ATOM      2  C1' PXY d   1      -1.833   2.357   1.481  0.00  0.00     0.077 C 
ATOM      3  C1  PXY d   1      -1.053   1.223   0.846  0.00  0.00    -0.082 A 
ATOM      4  C2  PXY d   1      -0.484   1.401  -0.336  0.00  0.00     0.003 A 
ATOM      5  C3  PXY d   1       0.198   0.376  -0.939  0.00  0.00     0.003 A 
ATOM      6  C4  PXY d   1       0.344  -0.828  -0.303  0.00  0.00    -0.082 A 
ATOM      7  C5  PXY d   1      -0.225  -1.014   0.907  0.00  0.00     0.003 A 
ATOM      8  C6  PXY d   1      -0.948   0.026   1.484  0.00  0.00     0.003 A 
ENDROOT
TORSDOF 0
ENDMDL
