MODEL 1
REMARK minimizedAffinity -4.05816507
REMARK minimizedRMSD -1
REMARK  0 active torsions:
REMARK  status: ('A' for Active; 'I' for Inactive)
ROOT
ATOM      1  C4' PXY d   1       1.053  -1.916  -1.301  0.00  0.00     0.077 C 
ATOM      2  C1' PXY d   1      -1.972   2.034   1.641  0.00  0.00     0.077 C 
ATOM      3  C1  PXY d   1      -1.178   1.007   0.859  0.00  0.00    -0.082 A 
ATOM      4  C2  PXY d   1      -1.304  -0.278   1.151  0.00  0.00     0.003 A 
ATOM      5  C3  PXY d   1      -0.569  -1.218   0.476  0.00  0.00     0.003 A 
ATOM      6  C4  PXY d   1       0.264  -0.844  -0.544  0.00  0.00    -0.082 A 
ATOM      7  C5  PXY d   1       0.390   0.463  -0.855  0.00  0.00     0.003 A 
ATOM      8  C6  PXY d   1      -0.334   1.406  -0.130  0.00  0.00     0.003 A 
ENDROOT
TORSDOF 0
ENDMDL
