MODEL 1
REMARK minimizedAffinity -4.20418835
REMARK minimizedRMSD -1
REMARK  0 active torsions:
REMARK  status: ('A' for Active; 'I' for Inactive)
ROOT
ATOM      1  C4' PXY d   1       0.921  -1.693  -1.663  0.00  0.00     0.077 C 
ATOM      2  C1' PXY d   1      -1.257   2.067   2.149  0.00  0.00     0.077 C 
ATOM      3  C1  PXY d   1      -0.684   1.091   1.141  0.00  0.00    -0.082 A 
ATOM      4  C2  PXY d   1      -0.996  -0.193   1.223  0.00  0.00     0.003 A 
ATOM      5  C3  PXY d   1      -0.461  -1.094   0.339  0.00  0.00     0.003 A 
ATOM      6  C4  PXY d   1       0.359  -0.670  -0.672  0.00  0.00    -0.082 A 
ATOM      7  C5  PXY d   1       0.673   0.639  -0.769  0.00  0.00     0.003 A 
ATOM      8  C6  PXY d   1       0.152   1.532   0.163  0.00  0.00     0.003 A 
ENDROOT
TORSDOF 0
ENDMDL
