MODEL 1
REMARK minimizedAffinity -3.53422713
REMARK minimizedRMSD -1
REMARK  0 active torsions:
REMARK  status: ('A' for Active; 'I' for Inactive)
ROOT
ATOM      1  C4' PXY d   1      -2.181   2.040   1.514  0.00  0.00     0.077 C 
ATOM      2  C1' PXY d   1       1.685  -1.355  -1.120  0.00  0.00     0.077 C 
ATOM      3  C1  PXY d   1       0.675  -0.455  -0.437  0.00  0.00    -0.082 A 
ATOM      4  C2  PXY d   1       0.291  -0.723   0.800  0.00  0.00     0.003 A 
ATOM      5  C3  PXY d   1      -0.646   0.062   1.422  0.00  0.00     0.003 A 
ATOM      6  C4  PXY d   1      -1.156   1.164   0.789  0.00  0.00    -0.082 A 
ATOM      7  C5  PXY d   1      -0.762   1.450  -0.470  0.00  0.00     0.003 A 
ATOM      8  C6  PXY d   1       0.160   0.617  -1.098  0.00  0.00     0.003 A 
ENDROOT
TORSDOF 0
ENDMDL
