MODEL 1
REMARK minimizedAffinity 7.84430122
REMARK minimizedRMSD -1
REMARK  0 active torsions:
REMARK  status: ('A' for Active; 'I' for Inactive)
ROOT
ATOM      1  O1  BZF d   1       2.545  -4.892   5.377  0.00  0.00    -0.204 OA
ATOM      2  C2  BZF d   1       1.877  -5.929   6.000  0.00  0.00     0.174 A 
ATOM      3  C3  BZF d   1       0.546  -5.710   6.000  0.00  0.00    -0.012 A 
ATOM      4  C3A BZF d   1       0.364  -4.502   5.255  0.00  0.00    -0.107 A 
ATOM      5  C4  BZF d   1      -0.736  -3.778   4.895  0.00  0.00     0.055 A 
ATOM      6  C5  BZF d   1      -0.567  -2.605   4.230  0.00  0.00    -0.016 A 
ATOM      7  C6  BZF d   1       0.687  -2.124   3.914  0.00  0.00     0.022 A 
ATOM      8  C7  BZF d   1       1.808  -2.809   4.246  0.00  0.00     0.029 A 
ATOM      9  C7A BZF d   1       1.639  -4.011   4.889  0.00  0.00     0.058 A 
ENDROOT
TORSDOF 0
ENDMDL
