MODEL 1
REMARK minimizedAffinity 3.76837969
REMARK minimizedRMSD -1
REMARK  0 active torsions:
REMARK  status: ('A' for Active; 'I' for Inactive)
ROOT
ATOM      1  O1  BZF d   1       4.092   0.464   0.502  0.00  0.00    -0.204 OA
ATOM      2  C2  BZF d   1       3.720   1.793   0.579  0.00  0.00     0.174 A 
ATOM      3  C3  BZF d   1       2.450   1.959   0.155  0.00  0.00    -0.012 A 
ATOM      4  C3A BZF d   1       1.970   0.640  -0.122  0.00  0.00    -0.107 A 
ATOM      5  C4  BZF d   1       0.773   0.150  -0.560  0.00  0.00     0.055 A 
ATOM      6  C5  BZF d   1       0.653  -1.183  -0.798  0.00  0.00    -0.016 A 
ATOM      7  C6  BZF d   1       1.709  -2.051  -0.614  0.00  0.00     0.022 A 
ATOM      8  C7  BZF d   1       2.914  -1.612  -0.176  0.00  0.00     0.029 A 
ATOM      9  C7A BZF d   1       3.029  -0.271   0.097  0.00  0.00     0.058 A 
ENDROOT
TORSDOF 0
ENDMDL
