MODEL 1
REMARK minimizedAffinity 10.3735199
REMARK minimizedRMSD -1
REMARK  0 active torsions:
REMARK  status: ('A' for Active; 'I' for Inactive)
ROOT
ATOM      1  O1  BZF d   1       0.943   0.821   0.048  0.00  0.00    -0.204 OA
ATOM      2  C2  BZF d   1       1.265   1.843   0.920  0.00  0.00     0.174 A 
ATOM      3  C3  BZF d   1       2.282   1.480   1.728  0.00  0.00    -0.012 A 
ATOM      4  C3A BZF d   1       2.678   0.182   1.274  0.00  0.00    -0.107 A 
ATOM      5  C4  BZF d   1       3.648  -0.694   1.668  0.00  0.00     0.055 A 
ATOM      6  C5  BZF d   1       3.724  -1.910   1.066  0.00  0.00    -0.016 A 
ATOM      7  C6  BZF d   1       2.845  -2.283   0.071  0.00  0.00     0.022 A 
ATOM      8  C7  BZF d   1       1.869  -1.446  -0.358  0.00  0.00     0.029 A 
ATOM      9  C7A BZF d   1       1.810  -0.204   0.227  0.00  0.00     0.058 A 
ENDROOT
TORSDOF 0
ENDMDL
