MODEL 1
REMARK minimizedAffinity 3.05677271
REMARK minimizedRMSD -1
REMARK  0 active torsions:
REMARK  status: ('A' for Active; 'I' for Inactive)
ROOT
ATOM      1  O1  BZF d   1      -1.414   0.524  -4.000  0.00  0.00    -0.204 OA
ATOM      2  C2  BZF d   1      -0.731  -0.295  -3.122  0.00  0.00     0.174 A 
ATOM      3  C3  BZF d   1      -1.406  -0.422  -1.962  0.00  0.00    -0.012 A 
ATOM      4  C3A BZF d   1      -2.630   0.294  -2.158  0.00  0.00    -0.107 A 
ATOM      5  C4  BZF d   1      -3.722   0.519  -1.370  0.00  0.00     0.055 A 
ATOM      6  C5  BZF d   1      -4.716   1.321  -1.834  0.00  0.00    -0.016 A 
ATOM      7  C6  BZF d   1      -4.648   1.917  -3.076  0.00  0.00     0.022 A 
ATOM      8  C7  BZF d   1      -3.587   1.719  -3.896  0.00  0.00     0.029 A 
ATOM      9  C7A BZF d   1      -2.596   0.883  -3.443  0.00  0.00     0.058 A 
ENDROOT
TORSDOF 0
ENDMDL
