MODEL 1
REMARK minimizedAffinity 2.47174597
REMARK minimizedRMSD -1
REMARK  0 active torsions:
REMARK  status: ('A' for Active; 'I' for Inactive)
ROOT
ATOM      1  O1  BZF d   1       1.361   3.511   1.126  0.00  0.00    -0.204 OA
ATOM      2  C2  BZF d   1       0.080   3.045   0.904  0.00  0.00     0.174 A 
ATOM      3  C3  BZF d   1       0.099   1.748   0.535  0.00  0.00    -0.012 A 
ATOM      4  C3A BZF d   1       1.473   1.354   0.616  0.00  0.00    -0.107 A 
ATOM      5  C4  BZF d   1       2.128   0.178   0.386  0.00  0.00     0.055 A 
ATOM      6  C5  BZF d   1       3.483   0.146   0.484  0.00  0.00    -0.016 A 
ATOM      7  C6  BZF d   1       4.214   1.272   0.804  0.00  0.00     0.022 A 
ATOM      8  C7  BZF d   1       3.609   2.460   1.045  0.00  0.00     0.029 A 
ATOM      9  C7A BZF d   1       2.237   2.487   0.979  0.00  0.00     0.058 A 
ENDROOT
TORSDOF 0
ENDMDL
