MODEL 1
REMARK minimizedAffinity 10.7205954
REMARK minimizedRMSD -1
REMARK  0 active torsions:
REMARK  status: ('A' for Active; 'I' for Inactive)
ROOT
ATOM      1  O1  BZF d   1      -0.176   1.681  -0.400  0.00  0.00    -0.204 OA
ATOM      2  C2  BZF d   1       0.538   2.116   0.700  0.00  0.00     0.174 A 
ATOM      3  C3  BZF d   1       1.618   1.335   0.907  0.00  0.00    -0.012 A 
ATOM      4  C3A BZF d   1       1.627   0.408  -0.182  0.00  0.00    -0.107 A 
ATOM      5  C4  BZF d   1       2.463  -0.611  -0.541  0.00  0.00     0.055 A 
ATOM      6  C5  BZF d   1       2.149  -1.372  -1.622  0.00  0.00    -0.016 A 
ATOM      7  C6  BZF d   1       1.008  -1.147  -2.363  0.00  0.00     0.022 A 
ATOM      8  C7  BZF d   1       0.151  -0.145  -2.049  0.00  0.00     0.029 A 
ATOM      9  C7A BZF d   1       0.482   0.647  -0.977  0.00  0.00     0.058 A 
ENDROOT
TORSDOF 0
ENDMDL
