MODEL 1
REMARK minimizedAffinity 6.80650759
REMARK minimizedRMSD -1
REMARK  0 active torsions:
REMARK  status: ('A' for Active; 'I' for Inactive)
ROOT
ATOM      1  O1  BZF d   1       0.400   1.282  -0.430  0.00  0.00    -0.204 OA
ATOM      2  C2  BZF d   1       0.780   2.490   0.121  0.00  0.00     0.174 A 
ATOM      3  C3  BZF d   1       1.940   2.364   0.797  0.00  0.00    -0.012 A 
ATOM      4  C3A BZF d   1       2.355   1.011   0.582  0.00  0.00    -0.107 A 
ATOM      5  C4  BZF d   1       3.441   0.287   0.984  0.00  0.00     0.055 A 
ATOM      6  C5  BZF d   1       3.510  -1.032   0.664  0.00  0.00    -0.016 A 
ATOM      7  C6  BZF d   1       2.512  -1.659  -0.051  0.00  0.00     0.022 A 
ATOM      8  C7  BZF d   1       1.418  -0.981  -0.477  0.00  0.00     0.029 A 
ATOM      9  C7A BZF d   1       1.360   0.360  -0.183  0.00  0.00     0.058 A 
ENDROOT
TORSDOF 0
ENDMDL
