MODEL 1
REMARK minimizedAffinity -3.28806639
REMARK minimizedRMSD -1
REMARK  2 active torsions:
REMARK  status: ('A' for Active; 'I' for Inactive)
REMARK    1  A    between atoms: C2'_3  and  C1'_4 
REMARK    2  A    between atoms: C1'_4  and  C1_5 
ROOT
ATOM      1  C1  I4B d   1       0.326   0.306  -0.266  0.00  0.00    -0.075 A 
ATOM      2  C2  I4B d   1      -0.269  -0.731   0.408  0.00  0.00     0.003 A 
ATOM      3  C3  I4B d   1      -1.549  -1.194   0.017  0.00  0.00     0.002 A 
ATOM      4  C4  I4B d   1      -2.215  -0.562  -1.013  0.00  0.00    -0.004 A 
ATOM      5  C5  I4B d   1      -1.601   0.475  -1.709  0.00  0.00     0.002 A 
ATOM      6  C6  I4B d   1      -0.317   0.904  -1.342  0.00  0.00     0.003 A 
ENDROOT
BRANCH   1   7
ATOM      7  C1' I4B d   1       1.664   0.791   0.195  0.00  0.00     0.060 C 
BRANCH   7   8
ATOM      8  C2' I4B d   1       1.476   2.160   0.817  0.00  0.00    -0.013 C 
ATOM      9  C4' I4B d   1       1.283   2.059   2.307  0.00  0.00     0.013 C 
ATOM     10  C3' I4B d   1       2.678   2.991   0.481  0.00  0.00     0.013 C 
ENDBRANCH   7   8
ENDBRANCH   1   7
TORSDOF 2
ENDMDL
