MODEL 1
REMARK minimizedAffinity 0.877467573
REMARK minimizedRMSD -1
REMARK  2 active torsions:
REMARK  status: ('A' for Active; 'I' for Inactive)
REMARK    1  A    between atoms: C2'_3  and  C1'_4 
REMARK    2  A    between atoms: C1'_4  and  C1_5 
ROOT
ATOM      1  C1  I4B d   1       0.799  -0.199   0.033  0.00  0.00    -0.075 A 
ATOM      2  C2  I4B d   1       0.195   0.431  -1.026  0.00  0.00     0.003 A 
ATOM      3  C3  I4B d   1      -1.152   0.143  -1.352  0.00  0.00     0.002 A 
ATOM      4  C4  I4B d   1      -1.838  -0.812  -0.630  0.00  0.00    -0.004 A 
ATOM      5  C5  I4B d   1      -1.231  -1.434   0.457  0.00  0.00     0.002 A 
ATOM      6  C6  I4B d   1       0.092  -1.117   0.799  0.00  0.00     0.003 A 
ENDROOT
BRANCH   1   7
ATOM      7  C1' I4B d   1       2.233   0.104   0.330  0.00  0.00     0.060 C 
BRANCH   7   8
ATOM      8  C2' I4B d   1       2.348   1.589   0.610  0.00  0.00    -0.013 C 
ATOM      9  C4' I4B d   1       2.427   1.861   2.089  0.00  0.00     0.013 C 
ATOM     10  C3' I4B d   1       3.565   2.102  -0.101  0.00  0.00     0.013 C 
ENDBRANCH   7   8
ENDBRANCH   1   7
TORSDOF 2
ENDMDL
