MODEL 1
REMARK minimizedAffinity -2.38838935
REMARK minimizedRMSD -1
REMARK  2 active torsions:
REMARK  status: ('A' for Active; 'I' for Inactive)
REMARK    1  A    between atoms: C2'_3  and  C1'_4 
REMARK    2  A    between atoms: C1'_4  and  C1_5 
ROOT
ATOM      1  C1  I4B d   1       0.449   0.021  -0.266  0.00  0.00    -0.075 A 
ATOM      2  C2  I4B d   1      -0.037   0.438  -1.480  0.00  0.00     0.003 A 
ATOM      3  C3  I4B d   1      -1.359   0.111  -1.869  0.00  0.00     0.002 A 
ATOM      4  C4  I4B d   1      -2.137  -0.672  -1.040  0.00  0.00    -0.004 A 
ATOM      5  C5  I4B d   1      -1.651  -1.074   0.200  0.00  0.00     0.002 A 
ATOM      6  C6  I4B d   1      -0.354  -0.715   0.596  0.00  0.00     0.003 A 
ENDROOT
BRANCH   1   7
ATOM      7  C1' I4B d   1       1.860   0.356   0.099  0.00  0.00     0.060 C 
BRANCH   7   8
ATOM      8  C2' I4B d   1       1.890   1.794   0.575  0.00  0.00    -0.013 C 
ATOM      9  C4' I4B d   1       1.878   1.871   2.079  0.00  0.00     0.013 C 
ATOM     10  C3' I4B d   1       3.119   2.443   0.010  0.00  0.00     0.013 C 
ENDBRANCH   7   8
ENDBRANCH   1   7
TORSDOF 2
ENDMDL
