MODEL 1
REMARK minimizedAffinity -3.00651932
REMARK minimizedRMSD -1
REMARK  2 active torsions:
REMARK  status: ('A' for Active; 'I' for Inactive)
REMARK    1  A    between atoms: C2'_3  and  C1'_4 
REMARK    2  A    between atoms: C1'_4  and  C1_5 
ROOT
ATOM      1  C1  I4B d   1       1.656   0.266   0.463  0.00  0.00    -0.075 A 
ATOM      2  C2  I4B d   1       1.902  -0.813   1.274  0.00  0.00     0.003 A 
ATOM      3  C3  I4B d   1       0.882  -1.762   1.528  0.00  0.00     0.002 A 
ATOM      4  C4  I4B d   1      -0.376  -1.566   0.994  0.00  0.00    -0.004 A 
ATOM      5  C5  I4B d   1      -0.617  -0.483   0.153  0.00  0.00     0.002 A 
ATOM      6  C6  I4B d   1       0.409   0.432  -0.125  0.00  0.00     0.003 A 
ENDROOT
BRANCH   1   7
ATOM      7  C1' I4B d   1       2.747   1.266   0.243  0.00  0.00     0.060 C 
BRANCH   7   8
ATOM      8  C2' I4B d   1       2.327   2.567   0.896  0.00  0.00    -0.013 C 
ATOM      9  C4' I4B d   1       2.858   2.667   2.302  0.00  0.00     0.013 C 
ATOM     10  C3' I4B d   1       2.829   3.695   0.046  0.00  0.00     0.013 C 
ENDBRANCH   7   8
ENDBRANCH   1   7
TORSDOF 2
ENDMDL
