MODEL 1
REMARK minimizedAffinity -2.65283346
REMARK minimizedRMSD -1
REMARK  2 active torsions:
REMARK  status: ('A' for Active; 'I' for Inactive)
REMARK    1  A    between atoms: C2'_3  and  C1'_4 
REMARK    2  A    between atoms: C1'_4  and  C1_5 
ROOT
ATOM      1  C1  I4B d   1       0.511   0.212   0.011  0.00  0.00    -0.075 A 
ATOM      2  C2  I4B d   1      -0.123  -0.956   0.352  0.00  0.00     0.003 A 
ATOM      3  C3  I4B d   1      -1.316  -1.339  -0.309  0.00  0.00     0.002 A 
ATOM      4  C4  I4B d   1      -1.862  -0.504  -1.262  0.00  0.00    -0.004 A 
ATOM      5  C5  I4B d   1      -1.206   0.669  -1.623  0.00  0.00     0.002 A 
ATOM      6  C6  I4B d   1      -0.005   1.024  -0.991  0.00  0.00     0.003 A 
ENDROOT
BRANCH   1   7
ATOM      7  C1' I4B d   1       1.751   0.602   0.752  0.00  0.00     0.060 C 
BRANCH   7   8
ATOM      8  C2' I4B d   1       2.063   2.045   0.412  0.00  0.00    -0.013 C 
ATOM      9  C4' I4B d   1       2.474   2.817   1.639  0.00  0.00     0.013 C 
ATOM     10  C3' I4B d   1       3.150   2.053  -0.621  0.00  0.00     0.013 C 
ENDBRANCH   7   8
ENDBRANCH   1   7
TORSDOF 2
ENDMDL
