MODEL 1
REMARK minimizedAffinity -5.18270111
REMARK minimizedRMSD -1
REMARK  2 active torsions:
REMARK  status: ('A' for Active; 'I' for Inactive)
REMARK    1  A    between atoms: C2'_3  and  C1'_4 
REMARK    2  A    between atoms: C1'_4  and  C1_5 
ROOT
ATOM      1  C1  I4B d   1      -0.049  -0.135  -0.126  0.00  0.00    -0.075 A 
ATOM      2  C2  I4B d   1      -0.535   0.728  -1.076  0.00  0.00     0.003 A 
ATOM      3  C3  I4B d   1      -1.823   0.527  -1.628  0.00  0.00     0.002 A 
ATOM      4  C4  I4B d   1      -2.565  -0.571  -1.242  0.00  0.00    -0.004 A 
ATOM      5  C5  I4B d   1      -2.079  -1.432  -0.262  0.00  0.00     0.002 A 
ATOM      6  C6  I4B d   1      -0.818  -1.206   0.309  0.00  0.00     0.003 A 
ENDROOT
BRANCH   1   7
ATOM      7  C1' I4B d   1       1.329   0.088   0.413  0.00  0.00     0.060 C 
BRANCH   7   8
ATOM      8  C2' I4B d   1       1.640   1.567   0.302  0.00  0.00    -0.013 C 
ATOM      9  C4' I4B d   1       1.694   2.216   1.659  0.00  0.00     0.013 C 
ATOM     10  C3' I4B d   1       2.946   1.712  -0.421  0.00  0.00     0.013 C 
ENDBRANCH   7   8
ENDBRANCH   1   7
TORSDOF 2
ENDMDL
