MODEL 1
REMARK minimizedAffinity -2.50372481
REMARK minimizedRMSD -1
REMARK  2 active torsions:
REMARK  status: ('A' for Active; 'I' for Inactive)
REMARK    1  A    between atoms: C2'_3  and  C1'_4 
REMARK    2  A    between atoms: C1'_4  and  C1_5 
ROOT
ATOM      1  C1  I4B d   1       0.218  -0.277   0.260  0.00  0.00    -0.075 A 
ATOM      2  C2  I4B d   1       1.449   0.177  -0.143  0.00  0.00     0.003 A 
ATOM      3  C3  I4B d   1       2.626  -0.496   0.267  0.00  0.00     0.002 A 
ATOM      4  C4  I4B d   1       2.529  -1.580   1.115  0.00  0.00    -0.004 A 
ATOM      5  C5  I4B d   1       1.279  -2.052   1.504  0.00  0.00     0.002 A 
ATOM      6  C6  I4B d   1       0.115  -1.404   1.064  0.00  0.00     0.003 A 
ENDROOT
BRANCH   1   7
ATOM      7  C1' I4B d   1      -1.002   0.477  -0.165  0.00  0.00     0.060 C 
BRANCH   7   8
ATOM      8  C2' I4B d   1      -1.602  -0.240  -1.358  0.00  0.00    -0.013 C 
ATOM      9  C4' I4B d   1      -2.408  -1.437  -0.926  0.00  0.00     0.013 C 
ATOM     10  C3' I4B d   1      -2.450   0.741  -2.109  0.00  0.00     0.013 C 
ENDBRANCH   7   8
ENDBRANCH   1   7
TORSDOF 2
ENDMDL
