MODEL 1
REMARK minimizedAffinity -1.11288798
REMARK minimizedRMSD -1
REMARK  2 active torsions:
REMARK  status: ('A' for Active; 'I' for Inactive)
REMARK    1  A    between atoms: C2'_3  and  C1'_4 
REMARK    2  A    between atoms: C1'_4  and  C1_5 
ROOT
ATOM      1  C1  I4B d   1       1.321   1.109   0.542  0.00  0.00    -0.075 A 
ATOM      2  C2  I4B d   1       0.832   1.968   1.494  0.00  0.00     0.003 A 
ATOM      3  C3  I4B d   1       1.617   3.057   1.942  0.00  0.00     0.002 A 
ATOM      4  C4  I4B d   1       2.897   3.220   1.452  0.00  0.00    -0.004 A 
ATOM      5  C5  I4B d   1       3.383   2.362   0.470  0.00  0.00     0.002 A 
ATOM      6  C6  I4B d   1       2.586   1.307   0.003  0.00  0.00     0.003 A 
ENDROOT
BRANCH   1   7
ATOM      7  C1' I4B d   1       0.478  -0.051   0.115  0.00  0.00     0.060 C 
BRANCH   7   8
ATOM      8  C2' I4B d   1      -0.699   0.492  -0.669  0.00  0.00    -0.013 C 
ATOM      9  C4' I4B d   1      -0.331   0.730  -2.110  0.00  0.00     0.013 C 
ATOM     10  C3' I4B d   1      -1.826  -0.491  -0.553  0.00  0.00     0.013 C 
ENDBRANCH   7   8
ENDBRANCH   1   7
TORSDOF 2
ENDMDL
