MODEL 1
REMARK minimizedAffinity -1.00831556
REMARK minimizedRMSD -1
REMARK  1 active torsions:
REMARK  status: ('A' for Active; 'I' for Inactive)
REMARK    1  A    between atoms: C1_2  and  C2_3 
ROOT
ATOM      1  C2  UNL d   1       4.420   4.254   4.243  0.00  0.00    -0.077 A 
ATOM      2  C3  UNL d   1       3.104   4.094   4.697  0.00  0.00     0.002 A 
ATOM      3  C4  UNL d   1       2.349   2.989   4.297  0.00  0.00     0.002 A 
ATOM      4  C5  UNL d   1       2.903   2.035   3.446  0.00  0.00    -0.004 A 
ATOM      5  C6  UNL d   1       4.211   2.187   2.987  0.00  0.00     0.002 A 
ATOM      6  C7  UNL d   1       4.966   3.291   3.385  0.00  0.00     0.002 A 
ENDROOT
BRANCH   1   7
ATOM      7  C1  UNL d   1       5.253   5.419   4.711  0.00  0.00     0.055 C 
ATOM      8  C   UNL d   1       6.000   5.085   5.994  0.00  0.00     0.019 C 
ENDBRANCH   1   7
TORSDOF 1
ENDMDL
