MODEL 1
REMARK minimizedAffinity 0.954583645
REMARK minimizedRMSD -1
REMARK  1 active torsions:
REMARK  status: ('A' for Active; 'I' for Inactive)
REMARK    1  A    between atoms: C1_2  and  C2_3 
ROOT
ATOM      1  C2  UNL d   1       0.906  -1.885  -0.771  0.00  0.00    -0.077 A 
ATOM      2  C3  UNL d   1       1.163  -0.508  -0.703  0.00  0.00     0.002 A 
ATOM      3  C4  UNL d   1       2.308  -0.035  -0.060  0.00  0.00     0.002 A 
ATOM      4  C5  UNL d   1       3.207  -0.931   0.516  0.00  0.00    -0.004 A 
ATOM      5  C6  UNL d   1       2.959  -2.301   0.455  0.00  0.00     0.002 A 
ATOM      6  C7  UNL d   1       1.814  -2.776  -0.186  0.00  0.00     0.002 A 
ENDROOT
BRANCH   1   7
ATOM      7  C1  UNL d   1      -0.304  -2.400  -1.507  0.00  0.00     0.055 C 
ATOM      8  C   UNL d   1      -0.591  -3.852  -1.152  0.00  0.00     0.019 C 
ENDBRANCH   1   7
TORSDOF 1
ENDMDL
