MODEL 1
REMARK minimizedAffinity 3.07901883
REMARK minimizedRMSD -1
REMARK  1 active torsions:
REMARK  status: ('A' for Active; 'I' for Inactive)
REMARK    1  A    between atoms: C1_2  and  C2_3 
ROOT
ATOM      1  C2  UNL d   1       1.785   0.490   0.160  0.00  0.00    -0.077 A 
ATOM      2  C3  UNL d   1       0.610  -0.096  -0.331  0.00  0.00     0.002 A 
ATOM      3  C4  UNL d   1       0.599  -1.437  -0.720  0.00  0.00     0.002 A 
ATOM      4  C5  UNL d   1       1.758  -2.203  -0.619  0.00  0.00    -0.004 A 
ATOM      5  C6  UNL d   1       2.932  -1.629  -0.134  0.00  0.00     0.002 A 
ATOM      6  C7  UNL d   1       2.945  -0.288   0.254  0.00  0.00     0.002 A 
ENDROOT
BRANCH   1   7
ATOM      7  C1  UNL d   1       1.786   1.922   0.627  0.00  0.00     0.055 C 
ATOM      8  C   UNL d   1       0.602   2.691   0.058  0.00  0.00     0.019 C 
ENDBRANCH   1   7
TORSDOF 1
ENDMDL
