MODEL 1
REMARK minimizedAffinity 2.18597937
REMARK minimizedRMSD -1
REMARK  1 active torsions:
REMARK  status: ('A' for Active; 'I' for Inactive)
REMARK    1  A    between atoms: C1_2  and  C2_3 
ROOT
ATOM      1  C2  UNL d   1      -1.879   1.977   1.662  0.00  0.00    -0.077 A 
ATOM      2  C3  UNL d   1      -1.069   1.581   2.735  0.00  0.00     0.002 A 
ATOM      3  C4  UNL d   1       0.307   1.419   2.560  0.00  0.00     0.002 A 
ATOM      4  C5  UNL d   1       0.885   1.656   1.315  0.00  0.00    -0.004 A 
ATOM      5  C6  UNL d   1       0.087   2.048   0.240  0.00  0.00     0.002 A 
ATOM      6  C7  UNL d   1      -1.288   2.209   0.413  0.00  0.00     0.002 A 
ENDROOT
BRANCH   1   7
ATOM      7  C1  UNL d   1      -3.355   2.200   1.861  0.00  0.00     0.055 C 
ATOM      8  C   UNL d   1      -4.178   1.172   1.097  0.00  0.00     0.019 C 
ENDBRANCH   1   7
TORSDOF 1
ENDMDL
