MODEL 1
REMARK minimizedAffinity -2.50353527
REMARK minimizedRMSD -1
REMARK  1 active torsions:
REMARK  status: ('A' for Active; 'I' for Inactive)
REMARK    1  A    between atoms: C1_2  and  C2_3 
ROOT
ATOM      1  C2  UNL d   1       1.583  -1.273  -0.114  0.00  0.00    -0.077 A 
ATOM      2  C3  UNL d   1       0.480  -1.276  -0.979  0.00  0.00     0.002 A 
ATOM      3  C4  UNL d   1      -0.338  -2.403  -1.078  0.00  0.00     0.002 A 
ATOM      4  C5  UNL d   1      -0.063  -3.534  -0.312  0.00  0.00    -0.004 A 
ATOM      5  C6  UNL d   1       1.033  -3.542   0.550  0.00  0.00     0.002 A 
ATOM      6  C7  UNL d   1       1.852  -2.417   0.649  0.00  0.00     0.002 A 
ENDROOT
BRANCH   1   7
ATOM      7  C1  UNL d   1       2.437  -0.041   0.031  0.00  0.00     0.055 C 
ATOM      8  C   UNL d   1       1.609   1.158   0.470  0.00  0.00     0.019 C 
ENDBRANCH   1   7
TORSDOF 1
ENDMDL
