MODEL 1
REMARK minimizedAffinity -1.12222528
REMARK minimizedRMSD -1
REMARK  1 active torsions:
REMARK  status: ('A' for Active; 'I' for Inactive)
REMARK    1  A    between atoms: C1_2  and  C2_3 
ROOT
ATOM      1  C2  UNL d   1       5.949   3.367  -0.796  0.00  0.00    -0.077 A 
ATOM      2  C3  UNL d   1       5.965   3.619   0.583  0.00  0.00     0.002 A 
ATOM      3  C4  UNL d   1       5.990   4.931   1.061  0.00  0.00     0.002 A 
ATOM      4  C5  UNL d   1       5.997   6.000   0.166  0.00  0.00    -0.004 A 
ATOM      5  C6  UNL d   1       5.984   5.759  -1.207  0.00  0.00     0.002 A 
ATOM      6  C7  UNL d   1       5.960   4.448  -1.686  0.00  0.00     0.002 A 
ENDROOT
BRANCH   1   7
ATOM      7  C1  UNL d   1       5.872   1.954  -1.312  0.00  0.00     0.055 C 
ATOM      8  C   UNL d   1       4.447   1.421  -1.256  0.00  0.00     0.019 C 
ENDBRANCH   1   7
TORSDOF 1
ENDMDL
