MODEL 1
REMARK minimizedAffinity -2.03783178
REMARK minimizedRMSD -1
REMARK  1 active torsions:
REMARK  status: ('A' for Active; 'I' for Inactive)
REMARK    1  A    between atoms: C1_2  and  C2_3 
ROOT
ATOM      1  C2  UNL d   1       2.310  -0.764  -0.554  0.00  0.00    -0.077 A 
ATOM      2  C3  UNL d   1       1.790  -2.036  -0.830  0.00  0.00     0.002 A 
ATOM      3  C4  UNL d   1       0.424  -2.206  -1.064  0.00  0.00     0.002 A 
ATOM      4  C5  UNL d   1      -0.432  -1.107  -1.030  0.00  0.00    -0.004 A 
ATOM      5  C6  UNL d   1       0.075   0.162  -0.754  0.00  0.00     0.002 A 
ATOM      6  C7  UNL d   1       1.440   0.333  -0.518  0.00  0.00     0.002 A 
ENDROOT
BRANCH   1   7
ATOM      7  C1  UNL d   1       3.790  -0.572  -0.350  0.00  0.00     0.055 C 
ATOM      8  C   UNL d   1       4.308   0.620  -1.142  0.00  0.00     0.019 C 
ENDBRANCH   1   7
TORSDOF 1
ENDMDL
