MODEL 1
REMARK minimizedAffinity -5.45184708
REMARK minimizedRMSD -1
REMARK  1 active torsions:
REMARK  status: ('A' for Active; 'I' for Inactive)
REMARK    1  A    between atoms: C3_4  and  O_7 
ROOT
ATOM      1  C   UNL d   1      -3.096   1.312   3.115  0.00  0.00    -0.033 A 
ATOM      2  C1  UNL d   1      -2.650   0.106   2.570  0.00  0.00     0.039 A 
ATOM      3  C2  UNL d   1      -1.439   0.058   1.876  0.00  0.00    -0.080 A 
ATOM      4  C3  UNL d   1      -0.686   1.220   1.735  0.00  0.00     0.150 A 
ATOM      5  C4  UNL d   1      -1.123   2.423   2.278  0.00  0.00    -0.007 A 
ATOM      6  C5  UNL d   1      -2.332   2.470   2.969  0.00  0.00     0.039 A 
ENDROOT
BRANCH   4   7
ATOM      7  O   UNL d   1       0.500   1.222   1.061  0.00  0.00    -0.526 OA
ATOM      8  H5  UNL d   1       0.660   0.328   0.717  0.00  0.00     0.418 HD
ENDBRANCH   4   7
TORSDOF 1
ENDMDL
