MODEL 1
REMARK minimizedAffinity -0.589469969
REMARK minimizedRMSD -1
REMARK  1 active torsions:
REMARK  status: ('A' for Active; 'I' for Inactive)
REMARK    1  A    between atoms: C3_4  and  O_7 
ROOT
ATOM      1  C   UNL d   1       0.064   1.034   1.407  0.00  0.00    -0.033 A 
ATOM      2  C1  UNL d   1      -0.778  -0.035   1.718  0.00  0.00     0.039 A 
ATOM      3  C2  UNL d   1      -2.075   0.206   2.175  0.00  0.00    -0.080 A 
ATOM      4  C3  UNL d   1      -2.517   1.519   2.316  0.00  0.00     0.150 A 
ATOM      5  C4  UNL d   1      -1.684   2.589   2.004  0.00  0.00    -0.007 A 
ATOM      6  C5  UNL d   1      -0.389   2.346   1.549  0.00  0.00     0.039 A 
ENDROOT
BRANCH   4   7
ATOM      7  O   UNL d   1      -3.773   1.805   2.763  0.00  0.00    -0.526 OA
ATOM      8  H5  UNL d   1      -4.225   0.969   2.966  0.00  0.00     0.418 HD
ENDBRANCH   4   7
TORSDOF 1
ENDMDL
