MODEL 1
REMARK minimizedAffinity -0.855164647
REMARK minimizedRMSD -1
REMARK  1 active torsions:
REMARK  status: ('A' for Active; 'I' for Inactive)
REMARK    1  A    between atoms: C3_4  and  O_7 
ROOT
ATOM      1  C   UNL d   1      -0.745   1.380   1.326  0.00  0.00    -0.033 A 
ATOM      2  C1  UNL d   1      -1.477   0.221   1.590  0.00  0.00     0.039 A 
ATOM      3  C2  UNL d   1      -2.592   0.273   2.429  0.00  0.00    -0.080 A 
ATOM      4  C3  UNL d   1      -2.965   1.489   2.995  0.00  0.00     0.150 A 
ATOM      5  C4  UNL d   1      -2.242   2.649   2.733  0.00  0.00    -0.007 A 
ATOM      6  C5  UNL d   1      -1.129   2.594   1.896  0.00  0.00     0.039 A 
ENDROOT
BRANCH   4   7
ATOM      7  O   UNL d   1      -4.042   1.589   3.824  0.00  0.00    -0.526 OA
ATOM      8  H5  UNL d   1      -4.427   0.704   3.936  0.00  0.00     0.418 HD
ENDBRANCH   4   7
TORSDOF 1
ENDMDL
