MODEL 1
REMARK minimizedAffinity -0.863464713
REMARK minimizedRMSD -1
REMARK  1 active torsions:
REMARK  status: ('A' for Active; 'I' for Inactive)
REMARK    1  A    between atoms: C3_4  and  O_7 
ROOT
ATOM      1  C   UNL d   1      -0.014   0.525   1.124  0.00  0.00    -0.033 A 
ATOM      2  C1  UNL d   1      -0.935  -0.395   1.630  0.00  0.00     0.039 A 
ATOM      3  C2  UNL d   1      -1.976   0.038   2.453  0.00  0.00    -0.080 A 
ATOM      4  C3  UNL d   1      -2.086   1.392   2.761  0.00  0.00     0.150 A 
ATOM      5  C4  UNL d   1      -1.175   2.314   2.257  0.00  0.00    -0.007 A 
ATOM      6  C5  UNL d   1      -0.135   1.880   1.436  0.00  0.00     0.039 A 
ENDROOT
BRANCH   4   7
ATOM      7  O   UNL d   1      -3.083   1.861   3.564  0.00  0.00    -0.526 OA
ATOM      8  H5  UNL d   1      -3.619   1.107   3.862  0.00  0.00     0.418 HD
ENDBRANCH   4   7
TORSDOF 1
ENDMDL
