MODEL 1
REMARK minimizedAffinity -3.78178716
REMARK minimizedRMSD -1
REMARK  1 active torsions:
REMARK  status: ('A' for Active; 'I' for Inactive)
REMARK    1  A    between atoms: C3_4  and  O_7 
ROOT
ATOM      1  C   UNL d   1      -0.026   0.109   1.062  0.00  0.00    -0.033 A 
ATOM      2  C1  UNL d   1      -1.033  -0.651   1.660  0.00  0.00     0.039 A 
ATOM      3  C2  UNL d   1      -2.021  -0.027   2.424  0.00  0.00    -0.080 A 
ATOM      4  C3  UNL d   1      -1.992   1.356   2.581  0.00  0.00     0.150 A 
ATOM      5  C4  UNL d   1      -0.994   2.120   1.984  0.00  0.00    -0.007 A 
ATOM      6  C5  UNL d   1      -0.008   1.495   1.222  0.00  0.00     0.039 A 
ENDROOT
BRANCH   4   7
ATOM      7  O   UNL d   1      -2.932   2.009   3.321  0.00  0.00    -0.526 OA
ATOM      8  H5  UNL d   1      -3.540   1.351   3.696  0.00  0.00     0.418 HD
ENDBRANCH   4   7
TORSDOF 1
ENDMDL
