MODEL 1
REMARK minimizedAffinity -2.61616397
REMARK minimizedRMSD -1
REMARK  1 active torsions:
REMARK  status: ('A' for Active; 'I' for Inactive)
REMARK    1  A    between atoms: C3_4  and  O_7 
ROOT
ATOM      1  C   UNL d   1       0.116   1.377   1.208  0.00  0.00    -0.033 A 
ATOM      2  C1  UNL d   1      -1.054   1.907   1.755  0.00  0.00     0.039 A 
ATOM      3  C2  UNL d   1      -2.047   1.054   2.241  0.00  0.00    -0.080 A 
ATOM      4  C3  UNL d   1      -1.858  -0.323   2.175  0.00  0.00     0.150 A 
ATOM      5  C4  UNL d   1      -0.693  -0.858   1.635  0.00  0.00    -0.007 A 
ATOM      6  C5  UNL d   1       0.297  -0.005   1.149  0.00  0.00     0.039 A 
ENDROOT
BRANCH   4   7
ATOM      7  O   UNL d   1      -2.802  -1.195   2.633  0.00  0.00    -0.526 OA
ATOM      8  H5  UNL d   1      -3.564  -0.683   2.951  0.00  0.00     0.418 HD
ENDBRANCH   4   7
TORSDOF 1
ENDMDL
