MODEL 1
REMARK minimizedAffinity -3.83938575
REMARK minimizedRMSD -1
REMARK  1 active torsions:
REMARK  status: ('A' for Active; 'I' for Inactive)
REMARK    1  A    between atoms: C3_4  and  O_7 
ROOT
ATOM      1  C   UNL d   1       0.195   1.296   0.393  0.00  0.00    -0.033 A 
ATOM      2  C1  UNL d   1       0.158   2.632   0.798  0.00  0.00     0.039 A 
ATOM      3  C2  UNL d   1      -0.800   3.058   1.720  0.00  0.00    -0.080 A 
ATOM      4  C3  UNL d   1      -1.713   2.139   2.230  0.00  0.00     0.150 A 
ATOM      5  C4  UNL d   1      -1.680   0.806   1.834  0.00  0.00    -0.007 A 
ATOM      6  C5  UNL d   1      -0.723   0.383   0.913  0.00  0.00     0.039 A 
ENDROOT
BRANCH   4   7
ATOM      7  O   UNL d   1      -2.670   2.509   3.129  0.00  0.00    -0.526 OA
ATOM      8  H5  UNL d   1      -2.590   3.465   3.287  0.00  0.00     0.418 HD
ENDBRANCH   4   7
TORSDOF 1
ENDMDL
