MODEL 1
REMARK minimizedAffinity -4.21514845
REMARK minimizedRMSD -1
REMARK  1 active torsions:
REMARK  status: ('A' for Active; 'I' for Inactive)
REMARK    1  A    between atoms: C3_4  and  O_7 
ROOT
ATOM      1  C   UNL d   1       0.523   1.160   1.177  0.00  0.00    -0.033 A 
ATOM      2  C1  UNL d   1      -0.291   0.046   0.963  0.00  0.00     0.039 A 
ATOM      3  C2  UNL d   1      -1.598   0.030   1.454  0.00  0.00    -0.080 A 
ATOM      4  C3  UNL d   1      -2.078   1.133   2.156  0.00  0.00     0.150 A 
ATOM      5  C4  UNL d   1      -1.273   2.247   2.369  0.00  0.00    -0.007 A 
ATOM      6  C5  UNL d   1       0.032   2.261   1.879  0.00  0.00     0.039 A 
ENDROOT
BRANCH   4   7
ATOM      7  O   UNL d   1      -3.345   1.161   2.658  0.00  0.00    -0.526 OA
ATOM      8  H5  UNL d   1      -3.774   0.312   2.459  0.00  0.00     0.418 HD
ENDBRANCH   4   7
TORSDOF 1
ENDMDL
