MODEL 1
REMARK minimizedAffinity -0.550512195
REMARK minimizedRMSD -1
REMARK  1 active torsions:
REMARK  status: ('A' for Active; 'I' for Inactive)
REMARK    1  A    between atoms: C3_4  and  O_7 
ROOT
ATOM      1  C   UNL d   1       0.047   0.410   0.887  0.00  0.00    -0.033 A 
ATOM      2  C1  UNL d   1      -0.579  -0.428   1.811  0.00  0.00     0.039 A 
ATOM      3  C2  UNL d   1      -1.475   0.102   2.742  0.00  0.00    -0.080 A 
ATOM      4  C3  UNL d   1      -1.736   1.469   2.737  0.00  0.00     0.150 A 
ATOM      5  C4  UNL d   1      -1.119   2.309   1.816  0.00  0.00    -0.007 A 
ATOM      6  C5  UNL d   1      -0.224   1.779   0.889  0.00  0.00     0.039 A 
ENDROOT
BRANCH   4   7
ATOM      7  O   UNL d   1      -2.600   2.032   3.629  0.00  0.00    -0.526 OA
ATOM      8  H5  UNL d   1      -2.928   1.336   4.221  0.00  0.00     0.418 HD
ENDBRANCH   4   7
TORSDOF 1
ENDMDL
