MODEL 1
REMARK minimizedAffinity -2.34117508
REMARK minimizedRMSD -1
REMARK  1 active torsions:
REMARK  status: ('A' for Active; 'I' for Inactive)
REMARK    1  A    between atoms: C3_4  and  O_7 
ROOT
ATOM      1  C   UNL d   1      -0.785   0.666   1.450  0.00  0.00    -0.033 A 
ATOM      2  C1  UNL d   1      -1.829  -0.116   1.948  0.00  0.00     0.039 A 
ATOM      3  C2  UNL d   1      -2.833   0.468   2.722  0.00  0.00    -0.080 A 
ATOM      4  C3  UNL d   1      -2.783   1.833   2.989  0.00  0.00     0.150 A 
ATOM      5  C4  UNL d   1      -1.748   2.619   2.493  0.00  0.00    -0.007 A 
ATOM      6  C5  UNL d   1      -0.745   2.034   1.721  0.00  0.00     0.039 A 
ENDROOT
BRANCH   4   7
ATOM      7  O   UNL d   1      -3.738   2.448   3.744  0.00  0.00    -0.526 OA
ATOM      8  H5  UNL d   1      -4.374   1.776   4.042  0.00  0.00     0.418 HD
ENDBRANCH   4   7
TORSDOF 1
ENDMDL
