MODEL 1
REMARK minimizedAffinity -5.25306129
REMARK minimizedRMSD -1
REMARK  1 active torsions:
REMARK  status: ('A' for Active; 'I' for Inactive)
REMARK    1  A    between atoms: C3_4  and  O_7 
ROOT
ATOM      1  C   UNL d   1       0.115   0.351   0.578  0.00  0.00    -0.033 A 
ATOM      2  C1  UNL d   1      -0.951  -0.161   1.320  0.00  0.00     0.039 A 
ATOM      3  C2  UNL d   1      -1.725   0.689   2.112  0.00  0.00    -0.080 A 
ATOM      4  C3  UNL d   1      -1.424   2.047   2.153  0.00  0.00     0.150 A 
ATOM      5  C4  UNL d   1      -0.366   2.565   1.413  0.00  0.00    -0.007 A 
ATOM      6  C5  UNL d   1       0.406   1.715   0.623  0.00  0.00     0.039 A 
ENDROOT
BRANCH   4   7
ATOM      7  O   UNL d   1      -2.148   2.915   2.915  0.00  0.00    -0.526 OA
ATOM      8  H5  UNL d   1      -2.828   2.411   3.393  0.00  0.00     0.418 HD
ENDBRANCH   4   7
TORSDOF 1
ENDMDL
