MODEL 1
REMARK minimizedAffinity -3.59539938
REMARK minimizedRMSD -1
REMARK  1 active torsions:
REMARK  status: ('A' for Active; 'I' for Inactive)
REMARK    1  A    between atoms: C3_4  and  O_7 
ROOT
ATOM      1  C   UNL d   1       0.150   0.176   0.557  0.00  0.00    -0.033 A 
ATOM      2  C1  UNL d   1      -0.839  -0.490   1.283  0.00  0.00     0.039 A 
ATOM      3  C2  UNL d   1      -1.722   0.233   2.088  0.00  0.00    -0.080 A 
ATOM      4  C3  UNL d   1      -1.605   1.619   2.157  0.00  0.00     0.150 A 
ATOM      5  C4  UNL d   1      -0.624   2.288   1.434  0.00  0.00    -0.007 A 
ATOM      6  C5  UNL d   1       0.257   1.565   0.631  0.00  0.00     0.039 A 
ENDROOT
BRANCH   4   7
ATOM      7  O   UNL d   1      -2.440   2.366   2.933  0.00  0.00    -0.526 OA
ATOM      8  H5  UNL d   1      -3.048   1.767   3.398  0.00  0.00     0.418 HD
ENDBRANCH   4   7
TORSDOF 1
ENDMDL
