MODEL 1
REMARK minimizedAffinity 1.70951259
REMARK minimizedRMSD -1
REMARK  1 active torsions:
REMARK  status: ('A' for Active; 'I' for Inactive)
REMARK    1  A    between atoms: C3_4  and  O_7 
ROOT
ATOM      1  C   UNL d   1      -2.224   2.017   2.675  0.00  0.00    -0.033 A 
ATOM      2  C1  UNL d   1      -1.951   3.273   2.128  0.00  0.00     0.039 A 
ATOM      3  C2  UNL d   1      -0.872   3.438   1.258  0.00  0.00    -0.080 A 
ATOM      4  C3  UNL d   1      -0.074   2.342   0.942  0.00  0.00     0.150 A 
ATOM      5  C4  UNL d   1      -0.342   1.087   1.480  0.00  0.00    -0.007 A 
ATOM      6  C5  UNL d   1      -1.420   0.924   2.350  0.00  0.00     0.039 A 
ENDROOT
BRANCH   4   7
ATOM      7  O   UNL d   1       0.993   2.455   0.102  0.00  0.00    -0.526 OA
ATOM      8  H5  UNL d   1       1.073   3.385  -0.170  0.00  0.00     0.418 HD
ENDBRANCH   4   7
TORSDOF 1
ENDMDL
