MODEL 1
REMARK minimizedAffinity -3.15414
REMARK minimizedRMSD -1
REMARK  1 active torsions:
REMARK  status: ('A' for Active; 'I' for Inactive)
REMARK    1  A    between atoms: C3_4  and  O_7 
ROOT
ATOM      1  C   UNL d   1       0.156  -0.265   0.653  0.00  0.00    -0.033 A 
ATOM      2  C1  UNL d   1       0.922   0.831   1.054  0.00  0.00     0.039 A 
ATOM      3  C2  UNL d   1       0.428   1.714   2.017  0.00  0.00    -0.080 A 
ATOM      4  C3  UNL d   1      -0.830   1.490   2.569  0.00  0.00     0.150 A 
ATOM      5  C4  UNL d   1      -1.596   0.397   2.177  0.00  0.00    -0.007 A 
ATOM      6  C5  UNL d   1      -1.102  -0.483   1.215  0.00  0.00     0.039 A 
ENDROOT
BRANCH   4   7
ATOM      7  O   UNL d   1      -1.355   2.327   3.508  0.00  0.00    -0.526 OA
ATOM      8  H5  UNL d   1      -0.727   3.052   3.660  0.00  0.00     0.418 HD
ENDBRANCH   4   7
TORSDOF 1
ENDMDL
