MODEL 1
REMARK minimizedAffinity 0.75102973
REMARK minimizedRMSD -1
REMARK  1 active torsions:
REMARK  status: ('A' for Active; 'I' for Inactive)
REMARK    1  A    between atoms: C3_4  and  O_7 
ROOT
ATOM      1  C   UNL d   1      -0.010   1.468   1.582  0.00  0.00    -0.033 A 
ATOM      2  C1  UNL d   1       0.225   0.177   2.060  0.00  0.00     0.039 A 
ATOM      3  C2  UNL d   1       1.284  -0.576   1.550  0.00  0.00    -0.080 A 
ATOM      4  C3  UNL d   1       2.101  -0.028   0.565  0.00  0.00     0.150 A 
ATOM      5  C4  UNL d   1       1.875   1.259   0.087  0.00  0.00    -0.007 A 
ATOM      6  C5  UNL d   1       0.816   2.010   0.597  0.00  0.00     0.039 A 
ENDROOT
BRANCH   4   7
ATOM      7  O   UNL d   1       3.144  -0.726   0.034  0.00  0.00    -0.526 OA
ATOM      8  H5  UNL d   1       3.160  -1.610   0.439  0.00  0.00     0.418 HD
ENDBRANCH   4   7
TORSDOF 1
ENDMDL
