MODEL 1
REMARK minimizedAffinity -2.37452745
REMARK minimizedRMSD -1
REMARK  1 active torsions:
REMARK  status: ('A' for Active; 'I' for Inactive)
REMARK    1  A    between atoms: C3_4  and  O_7 
ROOT
ATOM      1  C   UNL d   1       2.179   0.827   1.213  0.00  0.00    -0.033 A 
ATOM      2  C1  UNL d   1       1.466   0.296   2.290  0.00  0.00     0.039 A 
ATOM      3  C2  UNL d   1       0.206   0.803   2.613  0.00  0.00    -0.080 A 
ATOM      4  C3  UNL d   1      -0.330   1.839   1.852  0.00  0.00     0.150 A 
ATOM      5  C4  UNL d   1       0.373   2.370   0.775  0.00  0.00    -0.007 A 
ATOM      6  C5  UNL d   1       1.631   1.863   0.455  0.00  0.00     0.039 A 
ENDROOT
BRANCH   4   7
ATOM      7  O   UNL d   1      -1.555   2.369   2.132  0.00  0.00    -0.526 OA
ATOM      8  H5  UNL d   1      -1.910   1.923   2.919  0.00  0.00     0.418 HD
ENDBRANCH   4   7
TORSDOF 1
ENDMDL
