MODEL 1
REMARK minimizedAffinity -3.31496596
REMARK minimizedRMSD -1
REMARK  1 active torsions:
REMARK  status: ('A' for Active; 'I' for Inactive)
REMARK    1  A    between atoms: C1_2  and  C2_3 
ROOT
ATOM      1  C2  UNL d   1      -1.013  -0.168   1.104  0.00  0.00    -0.073 A 
ATOM      2  C3  UNL d   1       0.069   0.479   1.712  0.00  0.00    -0.002 A 
ATOM      3  C4  UNL d   1       1.354  -0.057   1.618  0.00  0.00     0.004 A 
ATOM      4  C5  UNL d   1       1.572  -1.239   0.910  0.00  0.00    -0.004 A 
ATOM      5  C6  UNL d   1       0.506  -1.894   0.285  0.00  0.00    -0.075 A 
ATOM      6  C7  UNL d   1       0.724  -3.167  -0.478  0.00  0.00     0.076 C 
ATOM      7  C8  UNL d   1      -0.782  -1.351   0.387  0.00  0.00     0.001 A 
ENDROOT
BRANCH   1   8
ATOM      8  C1  UNL d   1      -2.401   0.410   1.197  0.00  0.00     0.053 C 
ATOM      9  C   UNL d   1      -2.381   1.925   1.317  0.00  0.00     0.018 C 
ENDBRANCH   1   8
TORSDOF 1
ENDMDL
