MODEL 1
REMARK minimizedAffinity -2.68556643
REMARK minimizedRMSD -1
REMARK  1 active torsions:
REMARK  status: ('A' for Active; 'I' for Inactive)
REMARK    1  A    between atoms: C1_2  and  C2_3 
ROOT
ATOM      1  C2  UNL d   1       4.579   3.718  -0.827  0.00  0.00    -0.073 A 
ATOM      2  C3  UNL d   1       5.542   4.690  -1.120  0.00  0.00    -0.002 A 
ATOM      3  C4  UNL d   1       5.669   5.822  -0.314  0.00  0.00     0.004 A 
ATOM      4  C5  UNL d   1       4.840   5.991   0.795  0.00  0.00    -0.004 A 
ATOM      5  C6  UNL d   1       3.879   5.025   1.111  0.00  0.00    -0.075 A 
ATOM      6  C7  UNL d   1       2.978   5.192   2.299  0.00  0.00     0.076 C 
ATOM      7  C8  UNL d   1       3.756   3.892   0.295  0.00  0.00     0.001 A 
ENDROOT
BRANCH   1   8
ATOM      8  C1  UNL d   1       4.443   2.490  -1.691  0.00  0.00     0.053 C 
ATOM      9  C   UNL d   1       3.359   2.652  -2.744  0.00  0.00     0.018 C 
ENDBRANCH   1   8
TORSDOF 1
ENDMDL
