MODEL 1
REMARK minimizedAffinity -5.11242819
REMARK minimizedRMSD -1
REMARK  1 active torsions:
REMARK  status: ('A' for Active; 'I' for Inactive)
REMARK    1  A    between atoms: C1_2  and  C2_3 
ROOT
ATOM      1  C2  UNL d   1       0.645  -0.721   0.703  0.00  0.00    -0.073 A 
ATOM      2  C3  UNL d   1       0.283  -1.923   1.322  0.00  0.00    -0.002 A 
ATOM      3  C4  UNL d   1      -0.847  -1.983   2.138  0.00  0.00     0.004 A 
ATOM      4  C5  UNL d   1      -1.630  -0.845   2.338  0.00  0.00    -0.004 A 
ATOM      5  C6  UNL d   1      -1.291   0.362   1.718  0.00  0.00    -0.075 A 
ATOM      6  C7  UNL d   1      -2.121   1.595   1.924  0.00  0.00     0.076 C 
ATOM      7  C8  UNL d   1      -0.153   0.414   0.902  0.00  0.00     0.001 A 
ENDROOT
BRANCH   1   8
ATOM      8  C1  UNL d   1       1.862  -0.653  -0.185  0.00  0.00     0.053 C 
ATOM      9  C   UNL d   1       2.842  -1.779   0.105  0.00  0.00     0.018 C 
ENDBRANCH   1   8
TORSDOF 1
ENDMDL
