MODEL 1
REMARK minimizedAffinity 3.65194821
REMARK minimizedRMSD -1
REMARK  1 active torsions:
REMARK  status: ('A' for Active; 'I' for Inactive)
REMARK    1  A    between atoms: C1_2  and  C2_3 
ROOT
ATOM      1  C2  UNL d   1       0.537  -0.800   1.716  0.00  0.00    -0.073 A 
ATOM      2  C3  UNL d   1       1.258  -0.027   0.799  0.00  0.00    -0.002 A 
ATOM      3  C4  UNL d   1       1.516  -0.513  -0.484  0.00  0.00     0.004 A 
ATOM      4  C5  UNL d   1       1.051  -1.772  -0.864  0.00  0.00    -0.004 A 
ATOM      5  C6  UNL d   1       0.318  -2.554   0.034  0.00  0.00    -0.075 A 
ATOM      6  C7  UNL d   1      -0.188  -3.911  -0.360  0.00  0.00     0.076 C 
ATOM      7  C8  UNL d   1       0.065  -2.061   1.321  0.00  0.00     0.001 A 
ENDROOT
BRANCH   1   8
ATOM      8  C1  UNL d   1       0.250  -0.277   3.099  0.00  0.00     0.053 C 
ATOM      9  C   UNL d   1       1.176  -0.883   4.141  0.00  0.00     0.018 C 
ENDBRANCH   1   8
TORSDOF 1
ENDMDL
