MODEL 1
REMARK minimizedAffinity 0.746294796
REMARK minimizedRMSD -1
REMARK  1 active torsions:
REMARK  status: ('A' for Active; 'I' for Inactive)
REMARK    1  A    between atoms: C1_2  and  C2_3 
ROOT
ATOM      1  C2  UNL d   1       1.783  -2.047   0.141  0.00  0.00    -0.073 A 
ATOM      2  C3  UNL d   1       0.764  -2.899  -0.300  0.00  0.00    -0.002 A 
ATOM      3  C4  UNL d   1      -0.563  -2.650   0.050  0.00  0.00     0.004 A 
ATOM      4  C5  UNL d   1      -0.886  -1.545   0.838  0.00  0.00    -0.004 A 
ATOM      5  C6  UNL d   1       0.116  -0.676   1.279  0.00  0.00    -0.075 A 
ATOM      6  C7  UNL d   1      -0.214   0.515   2.129  0.00  0.00     0.076 C 
ATOM      7  C8  UNL d   1       1.448  -0.934   0.926  0.00  0.00     0.001 A 
ENDROOT
BRANCH   1   8
ATOM      8  C1  UNL d   1       3.218  -2.308  -0.239  0.00  0.00     0.053 C 
ATOM      9  C   UNL d   1       3.498  -3.792  -0.421  0.00  0.00     0.018 C 
ENDBRANCH   1   8
TORSDOF 1
ENDMDL
