MODEL 1
REMARK minimizedAffinity -0.374212861
REMARK minimizedRMSD -1
REMARK  1 active torsions:
REMARK  status: ('A' for Active; 'I' for Inactive)
REMARK    1  A    between atoms: C1_2  and  C2_3 
ROOT
ATOM      1  C2  UNL d   1       1.031  -1.252   0.670  0.00  0.00    -0.073 A 
ATOM      2  C3  UNL d   1      -0.207  -1.868   0.456  0.00  0.00    -0.002 A 
ATOM      3  C4  UNL d   1      -0.272  -3.138  -0.119  0.00  0.00     0.004 A 
ATOM      4  C5  UNL d   1       0.898  -3.807  -0.479  0.00  0.00    -0.004 A 
ATOM      5  C6  UNL d   1       2.145  -3.212  -0.262  0.00  0.00    -0.075 A 
ATOM      6  C7  UNL d   1       3.413  -3.917  -0.646  0.00  0.00     0.076 C 
ATOM      7  C8  UNL d   1       2.202  -1.936   0.313  0.00  0.00     0.001 A 
ENDROOT
BRANCH   1   8
ATOM      8  C1  UNL d   1       1.107   0.116   1.296  0.00  0.00     0.053 C 
ATOM      9  C   UNL d   1       1.384   0.045   2.789  0.00  0.00     0.018 C 
ENDBRANCH   1   8
TORSDOF 1
ENDMDL
