MODEL 1
REMARK minimizedAffinity 3.57430744
REMARK minimizedRMSD -1
REMARK  1 active torsions:
REMARK  status: ('A' for Active; 'I' for Inactive)
REMARK    1  A    between atoms: C1_2  and  C2_3 
ROOT
ATOM      1  C2  UNL d   1      -0.308  -0.898   1.175  0.00  0.00    -0.073 A 
ATOM      2  C3  UNL d   1       0.824  -0.166   1.553  0.00  0.00    -0.002 A 
ATOM      3  C4  UNL d   1       2.096  -0.580   1.156  0.00  0.00     0.004 A 
ATOM      4  C5  UNL d   1       2.250  -1.724   0.374  0.00  0.00    -0.004 A 
ATOM      5  C6  UNL d   1       1.130  -2.463  -0.024  0.00  0.00    -0.075 A 
ATOM      6  C7  UNL d   1       1.278  -3.697  -0.863  0.00  0.00     0.076 C 
ATOM      7  C8  UNL d   1      -0.144  -2.042   0.381  0.00  0.00     0.001 A 
ENDROOT
BRANCH   1   8
ATOM      8  C1  UNL d   1      -1.684  -0.451   1.596  0.00  0.00     0.053 C 
ATOM      9  C   UNL d   1      -1.685   0.979   2.114  0.00  0.00     0.018 C 
ENDBRANCH   1   8
TORSDOF 1
ENDMDL
