MODEL 1
REMARK minimizedAffinity -3.47749925
REMARK minimizedRMSD -1
REMARK  1 active torsions:
REMARK  status: ('A' for Active; 'I' for Inactive)
REMARK    1  A    between atoms: C1_2  and  C2_3 
ROOT
ATOM      1  C2  UNL d   1       0.110  -0.997   2.679  0.00  0.00    -0.073 A 
ATOM      2  C3  UNL d   1      -0.838  -0.100   2.175  0.00  0.00    -0.002 A 
ATOM      3  C4  UNL d   1      -1.399  -0.301   0.913  0.00  0.00     0.004 A 
ATOM      4  C5  UNL d   1      -1.023  -1.403   0.146  0.00  0.00    -0.004 A 
ATOM      5  C6  UNL d   1      -0.086  -2.318   0.637  0.00  0.00    -0.075 A 
ATOM      6  C7  UNL d   1       0.331  -3.508  -0.177  0.00  0.00     0.076 C 
ATOM      7  C8  UNL d   1       0.475  -2.107   1.904  0.00  0.00     0.001 A 
ENDROOT
BRANCH   1   8
ATOM      8  C1  UNL d   1       0.713  -0.787   4.044  0.00  0.00     0.053 C 
ATOM      9  C   UNL d   1      -0.279  -0.171   5.017  0.00  0.00     0.018 C 
ENDBRANCH   1   8
TORSDOF 1
ENDMDL
