MODEL 1
REMARK minimizedAffinity 1.01424515
REMARK minimizedRMSD -1
REMARK  1 active torsions:
REMARK  status: ('A' for Active; 'I' for Inactive)
REMARK    1  A    between atoms: C1_2  and  C2_3 
ROOT
ATOM      1  C2  UNL d   1       2.276  -2.402  -0.052  0.00  0.00    -0.073 A 
ATOM      2  C3  UNL d   1       1.280  -3.165  -0.671  0.00  0.00    -0.002 A 
ATOM      3  C4  UNL d   1      -0.066  -2.830  -0.513  0.00  0.00     0.004 A 
ATOM      4  C5  UNL d   1      -0.428  -1.726   0.258  0.00  0.00    -0.004 A 
ATOM      5  C6  UNL d   1       0.553  -0.943   0.875  0.00  0.00    -0.075 A 
ATOM      6  C7  UNL d   1       0.180   0.246   1.710  0.00  0.00     0.076 C 
ATOM      7  C8  UNL d   1       1.902  -1.288   0.714  0.00  0.00     0.001 A 
ENDROOT
BRANCH   1   8
ATOM      8  C1  UNL d   1       3.730  -2.756  -0.224  0.00  0.00     0.053 C 
ATOM      9  C   UNL d   1       3.926  -4.238  -0.505  0.00  0.00     0.018 C 
ENDBRANCH   1   8
TORSDOF 1
ENDMDL
