MODEL 1
REMARK minimizedAffinity 5.37901974
REMARK minimizedRMSD -1
REMARK  1 active torsions:
REMARK  status: ('A' for Active; 'I' for Inactive)
REMARK    1  A    between atoms: C1_2  and  C2_3 
ROOT
ATOM      1  C2  UNL d   1       1.912  -0.848  -1.044  0.00  0.00    -0.073 A 
ATOM      2  C3  UNL d   1       1.050  -1.714  -1.725  0.00  0.00    -0.002 A 
ATOM      3  C4  UNL d   1      -0.039  -2.287  -1.066  0.00  0.00     0.004 A 
ATOM      4  C5  UNL d   1      -0.280  -1.995   0.276  0.00  0.00    -0.004 A 
ATOM      5  C6  UNL d   1       0.564  -1.123   0.971  0.00  0.00    -0.075 A 
ATOM      6  C7  UNL d   1       0.321  -0.800   2.416  0.00  0.00     0.076 C 
ATOM      7  C8  UNL d   1       1.657  -0.554   0.303  0.00  0.00     0.001 A 
ENDROOT
BRANCH   1   8
ATOM      8  C1  UNL d   1       3.085  -0.222  -1.754  0.00  0.00     0.053 C 
ATOM      9  C   UNL d   1       2.648   0.844  -2.746  0.00  0.00     0.018 C 
ENDBRANCH   1   8
TORSDOF 1
ENDMDL
