MODEL 1
REMARK minimizedAffinity 8.42510223
REMARK minimizedRMSD -1
REMARK  1 active torsions:
REMARK  status: ('A' for Active; 'I' for Inactive)
REMARK    1  A    between atoms: C1_2  and  C2_3 
ROOT
ATOM      1  C2  UNL d   1       0.540  -1.094   1.115  0.00  0.00    -0.073 A 
ATOM      2  C3  UNL d   1       1.912  -0.869   0.954  0.00  0.00    -0.002 A 
ATOM      3  C4  UNL d   1       2.672  -0.362   2.009  0.00  0.00     0.004 A 
ATOM      4  C5  UNL d   1       2.070  -0.082   3.236  0.00  0.00    -0.004 A 
ATOM      5  C6  UNL d   1       0.703  -0.311   3.420  0.00  0.00    -0.075 A 
ATOM      6  C7  UNL d   1       0.041  -0.013   4.733  0.00  0.00     0.076 C 
ATOM      7  C8  UNL d   1      -0.054  -0.818   2.355  0.00  0.00     0.001 A 
ENDROOT
BRANCH   1   8
ATOM      8  C1  UNL d   1      -0.284  -1.647  -0.020  0.00  0.00     0.053 C 
ATOM      9  C   UNL d   1      -0.356  -3.165   0.015  0.00  0.00     0.018 C 
ENDBRANCH   1   8
TORSDOF 1
ENDMDL
