MODEL 1
REMARK minimizedAffinity 18.8491669
REMARK minimizedRMSD -1
REMARK  0 active torsions:
REMARK  status: ('A' for Active; 'I' for Inactive)
ROOT
ATOM      1  N1  IND d   1      -5.427  -0.027   5.990  0.00  0.00    -0.196 N 
ATOM      2  C2  IND d   1      -5.435  -1.394   5.985  0.00  0.00     0.054 A 
ATOM      3  C3  IND d   1      -5.644  -1.858   4.732  0.00  0.00    -0.031 A 
ATOM      4  C4  IND d   1      -5.898  -0.555   2.526  0.00  0.00     0.051 A 
ATOM      5  C5  IND d   1      -5.996   0.715   2.031  0.00  0.00    -0.031 A 
ATOM      6  C6  IND d   1      -5.904   1.825   2.845  0.00  0.00     0.015 A 
ATOM      7  C7  IND d   1      -5.700   1.706   4.191  0.00  0.00    -0.016 A 
ATOM      8  C8  IND d   1      -5.607   0.418   4.699  0.00  0.00    -0.047 A 
ATOM      9  C9  IND d   1      -5.741  -0.713   3.883  0.00  0.00    -0.096 A 
ATOM     10  HN1 IND d   1      -5.327   0.471   6.684  0.00  0.00     0.298 HD
ENDROOT
TORSDOF 0
ENDMDL
