MODEL 1
REMARK minimizedAffinity 3.70892286
REMARK minimizedRMSD -1
REMARK  0 active torsions:
REMARK  status: ('A' for Active; 'I' for Inactive)
ROOT
ATOM      1  N1  IND d   1       3.793  -3.752  -6.000  0.00  0.00    -0.196 N 
ATOM      2  C2  IND d   1       5.136  -3.922  -5.812  0.00  0.00     0.054 A 
ATOM      3  C3  IND d   1       5.610  -3.000  -4.944  0.00  0.00    -0.031 A 
ATOM      4  C4  IND d   1       4.342  -1.182  -3.635  0.00  0.00     0.051 A 
ATOM      5  C5  IND d   1       3.105  -0.615  -3.502  0.00  0.00    -0.031 A 
ATOM      6  C6  IND d   1       2.012  -1.076  -4.207  0.00  0.00     0.015 A 
ATOM      7  C7  IND d   1       2.113  -2.133  -5.067  0.00  0.00    -0.016 A 
ATOM      8  C8  IND d   1       3.368  -2.706  -5.210  0.00  0.00    -0.047 A 
ATOM      9  C9  IND d   1       4.490  -2.216  -4.529  0.00  0.00    -0.096 A 
ATOM     10  HN1 IND d   1       3.297  -4.219  -6.524  0.00  0.00     0.298 HD
ENDROOT
TORSDOF 0
ENDMDL
