MODEL 1
REMARK minimizedAffinity 14.554678
REMARK minimizedRMSD -1
REMARK  0 active torsions:
REMARK  status: ('A' for Active; 'I' for Inactive)
ROOT
ATOM      1  N1  IND d   1      -1.744  -5.977  -0.303  0.00  0.00    -0.196 N 
ATOM      2  C2  IND d   1      -0.442  -5.943  -0.719  0.00  0.00     0.054 A 
ATOM      3  C3  IND d   1       0.391  -5.907   0.345  0.00  0.00    -0.031 A 
ATOM      4  C4  IND d   1      -0.161  -5.999   2.858  0.00  0.00     0.051 A 
ATOM      5  C5  IND d   1      -1.213  -5.998   3.730  0.00  0.00    -0.031 A 
ATOM      6  C6  IND d   1      -2.522  -5.993   3.294  0.00  0.00     0.015 A 
ATOM      7  C7  IND d   1      -2.830  -6.000   1.963  0.00  0.00    -0.016 A 
ATOM      8  C8  IND d   1      -1.764  -5.993   1.074  0.00  0.00    -0.047 A 
ATOM      9  C9  IND d   1      -0.433  -5.956   1.511  0.00  0.00    -0.096 A 
ATOM     10  HN1 IND d   1      -2.434  -5.986  -0.816  0.00  0.00     0.298 HD
ENDROOT
TORSDOF 0
ENDMDL
