MODEL 1
REMARK minimizedAffinity 8.11030483
REMARK minimizedRMSD -1
REMARK  0 active torsions:
REMARK  status: ('A' for Active; 'I' for Inactive)
ROOT
ATOM      1  N1  IND d   1      -0.381  -5.819   1.479  0.00  0.00    -0.196 N 
ATOM      2  C2  IND d   1       0.687  -6.000   2.314  0.00  0.00     0.054 A 
ATOM      3  C3  IND d   1       0.845  -4.922   3.115  0.00  0.00    -0.031 A 
ATOM      4  C4  IND d   1      -0.592  -2.794   3.297  0.00  0.00     0.051 A 
ATOM      5  C5  IND d   1      -1.653  -2.158   2.716  0.00  0.00    -0.031 A 
ATOM      6  C6  IND d   1      -2.359  -2.722   1.673  0.00  0.00     0.015 A 
ATOM      7  C7  IND d   1      -2.038  -3.954   1.179  0.00  0.00    -0.016 A 
ATOM      8  C8  IND d   1      -0.957  -4.600   1.762  0.00  0.00    -0.047 A 
ATOM      9  C9  IND d   1      -0.209  -4.014   2.792  0.00  0.00    -0.096 A 
ATOM     10  HN1 IND d   1      -0.648  -6.374   0.879  0.00  0.00     0.298 HD
ENDROOT
TORSDOF 0
ENDMDL
