MODEL 1
REMARK minimizedAffinity 1.04517305
REMARK minimizedRMSD -1
REMARK  0 active torsions:
REMARK  status: ('A' for Active; 'I' for Inactive)
ROOT
ATOM      1  N1  IND d   1      -4.919  -5.990   3.254  0.00  0.00    -0.196 N 
ATOM      2  C2  IND d   1      -5.966  -5.961   2.375  0.00  0.00     0.054 A 
ATOM      3  C3  IND d   1      -5.510  -5.921   1.102  0.00  0.00    -0.031 A 
ATOM      4  C4  IND d   1      -3.090  -5.998   0.228  0.00  0.00     0.051 A 
ATOM      5  C5  IND d   1      -1.791  -5.991   0.652  0.00  0.00    -0.031 A 
ATOM      6  C6  IND d   1      -1.461  -5.986   1.992  0.00  0.00     0.015 A 
ATOM      7  C7  IND d   1      -2.423  -5.999   2.962  0.00  0.00    -0.016 A 
ATOM      8  C8  IND d   1      -3.744  -5.999   2.535  0.00  0.00    -0.047 A 
ATOM      9  C9  IND d   1      -4.084  -5.962   1.177  0.00  0.00    -0.096 A 
ATOM     10  HN1 IND d   1      -4.984  -6.000   4.111  0.00  0.00     0.298 HD
ENDROOT
TORSDOF 0
ENDMDL
