MODEL 1
REMARK minimizedAffinity 9.75865173
REMARK minimizedRMSD -1
REMARK  0 active torsions:
REMARK  status: ('A' for Active; 'I' for Inactive)
ROOT
ATOM      1  N1  IND d   1      -5.998  -0.977   4.314  0.00  0.00    -0.196 N 
ATOM      2  C2  IND d   1      -5.020  -0.869   5.262  0.00  0.00     0.054 A 
ATOM      3  C3  IND d   1      -3.830  -1.265   4.758  0.00  0.00    -0.031 A 
ATOM      4  C4  IND d   1      -3.238  -2.029   2.372  0.00  0.00     0.051 A 
ATOM      5  C5  IND d   1      -3.804  -2.324   1.163  0.00  0.00    -0.031 A 
ATOM      6  C6  IND d   1      -5.158  -2.179   0.938  0.00  0.00     0.015 A 
ATOM      7  C7  IND d   1      -5.998  -1.721   1.914  0.00  0.00    -0.016 A 
ATOM      8  C8  IND d   1      -5.427  -1.428   3.144  0.00  0.00    -0.047 A 
ATOM      9  C9  IND d   1      -4.061  -1.613   3.392  0.00  0.00    -0.096 A 
ATOM     10  HN1 IND d   1      -6.831  -0.794   4.428  0.00  0.00     0.298 HD
ENDROOT
TORSDOF 0
ENDMDL
