MODEL 1
REMARK minimizedAffinity 19.09342
REMARK minimizedRMSD -1
REMARK  0 active torsions:
REMARK  status: ('A' for Active; 'I' for Inactive)
ROOT
ATOM      1  N1  IND d   1       5.194  -4.200   3.348  0.00  0.00    -0.196 N 
ATOM      2  C2  IND d   1       4.430  -5.327   3.472  0.00  0.00     0.054 A 
ATOM      3  C3  IND d   1       3.383  -5.281   2.618  0.00  0.00    -0.031 A 
ATOM      4  C4  IND d   1       2.787  -3.503   0.854  0.00  0.00     0.051 A 
ATOM      5  C5  IND d   1       3.167  -2.275   0.392  0.00  0.00    -0.031 A 
ATOM      6  C6  IND d   1       4.266  -1.613   0.900  0.00  0.00     0.015 A 
ATOM      7  C7  IND d   1       5.036  -2.162   1.886  0.00  0.00    -0.016 A 
ATOM      8  C8  IND d   1       4.649  -3.407   2.362  0.00  0.00    -0.047 A 
ATOM      9  C9  IND d   1       3.510  -4.065   1.880  0.00  0.00    -0.096 A 
ATOM     10  HN1 IND d   1       5.897  -4.017   3.808  0.00  0.00     0.298 HD
ENDROOT
TORSDOF 0
ENDMDL
