MODEL 1
REMARK minimizedAffinity 3.4297471
REMARK minimizedRMSD -1
REMARK  0 active torsions:
REMARK  status: ('A' for Active; 'I' for Inactive)
ROOT
ATOM      1  N1  IND d   1      -0.570   0.715  -1.210  0.00  0.00    -0.196 N 
ATOM      2  C2  IND d   1       0.509   1.024  -0.429  0.00  0.00     0.054 A 
ATOM      3  C3  IND d   1       0.735   0.040   0.471  0.00  0.00    -0.031 A 
ATOM      4  C4  IND d   1      -0.478  -2.211   0.772  0.00  0.00     0.051 A 
ATOM      5  C5  IND d   1      -1.549  -2.927   0.317  0.00  0.00    -0.031 A 
ATOM      6  C6  IND d   1      -2.364  -2.457  -0.693  0.00  0.00     0.015 A 
ATOM      7  C7  IND d   1      -2.129  -1.253  -1.296  0.00  0.00    -0.016 A 
ATOM      8  C8  IND d   1      -1.046  -0.521  -0.831  0.00  0.00    -0.047 A 
ATOM      9  C9  IND d   1      -0.241  -0.973   0.222  0.00  0.00    -0.096 A 
ATOM     10  HN1 IND d   1      -0.895   1.210  -1.834  0.00  0.00     0.298 HD
ENDROOT
TORSDOF 0
ENDMDL
