MODEL 1
REMARK minimizedAffinity 7.80899954
REMARK minimizedRMSD -1
REMARK  0 active torsions:
REMARK  status: ('A' for Active; 'I' for Inactive)
ROOT
ATOM      1  N1  IND d   1       0.765   0.203  -0.584  0.00  0.00    -0.196 N 
ATOM      2  C2  IND d   1       0.137   0.779   0.485  0.00  0.00     0.054 A 
ATOM      3  C3  IND d   1      -1.122   0.299   0.605  0.00  0.00    -0.031 A 
ATOM      4  C4  IND d   1      -2.322  -1.509  -0.779  0.00  0.00     0.051 A 
ATOM      5  C5  IND d   1      -2.168  -2.300  -1.883  0.00  0.00    -0.031 A 
ATOM      6  C6  IND d   1      -1.004  -2.299  -2.624  0.00  0.00     0.015 A 
ATOM      7  C7  IND d   1       0.059  -1.512  -2.280  0.00  0.00    -0.016 A 
ATOM      8  C8  IND d   1      -0.097  -0.702  -1.164  0.00  0.00    -0.047 A 
ATOM      9  C9  IND d   1      -1.292  -0.667  -0.433  0.00  0.00    -0.096 A 
ATOM     10  HN1 IND d   1       1.564   0.377  -0.850  0.00  0.00     0.298 HD
ENDROOT
TORSDOF 0
ENDMDL
