MODEL 1
REMARK minimizedAffinity 5.25556993
REMARK minimizedRMSD -1
REMARK  0 active torsions:
REMARK  status: ('A' for Active; 'I' for Inactive)
ROOT
ATOM      1  N1  IND d   1      -0.760   0.874  -1.740  0.00  0.00    -0.196 N 
ATOM      2  C2  IND d   1       0.206   1.025  -0.786  0.00  0.00     0.054 A 
ATOM      3  C3  IND d   1       0.267  -0.073   0.000  0.00  0.00    -0.031 A 
ATOM      4  C4  IND d   1      -1.054  -2.276  -0.163  0.00  0.00     0.051 A 
ATOM      5  C5  IND d   1      -2.075  -2.872  -0.849  0.00  0.00    -0.031 A 
ATOM      6  C6  IND d   1      -2.721  -2.238  -1.891  0.00  0.00     0.015 A 
ATOM      7  C7  IND d   1      -2.361  -0.983  -2.294  0.00  0.00    -0.016 A 
ATOM      8  C8  IND d   1      -1.329  -0.372  -1.594  0.00  0.00    -0.047 A 
ATOM      9  C9  IND d   1      -0.699  -0.994  -0.509  0.00  0.00    -0.096 A 
ATOM     10  HN1 IND d   1      -0.976   1.458  -2.332  0.00  0.00     0.298 HD
ENDROOT
TORSDOF 0
ENDMDL
