MODEL 1
REMARK minimizedAffinity 3.38611102
REMARK minimizedRMSD -1
REMARK  0 active torsions:
REMARK  status: ('A' for Active; 'I' for Inactive)
ROOT
ATOM      1  N1  IND d   1       5.995  -4.754   3.938  0.00  0.00    -0.196 N 
ATOM      2  C2  IND d   1       5.996  -5.039   5.275  0.00  0.00     0.054 A 
ATOM      3  C3  IND d   1       6.000  -3.898   6.000  0.00  0.00    -0.031 A 
ATOM      4  C4  IND d   1       5.902  -1.453   5.200  0.00  0.00     0.051 A 
ATOM      5  C5  IND d   1       5.925  -0.688   4.068  0.00  0.00    -0.031 A 
ATOM      6  C6  IND d   1       5.970  -1.251   2.809  0.00  0.00     0.015 A 
ATOM      7  C7  IND d   1       5.983  -2.606   2.634  0.00  0.00    -0.016 A 
ATOM      8  C8  IND d   1       5.968  -3.385   3.782  0.00  0.00    -0.047 A 
ATOM      9  C9  IND d   1       5.965  -2.819   5.063  0.00  0.00    -0.096 A 
ATOM     10  HN1 IND d   1       6.010  -5.332   3.302  0.00  0.00     0.298 HD
ENDROOT
TORSDOF 0
ENDMDL
