MODEL 1
REMARK minimizedAffinity 3.6255517
REMARK minimizedRMSD -1
REMARK  0 active torsions:
REMARK  status: ('A' for Active; 'I' for Inactive)
ROOT
ATOM      1  N1  IND d   1       0.078   0.902  -0.275  0.00  0.00    -0.196 N 
ATOM      2  C2  IND d   1       0.456   1.266   0.988  0.00  0.00     0.054 A 
ATOM      3  C3  IND d   1      -0.027   0.387   1.894  0.00  0.00    -0.031 A 
ATOM      4  C4  IND d   1      -1.373  -1.775   1.520  0.00  0.00     0.051 A 
ATOM      5  C5  IND d   1      -1.989  -2.505   0.543  0.00  0.00    -0.031 A 
ATOM      6  C6  IND d   1      -1.944  -2.131  -0.785  0.00  0.00     0.015 A 
ATOM      7  C7  IND d   1      -1.269  -1.013  -1.187  0.00  0.00    -0.016 A 
ATOM      8  C8  IND d   1      -0.648  -0.266  -0.196  0.00  0.00    -0.047 A 
ATOM      9  C9  IND d   1      -0.726  -0.618   1.158  0.00  0.00    -0.096 A 
ATOM     10  HN1 IND d   1       0.263   1.331  -0.997  0.00  0.00     0.298 HD
ENDROOT
TORSDOF 0
ENDMDL
