MODEL 1
REMARK minimizedAffinity 11.2191916
REMARK minimizedRMSD -1
REMARK  0 active torsions:
REMARK  status: ('A' for Active; 'I' for Inactive)
ROOT
ATOM      1  N1  IND d   1       4.124   0.353  -5.718  0.00  0.00    -0.196 N 
ATOM      2  C2  IND d   1       3.435   1.500  -6.000  0.00  0.00     0.054 A 
ATOM      3  C3  IND d   1       3.004   2.081  -4.858  0.00  0.00    -0.031 A 
ATOM      4  C4  IND d   1       3.401   1.379  -2.413  0.00  0.00     0.051 A 
ATOM      5  C5  IND d   1       3.942   0.380  -1.654  0.00  0.00    -0.031 A 
ATOM      6  C6  IND d   1       4.587  -0.700  -2.222  0.00  0.00     0.015 A 
ATOM      7  C7  IND d   1       4.725  -0.815  -3.576  0.00  0.00    -0.016 A 
ATOM      8  C8  IND d   1       4.171   0.194  -4.351  0.00  0.00    -0.047 A 
ATOM      9  C9  IND d   1       3.478   1.270  -3.782  0.00  0.00    -0.096 A 
ATOM     10  HN1 IND d   1       4.470  -0.180  -6.298  0.00  0.00     0.298 HD
ENDROOT
TORSDOF 0
ENDMDL
