MODEL 1
REMARK minimizedAffinity 17.9489002
REMARK minimizedRMSD -1
REMARK  0 active torsions:
REMARK  status: ('A' for Active; 'I' for Inactive)
ROOT
ATOM      1  N1  IND d   1       4.118   2.456   1.499  0.00  0.00    -0.196 N 
ATOM      2  C2  IND d   1       4.960   3.484   1.179  0.00  0.00     0.054 A 
ATOM      3  C3  IND d   1       4.582   4.056   0.013  0.00  0.00    -0.031 A 
ATOM      4  C4  IND d   1       2.554   3.530  -1.484  0.00  0.00     0.051 A 
ATOM      5  C5  IND d   1       1.517   2.651  -1.623  0.00  0.00    -0.031 A 
ATOM      6  C6  IND d   1       1.288   1.643  -0.709  0.00  0.00     0.015 A 
ATOM      7  C7  IND d   1       2.084   1.483   0.390  0.00  0.00    -0.016 A 
ATOM      8  C8  IND d   1       3.142   2.370   0.531  0.00  0.00    -0.047 A 
ATOM      9  C9  IND d   1       3.405   3.368  -0.416  0.00  0.00    -0.096 A 
ATOM     10  HN1 IND d   1       4.186   1.949   2.190  0.00  0.00     0.298 HD
ENDROOT
TORSDOF 0
ENDMDL
