MODEL 1
REMARK minimizedAffinity 3.87660885
REMARK minimizedRMSD -1
REMARK  0 active torsions:
REMARK  status: ('A' for Active; 'I' for Inactive)
ROOT
ATOM      1  N1  IND d   1      -1.024   1.002  -1.450  0.00  0.00    -0.196 N 
ATOM      2  C2  IND d   1      -0.262   0.842  -0.327  0.00  0.00     0.054 A 
ATOM      3  C3  IND d   1      -0.408  -0.408   0.167  0.00  0.00    -0.031 A 
ATOM      4  C4  IND d   1      -1.767  -2.386  -0.764  0.00  0.00     0.051 A 
ATOM      5  C5  IND d   1      -2.655  -2.714  -1.750  0.00  0.00    -0.031 A 
ATOM      6  C6  IND d   1      -3.051  -1.802  -2.707  0.00  0.00     0.015 A 
ATOM      7  C7  IND d   1      -2.562  -0.526  -2.721  0.00  0.00    -0.016 A 
ATOM      8  C8  IND d   1      -1.665  -0.188  -1.717  0.00  0.00    -0.047 A 
ATOM      9  C9  IND d   1      -1.293  -1.096  -0.718  0.00  0.00    -0.096 A 
ATOM     10  HN1 IND d   1      -1.091   1.723  -1.913  0.00  0.00     0.298 HD
ENDROOT
TORSDOF 0
ENDMDL
