MODEL 1
REMARK minimizedAffinity 13.8554697
REMARK minimizedRMSD -1
REMARK  0 active torsions:
REMARK  status: ('A' for Active; 'I' for Inactive)
ROOT
ATOM      1  N1  IND d   1      -5.977  -1.827   1.822  0.00  0.00    -0.196 N 
ATOM      2  C2  IND d   1      -6.000  -1.138   3.003  0.00  0.00     0.054 A 
ATOM      3  C3  IND d   1      -4.769  -1.119   3.561  0.00  0.00    -0.031 A 
ATOM      4  C4  IND d   1      -2.551  -2.069   2.662  0.00  0.00     0.051 A 
ATOM      5  C5  IND d   1      -2.034  -2.815   1.640  0.00  0.00    -0.031 A 
ATOM      6  C6  IND d   1      -2.821  -3.277   0.604  0.00  0.00     0.015 A 
ATOM      7  C7  IND d   1      -4.157  -2.999   0.546  0.00  0.00    -0.016 A 
ATOM      8  C8  IND d   1      -4.687  -2.248   1.586  0.00  0.00    -0.047 A 
ATOM      9  C9  IND d   1      -3.902  -1.812   2.661  0.00  0.00    -0.096 A 
ATOM     10  HN1 IND d   1      -6.654  -1.974   1.314  0.00  0.00     0.298 HD
ENDROOT
TORSDOF 0
ENDMDL
