MODEL 1
REMARK minimizedAffinity -4.89080048
REMARK minimizedRMSD -1
REMARK  1 active torsions:
REMARK  status: ('A' for Active; 'I' for Inactive)
REMARK    1  A    between atoms: C3_4  and  O_7 
ROOT
ATOM      1  C   UNL d   1       2.475  -0.489  -1.671  0.00  0.00    -0.033 A 
ATOM      2  C1  UNL d   1       1.736  -1.574  -1.196  0.00  0.00     0.039 A 
ATOM      3  C2  UNL d   1       0.622  -1.359  -0.382  0.00  0.00    -0.080 A 
ATOM      4  C3  UNL d   1       0.258  -0.057  -0.052  0.00  0.00     0.150 A 
ATOM      5  C4  UNL d   1       0.988   1.029  -0.524  0.00  0.00    -0.007 A 
ATOM      6  C5  UNL d   1       2.101   0.812  -1.336  0.00  0.00     0.039 A 
ENDROOT
BRANCH   4   7
ATOM      7  O   UNL d   1      -0.818   0.202   0.744  0.00  0.00    -0.526 OA
ATOM      8  H5  UNL d   1      -1.209  -0.644   1.019  0.00  0.00     0.418 HD
ENDBRANCH   4   7
TORSDOF 1
ENDMDL
