MODEL 1
REMARK minimizedAffinity -2.63455915
REMARK minimizedRMSD -1
REMARK  1 active torsions:
REMARK  status: ('A' for Active; 'I' for Inactive)
REMARK    1  A    between atoms: C3_4  and  O_7 
ROOT
ATOM      1  C   UNL d   1      -2.095  -0.806  -0.351  0.00  0.00    -0.033 A 
ATOM      2  C1  UNL d   1      -1.134   0.189  -0.159  0.00  0.00     0.039 A 
ATOM      3  C2  UNL d   1       0.224  -0.125  -0.243  0.00  0.00    -0.080 A 
ATOM      4  C3  UNL d   1       0.607  -1.434  -0.520  0.00  0.00     0.150 A 
ATOM      5  C4  UNL d   1      -0.345  -2.429  -0.716  0.00  0.00    -0.007 A 
ATOM      6  C5  UNL d   1      -1.700  -2.115  -0.630  0.00  0.00     0.039 A 
ENDROOT
BRANCH   4   7
ATOM      7  O   UNL d   1       1.921  -1.789  -0.607  0.00  0.00    -0.526 OA
ATOM      8  H5  UNL d   1       2.464  -1.005  -0.421  0.00  0.00     0.418 HD
ENDBRANCH   4   7
TORSDOF 1
ENDMDL
