MODEL 1
REMARK minimizedAffinity -4.5277915
REMARK minimizedRMSD -1
REMARK  1 active torsions:
REMARK  status: ('A' for Active; 'I' for Inactive)
REMARK    1  A    between atoms: C3_4  and  O_7 
ROOT
ATOM      1  C   UNL d   1       2.414   1.114  -2.217  0.00  0.00    -0.033 A 
ATOM      2  C1  UNL d   1       1.280   1.513  -1.506  0.00  0.00     0.039 A 
ATOM      3  C2  UNL d   1       0.595   0.594  -0.708  0.00  0.00    -0.080 A 
ATOM      4  C3  UNL d   1       1.054  -0.718  -0.629  0.00  0.00     0.150 A 
ATOM      5  C4  UNL d   1       2.185  -1.121  -1.331  0.00  0.00    -0.007 A 
ATOM      6  C5  UNL d   1       2.867  -0.203  -2.128  0.00  0.00     0.039 A 
ENDROOT
BRANCH   4   7
ATOM      7  O   UNL d   1       0.416  -1.651   0.133  0.00  0.00    -0.526 OA
ATOM      8  H5  UNL d   1      -0.365  -1.236   0.537  0.00  0.00     0.418 HD
ENDBRANCH   4   7
TORSDOF 1
ENDMDL
