MODEL 1
REMARK minimizedAffinity -3.9662962
REMARK minimizedRMSD -1
REMARK  1 active torsions:
REMARK  status: ('A' for Active; 'I' for Inactive)
REMARK    1  A    between atoms: C3_4  and  O_7 
ROOT
ATOM      1  C   UNL d   1      -0.156   0.410  -0.010  0.00  0.00    -0.033 A 
ATOM      2  C1  UNL d   1       0.320  -0.896   0.108  0.00  0.00     0.039 A 
ATOM      3  C2  UNL d   1       1.605  -1.216  -0.336  0.00  0.00    -0.080 A 
ATOM      4  C3  UNL d   1       2.401  -0.221  -0.895  0.00  0.00     0.150 A 
ATOM      5  C4  UNL d   1       1.934   1.084  -1.013  0.00  0.00    -0.007 A 
ATOM      6  C5  UNL d   1       0.651   1.401  -0.569  0.00  0.00     0.039 A 
ENDROOT
BRANCH   4   7
ATOM      7  O   UNL d   1       3.660  -0.486  -1.348  0.00  0.00    -0.526 OA
ATOM      8  H5  UNL d   1       3.837  -1.434  -1.228  0.00  0.00     0.418 HD
ENDBRANCH   4   7
TORSDOF 1
ENDMDL
