MODEL 1
REMARK minimizedAffinity -1.70454705
REMARK minimizedRMSD -1
REMARK  1 active torsions:
REMARK  status: ('A' for Active; 'I' for Inactive)
REMARK    1  A    between atoms: C3_4  and  O_7 
ROOT
ATOM      1  C   UNL d   1      -2.377   1.012   3.980  0.00  0.00    -0.033 A 
ATOM      2  C1  UNL d   1      -3.017   0.175   3.064  0.00  0.00     0.039 A 
ATOM      3  C2  UNL d   1      -2.441  -0.068   1.816  0.00  0.00    -0.080 A 
ATOM      4  C3  UNL d   1      -1.225   0.530   1.497  0.00  0.00     0.150 A 
ATOM      5  C4  UNL d   1      -0.579   1.362   2.406  0.00  0.00    -0.007 A 
ATOM      6  C5  UNL d   1      -1.157   1.604   3.651  0.00  0.00     0.039 A 
ENDROOT
BRANCH   4   7
ATOM      7  O   UNL d   1      -0.626   0.327   0.289  0.00  0.00    -0.526 OA
ATOM      8  H5  UNL d   1      -1.199  -0.246  -0.246  0.00  0.00     0.418 HD
ENDBRANCH   4   7
TORSDOF 1
ENDMDL
