MODEL 1
REMARK minimizedAffinity -3.54672384
REMARK minimizedRMSD -1
REMARK  1 active torsions:
REMARK  status: ('A' for Active; 'I' for Inactive)
REMARK    1  A    between atoms: C3_4  and  O_7 
ROOT
ATOM      1  C   UNL d   1       1.792  -0.229   0.134  0.00  0.00    -0.033 A 
ATOM      2  C1  UNL d   1       0.845  -1.254   0.163  0.00  0.00     0.039 A 
ATOM      3  C2  UNL d   1       0.890  -2.276  -0.787  0.00  0.00    -0.080 A 
ATOM      4  C3  UNL d   1       1.887  -2.262  -1.759  0.00  0.00     0.150 A 
ATOM      5  C4  UNL d   1       2.836  -1.246  -1.791  0.00  0.00    -0.007 A 
ATOM      6  C5  UNL d   1       2.789  -0.225  -0.842  0.00  0.00     0.039 A 
ENDROOT
BRANCH   4   7
ATOM      7  O   UNL d   1       1.969  -3.235  -2.710  0.00  0.00    -0.526 OA
ATOM      8  H5  UNL d   1       1.231  -3.854  -2.581  0.00  0.00     0.418 HD
ENDBRANCH   4   7
TORSDOF 1
ENDMDL
