MODEL 1
REMARK minimizedAffinity -4.88636637
REMARK minimizedRMSD -1
REMARK  1 active torsions:
REMARK  status: ('A' for Active; 'I' for Inactive)
REMARK    1  A    between atoms: C3_4  and  O_7 
ROOT
ATOM      1  C   UNL d   1       0.193  -0.061  -0.081  0.00  0.00    -0.033 A 
ATOM      2  C1  UNL d   1       0.631  -1.368  -0.301  0.00  0.00     0.039 A 
ATOM      3  C2  UNL d   1       1.859  -1.599  -0.922  0.00  0.00    -0.080 A 
ATOM      4  C3  UNL d   1       2.640  -0.516  -1.317  0.00  0.00     0.150 A 
ATOM      5  C4  UNL d   1       2.212   0.789  -1.098  0.00  0.00    -0.007 A 
ATOM      6  C5  UNL d   1       0.984   1.018  -0.478  0.00  0.00     0.039 A 
ENDROOT
BRANCH   4   7
ATOM      7  O   UNL d   1       3.844  -0.692  -1.931  0.00  0.00    -0.526 OA
ATOM      8  H5  UNL d   1       3.997  -1.646  -2.043  0.00  0.00     0.418 HD
ENDBRANCH   4   7
TORSDOF 1
ENDMDL
