MODEL 1
REMARK minimizedAffinity -2.92666483
REMARK minimizedRMSD -1
REMARK  1 active torsions:
REMARK  status: ('A' for Active; 'I' for Inactive)
REMARK    1  A    between atoms: C3_4  and  O_7 
ROOT
ATOM      1  C   UNL d   1       1.323  -2.049  -0.006  0.00  0.00    -0.033 A 
ATOM      2  C1  UNL d   1       2.071  -1.781  -1.154  0.00  0.00     0.039 A 
ATOM      3  C2  UNL d   1       1.878  -0.588  -1.853  0.00  0.00    -0.080 A 
ATOM      4  C3  UNL d   1       0.936   0.328  -1.394  0.00  0.00     0.150 A 
ATOM      5  C4  UNL d   1       0.190   0.070  -0.249  0.00  0.00    -0.007 A 
ATOM      6  C5  UNL d   1       0.383  -1.123   0.447  0.00  0.00     0.039 A 
ENDROOT
BRANCH   4   7
ATOM      7  O   UNL d   1       0.709   1.504  -2.045  0.00  0.00    -0.526 OA
ATOM      8  H5  UNL d   1       1.276   1.533  -2.834  0.00  0.00     0.418 HD
ENDBRANCH   4   7
TORSDOF 1
ENDMDL
