MODEL 1
REMARK minimizedAffinity -3.66740561
REMARK minimizedRMSD -1
REMARK  1 active torsions:
REMARK  status: ('A' for Active; 'I' for Inactive)
REMARK    1  A    between atoms: C3_4  and  O_7 
ROOT
ATOM      1  C   UNL d   1      -2.921   0.853   3.818  0.00  0.00    -0.033 A 
ATOM      2  C1  UNL d   1      -3.620  -0.093   3.065  0.00  0.00     0.039 A 
ATOM      3  C2  UNL d   1      -3.087  -0.562   1.863  0.00  0.00    -0.080 A 
ATOM      4  C3  UNL d   1      -1.857  -0.079   1.426  0.00  0.00     0.150 A 
ATOM      5  C4  UNL d   1      -1.153   0.860   2.173  0.00  0.00    -0.007 A 
ATOM      6  C5  UNL d   1      -1.687   1.328   3.373  0.00  0.00     0.039 A 
ENDROOT
BRANCH   4   7
ATOM      7  O   UNL d   1      -1.299  -0.503   0.256  0.00  0.00    -0.526 OA
ATOM      8  H5  UNL d   1      -1.911  -1.129  -0.167  0.00  0.00     0.418 HD
ENDBRANCH   4   7
TORSDOF 1
ENDMDL
