MODEL 1
REMARK minimizedAffinity -2.19522595
REMARK minimizedRMSD -1
REMARK  1 active torsions:
REMARK  status: ('A' for Active; 'I' for Inactive)
REMARK    1  A    between atoms: C3_4  and  O_7 
ROOT
ATOM      1  C   UNL d   1      -2.258   1.806   4.372  0.00  0.00    -0.033 A 
ATOM      2  C1  UNL d   1      -1.472   0.669   4.567  0.00  0.00     0.039 A 
ATOM      3  C2  UNL d   1      -0.688   0.172   3.524  0.00  0.00    -0.080 A 
ATOM      4  C3  UNL d   1      -0.698   0.822   2.293  0.00  0.00     0.150 A 
ATOM      5  C4  UNL d   1      -1.476   1.957   2.092  0.00  0.00    -0.007 A 
ATOM      6  C5  UNL d   1      -2.259   2.451   3.135  0.00  0.00     0.039 A 
ENDROOT
BRANCH   4   7
ATOM      7  O   UNL d   1       0.047   0.371   1.244  0.00  0.00    -0.526 OA
ATOM      8  H5  UNL d   1       0.510  -0.437   1.520  0.00  0.00     0.418 HD
ENDBRANCH   4   7
TORSDOF 1
ENDMDL
