MODEL 1
REMARK minimizedAffinity -4.1657629
REMARK minimizedRMSD -1
REMARK  1 active torsions:
REMARK  status: ('A' for Active; 'I' for Inactive)
REMARK    1  A    between atoms: C3_4  and  O_7 
ROOT
ATOM      1  C   UNL d   1      -0.474  -1.117   0.100  0.00  0.00    -0.033 A 
ATOM      2  C1  UNL d   1       0.201   0.095  -0.063  0.00  0.00     0.039 A 
ATOM      3  C2  UNL d   1       1.475   0.114  -0.634  0.00  0.00    -0.080 A 
ATOM      4  C3  UNL d   1       2.061  -1.082  -1.039  0.00  0.00     0.150 A 
ATOM      5  C4  UNL d   1       1.393  -2.292  -0.883  0.00  0.00    -0.007 A 
ATOM      6  C5  UNL d   1       0.121  -2.309  -0.312  0.00  0.00     0.039 A 
ENDROOT
BRANCH   4   7
ATOM      7  O   UNL d   1       3.305  -1.113  -1.597  0.00  0.00    -0.526 OA
ATOM      8  H5  UNL d   1       3.657  -0.207  -1.615  0.00  0.00     0.418 HD
ENDBRANCH   4   7
TORSDOF 1
ENDMDL
