MODEL 1
REMARK minimizedAffinity -1.88466346
REMARK minimizedRMSD -1
REMARK  1 active torsions:
REMARK  status: ('A' for Active; 'I' for Inactive)
REMARK    1  A    between atoms: C3_4  and  O_7 
ROOT
ATOM      1  C   UNL d   1       4.879   5.264   2.991  0.00  0.00    -0.033 A 
ATOM      2  C1  UNL d   1       5.998   4.916   3.750  0.00  0.00     0.039 A 
ATOM      3  C2  UNL d   1       6.000   3.733   4.493  0.00  0.00    -0.080 A 
ATOM      4  C3  UNL d   1       4.878   2.909   4.467  0.00  0.00     0.150 A 
ATOM      5  C4  UNL d   1       3.762   3.247   3.711  0.00  0.00    -0.007 A 
ATOM      6  C5  UNL d   1       3.761   4.429   2.971  0.00  0.00     0.039 A 
ENDROOT
BRANCH   4   7
ATOM      7  O   UNL d   1       4.832   1.747   5.180  0.00  0.00    -0.526 OA
ATOM      8  H5  UNL d   1       5.662   1.658   5.677  0.00  0.00     0.418 HD
ENDBRANCH   4   7
TORSDOF 1
ENDMDL
