MODEL 1
REMARK minimizedAffinity 0.149893999
REMARK minimizedRMSD -1
REMARK  1 active torsions:
REMARK  status: ('A' for Active; 'I' for Inactive)
REMARK    1  A    between atoms: C3_4  and  O_7 
ROOT
ATOM      1  C   UNL d   1       2.207   6.000  -3.931  0.00  0.00    -0.033 A 
ATOM      2  C1  UNL d   1       3.383   5.994  -4.683  0.00  0.00     0.039 A 
ATOM      3  C2  UNL d   1       4.623   5.990  -4.043  0.00  0.00    -0.080 A 
ATOM      4  C3  UNL d   1       4.674   5.991  -2.652  0.00  0.00     0.150 A 
ATOM      5  C4  UNL d   1       3.506   5.994  -1.896  0.00  0.00    -0.007 A 
ATOM      6  C5  UNL d   1       2.268   5.999  -2.537  0.00  0.00     0.039 A 
ENDROOT
BRANCH   4   7
ATOM      7  O   UNL d   1       5.861   5.993  -1.982  0.00  0.00    -0.526 OA
ATOM      8  H5  UNL d   1       6.582   6.020  -2.633  0.00  0.00     0.418 HD
ENDBRANCH   4   7
TORSDOF 1
ENDMDL
