MODEL 1
REMARK minimizedAffinity 0.0651497245
REMARK minimizedRMSD -1
REMARK  1 active torsions:
REMARK  status: ('A' for Active; 'I' for Inactive)
REMARK    1  A    between atoms: C3_4  and  O_7 
ROOT
ATOM      1  C   UNL d   1      -3.056  -1.720   2.546  0.00  0.00    -0.033 A 
ATOM      2  C1  UNL d   1      -3.098  -1.960   3.921  0.00  0.00     0.039 A 
ATOM      3  C2  UNL d   1      -2.453  -1.092   4.804  0.00  0.00    -0.080 A 
ATOM      4  C3  UNL d   1      -1.771   0.013   4.300  0.00  0.00     0.150 A 
ATOM      5  C4  UNL d   1      -1.729   0.260   2.931  0.00  0.00    -0.007 A 
ATOM      6  C5  UNL d   1      -2.373  -0.608   2.052  0.00  0.00     0.039 A 
ENDROOT
BRANCH   4   7
ATOM      7  O   UNL d   1      -1.123   0.885   5.121  0.00  0.00    -0.526 OA
ATOM      8  H5  UNL d   1      -1.213   0.572   6.037  0.00  0.00     0.418 HD
ENDBRANCH   4   7
TORSDOF 1
ENDMDL
