MODEL 1
REMARK minimizedAffinity -2.54443622
REMARK minimizedRMSD -1
REMARK  1 active torsions:
REMARK  status: ('A' for Active; 'I' for Inactive)
REMARK    1  A    between atoms: C3_4  and  O_7 
ROOT
ATOM      1  C   UNL d   1       5.472  -0.726   4.911  0.00  0.00    -0.033 A 
ATOM      2  C1  UNL d   1       5.999  -0.023   3.826  0.00  0.00     0.039 A 
ATOM      3  C2  UNL d   1       5.989   1.373   3.825  0.00  0.00    -0.080 A 
ATOM      4  C3  UNL d   1       5.450   2.054   4.913  0.00  0.00     0.150 A 
ATOM      5  C4  UNL d   1       4.926   1.360   5.999  0.00  0.00    -0.007 A 
ATOM      6  C5  UNL d   1       4.937  -0.034   5.999  0.00  0.00     0.039 A 
ENDROOT
BRANCH   4   7
ATOM      7  O   UNL d   1       5.413   3.416   4.955  0.00  0.00    -0.526 OA
ATOM      8  H5  UNL d   1       5.783   3.759   4.125  0.00  0.00     0.418 HD
ENDBRANCH   4   7
TORSDOF 1
ENDMDL
