MODEL 1
REMARK minimizedAffinity -2.18918657
REMARK minimizedRMSD -1
REMARK  1 active torsions:
REMARK  status: ('A' for Active; 'I' for Inactive)
REMARK    1  A    between atoms: C3_4  and  O_7 
ROOT
ATOM      1  C   UNL d   1       4.320   3.531   0.983  0.00  0.00    -0.033 A 
ATOM      2  C1  UNL d   1       3.949   4.876   1.035  0.00  0.00     0.039 A 
ATOM      3  C2  UNL d   1       4.506   5.719   1.998  0.00  0.00    -0.080 A 
ATOM      4  C3  UNL d   1       5.433   5.207   2.901  0.00  0.00     0.150 A 
ATOM      5  C4  UNL d   1       5.810   3.869   2.853  0.00  0.00    -0.007 A 
ATOM      6  C5  UNL d   1       5.252   3.028   1.891  0.00  0.00     0.039 A 
ENDROOT
BRANCH   4   7
ATOM      7  O   UNL d   1       6.000   5.990   3.862  0.00  0.00    -0.526 OA
ATOM      8  H5  UNL d   1       5.622   6.883   3.793  0.00  0.00     0.418 HD
ENDBRANCH   4   7
TORSDOF 1
ENDMDL
