MODEL 1
REMARK minimizedAffinity -2.36859512
REMARK minimizedRMSD -1
REMARK  1 active torsions:
REMARK  status: ('A' for Active; 'I' for Inactive)
REMARK    1  A    between atoms: C3_4  and  O_7 
ROOT
ATOM      1  C   UNL d   1       5.633   1.126   4.769  0.00  0.00    -0.033 A 
ATOM      2  C1  UNL d   1       5.368   0.386   3.615  0.00  0.00     0.039 A 
ATOM      3  C2  UNL d   1       5.417  -1.009   3.651  0.00  0.00    -0.080 A 
ATOM      4  C3  UNL d   1       5.731  -1.651   4.845  0.00  0.00     0.150 A 
ATOM      5  C4  UNL d   1       5.993  -0.921   6.000  0.00  0.00    -0.007 A 
ATOM      6  C5  UNL d   1       5.944   0.472   5.962  0.00  0.00     0.039 A 
ENDROOT
BRANCH   4   7
ATOM      7  O   UNL d   1       5.796  -3.010   4.928  0.00  0.00    -0.526 OA
ATOM      8  H5  UNL d   1       5.621  -3.381   4.047  0.00  0.00     0.418 HD
ENDBRANCH   4   7
TORSDOF 1
ENDMDL
