MODEL 1
REMARK minimizedAffinity -5.22940826
REMARK minimizedRMSD -1
REMARK  1 active torsions:
REMARK  status: ('A' for Active; 'I' for Inactive)
REMARK    1  A    between atoms: C3_4  and  O_7 
ROOT
ATOM      1  C   UNL d   1      -2.416  -2.113   1.958  0.00  0.00    -0.033 A 
ATOM      2  C1  UNL d   1      -1.282  -2.487   1.235  0.00  0.00     0.039 A 
ATOM      3  C2  UNL d   1      -0.513  -1.518   0.589  0.00  0.00    -0.080 A 
ATOM      4  C3  UNL d   1      -0.887  -0.179   0.674  0.00  0.00     0.150 A 
ATOM      5  C4  UNL d   1      -2.014   0.201   1.396  0.00  0.00    -0.007 A 
ATOM      6  C5  UNL d   1      -2.781  -0.769   2.040  0.00  0.00     0.039 A 
ENDROOT
BRANCH   4   7
ATOM      7  O   UNL d   1      -0.171   0.802   0.057  0.00  0.00    -0.526 OA
ATOM      8  H5  UNL d   1       0.563   0.389  -0.428  0.00  0.00     0.418 HD
ENDBRANCH   4   7
TORSDOF 1
ENDMDL
