MODEL 1
REMARK minimizedAffinity -4.67110443
REMARK minimizedRMSD -1
REMARK  1 active torsions:
REMARK  status: ('A' for Active; 'I' for Inactive)
REMARK    1  A    between atoms: C3_4  and  O_7 
ROOT
ATOM      1  C   UNL d   1       0.819   0.062   0.008  0.00  0.00    -0.033 A 
ATOM      2  C1  UNL d   1      -0.536   0.394   0.055  0.00  0.00     0.039 A 
ATOM      3  C2  UNL d   1      -1.486  -0.585   0.353  0.00  0.00    -0.080 A 
ATOM      4  C3  UNL d   1      -1.068  -1.890   0.602  0.00  0.00     0.150 A 
ATOM      5  C4  UNL d   1       0.281  -2.226   0.560  0.00  0.00    -0.007 A 
ATOM      6  C5  UNL d   1       1.228  -1.248   0.262  0.00  0.00     0.039 A 
ENDROOT
BRANCH   4   7
ATOM      7  O   UNL d   1      -1.959  -2.880   0.892  0.00  0.00    -0.526 OA
ATOM      8  H5  UNL d   1      -2.856  -2.508   0.857  0.00  0.00     0.418 HD
ENDBRANCH   4   7
TORSDOF 1
ENDMDL
