MODEL 1
REMARK minimizedAffinity -2.64388323
REMARK minimizedRMSD -1
REMARK  1 active torsions:
REMARK  status: ('A' for Active; 'I' for Inactive)
REMARK    1  A    between atoms: C3_4  and  O_7 
ROOT
ATOM      1  C   UNL d   1       0.618  -0.182   0.469  0.00  0.00    -0.033 A 
ATOM      2  C1  UNL d   1       1.146  -1.451   0.710  0.00  0.00     0.039 A 
ATOM      3  C2  UNL d   1       0.294  -2.526   0.972  0.00  0.00    -0.080 A 
ATOM      4  C3  UNL d   1      -1.082  -2.319   0.987  0.00  0.00     0.150 A 
ATOM      5  C4  UNL d   1      -1.616  -1.057   0.743  0.00  0.00    -0.007 A 
ATOM      6  C5  UNL d   1      -0.763   0.015   0.483  0.00  0.00     0.039 A 
ENDROOT
BRANCH   4   7
ATOM      7  O   UNL d   1      -1.954  -3.336   1.242  0.00  0.00    -0.526 OA
ATOM      8  H5  UNL d   1      -1.441  -4.142   1.420  0.00  0.00     0.418 HD
ENDBRANCH   4   7
TORSDOF 1
ENDMDL
