MODEL 1
REMARK minimizedAffinity -5.17079735
REMARK minimizedRMSD -1
REMARK  1 active torsions:
REMARK  status: ('A' for Active; 'I' for Inactive)
REMARK    1  A    between atoms: C3_4  and  O_7 
ROOT
ATOM      1  C   UNL d   1       0.584   0.188   0.454  0.00  0.00    -0.033 A 
ATOM      2  C1  UNL d   1       1.195  -1.056   0.626  0.00  0.00     0.039 A 
ATOM      3  C2  UNL d   1       0.420  -2.216   0.666  0.00  0.00    -0.080 A 
ATOM      4  C3  UNL d   1      -0.963  -2.120   0.533  0.00  0.00     0.150 A 
ATOM      5  C4  UNL d   1      -1.577  -0.884   0.358  0.00  0.00    -0.007 A 
ATOM      6  C5  UNL d   1      -0.802   0.274   0.319  0.00  0.00     0.039 A 
ENDROOT
BRANCH   4   7
ATOM      7  O   UNL d   1      -1.761  -3.224   0.571  0.00  0.00    -0.526 OA
ATOM      8  H5  UNL d   1      -1.201  -4.003   0.725  0.00  0.00     0.418 HD
ENDBRANCH   4   7
TORSDOF 1
ENDMDL
