MODEL 1
REMARK minimizedAffinity -2.26064157
REMARK minimizedRMSD -1
REMARK  1 active torsions:
REMARK  status: ('A' for Active; 'I' for Inactive)
REMARK    1  A    between atoms: C3_4  and  O_7 
ROOT
ATOM      1  C   UNL d   1      -2.570  -1.092   0.186  0.00  0.00    -0.033 A 
ATOM      2  C1  UNL d   1      -2.552  -2.434  -0.198  0.00  0.00     0.039 A 
ATOM      3  C2  UNL d   1      -1.388  -3.190  -0.047  0.00  0.00    -0.080 A 
ATOM      4  C3  UNL d   1      -0.251  -2.592   0.490  0.00  0.00     0.150 A 
ATOM      5  C4  UNL d   1      -0.263  -1.257   0.879  0.00  0.00    -0.007 A 
ATOM      6  C5  UNL d   1      -1.426  -0.503   0.726  0.00  0.00     0.039 A 
ENDROOT
BRANCH   4   7
ATOM      7  O   UNL d   1       0.910  -3.288   0.653  0.00  0.00    -0.526 OA
ATOM      8  H5  UNL d   1       0.779  -4.190   0.315  0.00  0.00     0.418 HD
ENDBRANCH   4   7
TORSDOF 1
ENDMDL
