MODEL 1
REMARK minimizedAffinity -3.08084941
REMARK minimizedRMSD -1
REMARK  1 active torsions:
REMARK  status: ('A' for Active; 'I' for Inactive)
REMARK    1  A    between atoms: C3_4  and  O_7 
ROOT
ATOM      1  C   UNL d   1       0.780   0.393  -0.127  0.00  0.00    -0.033 A 
ATOM      2  C1  UNL d   1      -0.610   0.371   0.002  0.00  0.00     0.039 A 
ATOM      3  C2  UNL d   1      -1.252  -0.781   0.461  0.00  0.00    -0.080 A 
ATOM      4  C3  UNL d   1      -0.493  -1.901   0.789  0.00  0.00     0.150 A 
ATOM      5  C4  UNL d   1       0.893  -1.885   0.667  0.00  0.00    -0.007 A 
ATOM      6  C5  UNL d   1       1.532  -0.734   0.207  0.00  0.00     0.039 A 
ENDROOT
BRANCH   4   7
ATOM      7  O   UNL d   1      -1.075  -3.050   1.237  0.00  0.00    -0.526 OA
ATOM      8  H5  UNL d   1      -2.039  -2.924   1.243  0.00  0.00     0.418 HD
ENDBRANCH   4   7
TORSDOF 1
ENDMDL
