MODEL 1
REMARK minimizedAffinity -3.8816452
REMARK minimizedRMSD -1
REMARK  1 active torsions:
REMARK  status: ('A' for Active; 'I' for Inactive)
REMARK    1  A    between atoms: C3_4  and  O_7 
ROOT
ATOM      1  C   UNL d   1      -1.518  -2.719   1.384  0.00  0.00    -0.033 A 
ATOM      2  C1  UNL d   1      -2.168  -1.609   0.844  0.00  0.00     0.039 A 
ATOM      3  C2  UNL d   1      -1.429  -0.587   0.246  0.00  0.00    -0.080 A 
ATOM      4  C3  UNL d   1      -0.041  -0.688   0.194  0.00  0.00     0.150 A 
ATOM      5  C4  UNL d   1       0.613  -1.793   0.727  0.00  0.00    -0.007 A 
ATOM      6  C5  UNL d   1      -0.127  -2.812   1.325  0.00  0.00     0.039 A 
ENDROOT
BRANCH   4   7
ATOM      7  O   UNL d   1       0.724   0.287  -0.375  0.00  0.00    -0.526 OA
ATOM      8  H5  UNL d   1       0.138   1.002  -0.675  0.00  0.00     0.418 HD
ENDBRANCH   4   7
TORSDOF 1
ENDMDL
