MODEL 1
REMARK minimizedAffinity -5.87590551
REMARK minimizedRMSD -1
REMARK  1 active torsions:
REMARK  status: ('A' for Active; 'I' for Inactive)
REMARK    1  A    between atoms: C3_4  and  O_7 
ROOT
ATOM      1  C   UNL d   1       0.587  -0.046   0.220  0.00  0.00    -0.033 A 
ATOM      2  C1  UNL d   1      -0.799   0.109   0.149  0.00  0.00     0.039 A 
ATOM      3  C2  UNL d   1      -1.636  -0.997   0.310  0.00  0.00    -0.080 A 
ATOM      4  C3  UNL d   1      -1.075  -2.250   0.542  0.00  0.00     0.150 A 
ATOM      5  C4  UNL d   1       0.304  -2.411   0.617  0.00  0.00    -0.007 A 
ATOM      6  C5  UNL d   1       1.138  -1.306   0.455  0.00  0.00     0.039 A 
ENDROOT
BRANCH   4   7
ATOM      7  O   UNL d   1      -1.852  -3.359   0.700  0.00  0.00    -0.526 OA
ATOM      8  H5  UNL d   1      -2.783  -3.101   0.594  0.00  0.00     0.418 HD
ENDBRANCH   4   7
TORSDOF 1
ENDMDL
