MODEL 1
REMARK minimizedAffinity -4.88603687
REMARK minimizedRMSD -1
REMARK  1 active torsions:
REMARK  status: ('A' for Active; 'I' for Inactive)
REMARK    1  A    between atoms: C3_4  and  O_7 
ROOT
ATOM      1  C   UNL d   1       0.753  -0.460   0.000  0.00  0.00    -0.033 A 
ATOM      2  C1  UNL d   1      -0.582  -0.284  -0.370  0.00  0.00     0.039 A 
ATOM      3  C2  UNL d   1      -1.547  -1.212   0.027  0.00  0.00    -0.080 A 
ATOM      4  C3  UNL d   1      -1.165  -2.309   0.795  0.00  0.00     0.150 A 
ATOM      5  C4  UNL d   1       0.162  -2.488   1.171  0.00  0.00    -0.007 A 
ATOM      6  C5  UNL d   1       1.124  -1.561   0.772  0.00  0.00     0.039 A 
ENDROOT
BRANCH   4   7
ATOM      7  O   UNL d   1      -2.070  -3.243   1.202  0.00  0.00    -0.526 OA
ATOM      8  H5  UNL d   1      -2.941  -3.004   0.844  0.00  0.00     0.418 HD
ENDBRANCH   4   7
TORSDOF 1
ENDMDL
