MODEL 1
REMARK minimizedAffinity 8.07794571
REMARK minimizedRMSD -1
REMARK  3 active torsions:
REMARK  status: ('A' for Active; 'I' for Inactive)
REMARK    1  A    between atoms: C3'_2  and  C2'_3 
REMARK    2  A    between atoms: C2'_3  and  C1'_4 
REMARK    3  A    between atoms: C1'_4  and  C1_5 
ROOT
ATOM      1  C1  N4B d   1      -2.524  -0.203  -0.822  0.00  0.00    -0.075 A 
ATOM      2  C2  N4B d   1      -3.449  -0.766  -1.728  0.00  0.00     0.002 A 
ATOM      3  C3  N4B d   1      -4.721  -1.072  -1.310  0.00  0.00     0.002 A 
ATOM      4  C4  N4B d   1      -5.083  -0.842   0.009  0.00  0.00    -0.004 A 
ATOM      5  C5  N4B d   1      -4.192  -0.274   0.872  0.00  0.00     0.002 A 
ATOM      6  C6  N4B d   1      -2.911   0.042   0.464  0.00  0.00     0.002 A 
ENDROOT
BRANCH   1   7
ATOM      7  C1' N4B d   1      -1.096   0.068  -1.210  0.00  0.00     0.057 C 
BRANCH   7   8
ATOM      8  C2' N4B d   1      -0.273   0.317   0.050  0.00  0.00     0.009 C 
BRANCH   8   9
ATOM      9  C3' N4B d   1       0.626   1.534  -0.089  0.00  0.00     0.004 C 
ATOM     10  C4' N4B d   1       0.610   2.410   1.128  0.00  0.00     0.003 C 
ENDBRANCH   8   9
ENDBRANCH   7   8
ENDBRANCH   1   7
TORSDOF 3
ENDMDL
