MODEL 1
REMARK minimizedAffinity 1.60159981
REMARK minimizedRMSD -1
REMARK  3 active torsions:
REMARK  status: ('A' for Active; 'I' for Inactive)
REMARK    1  A    between atoms: C3'_2  and  C2'_3 
REMARK    2  A    between atoms: C2'_3  and  C1'_4 
REMARK    3  A    between atoms: C1'_4  and  C1_5 
ROOT
ATOM      1  C1  N4B d   1       1.524  -0.713  -0.213  0.00  0.00    -0.075 A 
ATOM      2  C2  N4B d   1       0.969   0.554   0.074  0.00  0.00     0.002 A 
ATOM      3  C3  N4B d   1      -0.332   0.827  -0.269  0.00  0.00     0.002 A 
ATOM      4  C4  N4B d   1      -1.089  -0.139  -0.914  0.00  0.00    -0.004 A 
ATOM      5  C5  N4B d   1      -0.554  -1.369  -1.166  0.00  0.00     0.002 A 
ATOM      6  C6  N4B d   1       0.752  -1.659  -0.823  0.00  0.00     0.002 A 
ENDROOT
BRANCH   1   7
ATOM      7  C1' N4B d   1       2.968  -1.029   0.065  0.00  0.00     0.057 C 
BRANCH   7   8
ATOM      8  C2' N4B d   1       3.839  -0.379  -1.006  0.00  0.00     0.009 C 
BRANCH   8   9
ATOM      9  C3' N4B d   1       4.476   0.910  -0.515  0.00  0.00     0.004 C 
ATOM     10  C4' N4B d   1       5.969   0.817  -0.413  0.00  0.00     0.003 C 
ENDBRANCH   8   9
ENDBRANCH   7   8
ENDBRANCH   1   7
TORSDOF 3
ENDMDL
