MODEL 1
REMARK minimizedAffinity 4.6263032
REMARK minimizedRMSD -1
REMARK  3 active torsions:
REMARK  status: ('A' for Active; 'I' for Inactive)
REMARK    1  A    between atoms: C3'_2  and  C2'_3 
REMARK    2  A    between atoms: C2'_3  and  C1'_4 
REMARK    3  A    between atoms: C1'_4  and  C1_5 
ROOT
ATOM      1  C1  N4B d   1       1.483  -1.008  -0.547  0.00  0.00    -0.075 A 
ATOM      2  C2  N4B d   1       0.124  -0.706  -0.781  0.00  0.00     0.002 A 
ATOM      3  C3  N4B d   1      -0.781  -1.721  -0.975  0.00  0.00     0.002 A 
ATOM      4  C4  N4B d   1      -0.349  -3.038  -0.957  0.00  0.00    -0.004 A 
ATOM      5  C5  N4B d   1       0.962  -3.322  -0.705  0.00  0.00     0.002 A 
ATOM      6  C6  N4B d   1       1.882  -2.313  -0.504  0.00  0.00     0.002 A 
ENDROOT
BRANCH   1   7
ATOM      7  C1' N4B d   1       2.525   0.070  -0.415  0.00  0.00     0.057 C 
BRANCH   7   8
ATOM      8  C2' N4B d   1       3.681  -0.233  -1.363  0.00  0.00     0.009 C 
BRANCH   8   9
ATOM      9  C3' N4B d   1       4.836   0.737  -1.178  0.00  0.00     0.004 C 
ATOM     10  C4' N4B d   1       4.400   2.059  -0.620  0.00  0.00     0.003 C 
ENDBRANCH   8   9
ENDBRANCH   7   8
ENDBRANCH   1   7
TORSDOF 3
ENDMDL
