MODEL 1
REMARK minimizedAffinity 7.71747494
REMARK minimizedRMSD -1
REMARK  3 active torsions:
REMARK  status: ('A' for Active; 'I' for Inactive)
REMARK    1  A    between atoms: C3'_2  and  C2'_3 
REMARK    2  A    between atoms: C2'_3  and  C1'_4 
REMARK    3  A    between atoms: C1'_4  and  C1_5 
ROOT
ATOM      1  C1  N4B d   1      -0.141  -3.035   5.999  0.00  0.00    -0.075 A 
ATOM      2  C2  N4B d   1      -1.499  -3.424   5.997  0.00  0.00     0.002 A 
ATOM      3  C3  N4B d   1      -1.831  -4.757   5.986  0.00  0.00     0.002 A 
ATOM      4  C4  N4B d   1      -0.828  -5.714   5.957  0.00  0.00    -0.004 A 
ATOM      5  C5  N4B d   1       0.481  -5.330   5.985  0.00  0.00     0.002 A 
ATOM      6  C6  N4B d   1       0.830  -3.995   6.000  0.00  0.00     0.002 A 
ENDROOT
BRANCH   1   7
ATOM      7  C1' N4B d   1       0.271  -1.591   5.924  0.00  0.00     0.057 C 
BRANCH   7   8
ATOM      8  C2' N4B d   1       1.190  -1.394   4.722  0.00  0.00     0.009 C 
BRANCH   8   9
ATOM      9  C3' N4B d   1       1.638   0.051   4.580  0.00  0.00     0.004 C 
ATOM     10  C4' N4B d   1       1.804   0.740   5.901  0.00  0.00     0.003 C 
ENDBRANCH   8   9
ENDBRANCH   7   8
ENDBRANCH   1   7
TORSDOF 3
ENDMDL
