MODEL 1
REMARK minimizedAffinity 4.71376657
REMARK minimizedRMSD -1
REMARK  0 active torsions:
REMARK  status: ('A' for Active; 'I' for Inactive)
ROOT
ATOM      1  C2' OXE d   1      -2.115   1.123   0.219  0.00  0.00     0.078 C 
ATOM      2  C1' OXE d   1      -0.197  -0.588   1.346  0.00  0.00     0.078 C 
ATOM      3  C1  OXE d   1      -1.346  -1.216   0.598  0.00  0.00    -0.078 A 
ATOM      4  C2  OXE d   1      -2.305  -0.373   0.090  0.00  0.00    -0.078 A 
ATOM      5  C3  OXE d   1      -3.358  -0.896  -0.655  0.00  0.00     0.003 A 
ATOM      6  C4  OXE d   1      -3.532  -2.281  -0.761  0.00  0.00    -0.002 A 
ATOM      7  C5  OXE d   1      -2.588  -3.159  -0.217  0.00  0.00    -0.002 A 
ATOM      8  C6  OXE d   1      -1.470  -2.642   0.428  0.00  0.00     0.003 A 
ENDROOT
TORSDOF 0
ENDMDL
