MODEL 1
REMARK minimizedAffinity 1.23586047
REMARK minimizedRMSD -1
REMARK  0 active torsions:
REMARK  status: ('A' for Active; 'I' for Inactive)
ROOT
ATOM      1  C2' OXE d   1      -5.985   5.050  -4.486  0.00  0.00     0.078 C 
ATOM      2  C1' OXE d   1      -5.993   3.465  -2.169  0.00  0.00     0.078 C 
ATOM      3  C1  OXE d   1      -5.550   2.822  -3.460  0.00  0.00    -0.078 A 
ATOM      4  C2  OXE d   1      -5.593   3.592  -4.597  0.00  0.00    -0.078 A 
ATOM      5  C3  OXE d   1      -5.143   3.065  -5.804  0.00  0.00     0.003 A 
ATOM      6  C4  OXE d   1      -4.792   1.713  -5.900  0.00  0.00    -0.002 A 
ATOM      7  C5  OXE d   1      -4.778   0.901  -4.761  0.00  0.00    -0.002 A 
ATOM      8  C6  OXE d   1      -5.113   1.450  -3.528  0.00  0.00     0.003 A 
ENDROOT
TORSDOF 0
ENDMDL
