MODEL 1
REMARK minimizedAffinity 13.3752136
REMARK minimizedRMSD -1
REMARK  0 active torsions:
REMARK  status: ('A' for Active; 'I' for Inactive)
ROOT
ATOM      1  C2' OXE d   1       2.044   4.892   0.783  0.00  0.00     0.078 C 
ATOM      2  C1' OXE d   1       2.564   4.770  -1.973  0.00  0.00     0.078 C 
ATOM      3  C1  OXE d   1       3.692   5.183  -1.062  0.00  0.00    -0.078 A 
ATOM      4  C2  OXE d   1       3.416   5.286   0.280  0.00  0.00    -0.078 A 
ATOM      5  C3  OXE d   1       4.435   5.610   1.171  0.00  0.00     0.003 A 
ATOM      6  C4  OXE d   1       5.699   5.983   0.697  0.00  0.00    -0.002 A 
ATOM      7  C5  OXE d   1       5.990   5.924  -0.670  0.00  0.00    -0.002 A 
ATOM      8  C6  OXE d   1       5.013   5.486  -1.557  0.00  0.00     0.003 A 
ENDROOT
TORSDOF 0
ENDMDL
