MODEL 1
REMARK minimizedAffinity -0.471400708
REMARK minimizedRMSD -1
REMARK  0 active torsions:
REMARK  status: ('A' for Active; 'I' for Inactive)
ROOT
ATOM      1  C2' OXE d   1      -2.066  -2.532  -0.350  0.00  0.00     0.078 C 
ATOM      2  C1' OXE d   1      -1.573   0.135   0.374  0.00  0.00     0.078 C 
ATOM      3  C1  OXE d   1      -0.681  -0.930   0.961  0.00  0.00    -0.078 A 
ATOM      4  C2  OXE d   1      -0.958  -2.236   0.638  0.00  0.00    -0.078 A 
ATOM      5  C3  OXE d   1      -0.133  -3.253   1.110  0.00  0.00     0.003 A 
ATOM      6  C4  OXE d   1       0.883  -2.972   2.031  0.00  0.00    -0.002 A 
ATOM      7  C5  OXE d   1       1.157  -1.652   2.405  0.00  0.00    -0.002 A 
ATOM      8  C6  OXE d   1       0.414  -0.618   1.847  0.00  0.00     0.003 A 
ENDROOT
TORSDOF 0
ENDMDL
