MODEL 1
REMARK minimizedAffinity 4.24392653
REMARK minimizedRMSD -1
REMARK  0 active torsions:
REMARK  status: ('A' for Active; 'I' for Inactive)
ROOT
ATOM      1  C2' OXE d   1       1.125   0.332   5.184  0.00  0.00     0.078 C 
ATOM      2  C1' OXE d   1       1.866  -2.250   6.000  0.00  0.00     0.078 C 
ATOM      3  C1  OXE d   1       1.845  -1.959   4.520  0.00  0.00    -0.078 A 
ATOM      4  C2  OXE d   1       1.436  -0.707   4.128  0.00  0.00    -0.078 A 
ATOM      5  C3  OXE d   1       1.451  -0.368   2.778  0.00  0.00     0.003 A 
ATOM      6  C4  OXE d   1       1.730  -1.338   1.807  0.00  0.00    -0.002 A 
ATOM      7  C5  OXE d   1       2.110  -2.630   2.183  0.00  0.00    -0.002 A 
ATOM      8  C6  OXE d   1       2.214  -2.944   3.534  0.00  0.00     0.003 A 
ENDROOT
TORSDOF 0
ENDMDL
