MODEL 1
REMARK minimizedAffinity 17.6138897
REMARK minimizedRMSD -1
REMARK  0 active torsions:
REMARK  status: ('A' for Active; 'I' for Inactive)
ROOT
ATOM      1  C2' OXE d   1       0.784   0.463   2.632  0.00  0.00     0.078 C 
ATOM      2  C1' OXE d   1      -1.277  -0.413   0.939  0.00  0.00     0.078 C 
ATOM      3  C1  OXE d   1      -0.075  -1.308   1.106  0.00  0.00    -0.078 A 
ATOM      4  C2  OXE d   1       0.949  -0.851   1.899  0.00  0.00    -0.078 A 
ATOM      5  C3  OXE d   1       2.057  -1.661   2.131  0.00  0.00     0.003 A 
ATOM      6  C4  OXE d   1       2.206  -2.871   1.442  0.00  0.00    -0.002 A 
ATOM      7  C5  OXE d   1       1.193  -3.337   0.598  0.00  0.00    -0.002 A 
ATOM      8  C6  OXE d   1       0.029  -2.590   0.453  0.00  0.00     0.003 A 
ENDROOT
TORSDOF 0
ENDMDL
