MODEL 1
REMARK minimizedAffinity 11.0876503
REMARK minimizedRMSD -1
REMARK  0 active torsions:
REMARK  status: ('A' for Active; 'I' for Inactive)
ROOT
ATOM      1  C2' OXE d   1      -0.690   3.169  -0.327  0.00  0.00     0.078 C 
ATOM      2  C1' OXE d   1      -3.351   2.278  -0.361  0.00  0.00     0.078 C 
ATOM      3  C1  OXE d   1      -2.298   1.328   0.152  0.00  0.00    -0.078 A 
ATOM      4  C2  OXE d   1      -0.992   1.756   0.121  0.00  0.00    -0.078 A 
ATOM      5  C3  OXE d   1       0.012   0.940   0.633  0.00  0.00     0.003 A 
ATOM      6  C4  OXE d   1      -0.275  -0.370   1.036  0.00  0.00    -0.002 A 
ATOM      7  C5  OXE d   1      -1.592  -0.840   1.038  0.00  0.00    -0.002 A 
ATOM      8  C6  OXE d   1      -2.619   0.010   0.640  0.00  0.00     0.003 A 
ENDROOT
TORSDOF 0
ENDMDL
