MODEL 1
REMARK minimizedAffinity 1.37385583
REMARK minimizedRMSD -1
REMARK  0 active torsions:
REMARK  status: ('A' for Active; 'I' for Inactive)
ROOT
ATOM      1  C2' OXE d   1      -2.010   0.137   0.647  0.00  0.00     0.078 C 
ATOM      2  C1' OXE d   1       0.339  -1.365   0.972  0.00  0.00     0.078 C 
ATOM      3  C1  OXE d   1      -0.909  -2.095   0.542  0.00  0.00    -0.078 A 
ATOM      4  C2  OXE d   1      -2.065  -1.360   0.431  0.00  0.00    -0.078 A 
ATOM      5  C3  OXE d   1      -3.232  -1.974  -0.014  0.00  0.00     0.003 A 
ATOM      6  C4  OXE d   1      -3.276  -3.361  -0.202  0.00  0.00    -0.002 A 
ATOM      7  C5  OXE d   1      -2.120  -4.134  -0.056  0.00  0.00    -0.002 A 
ATOM      8  C6  OXE d   1      -0.921  -3.512   0.274  0.00  0.00     0.003 A 
ENDROOT
TORSDOF 0
ENDMDL
