MODEL 1
REMARK minimizedAffinity 10.1532383
REMARK minimizedRMSD -1
REMARK  0 active torsions:
REMARK  status: ('A' for Active; 'I' for Inactive)
ROOT
ATOM      1  C2' OXE d   1      -2.427  -4.095  -0.466  0.00  0.00     0.078 C 
ATOM      2  C1' OXE d   1      -4.362  -2.083  -0.765  0.00  0.00     0.078 C 
ATOM      3  C1  OXE d   1      -2.997  -1.678  -0.266  0.00  0.00    -0.078 A 
ATOM      4  C2  OXE d   1      -2.071  -2.676  -0.078  0.00  0.00    -0.078 A 
ATOM      5  C3  OXE d   1      -0.780  -2.351   0.328  0.00  0.00     0.003 A 
ATOM      6  C4  OXE d   1      -0.462  -1.037   0.694  0.00  0.00    -0.002 A 
ATOM      7  C5  OXE d   1      -1.403  -0.012   0.549  0.00  0.00    -0.002 A 
ATOM      8  C6  OXE d   1      -2.659  -0.308   0.031  0.00  0.00     0.003 A 
ENDROOT
TORSDOF 0
ENDMDL
