MODEL 1
REMARK minimizedAffinity 17.1430359
REMARK minimizedRMSD -1
REMARK  0 active torsions:
REMARK  status: ('A' for Active; 'I' for Inactive)
ROOT
ATOM      1  C2' OXE d   1       0.238   3.046   0.375  0.00  0.00     0.078 C 
ATOM      2  C1' OXE d   1       1.047   0.739   1.756  0.00  0.00     0.078 C 
ATOM      3  C1  OXE d   1      -0.275   0.698   1.031  0.00  0.00    -0.078 A 
ATOM      4  C2  OXE d   1      -0.685   1.846   0.397  0.00  0.00    -0.078 A 
ATOM      5  C3  OXE d   1      -1.871   1.845  -0.332  0.00  0.00     0.003 A 
ATOM      6  C4  OXE d   1      -2.723   0.735  -0.298  0.00  0.00    -0.002 A 
ATOM      7  C5  OXE d   1      -2.343  -0.431   0.374  0.00  0.00    -0.002 A 
ATOM      8  C6  OXE d   1      -1.106  -0.481   1.007  0.00  0.00     0.003 A 
ENDROOT
TORSDOF 0
ENDMDL
