MODEL 1
REMARK minimizedAffinity 4.13362789
REMARK minimizedRMSD -1
REMARK  0 active torsions:
REMARK  status: ('A' for Active; 'I' for Inactive)
ROOT
ATOM      1  C2' OXE d   1       1.180   0.197   4.175  0.00  0.00     0.078 C 
ATOM      2  C1' OXE d   1       1.661  -1.978   5.883  0.00  0.00     0.078 C 
ATOM      3  C1  OXE d   1       1.909  -2.174   4.408  0.00  0.00    -0.078 A 
ATOM      4  C2  OXE d   1       1.626  -1.119   3.574  0.00  0.00    -0.078 A 
ATOM      5  C3  OXE d   1       1.888  -1.228   2.212  0.00  0.00     0.003 A 
ATOM      6  C4  OXE d   1       2.291  -2.452   1.663  0.00  0.00    -0.002 A 
ATOM      7  C5  OXE d   1       2.547  -3.551   2.490  0.00  0.00    -0.002 A 
ATOM      8  C6  OXE d   1       2.401  -3.416   3.866  0.00  0.00     0.003 A 
ENDROOT
TORSDOF 0
ENDMDL
