MODEL 1
REMARK minimizedAffinity 20.9475975
REMARK minimizedRMSD -1
REMARK  0 active torsions:
REMARK  status: ('A' for Active; 'I' for Inactive)
ROOT
ATOM      1  C   UNL d   1      -0.674   1.186   1.502  0.00  0.00     0.124 A 
ATOM      2  C1  UNL d   1      -1.702   0.744   0.681  0.00  0.00     0.062 A 
ATOM      3  C2  UNL d   1      -1.947  -0.619   0.538  0.00  0.00     0.162 A 
ATOM      4  C3  UNL d   1      -1.163  -1.550   1.220  0.00  0.00    -0.034 A 
ATOM      5  C4  UNL d   1      -0.130  -1.097   2.043  0.00  0.00     0.162 A 
ATOM      6  C5  UNL d   1       0.110   0.266   2.182  0.00  0.00     0.062 A 
ATOM      7  F   UNL d   1       1.104   0.691   2.976  0.00  0.00    -0.097 F 
ATOM      8  F1  UNL d   1       0.643  -1.965   2.713  0.00  0.00    -0.096 F 
ATOM      9  I   UNL d   1      -1.525  -3.589   1.009  0.00  0.00    -0.060 I 
ATOM     10  F2  UNL d   1      -2.947  -1.018  -0.262  0.00  0.00    -0.096 F 
ATOM     11  F3  UNL d   1      -2.461   1.631   0.022  0.00  0.00    -0.097 F 
ATOM     12  F4  UNL d   1      -0.441   2.498   1.636  0.00  0.00    -0.092 F 
ENDROOT
TORSDOF 0
ENDMDL
