MODEL 1
REMARK minimizedAffinity 10.0763912
REMARK minimizedRMSD -1
REMARK  0 active torsions:
REMARK  status: ('A' for Active; 'I' for Inactive)
ROOT
ATOM      1  C   UNL d   1      -1.431   2.297   2.841  0.00  0.00     0.124 A 
ATOM      2  C1  UNL d   1      -0.151   2.248   3.374  0.00  0.00     0.062 A 
ATOM      3  C2  UNL d   1       0.785   1.350   2.869  0.00  0.00     0.162 A 
ATOM      4  C3  UNL d   1       0.444   0.493   1.823  0.00  0.00    -0.034 A 
ATOM      5  C4  UNL d   1      -0.846   0.547   1.292  0.00  0.00     0.162 A 
ATOM      6  C5  UNL d   1      -1.777   1.446   1.800  0.00  0.00     0.062 A 
ATOM      7  F   UNL d   1      -3.014   1.492   1.283  0.00  0.00    -0.097 F 
ATOM      8  F1  UNL d   1      -1.207  -0.263   0.285  0.00  0.00    -0.096 F 
ATOM      9  I   UNL d   1       1.840  -0.851   1.064  0.00  0.00    -0.060 I 
ATOM     10  F2  UNL d   1       2.015   1.325   3.404  0.00  0.00    -0.096 F 
ATOM     11  F3  UNL d   1       0.186   3.068   4.380  0.00  0.00    -0.097 F 
ATOM     12  F4  UNL d   1      -2.330   3.161   3.329  0.00  0.00    -0.092 F 
ENDROOT
TORSDOF 0
ENDMDL
