MODEL 1
REMARK minimizedAffinity 13.3196735
REMARK minimizedRMSD -1
REMARK  0 active torsions:
REMARK  status: ('A' for Active; 'I' for Inactive)
ROOT
ATOM      1  C   UNL d   1       0.101   1.454   2.511  0.00  0.00     0.124 A 
ATOM      2  C1  UNL d   1      -0.712   2.335   3.210  0.00  0.00     0.062 A 
ATOM      3  C2  UNL d   1      -2.083   2.362   2.971  0.00  0.00     0.162 A 
ATOM      4  C3  UNL d   1      -2.650   1.505   2.028  0.00  0.00    -0.034 A 
ATOM      5  C4  UNL d   1      -1.825   0.623   1.328  0.00  0.00     0.162 A 
ATOM      6  C5  UNL d   1      -0.456   0.599   1.571  0.00  0.00     0.062 A 
ATOM      7  F   UNL d   1       0.328  -0.252   0.894  0.00  0.00    -0.097 F 
ATOM      8  F1  UNL d   1      -2.338  -0.215   0.414  0.00  0.00    -0.096 F 
ATOM      9  I   UNL d   1      -4.699   1.543   1.668  0.00  0.00    -0.060 I 
ATOM     10  F2  UNL d   1      -2.845   3.224   3.662  0.00  0.00    -0.096 F 
ATOM     11  F3  UNL d   1      -0.176   3.163   4.119  0.00  0.00    -0.097 F 
ATOM     12  F4  UNL d   1       1.420   1.431   2.742  0.00  0.00    -0.092 F 
ENDROOT
TORSDOF 0
ENDMDL
