MODEL 1
REMARK minimizedAffinity 5.37980127
REMARK minimizedRMSD -1
REMARK  0 active torsions:
REMARK  status: ('A' for Active; 'I' for Inactive)
ROOT
ATOM      1  C   UNL d   1      -1.660   1.095   4.137  0.00  0.00     0.124 A 
ATOM      2  C1  UNL d   1      -1.488   2.464   3.990  0.00  0.00     0.062 A 
ATOM      3  C2  UNL d   1      -2.422   3.348   4.521  0.00  0.00     0.162 A 
ATOM      4  C3  UNL d   1      -3.538   2.866   5.205  0.00  0.00    -0.034 A 
ATOM      5  C4  UNL d   1      -3.706   1.487   5.348  0.00  0.00     0.162 A 
ATOM      6  C5  UNL d   1      -2.768   0.608   4.816  0.00  0.00     0.062 A 
ATOM      7  F   UNL d   1      -2.937  -0.715   4.959  0.00  0.00    -0.097 F 
ATOM      8  F1  UNL d   1      -4.767   0.989   6.000  0.00  0.00    -0.096 F 
ATOM      9  I   UNL d   1      -4.938   4.185   6.000  0.00  0.00    -0.060 I 
ATOM     10  F2  UNL d   1      -2.230   4.666   4.364  0.00  0.00    -0.096 F 
ATOM     11  F3  UNL d   1      -0.418   2.937   3.335  0.00  0.00    -0.097 F 
ATOM     12  F4  UNL d   1      -0.760   0.246   3.625  0.00  0.00    -0.092 F 
ENDROOT
TORSDOF 0
ENDMDL
