MODEL 1
REMARK minimizedAffinity 12.1857681
REMARK minimizedRMSD -1
REMARK  0 active torsions:
REMARK  status: ('A' for Active; 'I' for Inactive)
ROOT
ATOM      1  C   UNL d   1      -2.738   1.741   2.119  0.00  0.00     0.124 A 
ATOM      2  C1  UNL d   1      -1.675   2.372   2.751  0.00  0.00     0.062 A 
ATOM      3  C2  UNL d   1      -0.368   1.977   2.484  0.00  0.00     0.162 A 
ATOM      4  C3  UNL d   1      -0.115   0.945   1.580  0.00  0.00    -0.034 A 
ATOM      5  C4  UNL d   1      -1.189   0.314   0.950  0.00  0.00     0.162 A 
ATOM      6  C5  UNL d   1      -2.494   0.713   1.220  0.00  0.00     0.062 A 
ATOM      7  F   UNL d   1      -3.520   0.102   0.609  0.00  0.00    -0.097 F 
ATOM      8  F1  UNL d   1      -0.982  -0.681   0.075  0.00  0.00    -0.096 F 
ATOM      9  I   UNL d   1       1.839   0.351   1.178  0.00  0.00    -0.060 I 
ATOM     10  F2  UNL d   1       0.640   2.605   3.108  0.00  0.00    -0.096 F 
ATOM     11  F3  UNL d   1      -1.908   3.365   3.621  0.00  0.00    -0.097 F 
ATOM     12  F4  UNL d   1      -3.995   2.123   2.379  0.00  0.00    -0.092 F 
ENDROOT
TORSDOF 0
ENDMDL
