MODEL 1
REMARK minimizedAffinity 22.9272766
REMARK minimizedRMSD -1
REMARK  0 active torsions:
REMARK  status: ('A' for Active; 'I' for Inactive)
ROOT
ATOM      1  C   UNL d   1       3.991  -1.847  -2.755  0.00  0.00     0.124 A 
ATOM      2  C1  UNL d   1       4.764  -0.708  -2.930  0.00  0.00     0.062 A 
ATOM      3  C2  UNL d   1       4.295   0.344  -3.710  0.00  0.00     0.162 A 
ATOM      4  C3  UNL d   1       3.043   0.263  -4.321  0.00  0.00    -0.034 A 
ATOM      5  C4  UNL d   1       2.271  -0.886  -4.141  0.00  0.00     0.162 A 
ATOM      6  C5  UNL d   1       2.745  -1.935  -3.360  0.00  0.00     0.062 A 
ATOM      7  F   UNL d   1       1.996  -3.034  -3.192  0.00  0.00    -0.097 F 
ATOM      8  F1  UNL d   1       1.063  -0.996  -4.714  0.00  0.00    -0.096 F 
ATOM      9  I   UNL d   1       2.337   1.835  -5.489  0.00  0.00    -0.060 I 
ATOM     10  F2  UNL d   1       5.064   1.432  -3.862  0.00  0.00    -0.096 F 
ATOM     11  F3  UNL d   1       5.969  -0.622  -2.347  0.00  0.00    -0.097 F 
ATOM     12  F4  UNL d   1       4.446  -2.859  -2.004  0.00  0.00    -0.092 F 
ENDROOT
TORSDOF 0
ENDMDL
