MODEL 1
REMARK minimizedAffinity 24.9925194
REMARK minimizedRMSD -1
REMARK  0 active torsions:
REMARK  status: ('A' for Active; 'I' for Inactive)
ROOT
ATOM      1  C   UNL d   1      -4.049  -3.569   1.592  0.00  0.00     0.124 A 
ATOM      2  C1  UNL d   1      -3.590  -2.264   1.708  0.00  0.00     0.062 A 
ATOM      3  C2  UNL d   1      -3.376  -1.707   2.966  0.00  0.00     0.162 A 
ATOM      4  C3  UNL d   1      -3.621  -2.455   4.117  0.00  0.00    -0.034 A 
ATOM      5  C4  UNL d   1      -4.084  -3.766   3.992  0.00  0.00     0.162 A 
ATOM      6  C5  UNL d   1      -4.296  -4.318   2.733  0.00  0.00     0.062 A 
ATOM      7  F   UNL d   1      -4.740  -5.579   2.623  0.00  0.00    -0.097 F 
ATOM      8  F1  UNL d   1      -4.329  -4.513   5.079  0.00  0.00    -0.096 F 
ATOM      9  I   UNL d   1      -3.302  -1.626   6.000  0.00  0.00    -0.060 I 
ATOM     10  F2  UNL d   1      -2.931  -0.444   3.048  0.00  0.00    -0.096 F 
ATOM     11  F3  UNL d   1      -3.351  -1.538   0.607  0.00  0.00    -0.097 F 
ATOM     12  F4  UNL d   1      -4.255  -4.102   0.380  0.00  0.00    -0.092 F 
ENDROOT
TORSDOF 0
ENDMDL
