MODEL 1
REMARK minimizedAffinity 18.0380783
REMARK minimizedRMSD -1
REMARK  0 active torsions:
REMARK  status: ('A' for Active; 'I' for Inactive)
ROOT
ATOM      1  C   UNL d   1       1.843   0.103   0.882  0.00  0.00     0.124 A 
ATOM      2  C1  UNL d   1       1.916  -0.878   1.861  0.00  0.00     0.062 A 
ATOM      3  C2  UNL d   1       3.098  -1.072   2.571  0.00  0.00     0.162 A 
ATOM      4  C3  UNL d   1       4.216  -0.282   2.304  0.00  0.00    -0.034 A 
ATOM      5  C4  UNL d   1       4.135   0.702   1.317  0.00  0.00     0.162 A 
ATOM      6  C5  UNL d   1       2.952   0.892   0.611  0.00  0.00     0.062 A 
ATOM      7  F   UNL d   1       2.883   1.840  -0.335  0.00  0.00    -0.097 F 
ATOM      8  F1  UNL d   1       5.192   1.479   1.035  0.00  0.00    -0.096 F 
ATOM      9  I   UNL d   1       5.985  -0.568   3.363  0.00  0.00    -0.060 I 
ATOM     10  F2  UNL d   1       3.140  -2.027   3.511  0.00  0.00    -0.096 F 
ATOM     11  F3  UNL d   1       0.846  -1.642   2.124  0.00  0.00    -0.097 F 
ATOM     12  F4  UNL d   1       0.705   0.287   0.200  0.00  0.00    -0.092 F 
ENDROOT
TORSDOF 0
ENDMDL
