MODEL 1
REMARK minimizedAffinity 23.4165878
REMARK minimizedRMSD -1
REMARK  0 active torsions:
REMARK  status: ('A' for Active; 'I' for Inactive)
ROOT
ATOM      1  C   UNL d   1       1.669  -0.062   1.031  0.00  0.00     0.124 A 
ATOM      2  C1  UNL d   1       2.625   0.848   0.600  0.00  0.00     0.062 A 
ATOM      3  C2  UNL d   1       3.862   0.916   1.235  0.00  0.00     0.162 A 
ATOM      4  C3  UNL d   1       4.151   0.072   2.306  0.00  0.00    -0.034 A 
ATOM      5  C4  UNL d   1       3.184  -0.840   2.734  0.00  0.00     0.162 A 
ATOM      6  C5  UNL d   1       1.949  -0.904   2.097  0.00  0.00     0.062 A 
ATOM      7  F   UNL d   1       1.027  -1.784   2.514  0.00  0.00    -0.097 F 
ATOM      8  F1  UNL d   1       3.428  -1.667   3.762  0.00  0.00    -0.096 F 
ATOM      9  I   UNL d   1       5.999   0.171   3.257  0.00  0.00    -0.060 I 
ATOM     10  F2  UNL d   1       4.766   1.805   0.797  0.00  0.00    -0.096 F 
ATOM     11  F3  UNL d   1       2.356   1.664  -0.429  0.00  0.00    -0.097 F 
ATOM     12  F4  UNL d   1       0.479  -0.125   0.419  0.00  0.00    -0.092 F 
ENDROOT
TORSDOF 0
ENDMDL
