MODEL 1
REMARK minimizedAffinity 8.28358841
REMARK minimizedRMSD -1
REMARK  0 active torsions:
REMARK  status: ('A' for Active; 'I' for Inactive)
ROOT
ATOM      1  C   UNL d   1       3.880   0.725   1.342  0.00  0.00     0.124 A 
ATOM      2  C1  UNL d   1       2.526   0.471   1.176  0.00  0.00     0.062 A 
ATOM      3  C2  UNL d   1       1.980  -0.730   1.621  0.00  0.00     0.162 A 
ATOM      4  C3  UNL d   1       2.788  -1.686   2.236  0.00  0.00    -0.034 A 
ATOM      5  C4  UNL d   1       4.150  -1.423   2.397  0.00  0.00     0.162 A 
ATOM      6  C5  UNL d   1       4.691  -0.222   1.952  0.00  0.00     0.062 A 
ATOM      7  F   UNL d   1       6.000   0.022   2.112  0.00  0.00    -0.097 F 
ATOM      8  F1  UNL d   1       4.956  -2.321   2.984  0.00  0.00    -0.096 F 
ATOM      9  I   UNL d   1       1.976  -3.483   2.902  0.00  0.00    -0.060 I 
ATOM     10  F2  UNL d   1       0.668  -0.949   1.448  0.00  0.00    -0.096 F 
ATOM     11  F3  UNL d   1       1.741   1.384   0.586  0.00  0.00    -0.097 F 
ATOM     12  F4  UNL d   1       4.403   1.881   0.912  0.00  0.00    -0.092 F 
ENDROOT
TORSDOF 0
ENDMDL
