MODEL 1
REMARK minimizedAffinity 26.9794521
REMARK minimizedRMSD -1
REMARK  0 active torsions:
REMARK  status: ('A' for Active; 'I' for Inactive)
ROOT
ATOM      1  C   UNL d   1       1.955   0.726   0.700  0.00  0.00     0.124 A 
ATOM      2  C1  UNL d   1       3.042   1.566   0.509  0.00  0.00     0.062 A 
ATOM      3  C2  UNL d   1       4.197   1.401   1.269  0.00  0.00     0.162 A 
ATOM      4  C3  UNL d   1       4.270   0.390   2.227  0.00  0.00    -0.034 A 
ATOM      5  C4  UNL d   1       3.172  -0.451   2.415  0.00  0.00     0.162 A 
ATOM      6  C5  UNL d   1       2.020  -0.282   1.652  0.00  0.00     0.062 A 
ATOM      7  F   UNL d   1       0.970  -1.095   1.838  0.00  0.00    -0.097 F 
ATOM      8  F1  UNL d   1       3.208  -1.433   3.327  0.00  0.00    -0.096 F 
ATOM      9  I   UNL d   1       5.994   0.140   3.366  0.00  0.00    -0.060 I 
ATOM     10  F2  UNL d   1       5.233   2.228   1.063  0.00  0.00    -0.096 F 
ATOM     11  F3  UNL d   1       2.981   2.541  -0.409  0.00  0.00    -0.097 F 
ATOM     12  F4  UNL d   1       0.845   0.887  -0.032  0.00  0.00    -0.092 F 
ENDROOT
TORSDOF 0
ENDMDL
