MODEL 1
REMARK minimizedAffinity 7.2233758
REMARK minimizedRMSD -1
REMARK  0 active torsions:
REMARK  status: ('A' for Active; 'I' for Inactive)
ROOT
ATOM      1  C   UNL d   1       1.708   0.187   0.754  0.00  0.00     0.124 A 
ATOM      2  C1  UNL d   1       2.786   0.972   0.368  0.00  0.00     0.062 A 
ATOM      3  C2  UNL d   1       4.012   0.844   1.014  0.00  0.00     0.162 A 
ATOM      4  C3  UNL d   1       4.168  -0.074   2.053  0.00  0.00    -0.034 A 
ATOM      5  C4  UNL d   1       3.079  -0.859   2.436  0.00  0.00     0.162 A 
ATOM      6  C5  UNL d   1       1.856  -0.728   1.787  0.00  0.00     0.062 A 
ATOM      7  F   UNL d   1       0.816  -1.487   2.161  0.00  0.00    -0.097 F 
ATOM      8  F1  UNL d   1       3.195  -1.751   3.431  0.00  0.00    -0.096 F 
ATOM      9  I   UNL d   1       6.000  -0.268   3.021  0.00  0.00    -0.060 I 
ATOM     10  F2  UNL d   1       5.036   1.616   0.620  0.00  0.00    -0.096 F 
ATOM     11  F3  UNL d   1       2.646   1.857  -0.630  0.00  0.00    -0.097 F 
ATOM     12  F4  UNL d   1       0.530   0.313   0.131  0.00  0.00    -0.092 F 
ENDROOT
TORSDOF 0
ENDMDL
