MODEL 1
REMARK minimizedAffinity 15.7593327
REMARK minimizedRMSD -1
REMARK  0 active torsions:
REMARK  status: ('A' for Active; 'I' for Inactive)
ROOT
ATOM      1  C   UNL d   1      -5.254   1.140   1.928  0.00  0.00     0.124 A 
ATOM      2  C1  UNL d   1      -4.870   2.473   1.878  0.00  0.00     0.062 A 
ATOM      3  C2  UNL d   1      -4.858   3.241   3.039  0.00  0.00     0.162 A 
ATOM      4  C3  UNL d   1      -5.230   2.679   4.260  0.00  0.00    -0.034 A 
ATOM      5  C4  UNL d   1      -5.616   1.338   4.302  0.00  0.00     0.162 A 
ATOM      6  C5  UNL d   1      -5.627   0.574   3.139  0.00  0.00     0.062 A 
ATOM      7  F   UNL d   1      -5.998  -0.714   3.189  0.00  0.00    -0.097 F 
ATOM      8  F1  UNL d   1      -5.980   0.765   5.459  0.00  0.00    -0.096 F 
ATOM      9  I   UNL d   1      -5.213   3.825   5.997  0.00  0.00    -0.060 I 
ATOM     10  F2  UNL d   1      -4.483   4.527   2.961  0.00  0.00    -0.096 F 
ATOM     11  F3  UNL d   1      -4.511   3.022   0.709  0.00  0.00    -0.097 F 
ATOM     12  F4  UNL d   1      -5.266   0.403   0.810  0.00  0.00    -0.092 F 
ENDROOT
TORSDOF 0
ENDMDL
