MODEL 1
REMARK minimizedAffinity 7.98272419
REMARK minimizedRMSD -1
REMARK  0 active torsions:
REMARK  status: ('A' for Active; 'I' for Inactive)
ROOT
ATOM      1  C   UNL d   1      -3.804  -4.150   2.060  0.00  0.00     0.124 A 
ATOM      2  C1  UNL d   1      -3.929  -4.696   3.329  0.00  0.00     0.062 A 
ATOM      3  C2  UNL d   1      -3.762  -3.896   4.456  0.00  0.00     0.162 A 
ATOM      4  C3  UNL d   1      -3.470  -2.539   4.318  0.00  0.00    -0.034 A 
ATOM      5  C4  UNL d   1      -3.345  -1.997   3.038  0.00  0.00     0.162 A 
ATOM      6  C5  UNL d   1      -3.512  -2.801   1.915  0.00  0.00     0.062 A 
ATOM      7  F   UNL d   1      -3.391  -2.271   0.689  0.00  0.00    -0.097 F 
ATOM      8  F1  UNL d   1      -3.064  -0.696   2.869  0.00  0.00    -0.096 F 
ATOM      9  I   UNL d   1      -3.219  -1.339   5.999  0.00  0.00    -0.060 I 
ATOM     10  F2  UNL d   1      -3.889  -4.451   5.670  0.00  0.00    -0.096 F 
ATOM     11  F3  UNL d   1      -4.210  -6.000   3.472  0.00  0.00    -0.097 F 
ATOM     12  F4  UNL d   1      -3.964  -4.922   0.978  0.00  0.00    -0.092 F 
ENDROOT
TORSDOF 0
ENDMDL
