MODEL 1
REMARK minimizedAffinity 26.9979858
REMARK minimizedRMSD -1
REMARK  0 active torsions:
REMARK  status: ('A' for Active; 'I' for Inactive)
ROOT
ATOM      1  C   UNL d   1       1.740   0.269   0.735  0.00  0.00     0.124 A 
ATOM      2  C1  UNL d   1       2.783   1.125   0.408  0.00  0.00     0.062 A 
ATOM      3  C2  UNL d   1       3.999   1.033   1.078  0.00  0.00     0.162 A 
ATOM      4  C3  UNL d   1       4.180   0.081   2.082  0.00  0.00    -0.034 A 
ATOM      5  C4  UNL d   1       3.126  -0.775   2.405  0.00  0.00     0.162 A 
ATOM      6  C5  UNL d   1       1.912  -0.679   1.733  0.00  0.00     0.062 A 
ATOM      7  F   UNL d   1       0.906  -1.507   2.050  0.00  0.00    -0.097 F 
ATOM      8  F1  UNL d   1       3.266  -1.702   3.365  0.00  0.00    -0.096 F 
ATOM      9  I   UNL d   1       5.998  -0.060   3.086  0.00  0.00    -0.060 I 
ATOM     10  F2  UNL d   1       4.990   1.872   0.742  0.00  0.00    -0.096 F 
ATOM     11  F3  UNL d   1       2.618   2.043  -0.555  0.00  0.00    -0.097 F 
ATOM     12  F4  UNL d   1       0.570   0.361   0.090  0.00  0.00    -0.092 F 
ENDROOT
TORSDOF 0
ENDMDL
