MODEL 1
REMARK minimizedAffinity 10.4673052
REMARK minimizedRMSD -1
REMARK  0 active torsions:
REMARK  status: ('A' for Active; 'I' for Inactive)
ROOT
ATOM      1  C   UNL d   1       1.736   0.191   0.667  0.00  0.00     0.124 A 
ATOM      2  C1  UNL d   1       1.975  -0.760   1.649  0.00  0.00     0.062 A 
ATOM      3  C2  UNL d   1       3.192  -0.778   2.324  0.00  0.00     0.162 A 
ATOM      4  C3  UNL d   1       4.179   0.160   2.021  0.00  0.00    -0.034 A 
ATOM      5  C4  UNL d   1       3.931   1.113   1.032  0.00  0.00     0.162 A 
ATOM      6  C5  UNL d   1       2.713   1.126   0.359  0.00  0.00     0.062 A 
ATOM      7  F   UNL d   1       2.484   2.046  -0.589  0.00  0.00    -0.097 F 
ATOM      8  F1  UNL d   1       4.858   2.029   0.715  0.00  0.00    -0.096 F 
ATOM      9  I   UNL d   1       5.999   0.137   3.029  0.00  0.00    -0.060 I 
ATOM     10  F2  UNL d   1       3.396  -1.709   3.269  0.00  0.00    -0.096 F 
ATOM     11  F3  UNL d   1       1.032  -1.666   1.947  0.00  0.00    -0.097 F 
ATOM     12  F4  UNL d   1       0.564   0.205   0.018  0.00  0.00    -0.092 F 
ENDROOT
TORSDOF 0
ENDMDL
