MODEL 1
REMARK minimizedAffinity 17.3034019
REMARK minimizedRMSD -1
REMARK  0 active torsions:
REMARK  status: ('A' for Active; 'I' for Inactive)
ROOT
ATOM      1  C   UNL d   1       3.140  -0.108   1.495  0.00  0.00     0.124 A 
ATOM      2  C1  UNL d   1       2.519   0.663   0.522  0.00  0.00     0.062 A 
ATOM      3  C2  UNL d   1       3.069   1.884   0.140  0.00  0.00     0.162 A 
ATOM      4  C3  UNL d   1       4.247   2.340   0.730  0.00  0.00    -0.034 A 
ATOM      5  C4  UNL d   1       4.866   1.559   1.708  0.00  0.00     0.162 A 
ATOM      6  C5  UNL d   1       4.312   0.340   2.087  0.00  0.00     0.062 A 
ATOM      7  F   UNL d   1       4.913  -0.403   3.027  0.00  0.00    -0.097 F 
ATOM      8  F1  UNL d   1       6.000   1.968   2.296  0.00  0.00    -0.096 F 
ATOM      9  I   UNL d   1       5.073   4.164   0.161  0.00  0.00    -0.060 I 
ATOM     10  F2  UNL d   1       2.447   2.608  -0.803  0.00  0.00    -0.096 F 
ATOM     11  F3  UNL d   1       1.386   0.233  -0.051  0.00  0.00    -0.097 F 
ATOM     12  F4  UNL d   1       2.608  -1.281   1.861  0.00  0.00    -0.092 F 
ENDROOT
TORSDOF 0
ENDMDL
