MODEL 1
REMARK minimizedAffinity 18.5009995
REMARK minimizedRMSD -1
REMARK  0 active torsions:
REMARK  status: ('A' for Active; 'I' for Inactive)
ROOT
ATOM      1  C   UNL d   1       2.973  -1.491  -3.369  0.00  0.00     0.124 A 
ATOM      2  C1  UNL d   1       4.161  -0.775  -3.316  0.00  0.00     0.062 A 
ATOM      3  C2  UNL d   1       4.312   0.387  -4.066  0.00  0.00     0.162 A 
ATOM      4  C3  UNL d   1       3.272   0.843  -4.876  0.00  0.00    -0.034 A 
ATOM      5  C4  UNL d   1       2.080   0.117  -4.925  0.00  0.00     0.162 A 
ATOM      6  C5  UNL d   1       1.934  -1.044  -4.173  0.00  0.00     0.062 A 
ATOM      7  F   UNL d   1       0.785  -1.734  -4.225  0.00  0.00    -0.097 F 
ATOM      8  F1  UNL d   1       1.059   0.527  -5.692  0.00  0.00    -0.096 F 
ATOM      9  I   UNL d   1       3.494   2.580  -5.999  0.00  0.00    -0.060 I 
ATOM     10  F2  UNL d   1       5.472   1.058  -3.996  0.00  0.00    -0.096 F 
ATOM     11  F3  UNL d   1       5.167  -1.205  -2.541  0.00  0.00    -0.097 F 
ATOM     12  F4  UNL d   1       2.831  -2.610  -2.647  0.00  0.00    -0.092 F 
ENDROOT
TORSDOF 0
ENDMDL
