MODEL 1
REMARK minimizedAffinity 1.67219412
REMARK minimizedRMSD -1
REMARK  0 active torsions:
REMARK  status: ('A' for Active; 'I' for Inactive)
ROOT
ATOM      1  C   UNL d   1       3.147   2.634   0.503  0.00  0.00     0.020 A 
ATOM      2  C1  UNL d   1       3.090   3.666   1.440  0.00  0.00     0.020 A 
ATOM      3  C2  UNL d   1       1.862   4.246   1.764  0.00  0.00     0.034 A 
ATOM      4  C3  UNL d   1       0.687   3.796   1.152  0.00  0.00     0.017 A 
ATOM      5  C4  UNL d   1       0.745   2.761   0.213  0.00  0.00     0.017 A 
ATOM      6  C5  UNL d   1       1.977   2.183  -0.109  0.00  0.00     0.034 A 
ATOM      7 Cl   UNL d   1      -0.662   2.151  -0.585  0.00  0.00    -0.070 Cl
ATOM      8 Cl1  UNL d   1      -0.797   4.560   1.602  0.00  0.00    -0.070 Cl
ENDROOT
TORSDOF 0
ENDMDL
