MODEL 1
REMARK minimizedAffinity -0.242729485
REMARK minimizedRMSD -1
REMARK  0 active torsions:
REMARK  status: ('A' for Active; 'I' for Inactive)
ROOT
ATOM      1  C   UNL d   1       0.162  -1.991   0.517  0.00  0.00     0.020 A 
ATOM      2  C1  UNL d   1       0.880  -2.345  -0.624  0.00  0.00     0.020 A 
ATOM      3  C2  UNL d   1       0.909  -1.486  -1.725  0.00  0.00     0.034 A 
ATOM      4  C3  UNL d   1       0.218  -0.270  -1.687  0.00  0.00     0.017 A 
ATOM      5  C4  UNL d   1      -0.502   0.085  -0.541  0.00  0.00     0.017 A 
ATOM      6  C5  UNL d   1      -0.528  -0.779   0.559  0.00  0.00     0.034 A 
ATOM      7 Cl   UNL d   1      -1.379   1.569  -0.420  0.00  0.00    -0.070 Cl
ATOM      8 Cl1  UNL d   1       0.297   0.743  -3.085  0.00  0.00    -0.070 Cl
ENDROOT
TORSDOF 0
ENDMDL
