MODEL 1
REMARK minimizedAffinity -2.34924006
REMARK minimizedRMSD -1
REMARK  0 active torsions:
REMARK  status: ('A' for Active; 'I' for Inactive)
ROOT
ATOM      1  C   UNL d   1       1.670   2.817   0.846  0.00  0.00     0.020 A 
ATOM      2  C1  UNL d   1       0.816   2.646  -0.243  0.00  0.00     0.020 A 
ATOM      3  C2  UNL d   1       0.172   1.423  -0.440  0.00  0.00     0.034 A 
ATOM      4  C3  UNL d   1       0.380   0.366   0.454  0.00  0.00     0.017 A 
ATOM      5  C4  UNL d   1       1.238   0.539   1.546  0.00  0.00     0.017 A 
ATOM      6  C5  UNL d   1       1.880   1.766   1.738  0.00  0.00     0.034 A 
ATOM      7 Cl   UNL d   1       1.545  -0.719   2.692  0.00  0.00    -0.070 Cl
ATOM      8 Cl1  UNL d   1      -0.449  -1.119   0.149  0.00  0.00    -0.070 Cl
ENDROOT
TORSDOF 0
ENDMDL
