MODEL 1
REMARK minimizedAffinity -3.04828691
REMARK minimizedRMSD -1
REMARK  0 active torsions:
REMARK  status: ('A' for Active; 'I' for Inactive)
ROOT
ATOM      1  C   UNL d   1      -0.910   0.043   1.414  0.00  0.00     0.020 A 
ATOM      2  C1  UNL d   1      -0.461   0.890   0.402  0.00  0.00     0.020 A 
ATOM      3  C2  UNL d   1      -0.003   0.356  -0.804  0.00  0.00     0.034 A 
ATOM      4  C3  UNL d   1       0.008  -1.030  -1.001  0.00  0.00     0.017 A 
ATOM      5  C4  UNL d   1      -0.442  -1.880   0.016  0.00  0.00     0.017 A 
ATOM      6  C5  UNL d   1      -0.900  -1.339   1.221  0.00  0.00     0.034 A 
ATOM      7 Cl   UNL d   1      -0.459  -3.600  -0.154  0.00  0.00    -0.070 Cl
ATOM      8 Cl1  UNL d   1       0.588  -1.621  -2.518  0.00  0.00    -0.070 Cl
ENDROOT
TORSDOF 0
ENDMDL
