MODEL 1
REMARK minimizedAffinity -1.23795819
REMARK minimizedRMSD -1
REMARK  0 active torsions:
REMARK  status: ('A' for Active; 'I' for Inactive)
ROOT
ATOM      1  C   UNL d   1      -0.219  -1.382   0.232  0.00  0.00     0.020 A 
ATOM      2  C1  UNL d   1       0.078  -0.690   1.406  0.00  0.00     0.020 A 
ATOM      3  C2  UNL d   1       0.421   0.663   1.351  0.00  0.00     0.034 A 
ATOM      4  C3  UNL d   1       0.469   1.327   0.120  0.00  0.00     0.017 A 
ATOM      5  C4  UNL d   1       0.172   0.632  -1.057  0.00  0.00     0.017 A 
ATOM      6  C5  UNL d   1      -0.172  -0.722  -0.997  0.00  0.00     0.034 A 
ATOM      7 Cl   UNL d   1       0.210   1.384  -2.613  0.00  0.00    -0.070 Cl
ATOM      8 Cl1  UNL d   1       0.901   3.000   0.127  0.00  0.00    -0.070 Cl
ENDROOT
TORSDOF 0
ENDMDL
