MODEL 1
REMARK minimizedAffinity -5.53430939
REMARK minimizedRMSD -1
REMARK  0 active torsions:
REMARK  status: ('A' for Active; 'I' for Inactive)
ROOT
ATOM      1  C   UNL d   1       0.526  -3.038  -1.114  0.00  0.00     0.020 A 
ATOM      2  C1  UNL d   1      -0.319  -3.434  -0.078  0.00  0.00     0.020 A 
ATOM      3  C2  UNL d   1      -0.979  -2.473   0.690  0.00  0.00     0.034 A 
ATOM      4  C3  UNL d   1      -0.795  -1.111   0.424  0.00  0.00     0.017 A 
ATOM      5  C4  UNL d   1       0.054  -0.715  -0.616  0.00  0.00     0.017 A 
ATOM      6  C5  UNL d   1       0.712  -1.681  -1.382  0.00  0.00     0.034 A 
ATOM      7 Cl   UNL d   1       0.331   0.947  -1.004  0.00  0.00    -0.070 Cl
ATOM      8 Cl1  UNL d   1      -1.644   0.023   1.414  0.00  0.00    -0.070 Cl
ENDROOT
TORSDOF 0
ENDMDL
