MODEL 1
REMARK minimizedAffinity -2.83519006
REMARK minimizedRMSD -1
REMARK  0 active torsions:
REMARK  status: ('A' for Active; 'I' for Inactive)
ROOT
ATOM      1  C   UNL d   1      -0.395  -1.744  -2.710  0.00  0.00     0.020 A 
ATOM      2  C1  UNL d   1      -0.966  -2.668  -1.837  0.00  0.00     0.020 A 
ATOM      3  C2  UNL d   1      -1.256  -2.300  -0.521  0.00  0.00     0.034 A 
ATOM      4  C3  UNL d   1      -0.974  -1.003  -0.075  0.00  0.00     0.017 A 
ATOM      5  C4  UNL d   1      -0.400  -0.076  -0.953  0.00  0.00     0.017 A 
ATOM      6  C5  UNL d   1      -0.113  -0.451  -2.269  0.00  0.00     0.034 A 
ATOM      7 Cl   UNL d   1      -0.024   1.542  -0.476  0.00  0.00    -0.070 Cl
ATOM      8 Cl1  UNL d   1      -1.359  -0.616   1.564  0.00  0.00    -0.070 Cl
ENDROOT
TORSDOF 0
ENDMDL
