MODEL 1
REMARK minimizedAffinity -3.27730584
REMARK minimizedRMSD -1
REMARK  0 active torsions:
REMARK  status: ('A' for Active; 'I' for Inactive)
ROOT
ATOM      1  C   UNL d   1      -0.310  -3.824  -0.216  0.00  0.00     0.020 A 
ATOM      2  C1  UNL d   1       0.295  -3.437  -1.411  0.00  0.00     0.020 A 
ATOM      3  C2  UNL d   1       0.325  -2.088  -1.774  0.00  0.00     0.034 A 
ATOM      4  C3  UNL d   1      -0.251  -1.123  -0.941  0.00  0.00     0.017 A 
ATOM      5  C4  UNL d   1      -0.859  -1.513   0.259  0.00  0.00     0.017 A 
ATOM      6  C5  UNL d   1      -0.886  -2.864   0.617  0.00  0.00     0.034 A 
ATOM      7 Cl   UNL d   1      -1.591  -0.379   1.338  0.00  0.00    -0.070 Cl
ATOM      8 Cl1  UNL d   1      -0.177   0.526  -1.451  0.00  0.00    -0.070 Cl
ENDROOT
TORSDOF 0
ENDMDL
