MODEL 1
REMARK minimizedAffinity -2.79823518
REMARK minimizedRMSD -1
REMARK  0 active torsions:
REMARK  status: ('A' for Active; 'I' for Inactive)
ROOT
ATOM      1  C   UNL d   1      -0.675  -0.580   1.223  0.00  0.00     0.020 A 
ATOM      2  C1  UNL d   1      -1.008  -1.934   1.215  0.00  0.00     0.020 A 
ATOM      3  C2  UNL d   1      -1.053  -2.635   0.008  0.00  0.00     0.034 A 
ATOM      4  C3  UNL d   1      -0.766  -1.982  -1.196  0.00  0.00     0.017 A 
ATOM      5  C4  UNL d   1      -0.432  -0.623  -1.187  0.00  0.00     0.017 A 
ATOM      6  C5  UNL d   1      -0.388   0.074   0.024  0.00  0.00     0.034 A 
ATOM      7 Cl   UNL d   1      -0.065   0.251  -2.633  0.00  0.00    -0.070 Cl
ATOM      8 Cl1  UNL d   1      -0.841  -2.911  -2.651  0.00  0.00    -0.070 Cl
ENDROOT
TORSDOF 0
ENDMDL
