MODEL 1
REMARK minimizedAffinity -4.99355125
REMARK minimizedRMSD -1
REMARK  0 active torsions:
REMARK  status: ('A' for Active; 'I' for Inactive)
ROOT
ATOM      1  C   UNL d   1      -0.114  -1.904  -3.374  0.00  0.00     0.020 A 
ATOM      2  C1  UNL d   1      -0.065  -3.180  -2.814  0.00  0.00     0.020 A 
ATOM      3  C2  UNL d   1      -0.279  -3.350  -1.444  0.00  0.00     0.034 A 
ATOM      4  C3  UNL d   1      -0.544  -2.242  -0.630  0.00  0.00     0.017 A 
ATOM      5  C4  UNL d   1      -0.592  -0.962  -1.194  0.00  0.00     0.017 A 
ATOM      6  C5  UNL d   1      -0.377  -0.798  -2.565  0.00  0.00     0.034 A 
ATOM      7 Cl   UNL d   1      -0.913   0.452  -0.254  0.00  0.00    -0.070 Cl
ATOM      8 Cl1  UNL d   1      -0.799  -2.526   1.055  0.00  0.00    -0.070 Cl
ENDROOT
TORSDOF 0
ENDMDL
