MODEL 1
REMARK minimizedAffinity -1.05619514
REMARK minimizedRMSD -1
REMARK  0 active torsions:
REMARK  status: ('A' for Active; 'I' for Inactive)
ROOT
ATOM      1  C   UNL d   1      -1.024  -1.164   1.327  0.00  0.00     0.020 A 
ATOM      2  C1  UNL d   1      -0.386   0.023   0.968  0.00  0.00     0.020 A 
ATOM      3  C2  UNL d   1       0.064   0.206  -0.341  0.00  0.00     0.034 A 
ATOM      4  C3  UNL d   1      -0.123  -0.800  -1.296  0.00  0.00     0.017 A 
ATOM      5  C4  UNL d   1      -0.763  -1.991  -0.936  0.00  0.00     0.017 A 
ATOM      6  C5  UNL d   1      -1.212  -2.169   0.377  0.00  0.00     0.034 A 
ATOM      7 Cl   UNL d   1      -1.030  -3.277  -2.059  0.00  0.00    -0.070 Cl
ATOM      8 Cl1  UNL d   1       0.459  -0.506  -2.897  0.00  0.00    -0.070 Cl
ENDROOT
TORSDOF 0
ENDMDL
