MODEL 1
REMARK minimizedAffinity -3.87807178
REMARK minimizedRMSD -1
REMARK  0 active torsions:
REMARK  status: ('A' for Active; 'I' for Inactive)
ROOT
ATOM      1  C   UNL d   1      -0.541   0.899   0.774  0.00  0.00     0.020 A 
ATOM      2  C1  UNL d   1       0.782   0.526   1.010  0.00  0.00     0.020 A 
ATOM      3  C2  UNL d   1       1.124  -0.826   1.078  0.00  0.00     0.034 A 
ATOM      4  C3  UNL d   1       0.143  -1.810   0.909  0.00  0.00     0.017 A 
ATOM      5  C4  UNL d   1      -1.184  -1.434   0.672  0.00  0.00     0.017 A 
ATOM      6  C5  UNL d   1      -1.522  -0.079   0.605  0.00  0.00     0.034 A 
ATOM      7 Cl   UNL d   1      -2.450  -2.591   0.453  0.00  0.00    -0.070 Cl
ATOM      8 Cl1  UNL d   1       0.637  -3.463   1.004  0.00  0.00    -0.070 Cl
ENDROOT
TORSDOF 0
ENDMDL
