MODEL 1
REMARK minimizedAffinity -3.39276457
REMARK minimizedRMSD -1
REMARK  0 active torsions:
REMARK  status: ('A' for Active; 'I' for Inactive)
ROOT
ATOM      1  C   UNL d   1      -0.690  -1.573   1.607  0.00  0.00     0.020 A 
ATOM      2  C1  UNL d   1      -0.412  -0.214   1.460  0.00  0.00     0.020 A 
ATOM      3  C2  UNL d   1      -0.221   0.325   0.186  0.00  0.00     0.034 A 
ATOM      4  C3  UNL d   1      -0.307  -0.493  -0.945  0.00  0.00     0.017 A 
ATOM      5  C4  UNL d   1      -0.587  -1.857  -0.797  0.00  0.00     0.017 A 
ATOM      6  C5  UNL d   1      -0.777  -2.392   0.481  0.00  0.00     0.034 A 
ATOM      7 Cl   UNL d   1      -0.709  -2.930  -2.146  0.00  0.00    -0.070 Cl
ATOM      8 Cl1  UNL d   1      -0.060   0.241  -2.490  0.00  0.00    -0.070 Cl
ENDROOT
TORSDOF 0
ENDMDL
