MODEL 1
REMARK minimizedAffinity -2.65366483
REMARK minimizedRMSD -1
REMARK  0 active torsions:
REMARK  status: ('A' for Active; 'I' for Inactive)
ROOT
ATOM      1  C   UNL d   1      -0.438  -3.311   0.435  0.00  0.00     0.020 A 
ATOM      2  C1  UNL d   1      -0.446  -2.259   1.350  0.00  0.00     0.020 A 
ATOM      3  C2  UNL d   1      -0.129  -0.966   0.930  0.00  0.00     0.034 A 
ATOM      4  C3  UNL d   1       0.197  -0.720  -0.409  0.00  0.00     0.017 A 
ATOM      5  C4  UNL d   1       0.205  -1.777  -1.327  0.00  0.00     0.017 A 
ATOM      6  C5  UNL d   1      -0.113  -3.070  -0.901  0.00  0.00     0.034 A 
ATOM      7 Cl   UNL d   1       0.597  -1.552  -2.995  0.00  0.00    -0.070 Cl
ATOM      8 Cl1  UNL d   1       0.577   0.904  -0.858  0.00  0.00    -0.070 Cl
ENDROOT
TORSDOF 0
ENDMDL
