MODEL 1
REMARK minimizedAffinity -1.84642267
REMARK minimizedRMSD -1
REMARK  0 active torsions:
REMARK  status: ('A' for Active; 'I' for Inactive)
ROOT
ATOM      1  C   UNL d   1       0.566  -0.497   0.780  0.00  0.00     0.020 A 
ATOM      2  C1  UNL d   1      -0.122  -1.050  -0.300  0.00  0.00     0.020 A 
ATOM      3  C2  UNL d   1      -0.609  -0.223  -1.314  0.00  0.00     0.034 A 
ATOM      4  C3  UNL d   1      -0.411   1.161  -1.251  0.00  0.00     0.017 A 
ATOM      5  C4  UNL d   1       0.280   1.715  -0.167  0.00  0.00     0.017 A 
ATOM      6  C5  UNL d   1       0.766   0.883   0.846  0.00  0.00     0.034 A 
ATOM      7 Cl   UNL d   1       0.564   3.413  -0.019  0.00  0.00    -0.070 Cl
ATOM      8 Cl1  UNL d   1      -1.041   2.123  -2.541  0.00  0.00    -0.070 Cl
ENDROOT
TORSDOF 0
ENDMDL
