MODEL 1
REMARK minimizedAffinity -5.02229309
REMARK minimizedRMSD -1
REMARK  0 active torsions:
REMARK  status: ('A' for Active; 'I' for Inactive)
ROOT
ATOM      1  C   UNL d   1      -0.477   0.718   0.473  0.00  0.00     0.020 A 
ATOM      2  C1  UNL d   1      -0.815  -0.189   1.477  0.00  0.00     0.020 A 
ATOM      3  C2  UNL d   1      -0.624  -1.558   1.275  0.00  0.00     0.034 A 
ATOM      4  C3  UNL d   1      -0.095  -2.024   0.066  0.00  0.00     0.017 A 
ATOM      5  C4  UNL d   1       0.243  -1.113  -0.941  0.00  0.00     0.017 A 
ATOM      6  C5  UNL d   1       0.051   0.256  -0.734  0.00  0.00     0.034 A 
ATOM      7 Cl   UNL d   1       0.900  -1.613  -2.460  0.00  0.00    -0.070 Cl
ATOM      8 Cl1  UNL d   1       0.113  -3.729  -0.115  0.00  0.00    -0.070 Cl
ENDROOT
TORSDOF 0
ENDMDL
