MODEL 1
REMARK minimizedAffinity -5.60448647
REMARK minimizedRMSD -1
REMARK  0 active torsions:
REMARK  status: ('A' for Active; 'I' for Inactive)
ROOT
ATOM      1  C   UNL d   1      -0.793   0.716   0.482  0.00  0.00     0.020 A 
ATOM      2  C1  UNL d   1      -1.049  -0.279   1.424  0.00  0.00     0.020 A 
ATOM      3  C2  UNL d   1      -0.872  -1.623   1.085  0.00  0.00     0.034 A 
ATOM      4  C3  UNL d   1      -0.437  -1.974  -0.198  0.00  0.00     0.017 A 
ATOM      5  C4  UNL d   1      -0.180  -0.973  -1.142  0.00  0.00     0.017 A 
ATOM      6  C5  UNL d   1      -0.359   0.370  -0.798  0.00  0.00     0.034 A 
ATOM      7 Cl   UNL d   1       0.359  -1.329  -2.746  0.00  0.00    -0.070 Cl
ATOM      8 Cl1  UNL d   1      -0.239  -3.654  -0.547  0.00  0.00    -0.070 Cl
ENDROOT
TORSDOF 0
ENDMDL
