MODEL 1
REMARK minimizedAffinity -5.11483955
REMARK minimizedRMSD -1
REMARK  0 active torsions:
REMARK  status: ('A' for Active; 'I' for Inactive)
ROOT
ATOM      1  C   UNL d   1      -0.025  -0.956  -2.447  0.00  0.00     0.020 A 
ATOM      2  C1  UNL d   1      -0.297  -2.293  -2.732  0.00  0.00     0.020 A 
ATOM      3  C2  UNL d   1      -0.787  -3.135  -1.731  0.00  0.00     0.034 A 
ATOM      4  C3  UNL d   1      -1.008  -2.640  -0.441  0.00  0.00     0.017 A 
ATOM      5  C4  UNL d   1      -0.736  -1.297  -0.156  0.00  0.00     0.017 A 
ATOM      6  C5  UNL d   1      -0.244  -0.459  -1.161  0.00  0.00     0.034 A 
ATOM      7 Cl   UNL d   1      -0.983  -0.614   1.413  0.00  0.00    -0.070 Cl
ATOM      8 Cl1  UNL d   1      -1.617  -3.737   0.748  0.00  0.00    -0.070 Cl
ENDROOT
TORSDOF 0
ENDMDL
