MODEL 1
REMARK minimizedAffinity -3.86312389
REMARK minimizedRMSD -1
REMARK  0 active torsions:
REMARK  status: ('A' for Active; 'I' for Inactive)
ROOT
ATOM      1  C   UNL d   1      -0.034  -0.281   2.433  0.00  0.00     0.020 A 
ATOM      2  C1  UNL d   1      -0.957  -0.906   1.597  0.00  0.00     0.020 A 
ATOM      3  C2  UNL d   1      -1.105  -0.478   0.276  0.00  0.00     0.034 A 
ATOM      4  C3  UNL d   1      -0.328   0.579  -0.213  0.00  0.00     0.017 A 
ATOM      5  C4  UNL d   1       0.598   1.207   0.628  0.00  0.00     0.017 A 
ATOM      6  C5  UNL d   1       0.742   0.774   1.950  0.00  0.00     0.034 A 
ATOM      7 Cl   UNL d   1       1.592   2.517   0.097  0.00  0.00    -0.070 Cl
ATOM      8 Cl1  UNL d   1      -0.564   1.057  -1.856  0.00  0.00    -0.070 Cl
ENDROOT
TORSDOF 0
ENDMDL
