MODEL 1
REMARK minimizedAffinity -0.263872921
REMARK minimizedRMSD -1
REMARK  0 active torsions:
REMARK  status: ('A' for Active; 'I' for Inactive)
ROOT
ATOM      1  C   UNL d   1      -0.486  -0.097   1.164  0.00  0.00     0.023 A 
ATOM      2  C1  UNL d   1       0.770  -0.483   0.697  0.00  0.00     0.003 A 
ATOM      3  C2  UNL d   1       0.985  -0.657  -0.672  0.00  0.00     0.048 A 
ATOM      4  C3  UNL d   1      -0.061  -0.442  -1.568  0.00  0.00     0.023 A 
ATOM      5  C4  UNL d   1      -1.320  -0.055  -1.106  0.00  0.00     0.048 A 
ATOM      6  C5  UNL d   1      -1.530   0.117   0.263  0.00  0.00     0.003 A 
ATOM      7  I   UNL d   1       0.256  -0.701  -3.606  0.00  0.00    -0.146 I 
ENDROOT
TORSDOF 0
ENDMDL
