MODEL 1
REMARK minimizedAffinity -2.06138134
REMARK minimizedRMSD -1
REMARK  0 active torsions:
REMARK  status: ('A' for Active; 'I' for Inactive)
ROOT
ATOM      1  C   UNL d   1      -0.691   1.023   1.811  0.00  0.00     0.023 A 
ATOM      2  C1  UNL d   1      -1.568   0.420   0.909  0.00  0.00     0.003 A 
ATOM      3  C2  UNL d   1      -1.086  -0.105  -0.292  0.00  0.00     0.048 A 
ATOM      4  C3  UNL d   1       0.275  -0.023  -0.584  0.00  0.00     0.023 A 
ATOM      5  C4  UNL d   1       1.157   0.578   0.315  0.00  0.00     0.048 A 
ATOM      6  C5  UNL d   1       0.670   1.102   1.514  0.00  0.00     0.003 A 
ATOM      7  I   UNL d   1       0.995  -0.803  -2.371  0.00  0.00    -0.146 I 
ENDROOT
TORSDOF 0
ENDMDL
