MODEL 1
REMARK minimizedAffinity -3.84674621
REMARK minimizedRMSD -1
REMARK  0 active torsions:
REMARK  status: ('A' for Active; 'I' for Inactive)
ROOT
ATOM      1  C   UNL d   1       1.440   0.613  -4.590  0.00  0.00     0.023 A 
ATOM      2  C1  UNL d   1       0.244   1.188  -4.161  0.00  0.00     0.003 A 
ATOM      3  C2  UNL d   1      -0.251   0.905  -2.886  0.00  0.00     0.048 A 
ATOM      4  C3  UNL d   1       0.457   0.047  -2.045  0.00  0.00     0.023 A 
ATOM      5  C4  UNL d   1       1.654  -0.530  -2.470  0.00  0.00     0.048 A 
ATOM      6  C5  UNL d   1       2.144  -0.245  -3.746  0.00  0.00     0.003 A 
ATOM      7  I   UNL d   1      -0.277  -0.376  -0.147  0.00  0.00    -0.146 I 
ENDROOT
TORSDOF 0
ENDMDL
