MODEL 1
REMARK minimizedAffinity -1.41625834
REMARK minimizedRMSD -1
REMARK  0 active torsions:
REMARK  status: ('A' for Active; 'I' for Inactive)
ROOT
ATOM      1  C   UNL d   1       1.753   0.365  -4.159  0.00  0.00     0.023 A 
ATOM      2  C1  UNL d   1       0.768   1.294  -3.821  0.00  0.00     0.003 A 
ATOM      3  C2  UNL d   1       0.074   1.169  -2.616  0.00  0.00     0.048 A 
ATOM      4  C3  UNL d   1       0.370   0.114  -1.753  0.00  0.00     0.023 A 
ATOM      5  C4  UNL d   1       1.355  -0.816  -2.087  0.00  0.00     0.048 A 
ATOM      6  C5  UNL d   1       2.046  -0.688  -3.293  0.00  0.00     0.003 A 
ATOM      7  I   UNL d   1      -0.662  -0.073   0.041  0.00  0.00    -0.146 I 
ENDROOT
TORSDOF 0
ENDMDL
