MODEL 1
REMARK minimizedAffinity -3.09474087
REMARK minimizedRMSD -1
REMARK  0 active torsions:
REMARK  status: ('A' for Active; 'I' for Inactive)
ROOT
ATOM      1  C   UNL d   1       0.564  -1.391  -0.994  0.00  0.00     0.023 A 
ATOM      2  C1  UNL d   1      -0.777  -1.028  -0.874  0.00  0.00     0.003 A 
ATOM      3  C2  UNL d   1      -1.200  -0.262   0.215  0.00  0.00     0.048 A 
ATOM      4  C3  UNL d   1      -0.276   0.137   1.180  0.00  0.00     0.023 A 
ATOM      5  C4  UNL d   1       1.068  -0.224   1.063  0.00  0.00     0.048 A 
ATOM      6  C5  UNL d   1       1.486  -0.990  -0.026  0.00  0.00     0.003 A 
ATOM      7  I   UNL d   1      -0.903   1.276   2.801  0.00  0.00    -0.146 I 
ENDROOT
TORSDOF 0
ENDMDL
