MODEL 1
REMARK minimizedAffinity -2.00082207
REMARK minimizedRMSD -1
REMARK  0 active torsions:
REMARK  status: ('A' for Active; 'I' for Inactive)
ROOT
ATOM      1  C   UNL d   1      -1.659   0.927   2.140  0.00  0.00     0.023 A 
ATOM      2  C1  UNL d   1      -2.402   0.535   1.025  0.00  0.00     0.003 A 
ATOM      3  C2  UNL d   1      -1.751   0.154  -0.150  0.00  0.00     0.048 A 
ATOM      4  C3  UNL d   1      -0.358   0.165  -0.204  0.00  0.00     0.023 A 
ATOM      5  C4  UNL d   1       0.389   0.555   0.909  0.00  0.00     0.048 A 
ATOM      6  C5  UNL d   1      -0.266   0.937   2.081  0.00  0.00     0.003 A 
ATOM      7  I   UNL d   1       0.612  -0.402  -1.952  0.00  0.00    -0.146 I 
ENDROOT
TORSDOF 0
ENDMDL
