MODEL 1
REMARK minimizedAffinity -1.98095906
REMARK minimizedRMSD -1
REMARK  0 active torsions:
REMARK  status: ('A' for Active; 'I' for Inactive)
ROOT
ATOM      1  C   UNL d   1      -0.407   0.396   3.551  0.00  0.00     0.023 A 
ATOM      2  C1  UNL d   1       0.796  -0.145   3.098  0.00  0.00     0.003 A 
ATOM      3  C2  UNL d   1       1.016  -0.313   1.729  0.00  0.00     0.048 A 
ATOM      4  C3  UNL d   1       0.029   0.063   0.819  0.00  0.00     0.023 A 
ATOM      5  C4  UNL d   1      -1.176   0.606   1.268  0.00  0.00     0.048 A 
ATOM      6  C5  UNL d   1      -1.392   0.771   2.637  0.00  0.00     0.003 A 
ATOM      7  I   UNL d   1       0.354  -0.185  -1.219  0.00  0.00    -0.146 I 
ENDROOT
TORSDOF 0
ENDMDL
