MODEL 1
REMARK minimizedAffinity -2.81641889
REMARK minimizedRMSD -1
REMARK  0 active torsions:
REMARK  status: ('A' for Active; 'I' for Inactive)
ROOT
ATOM      1  C   UNL d   1      -0.980   0.901   2.578  0.00  0.00     0.023 A 
ATOM      2  C1  UNL d   1       0.371   0.906   2.228  0.00  0.00     0.003 A 
ATOM      3  C2  UNL d   1       0.750   0.715   0.898  0.00  0.00     0.048 A 
ATOM      4  C3  UNL d   1      -0.227   0.521  -0.078  0.00  0.00     0.023 A 
ATOM      5  C4  UNL d   1      -1.580   0.516   0.267  0.00  0.00     0.048 A 
ATOM      6  C5  UNL d   1      -1.954   0.707   1.598  0.00  0.00     0.003 A 
ATOM      7  I   UNL d   1       0.334   0.237  -2.059  0.00  0.00    -0.146 I 
ENDROOT
TORSDOF 0
ENDMDL
