MODEL 1
REMARK minimizedAffinity -3.21955705
REMARK minimizedRMSD -1
REMARK  0 active torsions:
REMARK  status: ('A' for Active; 'I' for Inactive)
ROOT
ATOM      1  C   UNL d   1      -1.210   1.096   2.415  0.00  0.00     0.023 A 
ATOM      2  C1  UNL d   1      -2.021   0.479   1.463  0.00  0.00     0.003 A 
ATOM      3  C2  UNL d   1      -1.469   0.022   0.264  0.00  0.00     0.048 A 
ATOM      4  C3  UNL d   1      -0.105   0.186   0.024  0.00  0.00     0.023 A 
ATOM      5  C4  UNL d   1       0.711   0.802   0.975  0.00  0.00     0.048 A 
ATOM      6  C5  UNL d   1       0.154   1.257   2.171  0.00  0.00     0.003 A 
ATOM      7  I   UNL d   1       0.719  -0.493  -1.759  0.00  0.00    -0.146 I 
ENDROOT
TORSDOF 0
ENDMDL
