MODEL 1
REMARK minimizedAffinity -5.13872528
REMARK minimizedRMSD -1
REMARK  0 active torsions:
REMARK  status: ('A' for Active; 'I' for Inactive)
ROOT
ATOM      1  C   UNL d   1       0.660   0.812   3.831  0.00  0.00     0.023 A 
ATOM      2  C1  UNL d   1       1.542  -0.101   3.252  0.00  0.00     0.003 A 
ATOM      3  C2  UNL d   1       1.371  -0.492   1.923  0.00  0.00     0.048 A 
ATOM      4  C3  UNL d   1       0.318   0.035   1.177  0.00  0.00     0.023 A 
ATOM      5  C4  UNL d   1      -0.567   0.950   1.751  0.00  0.00     0.048 A 
ATOM      6  C5  UNL d   1      -0.393   1.336   3.081  0.00  0.00     0.003 A 
ATOM      7  I   UNL d   1       0.062  -0.545  -0.803  0.00  0.00    -0.146 I 
ENDROOT
TORSDOF 0
ENDMDL
