MODEL 1
REMARK minimizedAffinity -3.36080241
REMARK minimizedRMSD -1
REMARK  0 active torsions:
REMARK  status: ('A' for Active; 'I' for Inactive)
ROOT
ATOM      1  C   UNL d   1      -0.871   1.030   3.182  0.00  0.00     0.023 A 
ATOM      2  C1  UNL d   1       0.167   1.686   2.521  0.00  0.00     0.003 A 
ATOM      3  C2  UNL d   1       0.514   1.314   1.220  0.00  0.00     0.048 A 
ATOM      4  C3  UNL d   1      -0.183   0.285   0.587  0.00  0.00     0.023 A 
ATOM      5  C4  UNL d   1      -1.223  -0.373   1.244  0.00  0.00     0.048 A 
ATOM      6  C5  UNL d   1      -1.566   0.002   2.544  0.00  0.00     0.003 A 
ATOM      7  I   UNL d   1       0.331  -0.271  -1.349  0.00  0.00    -0.146 I 
ENDROOT
TORSDOF 0
ENDMDL
