MODEL 1
REMARK minimizedAffinity -3.22528672
REMARK minimizedRMSD -1
REMARK  0 active torsions:
REMARK  status: ('A' for Active; 'I' for Inactive)
ROOT
ATOM      1  C   UNL d   1      -1.155   1.036   2.425  0.00  0.00     0.023 A 
ATOM      2  C1  UNL d   1      -2.099   0.498   1.551  0.00  0.00     0.003 A 
ATOM      3  C2  UNL d   1      -1.724   0.125   0.259  0.00  0.00     0.048 A 
ATOM      4  C3  UNL d   1      -0.402   0.292  -0.153  0.00  0.00     0.023 A 
ATOM      5  C4  UNL d   1       0.547   0.830   0.718  0.00  0.00     0.048 A 
ATOM      6  C5  UNL d   1       0.167   1.202   2.009  0.00  0.00     0.003 A 
ATOM      7  I   UNL d   1       0.158  -0.263  -2.076  0.00  0.00    -0.146 I 
ENDROOT
TORSDOF 0
ENDMDL
