MODEL 1
REMARK minimizedAffinity -0.192172542
REMARK minimizedRMSD -1
REMARK  0 active torsions:
REMARK  status: ('A' for Active; 'I' for Inactive)
ROOT
ATOM      1  C   UNL d   1       1.661   0.644  -4.754  0.00  0.00     0.023 A 
ATOM      2  C1  UNL d   1       2.490   0.663  -3.632  0.00  0.00     0.003 A 
ATOM      3  C2  UNL d   1       1.956   0.427  -2.363  0.00  0.00     0.048 A 
ATOM      4  C3  UNL d   1       0.592   0.172  -2.224  0.00  0.00     0.023 A 
ATOM      5  C4  UNL d   1      -0.241   0.151  -3.344  0.00  0.00     0.048 A 
ATOM      6  C5  UNL d   1       0.297   0.389  -4.610  0.00  0.00     0.003 A 
ATOM      7  I   UNL d   1      -0.206  -0.181  -0.337  0.00  0.00    -0.146 I 
ENDROOT
TORSDOF 0
ENDMDL
