MODEL 1
REMARK minimizedAffinity -2.99620724
REMARK minimizedRMSD -1
REMARK  0 active torsions:
REMARK  status: ('A' for Active; 'I' for Inactive)
ROOT
ATOM      1  C   UNL d   1       0.716  -4.833   1.547  0.00  0.00     0.172 C 
ATOM      2  N   UNL d   1       0.937  -3.425   1.313  0.00  0.00    -0.070 N 
ATOM      3  C1  UNL d   1       0.303  -2.399   1.962  0.00  0.00    -0.004 A 
ATOM      4  C2  UNL d   1       0.790  -1.214   1.454  0.00  0.00    -0.047 A 
ATOM      5  C3  UNL d   1       1.749  -1.539   0.466  0.00  0.00    -0.047 A 
ATOM      6  C4  UNL d   1       1.820  -2.915   0.399  0.00  0.00    -0.004 A 
ENDROOT
TORSDOF 0
ENDMDL
