MODEL 1
REMARK minimizedAffinity -1.35935545
REMARK minimizedRMSD -1
REMARK  0 active torsions:
REMARK  status: ('A' for Active; 'I' for Inactive)
ROOT
ATOM      1  C   UNL d   1       2.125  -4.001   0.838  0.00  0.00     0.172 C 
ATOM      2  N   UNL d   1       1.357  -2.782   0.746  0.00  0.00    -0.070 N 
ATOM      3  C1  UNL d   1       0.499  -2.305   1.700  0.00  0.00    -0.004 A 
ATOM      4  C2  UNL d   1      -0.034  -1.122   1.235  0.00  0.00    -0.047 A 
ATOM      5  C3  UNL d   1       0.522  -0.881  -0.044  0.00  0.00    -0.047 A 
ATOM      6  C4  UNL d   1       1.379  -1.925  -0.322  0.00  0.00    -0.004 A 
ENDROOT
TORSDOF 0
ENDMDL
