MODEL 1
REMARK minimizedAffinity 1.86118042
REMARK minimizedRMSD -1
REMARK  0 active torsions:
REMARK  status: ('A' for Active; 'I' for Inactive)
ROOT
ATOM      1  C   UNL d   1      -3.627   3.581  -2.592  0.00  0.00     0.172 C 
ATOM      2  N   UNL d   1      -3.199   3.133  -1.287  0.00  0.00    -0.070 N 
ATOM      3  C1  UNL d   1      -3.529   1.938  -0.706  0.00  0.00    -0.004 A 
ATOM      4  C2  UNL d   1      -2.925   1.889   0.532  0.00  0.00    -0.047 A 
ATOM      5  C3  UNL d   1      -2.207   3.097   0.700  0.00  0.00    -0.047 A 
ATOM      6  C4  UNL d   1      -2.394   3.848  -0.441  0.00  0.00    -0.004 A 
ENDROOT
TORSDOF 0
ENDMDL
