MODEL 1
REMARK minimizedAffinity -2.35695004
REMARK minimizedRMSD -1
REMARK  0 active torsions:
REMARK  status: ('A' for Active; 'I' for Inactive)
ROOT
ATOM      1  C   UNL d   1      -6.000   2.229   5.665  0.00  0.00     0.172 C 
ATOM      2  N   UNL d   1      -4.931   3.188   5.510  0.00  0.00    -0.070 N 
ATOM      3  C1  UNL d   1      -4.930   4.466   6.000  0.00  0.00    -0.004 A 
ATOM      4  C2  UNL d   1      -3.735   5.054   5.642  0.00  0.00    -0.047 A 
ATOM      5  C3  UNL d   1      -2.994   4.095   4.911  0.00  0.00    -0.047 A 
ATOM      6  C4  UNL d   1      -3.758   2.949   4.845  0.00  0.00    -0.004 A 
ENDROOT
TORSDOF 0
ENDMDL
