MODEL 1
REMARK minimizedAffinity -0.770576835
REMARK minimizedRMSD -1
REMARK  0 active torsions:
REMARK  status: ('A' for Active; 'I' for Inactive)
ROOT
ATOM      1  C   UNL d   1       2.422  -3.571   1.114  0.00  0.00     0.172 C 
ATOM      2  N   UNL d   1       1.168  -3.111   1.664  0.00  0.00    -0.070 N 
ATOM      3  C1  UNL d   1       0.770  -1.805   1.760  0.00  0.00    -0.004 A 
ATOM      4  C2  UNL d   1      -0.481  -1.787   2.337  0.00  0.00    -0.047 A 
ATOM      5  C3  UNL d   1      -0.847  -3.129   2.598  0.00  0.00    -0.047 A 
ATOM      6  C4  UNL d   1       0.193  -3.928   2.171  0.00  0.00    -0.004 A 
ENDROOT
TORSDOF 0
ENDMDL
