MODEL 1
REMARK minimizedAffinity -0.0291385166
REMARK minimizedRMSD -1
REMARK  0 active torsions:
REMARK  status: ('A' for Active; 'I' for Inactive)
ROOT
ATOM      1  C   UNL d   1       2.034  -4.184   0.708  0.00  0.00     0.172 C 
ATOM      2  N   UNL d   1       0.959  -3.459   1.344  0.00  0.00    -0.070 N 
ATOM      3  C1  UNL d   1       0.924  -2.107   1.555  0.00  0.00    -0.004 A 
ATOM      4  C2  UNL d   1      -0.265  -1.809   2.186  0.00  0.00    -0.047 A 
ATOM      5  C3  UNL d   1      -0.967  -3.025   2.361  0.00  0.00    -0.047 A 
ATOM      6  C4  UNL d   1      -0.187  -4.031   1.830  0.00  0.00    -0.004 A 
ENDROOT
TORSDOF 0
ENDMDL
