MODEL 1
REMARK minimizedAffinity -0.553682446
REMARK minimizedRMSD -1
REMARK  0 active torsions:
REMARK  status: ('A' for Active; 'I' for Inactive)
ROOT
ATOM      1  C   UNL d   1      -0.153  -1.084   1.878  0.00  0.00     0.172 C 
ATOM      2  N   UNL d   1       0.844  -1.871   1.191  0.00  0.00    -0.070 N 
ATOM      3  C1  UNL d   1       1.436  -1.547  -0.000  0.00  0.00    -0.004 A 
ATOM      4  C2  UNL d   1       2.327  -2.550  -0.316  0.00  0.00    -0.047 A 
ATOM      5  C3  UNL d   1       2.268  -3.511   0.721  0.00  0.00    -0.047 A 
ATOM      6  C4  UNL d   1       1.342  -3.066   1.641  0.00  0.00    -0.004 A 
ENDROOT
TORSDOF 0
ENDMDL
