MODEL 1
REMARK minimizedAffinity 4.18711662
REMARK minimizedRMSD -1
REMARK  1 active torsions:
REMARK  status: ('A' for Active; 'I' for Inactive)
REMARK    1  A    between atoms: C1_2  and  C2_3 
ROOT
ATOM      1  C2  UNL d   1       4.452  -3.375  -1.702  0.00  0.00    -0.077 A 
ATOM      2  C3  UNL d   1       3.941  -3.009  -2.955  0.00  0.00     0.002 A 
ATOM      3  C4  UNL d   1       3.567  -3.988  -3.878  0.00  0.00     0.002 A 
ATOM      4  C5  UNL d   1       3.696  -5.337  -3.557  0.00  0.00    -0.004 A 
ATOM      5  C6  UNL d   1       4.206  -5.711  -2.314  0.00  0.00     0.002 A 
ATOM      6  C7  UNL d   1       4.581  -4.735  -1.390  0.00  0.00     0.002 A 
ENDROOT
BRANCH   1   7
ATOM      7  C1  UNL d   1       4.810  -2.322  -0.686  0.00  0.00     0.055 C 
ATOM      8  C   UNL d   1       3.578  -1.832   0.061  0.00  0.00     0.019 C 
ENDBRANCH   1   7
TORSDOF 1
ENDMDL
