MODEL 1
REMARK minimizedAffinity 1.67312753
REMARK minimizedRMSD -1
REMARK  1 active torsions:
REMARK  status: ('A' for Active; 'I' for Inactive)
REMARK    1  A    between atoms: C1_2  and  C2_3 
ROOT
ATOM      1  C2  UNL d   1       2.959  -4.063  -0.888  0.00  0.00    -0.077 A 
ATOM      2  C3  UNL d   1       4.122  -4.375  -0.170  0.00  0.00     0.002 A 
ATOM      3  C4  UNL d   1       5.246  -3.551  -0.253  0.00  0.00     0.002 A 
ATOM      4  C5  UNL d   1       5.217  -2.408  -1.049  0.00  0.00    -0.004 A 
ATOM      5  C6  UNL d   1       4.066  -2.090  -1.768  0.00  0.00     0.002 A 
ATOM      6  C7  UNL d   1       2.942  -2.913  -1.688  0.00  0.00     0.002 A 
ENDROOT
BRANCH   1   7
ATOM      7  C1  UNL d   1       1.729  -4.923  -0.762  0.00  0.00     0.055 C 
ATOM      8  C   UNL d   1       1.642  -5.934  -1.896  0.00  0.00     0.019 C 
ENDBRANCH   1   7
TORSDOF 1
ENDMDL
