MODEL 1
REMARK minimizedAffinity -2.79579711
REMARK minimizedRMSD -1
REMARK  1 active torsions:
REMARK  status: ('A' for Active; 'I' for Inactive)
REMARK    1  A    between atoms: C1_2  and  C2_3 
ROOT
ATOM      1  C2  UNL d   1       4.021  -2.749  -2.134  0.00  0.00    -0.077 A 
ATOM      2  C3  UNL d   1       3.584  -3.594  -3.163  0.00  0.00     0.002 A 
ATOM      3  C4  UNL d   1       4.240  -4.802  -3.411  0.00  0.00     0.002 A 
ATOM      4  C5  UNL d   1       5.332  -5.176  -2.632  0.00  0.00    -0.004 A 
ATOM      5  C6  UNL d   1       5.775  -4.341  -1.607  0.00  0.00     0.002 A 
ATOM      6  C7  UNL d   1       5.122  -3.133  -1.358  0.00  0.00     0.002 A 
ENDROOT
BRANCH   1   7
ATOM      7  C1  UNL d   1       3.285  -1.469  -1.833  0.00  0.00     0.055 C 
ATOM      8  C   UNL d   1       2.736  -1.467  -0.414  0.00  0.00     0.019 C 
ENDBRANCH   1   7
TORSDOF 1
ENDMDL
