MODEL 1
REMARK minimizedAffinity 3.2619338
REMARK minimizedRMSD -1
REMARK  1 active torsions:
REMARK  status: ('A' for Active; 'I' for Inactive)
REMARK    1  A    between atoms: C1_2  and  C2_3 
ROOT
ATOM      1  C2  UNL d   1       0.067   3.235  -0.374  0.00  0.00    -0.077 A 
ATOM      2  C3  UNL d   1      -0.454   2.083  -0.980  0.00  0.00     0.002 A 
ATOM      3  C4  UNL d   1      -0.913   1.020  -0.200  0.00  0.00     0.002 A 
ATOM      4  C5  UNL d   1      -0.861   1.100   1.190  0.00  0.00    -0.004 A 
ATOM      5  C6  UNL d   1      -0.343   2.240   1.802  0.00  0.00     0.002 A 
ATOM      6  C7  UNL d   1       0.118   3.303   1.025  0.00  0.00     0.002 A 
ENDROOT
BRANCH   1   7
ATOM      7  C1  UNL d   1       0.518   4.402  -1.212  0.00  0.00     0.055 C 
ATOM      8  C   UNL d   1       1.748   5.070  -0.615  0.00  0.00     0.019 C 
ENDBRANCH   1   7
TORSDOF 1
ENDMDL
