MODEL 1
REMARK minimizedAffinity -3.90871906
REMARK minimizedRMSD -1
REMARK  1 active torsions:
REMARK  status: ('A' for Active; 'I' for Inactive)
REMARK    1  A    between atoms: C1_2  and  C2_3 
ROOT
ATOM      1  C2  UNL d   1      -0.473   0.456   0.932  0.00  0.00    -0.081 A 
ATOM      2  C3  UNL d   1      -0.595  -0.938   0.893  0.00  0.00     0.006 A 
ATOM      3  C4  UNL d   1      -0.975  -1.584  -0.285  0.00  0.00     0.002 A 
ATOM      4  C5  UNL d   1      -1.232  -0.847  -1.447  0.00  0.00    -0.080 A 
ATOM      5  C6  UNL d   1      -1.612  -1.531  -2.727  0.00  0.00     0.076 C 
ATOM      6  C7  UNL d   1      -1.128   0.547  -1.404  0.00  0.00     0.002 A 
ATOM      7  C8  UNL d   1      -0.748   1.193  -0.226  0.00  0.00     0.006 A 
ENDROOT
BRANCH   1   8
ATOM      8  C1  UNL d   1      -0.000   1.150   2.183  0.00  0.00     0.054 C 
ATOM      9  C   UNL d   1       1.380   1.761   1.990  0.00  0.00     0.018 C 
ENDBRANCH   1   8
TORSDOF 1
ENDMDL
