MODEL 1
REMARK minimizedAffinity -3.91430092
REMARK minimizedRMSD -1
REMARK  1 active torsions:
REMARK  status: ('A' for Active; 'I' for Inactive)
REMARK    1  A    between atoms: C1_2  and  C2_3 
ROOT
ATOM      1  C2  UNL d   1      -0.449  -0.892  -0.702  0.00  0.00    -0.081 A 
ATOM      2  C3  UNL d   1      -1.112  -0.255   0.354  0.00  0.00     0.006 A 
ATOM      3  C4  UNL d   1      -0.597   0.920   0.907  0.00  0.00     0.002 A 
ATOM      4  C5  UNL d   1       0.584   1.481   0.410  0.00  0.00    -0.080 A 
ATOM      5  C6  UNL d   1       1.131   2.758   0.975  0.00  0.00     0.076 C 
ATOM      6  C7  UNL d   1       1.256   0.835  -0.633  0.00  0.00     0.002 A 
ATOM      7  C8  UNL d   1       0.742  -0.340  -1.187  0.00  0.00     0.006 A 
ENDROOT
BRANCH   1   8
ATOM      8  C1  UNL d   1      -1.035  -2.123  -1.343  0.00  0.00     0.054 C 
ATOM      9  C   UNL d   1      -1.882  -1.765  -2.556  0.00  0.00     0.018 C 
ENDBRANCH   1   8
TORSDOF 1
ENDMDL
