MODEL 1
REMARK minimizedAffinity -3.29567337
REMARK minimizedRMSD -1
REMARK  1 active torsions:
REMARK  status: ('A' for Active; 'I' for Inactive)
REMARK    1  A    between atoms: C1_2  and  C2_3 
ROOT
ATOM      1  C2  UNL d   1      -0.476  -0.307  -0.860  0.00  0.00    -0.081 A 
ATOM      2  C3  UNL d   1      -0.944  -0.710   0.397  0.00  0.00     0.006 A 
ATOM      3  C4  UNL d   1      -0.657   0.047   1.535  0.00  0.00     0.002 A 
ATOM      4  C5  UNL d   1       0.096   1.222   1.435  0.00  0.00    -0.080 A 
ATOM      5  C6  UNL d   1       0.385   2.060   2.645  0.00  0.00     0.076 C 
ATOM      6  C7  UNL d   1       0.578   1.616   0.182  0.00  0.00     0.002 A 
ATOM      7  C8  UNL d   1       0.292   0.859  -0.956  0.00  0.00     0.006 A 
ENDROOT
BRANCH   1   8
ATOM      8  C1  UNL d   1      -0.838  -1.086  -2.098  0.00  0.00     0.054 C 
ATOM      9  C   UNL d   1      -2.347  -1.225  -2.243  0.00  0.00     0.018 C 
ENDBRANCH   1   8
TORSDOF 1
ENDMDL
