MODEL 1
REMARK minimizedAffinity -5.11558867
REMARK minimizedRMSD -1
REMARK  1 active torsions:
REMARK  status: ('A' for Active; 'I' for Inactive)
REMARK    1  A    between atoms: C1_2  and  C2_3 
ROOT
ATOM      1  C2  UNL d   1      -0.821  -0.479  -0.914  0.00  0.00    -0.081 A 
ATOM      2  C3  UNL d   1      -1.285  -0.079   0.345  0.00  0.00     0.006 A 
ATOM      3  C4  UNL d   1      -0.530   0.795   1.132  0.00  0.00     0.002 A 
ATOM      4  C5  UNL d   1       0.695   1.288   0.671  0.00  0.00    -0.080 A 
ATOM      5  C6  UNL d   1       1.500   2.250   1.493  0.00  0.00     0.076 C 
ATOM      6  C7  UNL d   1       1.166   0.874  -0.580  0.00  0.00     0.002 A 
ATOM      7  C8  UNL d   1       0.413   0.000  -1.367  0.00  0.00     0.006 A 
ENDROOT
BRANCH   1   8
ATOM      8  C1  UNL d   1      -1.662  -1.370  -1.792  0.00  0.00     0.054 C 
ATOM      9  C   UNL d   1      -1.876  -0.750  -3.166  0.00  0.00     0.018 C 
ENDBRANCH   1   8
TORSDOF 1
ENDMDL
