MODEL 1
REMARK minimizedAffinity -4.67082214
REMARK minimizedRMSD -1
REMARK  1 active torsions:
REMARK  status: ('A' for Active; 'I' for Inactive)
REMARK    1  A    between atoms: C1_2  and  C2_3 
ROOT
ATOM      1  C2  UNL d   1      -1.102  -1.115  -0.699  0.00  0.00    -0.081 A 
ATOM      2  C3  UNL d   1      -1.850  -0.720   0.417  0.00  0.00     0.006 A 
ATOM      3  C4  UNL d   1      -1.338   0.219   1.316  0.00  0.00     0.002 A 
ATOM      4  C5  UNL d   1      -0.076   0.785   1.109  0.00  0.00    -0.080 A 
ATOM      5  C6  UNL d   1       0.472   1.816   2.050  0.00  0.00     0.076 C 
ATOM      6  C7  UNL d   1       0.679   0.377   0.004  0.00  0.00     0.002 A 
ATOM      7  C8  UNL d   1       0.169  -0.562  -0.895  0.00  0.00     0.006 A 
ENDROOT
BRANCH   1   8
ATOM      8  C1  UNL d   1      -1.677  -2.079  -1.705  0.00  0.00     0.054 C 
ATOM      9  C   UNL d   1      -2.965  -1.542  -2.313  0.00  0.00     0.018 C 
ENDBRANCH   1   8
TORSDOF 1
ENDMDL
