MODEL 1
REMARK minimizedAffinity -3.32908916
REMARK minimizedRMSD -1
REMARK  1 active torsions:
REMARK  status: ('A' for Active; 'I' for Inactive)
REMARK    1  A    between atoms: C1_2  and  C2_3 
ROOT
ATOM      1  C2  UNL d   1      -0.056   0.282   0.005  0.00  0.00    -0.081 A 
ATOM      2  C3  UNL d   1      -0.017   1.382   0.871  0.00  0.00     0.006 A 
ATOM      3  C4  UNL d   1       1.202   1.975   1.207  0.00  0.00     0.002 A 
ATOM      4  C5  UNL d   1       2.400   1.485   0.677  0.00  0.00    -0.080 A 
ATOM      5  C6  UNL d   1       3.713   2.132   1.006  0.00  0.00     0.076 C 
ATOM      6  C7  UNL d   1       2.363   0.376  -0.175  0.00  0.00     0.002 A 
ATOM      7  C8  UNL d   1       1.144  -0.218  -0.510  0.00  0.00     0.006 A 
ENDROOT
BRANCH   1   8
ATOM      8  C1  UNL d   1      -1.375  -0.319  -0.410  0.00  0.00     0.054 C 
ATOM      9  C   UNL d   1      -1.200  -1.287  -1.572  0.00  0.00     0.018 C 
ENDBRANCH   1   8
TORSDOF 1
ENDMDL
