MODEL 1
REMARK minimizedAffinity 0.17331475
REMARK minimizedRMSD -1
REMARK  1 active torsions:
REMARK  status: ('A' for Active; 'I' for Inactive)
REMARK    1  A    between atoms: C1_2  and  C2_3 
ROOT
ATOM      1  C2  UNL d   1       0.066   0.898   1.966  0.00  0.00    -0.081 A 
ATOM      2  C3  UNL d   1      -0.831   0.029   1.333  0.00  0.00     0.006 A 
ATOM      3  C4  UNL d   1      -0.612  -0.378   0.015  0.00  0.00     0.002 A 
ATOM      4  C5  UNL d   1       0.511   0.070  -0.689  0.00  0.00    -0.080 A 
ATOM      5  C6  UNL d   1       0.774  -0.383  -2.094  0.00  0.00     0.076 C 
ATOM      6  C7  UNL d   1       1.398   0.952  -0.062  0.00  0.00     0.002 A 
ATOM      7  C8  UNL d   1       1.180   1.360   1.255  0.00  0.00     0.006 A 
ENDROOT
BRANCH   1   8
ATOM      8  C1  UNL d   1      -0.132   1.287   3.409  0.00  0.00     0.054 C 
ATOM      9  C   UNL d   1       1.037   0.831   4.271  0.00  0.00     0.018 C 
ENDBRANCH   1   8
TORSDOF 1
ENDMDL
