MODEL 1
REMARK minimizedAffinity -3.37603593
REMARK minimizedRMSD -1
REMARK  1 active torsions:
REMARK  status: ('A' for Active; 'I' for Inactive)
REMARK    1  A    between atoms: C1_2  and  C2_3 
ROOT
ATOM      1  C2  UNL d   1       0.388  -0.347  -0.121  0.00  0.00    -0.081 A 
ATOM      2  C3  UNL d   1      -0.100   0.216   1.065  0.00  0.00     0.006 A 
ATOM      3  C4  UNL d   1       0.328   1.481   1.477  0.00  0.00     0.002 A 
ATOM      4  C5  UNL d   1       1.243   2.206   0.707  0.00  0.00    -0.080 A 
ATOM      5  C6  UNL d   1       1.687   3.577   1.122  0.00  0.00     0.076 C 
ATOM      6  C7  UNL d   1       1.744   1.636  -0.469  0.00  0.00     0.002 A 
ATOM      7  C8  UNL d   1       1.318   0.372  -0.880  0.00  0.00     0.006 A 
ENDROOT
BRANCH   1   8
ATOM      8  C1  UNL d   1      -0.120  -1.682  -0.601  0.00  0.00     0.054 C 
ATOM      9  C   UNL d   1      -0.975  -1.532  -1.851  0.00  0.00     0.018 C 
ENDBRANCH   1   8
TORSDOF 1
ENDMDL
