MODEL 1
REMARK minimizedAffinity 10.7603455
REMARK minimizedRMSD -1
REMARK  0 active torsions:
REMARK  status: ('A' for Active; 'I' for Inactive)
ROOT
ATOM      1  C1  DEN d   1       0.940   2.965  -2.284  0.00  0.00     0.130 A 
ATOM      2  C2  DEN d   1       1.835   3.467  -3.323  0.00  0.00    -0.031 A 
ATOM      3  C3  DEN d   1       3.197   2.981  -3.025  0.00  0.00     0.027 A 
ATOM      4  C4  DEN d   1       4.003   1.504  -1.070  0.00  0.00     0.027 A 
ATOM      5  C5  DEN d   1       3.610   0.841   0.072  0.00  0.00    -0.003 A 
ATOM      6  C6  DEN d   1       2.317   0.867   0.523  0.00  0.00     0.001 A 
ATOM      7  C7  DEN d   1       1.360   1.533  -0.196  0.00  0.00     0.017 A 
ATOM      8  C8  DEN d   1       1.750   2.211  -1.344  0.00  0.00    -0.094 A 
ATOM      9  C9  DEN d   1       3.060   2.163  -1.790  0.00  0.00    -0.072 A 
ENDROOT
TORSDOF 0
ENDMDL
