MODEL 1
REMARK minimizedAffinity 0.716445684
REMARK minimizedRMSD -1
REMARK  0 active torsions:
REMARK  status: ('A' for Active; 'I' for Inactive)
ROOT
ATOM      1  C1  DEN d   1      -2.776   0.750   6.000  0.00  0.00     0.130 A 
ATOM      2  C2  DEN d   1      -1.677   1.125   5.115  0.00  0.00    -0.031 A 
ATOM      3  C3  DEN d   1      -1.942   0.542   3.784  0.00  0.00     0.027 A 
ATOM      4  C4  DEN d   1      -3.940  -0.894   3.012  0.00  0.00     0.027 A 
ATOM      5  C5  DEN d   1      -5.118  -1.486   3.411  0.00  0.00    -0.003 A 
ATOM      6  C6  DEN d   1      -5.577  -1.403   4.699  0.00  0.00     0.001 A 
ATOM      7  C7  DEN d   1      -4.877  -0.675   5.624  0.00  0.00     0.017 A 
ATOM      8  C8  DEN d   1      -3.684  -0.082   5.231  0.00  0.00    -0.094 A 
ATOM      9  C9  DEN d   1      -3.243  -0.167   3.921  0.00  0.00    -0.072 A 
ENDROOT
TORSDOF 0
ENDMDL
