MODEL 1
REMARK minimizedAffinity -0.792479157
REMARK minimizedRMSD -1
REMARK  0 active torsions:
REMARK  status: ('A' for Active; 'I' for Inactive)
ROOT
ATOM      1  C1  DEN d   1      -2.332   0.998   4.202  0.00  0.00     0.130 A 
ATOM      2  C2  DEN d   1      -1.028   0.523   3.746  0.00  0.00    -0.031 A 
ATOM      3  C3  DEN d   1      -1.248  -0.661   2.891  0.00  0.00     0.027 A 
ATOM      4  C4  DEN d   1      -3.468  -1.795   2.229  0.00  0.00     0.027 A 
ATOM      5  C5  DEN d   1      -4.837  -1.758   2.381  0.00  0.00    -0.003 A 
ATOM      6  C6  DEN d   1      -5.458  -0.828   3.172  0.00  0.00     0.001 A 
ATOM      7  C7  DEN d   1      -4.714   0.132   3.805  0.00  0.00     0.017 A 
ATOM      8  C8  DEN d   1      -3.333   0.096   3.662  0.00  0.00    -0.094 A 
ATOM      9  C9  DEN d   1      -2.724  -0.844   2.849  0.00  0.00    -0.072 A 
ENDROOT
TORSDOF 0
ENDMDL
