MODEL 1
REMARK minimizedAffinity 2.74594188
REMARK minimizedRMSD -1
REMARK  0 active torsions:
REMARK  status: ('A' for Active; 'I' for Inactive)
ROOT
ATOM      1  C1  DEN d   1      -3.584   6.000  -5.952  0.00  0.00     0.130 A 
ATOM      2  C2  DEN d   1      -4.583   5.987  -4.888  0.00  0.00    -0.031 A 
ATOM      3  C3  DEN d   1      -3.935   5.489  -3.659  0.00  0.00     0.027 A 
ATOM      4  C4  DEN d   1      -1.492   4.743  -3.300  0.00  0.00     0.027 A 
ATOM      5  C5  DEN d   1      -0.271   4.566  -3.913  0.00  0.00    -0.003 A 
ATOM      6  C6  DEN d   1      -0.079   4.819  -5.245  0.00  0.00     0.001 A 
ATOM      7  C7  DEN d   1      -1.113   5.307  -5.999  0.00  0.00     0.017 A 
ATOM      8  C8  DEN d   1      -2.349   5.482  -5.390  0.00  0.00    -0.094 A 
ATOM      9  C9  DEN d   1      -2.520   5.232  -4.039  0.00  0.00    -0.072 A 
ENDROOT
TORSDOF 0
ENDMDL
