MODEL 1
REMARK minimizedAffinity 6.73391771
REMARK minimizedRMSD -1
REMARK  0 active torsions:
REMARK  status: ('A' for Active; 'I' for Inactive)
ROOT
ATOM      1  C1  DEN d   1       2.306   2.072   1.308  0.00  0.00     0.130 A 
ATOM      2  C2  DEN d   1       2.315   1.027   0.288  0.00  0.00    -0.031 A 
ATOM      3  C3  DEN d   1       3.586   1.126  -0.457  0.00  0.00     0.027 A 
ATOM      4  C4  DEN d   1       5.533   2.785  -0.129  0.00  0.00     0.027 A 
ATOM      5  C5  DEN d   1       5.979   3.863   0.604  0.00  0.00    -0.003 A 
ATOM      6  C6  DEN d   1       5.223   4.436   1.592  0.00  0.00     0.001 A 
ATOM      7  C7  DEN d   1       3.999   3.905   1.905  0.00  0.00     0.017 A 
ATOM      8  C8  DEN d   1       3.540   2.823   1.165  0.00  0.00    -0.094 A 
ATOM      9  C9  DEN d   1       4.324   2.251   0.178  0.00  0.00    -0.072 A 
ENDROOT
TORSDOF 0
ENDMDL
