MODEL 1
REMARK minimizedAffinity 10.3190451
REMARK minimizedRMSD -1
REMARK  0 active torsions:
REMARK  status: ('A' for Active; 'I' for Inactive)
ROOT
ATOM      1  C1  DEN d   1      -1.584  -0.314   1.920  0.00  0.00     0.130 A 
ATOM      2  C2  DEN d   1      -2.177   0.945   2.361  0.00  0.00    -0.031 A 
ATOM      3  C3  DEN d   1      -1.994   1.048   3.823  0.00  0.00     0.027 A 
ATOM      4  C4  DEN d   1      -0.852  -0.609   5.436  0.00  0.00     0.027 A 
ATOM      5  C5  DEN d   1      -0.209  -1.824   5.528  0.00  0.00    -0.003 A 
ATOM      6  C6  DEN d   1      -0.011  -2.629   4.438  0.00  0.00     0.001 A 
ATOM      7  C7  DEN d   1      -0.420  -2.209   3.200  0.00  0.00     0.017 A 
ATOM      8  C8  DEN d   1      -1.076  -0.989   3.101  0.00  0.00    -0.094 A 
ATOM      9  C9  DEN d   1      -1.256  -0.184   4.213  0.00  0.00    -0.072 A 
ENDROOT
TORSDOF 0
ENDMDL
