MODEL 1
REMARK minimizedAffinity 9.53451729
REMARK minimizedRMSD -1
REMARK  0 active torsions:
REMARK  status: ('A' for Active; 'I' for Inactive)
ROOT
ATOM      1  C1  DEN d   1      -1.363   5.268  -0.657  0.00  0.00     0.130 A 
ATOM      2  C2  DEN d   1       0.059   5.463  -0.387  0.00  0.00    -0.031 A 
ATOM      3  C3  DEN d   1       0.492   4.413   0.557  0.00  0.00     0.027 A 
ATOM      4  C4  DEN d   1      -0.893   2.513   1.617  0.00  0.00     0.027 A 
ATOM      5  C5  DEN d   1      -2.147   1.948   1.698  0.00  0.00    -0.003 A 
ATOM      6  C6  DEN d   1      -3.225   2.466   1.032  0.00  0.00     0.001 A 
ATOM      7  C7  DEN d   1      -3.061   3.556   0.219  0.00  0.00     0.017 A 
ATOM      8  C8  DEN d   1      -1.802   4.136   0.138  0.00  0.00    -0.094 A 
ATOM      9  C9  DEN d   1      -0.721   3.590   0.809  0.00  0.00    -0.072 A 
ENDROOT
TORSDOF 0
ENDMDL
