MODEL 1
REMARK minimizedAffinity 6.71995544
REMARK minimizedRMSD -1
REMARK  0 active torsions:
REMARK  status: ('A' for Active; 'I' for Inactive)
ROOT
ATOM      1  C1  DEN d   1       5.721  -4.657  -0.409  0.00  0.00     0.130 A 
ATOM      2  C2  DEN d   1       5.145  -5.999  -0.376  0.00  0.00    -0.031 A 
ATOM      3  C3  DEN d   1       3.728  -5.877   0.021  0.00  0.00     0.027 A 
ATOM      4  C4  DEN d   1       2.376  -3.753   0.580  0.00  0.00     0.027 A 
ATOM      5  C5  DEN d   1       2.438  -2.382   0.700  0.00  0.00    -0.003 A 
ATOM      6  C6  DEN d   1       3.597  -1.683   0.494  0.00  0.00     0.001 A 
ATOM      7  C7  DEN d   1       4.732  -2.348   0.112  0.00  0.00     0.017 A 
ATOM      8  C8  DEN d   1       4.680  -3.731  -0.004  0.00  0.00    -0.094 A 
ATOM      9  C9  DEN d   1       3.495  -4.418   0.197  0.00  0.00    -0.072 A 
ENDROOT
TORSDOF 0
ENDMDL
