MODEL 1
REMARK minimizedAffinity 5.64100552
REMARK minimizedRMSD -1
REMARK  0 active torsions:
REMARK  status: ('A' for Active; 'I' for Inactive)
ROOT
ATOM      1  C1  DEN d   1       4.275  -5.999   0.031  0.00  0.00     0.130 A 
ATOM      2  C2  DEN d   1       5.724  -5.815   0.011  0.00  0.00    -0.031 A 
ATOM      3  C3  DEN d   1       6.000  -4.364   0.020  0.00  0.00     0.027 A 
ATOM      4  C4  DEN d   1       4.334  -2.395   0.068  0.00  0.00     0.027 A 
ATOM      5  C5  DEN d   1       3.000  -2.054   0.080  0.00  0.00    -0.003 A 
ATOM      6  C6  DEN d   1       2.005  -2.995   0.042  0.00  0.00     0.001 A 
ATOM      7  C7  DEN d   1       2.329  -4.326   0.037  0.00  0.00     0.017 A 
ATOM      8  C8  DEN d   1       3.673  -4.678   0.017  0.00  0.00    -0.094 A 
ATOM      9  C9  DEN d   1       4.664  -3.712   0.068  0.00  0.00    -0.072 A 
ENDROOT
TORSDOF 0
ENDMDL
