MODEL 1
REMARK minimizedAffinity 3.54582477
REMARK minimizedRMSD -1
REMARK  0 active torsions:
REMARK  status: ('A' for Active; 'I' for Inactive)
ROOT
ATOM      1  C1  DEN d   1      -2.217   0.313   2.623  0.00  0.00     0.130 A 
ATOM      2  C2  DEN d   1      -1.724   1.542   3.240  0.00  0.00    -0.031 A 
ATOM      3  C3  DEN d   1      -2.282   2.685   2.490  0.00  0.00     0.027 A 
ATOM      4  C4  DEN d   1      -3.858   2.672   0.448  0.00  0.00     0.027 A 
ATOM      5  C5  DEN d   1      -4.539   1.868  -0.439  0.00  0.00    -0.003 A 
ATOM      6  C6  DEN d   1      -4.467   0.501  -0.390  0.00  0.00     0.001 A 
ATOM      7  C7  DEN d   1      -3.733  -0.105   0.596  0.00  0.00     0.017 A 
ATOM      8  C8  DEN d   1      -3.038   0.699   1.490  0.00  0.00    -0.094 A 
ATOM      9  C9  DEN d   1      -3.133   2.079   1.431  0.00  0.00    -0.072 A 
ENDROOT
TORSDOF 0
ENDMDL
