MODEL 1
REMARK minimizedAffinity 7.84715128
REMARK minimizedRMSD -1
REMARK  0 active torsions:
REMARK  status: ('A' for Active; 'I' for Inactive)
ROOT
ATOM      1  C1  DEN d   1       3.427  -6.000  -0.007  0.00  0.00     0.130 A 
ATOM      2  C2  DEN d   1       4.875  -5.822   0.041  0.00  0.00    -0.031 A 
ATOM      3  C3  DEN d   1       5.153  -4.380   0.198  0.00  0.00     0.027 A 
ATOM      4  C4  DEN d   1       3.490  -2.417   0.375  0.00  0.00     0.027 A 
ATOM      5  C5  DEN d   1       2.156  -2.072   0.373  0.00  0.00    -0.003 A 
ATOM      6  C6  DEN d   1       1.162  -3.000   0.211  0.00  0.00     0.001 A 
ATOM      7  C7  DEN d   1       1.484  -4.326   0.090  0.00  0.00     0.017 A 
ATOM      8  C8  DEN d   1       2.827  -4.681   0.084  0.00  0.00    -0.094 A 
ATOM      9  C9  DEN d   1       3.817  -3.729   0.261  0.00  0.00    -0.072 A 
ENDROOT
TORSDOF 0
ENDMDL
