MODEL 1
REMARK minimizedAffinity 6.75255966
REMARK minimizedRMSD -1
REMARK  0 active torsions:
REMARK  status: ('A' for Active; 'I' for Inactive)
ROOT
ATOM      1  C1  DEN d   1       3.723  -6.000   0.631  0.00  0.00     0.130 A 
ATOM      2  C2  DEN d   1       4.967  -5.685  -0.066  0.00  0.00    -0.031 A 
ATOM      3  C3  DEN d   1       4.896  -4.281  -0.516  0.00  0.00     0.027 A 
ATOM      4  C4  DEN d   1       2.992  -2.570  -0.199  0.00  0.00     0.027 A 
ATOM      5  C5  DEN d   1       1.730  -2.378   0.319  0.00  0.00    -0.003 A 
ATOM      6  C6  DEN d   1       1.036  -3.381   0.942  0.00  0.00     0.001 A 
ATOM      7  C7  DEN d   1       1.618  -4.611   1.103  0.00  0.00     0.017 A 
ATOM      8  C8  DEN d   1       2.887  -4.814   0.577  0.00  0.00    -0.094 A 
ATOM      9  C9  DEN d   1       3.577  -3.784  -0.038  0.00  0.00    -0.072 A 
ENDROOT
TORSDOF 0
ENDMDL
