MODEL 1
REMARK minimizedAffinity 5.01693153
REMARK minimizedRMSD -1
REMARK  0 active torsions:
REMARK  status: ('A' for Active; 'I' for Inactive)
ROOT
ATOM      1  C1  DEN d   1       6.000  -4.617   0.023  0.00  0.00     0.130 A 
ATOM      2  C2  DEN d   1       5.582  -5.995   0.263  0.00  0.00    -0.031 A 
ATOM      3  C3  DEN d   1       4.125  -5.996   0.501  0.00  0.00     0.027 A 
ATOM      4  C4  DEN d   1       2.482  -4.008   0.516  0.00  0.00     0.027 A 
ATOM      5  C5  DEN d   1       2.371  -2.642   0.375  0.00  0.00    -0.003 A 
ATOM      6  C6  DEN d   1       3.458  -1.841   0.142  0.00  0.00     0.001 A 
ATOM      7  C7  DEN d   1       4.698  -2.405  -0.001  0.00  0.00     0.017 A 
ATOM      8  C8  DEN d   1       4.819  -3.781   0.147  0.00  0.00    -0.094 A 
ATOM      9  C9  DEN d   1       3.706  -4.574   0.370  0.00  0.00    -0.072 A 
ENDROOT
TORSDOF 0
ENDMDL
