MODEL 1
REMARK minimizedAffinity 0.44045803
REMARK minimizedRMSD -1
REMARK  0 active torsions:
REMARK  status: ('A' for Active; 'I' for Inactive)
ROOT
ATOM      1  C1  DEN d   1      -0.452  -1.727   2.011  0.00  0.00     0.130 A 
ATOM      2  C2  DEN d   1      -1.902  -1.585   1.915  0.00  0.00    -0.031 A 
ATOM      3  C3  DEN d   1      -2.379  -2.484   0.845  0.00  0.00     0.027 A 
ATOM      4  C4  DEN d   1      -1.020  -4.078  -0.660  0.00  0.00     0.027 A 
ATOM      5  C5  DEN d   1       0.245  -4.534  -0.958  0.00  0.00    -0.003 A 
ATOM      6  C6  DEN d   1       1.361  -4.066  -0.316  0.00  0.00     0.001 A 
ATOM      7  C7  DEN d   1       1.228  -3.145   0.690  0.00  0.00     0.017 A 
ATOM      8  C8  DEN d   1      -0.043  -2.674   0.990  0.00  0.00    -0.094 A 
ATOM      9  C9  DEN d   1      -1.159  -3.169   0.338  0.00  0.00    -0.072 A 
ENDROOT
TORSDOF 0
ENDMDL
