MODEL 1
REMARK minimizedAffinity 5.48762655
REMARK minimizedRMSD -1
REMARK  0 active torsions:
REMARK  status: ('A' for Active; 'I' for Inactive)
ROOT
ATOM      1  C1  DEN d   1       3.948   2.032  -2.270  0.00  0.00     0.130 A 
ATOM      2  C2  DEN d   1       3.120   0.831  -2.208  0.00  0.00    -0.031 A 
ATOM      3  C3  DEN d   1       2.297   0.906  -0.983  0.00  0.00     0.027 A 
ATOM      4  C4  DEN d   1       2.223   2.759   0.810  0.00  0.00     0.027 A 
ATOM      5  C5  DEN d   1       2.754   3.969   1.196  0.00  0.00    -0.003 A 
ATOM      6  C6  DEN d   1       3.737   4.598   0.477  0.00  0.00     0.001 A 
ATOM      7  C7  DEN d   1       4.187   4.040  -0.690  0.00  0.00     0.017 A 
ATOM      8  C8  DEN d   1       3.662   2.815  -1.081  0.00  0.00    -0.094 A 
ATOM      9  C9  DEN d   1       2.660   2.202  -0.348  0.00  0.00    -0.072 A 
ENDROOT
TORSDOF 0
ENDMDL
