MODEL 1
REMARK minimizedAffinity 3.42109585
REMARK minimizedRMSD -1
REMARK  0 active torsions:
REMARK  status: ('A' for Active; 'I' for Inactive)
ROOT
ATOM      1  C1  DEN d   1      -4.778  -5.674   2.334  0.00  0.00     0.130 A 
ATOM      2  C2  DEN d   1      -4.832  -4.494   1.474  0.00  0.00    -0.031 A 
ATOM      3  C3  DEN d   1      -5.199  -3.335   2.312  0.00  0.00     0.027 A 
ATOM      4  C4  DEN d   1      -5.683  -3.252   4.844  0.00  0.00     0.027 A 
ATOM      5  C5  DEN d   1      -5.774  -4.003   5.995  0.00  0.00    -0.003 A 
ATOM      6  C6  DEN d   1      -5.574  -5.358   6.000  0.00  0.00     0.001 A 
ATOM      7  C7  DEN d   1      -5.228  -5.998   4.839  0.00  0.00     0.017 A 
ATOM      8  C8  DEN d   1      -5.143  -5.248   3.673  0.00  0.00    -0.094 A 
ATOM      9  C9  DEN d   1      -5.337  -3.877   3.691  0.00  0.00    -0.072 A 
ENDROOT
TORSDOF 0
ENDMDL
