MODEL 1
REMARK minimizedAffinity 7.3277607
REMARK minimizedRMSD -1
REMARK  0 active torsions:
REMARK  status: ('A' for Active; 'I' for Inactive)
ROOT
ATOM      1  C4' PXY d   1       1.716  -1.328   0.978  0.00  0.00     0.077 C 
ATOM      2  C1' PXY d   1      -0.042   3.854  -0.887  0.00  0.00     0.077 C 
ATOM      3  C1  PXY d   1       0.411   2.489  -0.407  0.00  0.00    -0.082 A 
ATOM      4  C2  PXY d   1       0.937   2.362   0.801  0.00  0.00     0.003 A 
ATOM      5  C3  PXY d   1       1.381   1.141   1.239  0.00  0.00     0.003 A 
ATOM      6  C4  PXY d   1       1.236   0.029   0.454  0.00  0.00    -0.082 A 
ATOM      7  C5  PXY d   1       0.691   0.148  -0.775  0.00  0.00     0.003 A 
ATOM      8  C6  PXY d   1       0.284   1.403  -1.217  0.00  0.00     0.003 A 
ENDROOT
TORSDOF 0
ENDMDL
