MODEL 1
REMARK minimizedAffinity -0.119873784
REMARK minimizedRMSD -1
REMARK  0 active torsions:
REMARK  status: ('A' for Active; 'I' for Inactive)
ROOT
ATOM      1  C4' PXY d   1      -0.375  -0.020  -3.876  0.00  0.00     0.077 C 
ATOM      2  C1' PXY d   1       1.349   1.752   1.349  0.00  0.00     0.077 C 
ATOM      3  C1  PXY d   1       0.884   1.291  -0.019  0.00  0.00    -0.082 A 
ATOM      4  C2  PXY d   1       1.546   0.332  -0.645  0.00  0.00     0.003 A 
ATOM      5  C3  PXY d   1       1.159  -0.074  -1.896  0.00  0.00     0.003 A 
ATOM      6  C4  PXY d   1       0.052   0.470  -2.490  0.00  0.00    -0.082 A 
ATOM      7  C5  PXY d   1      -0.635   1.442  -1.853  0.00  0.00     0.003 A 
ATOM      8  C6  PXY d   1      -0.201   1.869  -0.601  0.00  0.00     0.003 A 
ENDROOT
TORSDOF 0
ENDMDL
