MODEL 1
REMARK minimizedAffinity 6.65720701
REMARK minimizedRMSD -1
REMARK  0 active torsions:
REMARK  status: ('A' for Active; 'I' for Inactive)
ROOT
ATOM      1  C4' PXY d   1       1.504   6.000  -1.126  0.00  0.00     0.077 C 
ATOM      2  C1' PXY d   1      -2.526   1.876  -0.719  0.00  0.00     0.077 C 
ATOM      3  C1  PXY d   1      -1.463   2.953  -0.815  0.00  0.00    -0.082 A 
ATOM      4  C2  PXY d   1      -1.745   4.098  -1.414  0.00  0.00     0.003 A 
ATOM      5  C3  PXY d   1      -0.786   5.070  -1.538  0.00  0.00     0.003 A 
ATOM      6  C4  PXY d   1       0.459   4.888  -0.997  0.00  0.00    -0.082 A 
ATOM      7  C5  PXY d   1       0.750   3.727  -0.375  0.00  0.00     0.003 A 
ATOM      8  C6  PXY d   1      -0.225   2.736  -0.295  0.00  0.00     0.003 A 
ENDROOT
TORSDOF 0
ENDMDL
