MODEL 1
REMARK minimizedAffinity 4.17501688
REMARK minimizedRMSD -1
REMARK  0 active torsions:
REMARK  status: ('A' for Active; 'I' for Inactive)
ROOT
ATOM      1  C4' PXY d   1      -3.351   4.557  -4.941  0.00  0.00     0.077 C 
ATOM      2  C1' PXY d   1       0.043   0.029  -3.761  0.00  0.00     0.077 C 
ATOM      3  C1  PXY d   1      -0.840   1.220  -4.081  0.00  0.00    -0.082 A 
ATOM      4  C2  PXY d   1      -1.549   1.785  -3.118  0.00  0.00     0.003 A 
ATOM      5  C3  PXY d   1      -2.377   2.842  -3.396  0.00  0.00     0.003 A 
ATOM      6  C4  PXY d   1      -2.439   3.359  -4.662  0.00  0.00    -0.082 A 
ATOM      7  C5  PXY d   1      -1.710   2.794  -5.648  0.00  0.00     0.003 A 
ATOM      8  C6  PXY d   1      -0.908   1.696  -5.354  0.00  0.00     0.003 A 
ENDROOT
TORSDOF 0
ENDMDL
