MODEL 1
REMARK minimizedAffinity 9.24919415
REMARK minimizedRMSD -1
REMARK  0 active torsions:
REMARK  status: ('A' for Active; 'I' for Inactive)
ROOT
ATOM      1  C4' PXY d   1       1.907   6.000  -0.918  0.00  0.00     0.077 C 
ATOM      2  C1' PXY d   1       0.434   0.683   0.806  0.00  0.00     0.077 C 
ATOM      3  C1  PXY d   1       0.829   2.078   0.364  0.00  0.00    -0.082 A 
ATOM      4  C2  PXY d   1      -0.023   2.807  -0.339  0.00  0.00     0.003 A 
ATOM      5  C3  PXY d   1       0.330   4.058  -0.774  0.00  0.00     0.003 A 
ATOM      6  C4  PXY d   1       1.548   4.590  -0.442  0.00  0.00    -0.082 A 
ATOM      7  C5  PXY d   1       2.418   3.856   0.283  0.00  0.00     0.003 A 
ATOM      8  C6  PXY d   1       2.057   2.572   0.681  0.00  0.00     0.003 A 
ENDROOT
TORSDOF 0
ENDMDL
