MODEL 1
REMARK minimizedAffinity 1.44069159
REMARK minimizedRMSD -1
REMARK  0 active torsions:
REMARK  status: ('A' for Active; 'I' for Inactive)
ROOT
ATOM      1  C4' PXY d   1      -3.777   6.000   1.132  0.00  0.00     0.077 C 
ATOM      2  C1' PXY d   1      -5.629   0.536   0.766  0.00  0.00     0.077 C 
ATOM      3  C1  PXY d   1      -5.132   1.965   0.866  0.00  0.00    -0.082 A 
ATOM      4  C2  PXY d   1      -5.996   2.945   1.071  0.00  0.00     0.003 A 
ATOM      5  C3  PXY d   1      -5.567   4.246   1.132  0.00  0.00     0.003 A 
ATOM      6  C4  PXY d   1      -4.233   4.541   1.034  0.00  0.00    -0.082 A 
ATOM      7  C5  PXY d   1      -3.344   3.545   0.835  0.00  0.00     0.003 A 
ATOM      8  C6  PXY d   1      -3.805   2.236   0.735  0.00  0.00     0.003 A 
ENDROOT
TORSDOF 0
ENDMDL
