MODEL 1
REMARK minimizedAffinity -1.93859375
REMARK minimizedRMSD -1
REMARK  0 active torsions:
REMARK  status: ('A' for Active; 'I' for Inactive)
ROOT
ATOM      1  C4' PXY d   1      -4.902   5.931  -6.000  0.00  0.00     0.077 C 
ATOM      2  C1' PXY d   1      -5.254   0.756  -3.449  0.00  0.00     0.077 C 
ATOM      3  C1  PXY d   1      -5.156   2.118  -4.107  0.00  0.00    -0.082 A 
ATOM      4  C2  PXY d   1      -5.999   2.439  -5.075  0.00  0.00     0.003 A 
ATOM      5  C3  PXY d   1      -5.904   3.654  -5.703  0.00  0.00     0.003 A 
ATOM      6  C4  PXY d   1      -4.970   4.571  -5.300  0.00  0.00    -0.082 A 
ATOM      7  C5  PXY d   1      -4.113   4.255  -4.306  0.00  0.00     0.003 A 
ATOM      8  C6  PXY d   1      -4.200   3.001  -3.710  0.00  0.00     0.003 A 
ENDROOT
TORSDOF 0
ENDMDL
