MODEL 1
REMARK minimizedAffinity 12.7816467
REMARK minimizedRMSD -1
REMARK  0 active torsions:
REMARK  status: ('A' for Active; 'I' for Inactive)
ROOT
ATOM      1  C4' PXY d   1      -1.141   1.576  -4.924  0.00  0.00     0.077 C 
ATOM      2  C1' PXY d   1      -5.256   5.517  -5.898  0.00  0.00     0.077 C 
ATOM      3  C1  PXY d   1      -4.186   4.474  -5.642  0.00  0.00    -0.082 A 
ATOM      4  C2  PXY d   1      -3.043   4.833  -5.079  0.00  0.00     0.003 A 
ATOM      5  C3  PXY d   1      -2.052   3.909  -4.870  0.00  0.00     0.003 A 
ATOM      6  C4  PXY d   1      -2.253   2.593  -5.192  0.00  0.00    -0.082 A 
ATOM      7  C5  PXY d   1      -3.420   2.217  -5.758  0.00  0.00     0.003 A 
ATOM      8  C6  PXY d   1      -4.397   3.178  -5.999  0.00  0.00     0.003 A 
ENDROOT
TORSDOF 0
ENDMDL
