MODEL 1
REMARK minimizedAffinity 8.73349094
REMARK minimizedRMSD -1
REMARK  0 active torsions:
REMARK  status: ('A' for Active; 'I' for Inactive)
ROOT
ATOM      1  C4' PXY d   1       1.897  -0.912   0.959  0.00  0.00     0.077 C 
ATOM      2  C1' PXY d   1       4.914  -2.141   5.734  0.00  0.00     0.077 C 
ATOM      3  C1  PXY d   1       4.112  -1.818   4.489  0.00  0.00    -0.082 A 
ATOM      4  C2  PXY d   1       4.571  -2.182   3.302  0.00  0.00     0.003 A 
ATOM      5  C3  PXY d   1       3.874  -1.870   2.163  0.00  0.00     0.003 A 
ATOM      6  C4  PXY d   1       2.669  -1.226   2.244  0.00  0.00    -0.082 A 
ATOM      7  C5  PXY d   1       2.188  -0.861   3.451  0.00  0.00     0.003 A 
ATOM      8  C6  PXY d   1       2.931  -1.150   4.592  0.00  0.00     0.003 A 
ENDROOT
TORSDOF 0
ENDMDL
