MODEL 1
REMARK minimizedAffinity 8.90346718
REMARK minimizedRMSD -1
REMARK  0 active torsions:
REMARK  status: ('A' for Active; 'I' for Inactive)
ROOT
ATOM      1  C4' PXY d   1       1.077   0.098   1.090  0.00  0.00     0.077 C 
ATOM      2  C1' PXY d   1       0.861   5.481  -1.005  0.00  0.00     0.077 C 
ATOM      3  C1  PXY d   1       0.906   4.066  -0.461  0.00  0.00    -0.082 A 
ATOM      4  C2  PXY d   1       1.678   3.790   0.578  0.00  0.00     0.003 A 
ATOM      5  C3  PXY d   1       1.755   2.509   1.063  0.00  0.00     0.003 A 
ATOM      6  C4  PXY d   1       0.993   1.513   0.513  0.00  0.00    -0.082 A 
ATOM      7  C5  PXY d   1       0.195   1.790  -0.540  0.00  0.00     0.003 A 
ATOM      8  C6  PXY d   1       0.163   3.087  -1.044  0.00  0.00     0.003 A 
ENDROOT
TORSDOF 0
ENDMDL
