MODEL 1
REMARK minimizedAffinity 1.12808585
REMARK minimizedRMSD -1
REMARK  0 active torsions:
REMARK  status: ('A' for Active; 'I' for Inactive)
ROOT
ATOM      1  C4' PXY d   1      -5.998   1.661  -3.234  0.00  0.00     0.077 C 
ATOM      2  C1' PXY d   1      -3.355   5.995  -6.000  0.00  0.00     0.077 C 
ATOM      3  C1  PXY d   1      -4.060   4.863  -5.277  0.00  0.00    -0.082 A 
ATOM      4  C2  PXY d   1      -3.413   4.176  -4.350  0.00  0.00     0.003 A 
ATOM      5  C3  PXY d   1      -4.025   3.129  -3.709  0.00  0.00     0.003 A 
ATOM      6  C4  PXY d   1      -5.329   2.817  -3.983  0.00  0.00    -0.082 A 
ATOM      7  C5  PXY d   1      -6.000   3.520  -4.920  0.00  0.00     0.003 A 
ATOM      8  C6  PXY d   1      -5.348   4.553  -5.588  0.00  0.00     0.003 A 
ENDROOT
TORSDOF 0
ENDMDL
