MODEL 1
REMARK minimizedAffinity -1.77627885
REMARK minimizedRMSD -1
REMARK  0 active torsions:
REMARK  status: ('A' for Active; 'I' for Inactive)
ROOT
ATOM      1  C   UNL d   1       0.398  -3.072   0.227  0.00  0.00     0.172 C 
ATOM      2  N   UNL d   1       0.252  -1.755  -0.347  0.00  0.00    -0.070 N 
ATOM      3  C1  UNL d   1       0.623  -1.391  -1.614  0.00  0.00    -0.004 A 
ATOM      4  C2  UNL d   1       0.317  -0.057  -1.776  0.00  0.00    -0.047 A 
ATOM      5  C3  UNL d   1      -0.256   0.396  -0.564  0.00  0.00    -0.047 A 
ATOM      6  C4  UNL d   1      -0.285  -0.676   0.303  0.00  0.00    -0.004 A 
ENDROOT
TORSDOF 0
ENDMDL
