MODEL 1
REMARK minimizedAffinity -2.66532111
REMARK minimizedRMSD -1
REMARK  0 active torsions:
REMARK  status: ('A' for Active; 'I' for Inactive)
ROOT
ATOM      1  C   UNL d   1       0.105  -0.644   0.351  0.00  0.00     0.172 C 
ATOM      2  N   UNL d   1       0.662   0.688   0.350  0.00  0.00    -0.070 N 
ATOM      3  C1  UNL d   1       1.871   1.048   0.882  0.00  0.00    -0.004 A 
ATOM      4  C2  UNL d   1       2.036   2.401   0.679  0.00  0.00    -0.047 A 
ATOM      5  C3  UNL d   1       0.885   2.871   0.003  0.00  0.00    -0.047 A 
ATOM      6  C4  UNL d   1       0.051   1.790  -0.189  0.00  0.00    -0.004 A 
ENDROOT
TORSDOF 0
ENDMDL
