MODEL 1
REMARK minimizedAffinity -2.79283357
REMARK minimizedRMSD -1
REMARK  0 active torsions:
REMARK  status: ('A' for Active; 'I' for Inactive)
ROOT
ATOM      1  C   UNL d   1      -0.444  -3.562   0.156  0.00  0.00     0.172 C 
ATOM      2  N   UNL d   1      -0.677  -2.186   0.529  0.00  0.00    -0.070 N 
ATOM      3  C1  UNL d   1      -1.660  -1.743   1.373  0.00  0.00    -0.004 A 
ATOM      4  C2  UNL d   1      -1.547  -0.373   1.470  0.00  0.00    -0.047 A 
ATOM      5  C3  UNL d   1      -0.459   0.021   0.655  0.00  0.00    -0.047 A 
ATOM      6  C4  UNL d   1       0.062  -1.121   0.084  0.00  0.00    -0.004 A 
ENDROOT
TORSDOF 0
ENDMDL
