MODEL 1
REMARK minimizedAffinity -1.66823363
REMARK minimizedRMSD -1
REMARK  0 active torsions:
REMARK  status: ('A' for Active; 'I' for Inactive)
ROOT
ATOM      1  C   UNL d   1       0.013  -0.711   1.126  0.00  0.00     0.172 C 
ATOM      2  N   UNL d   1       0.231   0.410   0.242  0.00  0.00    -0.070 N 
ATOM      3  C1  UNL d   1       0.704   1.640   0.614  0.00  0.00    -0.004 A 
ATOM      4  C2  UNL d   1       0.768   2.427  -0.516  0.00  0.00    -0.047 A 
ATOM      5  C3  UNL d   1       0.317   1.642  -1.605  0.00  0.00    -0.047 A 
ATOM      6  C4  UNL d   1      -0.009   0.399  -1.107  0.00  0.00    -0.004 A 
ENDROOT
TORSDOF 0
ENDMDL
