MODEL 1
REMARK minimizedAffinity -3.91377044
REMARK minimizedRMSD -1
REMARK  0 active torsions:
REMARK  status: ('A' for Active; 'I' for Inactive)
ROOT
ATOM      1  C   UNL d   1      -1.231  -0.089   0.819  0.00  0.00     0.172 C 
ATOM      2  N   UNL d   1      -0.657  -1.253   0.185  0.00  0.00    -0.070 N 
ATOM      3  C1  UNL d   1      -0.919  -2.555   0.519  0.00  0.00    -0.004 A 
ATOM      4  C2  UNL d   1      -0.179  -3.362  -0.317  0.00  0.00    -0.047 A 
ATOM      5  C3  UNL d   1       0.554  -2.516  -1.183  0.00  0.00    -0.047 A 
ATOM      6  C4  UNL d   1       0.239  -1.216  -0.851  0.00  0.00    -0.004 A 
ENDROOT
TORSDOF 0
ENDMDL
