MODEL 1
REMARK minimizedAffinity -3.63240886
REMARK minimizedRMSD -1
REMARK  0 active torsions:
REMARK  status: ('A' for Active; 'I' for Inactive)
ROOT
ATOM      1  C   UNL d   1      -0.778   0.298   0.009  0.00  0.00     0.172 C 
ATOM      2  N   UNL d   1      -0.592  -1.097  -0.317  0.00  0.00    -0.070 N 
ATOM      3  C1  UNL d   1      -0.482  -1.613  -1.580  0.00  0.00    -0.004 A 
ATOM      4  C2  UNL d   1      -0.316  -2.977  -1.466  0.00  0.00    -0.047 A 
ATOM      5  C3  UNL d   1      -0.328  -3.290  -0.086  0.00  0.00    -0.047 A 
ATOM      6  C4  UNL d   1      -0.501  -2.108   0.603  0.00  0.00    -0.004 A 
ENDROOT
TORSDOF 0
ENDMDL
