MODEL 1
REMARK minimizedAffinity -2.45440316
REMARK minimizedRMSD -1
REMARK  0 active torsions:
REMARK  status: ('A' for Active; 'I' for Inactive)
ROOT
ATOM      1  C   UNL d   1       0.969   3.249   0.122  0.00  0.00     0.172 C 
ATOM      2  N   UNL d   1       0.444   1.928  -0.132  0.00  0.00    -0.070 N 
ATOM      3  C1  UNL d   1       0.630   0.829   0.663  0.00  0.00    -0.004 A 
ATOM      4  C2  UNL d   1      -0.028  -0.231   0.078  0.00  0.00    -0.047 A 
ATOM      5  C3  UNL d   1      -0.631   0.248  -1.110  0.00  0.00    -0.047 A 
ATOM      6  C4  UNL d   1      -0.322   1.588  -1.215  0.00  0.00    -0.004 A 
ENDROOT
TORSDOF 0
ENDMDL
