MODEL 1
REMARK minimizedAffinity -2.72914362
REMARK minimizedRMSD -1
REMARK  0 active torsions:
REMARK  status: ('A' for Active; 'I' for Inactive)
ROOT
ATOM      1  C   UNL d   1       0.368  -2.010  -2.543  0.00  0.00     0.172 C 
ATOM      2  N   UNL d   1       0.113  -1.951  -1.123  0.00  0.00    -0.070 N 
ATOM      3  C1  UNL d   1      -0.270  -3.004  -0.336  0.00  0.00    -0.004 A 
ATOM      4  C2  UNL d   1      -0.409  -2.538   0.954  0.00  0.00    -0.047 A 
ATOM      5  C3  UNL d   1      -0.100  -1.157   0.941  0.00  0.00    -0.047 A 
ATOM      6  C4  UNL d   1       0.220  -0.820  -0.357  0.00  0.00    -0.004 A 
ENDROOT
TORSDOF 0
ENDMDL
