MODEL 1
REMARK minimizedAffinity -3.05016756
REMARK minimizedRMSD -1
REMARK  0 active torsions:
REMARK  status: ('A' for Active; 'I' for Inactive)
ROOT
ATOM      1  C   UNL d   1      -0.200  -0.068   0.143  0.00  0.00     0.172 C 
ATOM      2  N   UNL d   1      -0.211  -1.474  -0.188  0.00  0.00    -0.070 N 
ATOM      3  C1  UNL d   1      -0.646  -2.483   0.629  0.00  0.00    -0.004 A 
ATOM      4  C2  UNL d   1      -0.495  -3.672  -0.051  0.00  0.00    -0.047 A 
ATOM      5  C3  UNL d   1       0.051  -3.367  -1.321  0.00  0.00    -0.047 A 
ATOM      6  C4  UNL d   1       0.217  -1.999  -1.379  0.00  0.00    -0.004 A 
ENDROOT
TORSDOF 0
ENDMDL
