MODEL 1
REMARK minimizedAffinity -2.0733397
REMARK minimizedRMSD -1
REMARK  0 active torsions:
REMARK  status: ('A' for Active; 'I' for Inactive)
ROOT
ATOM      1  C   UNL d   1       0.028   1.093  -0.158  0.00  0.00     0.172 C 
ATOM      2  N   UNL d   1      -0.414  -0.270   0.020  0.00  0.00    -0.070 N 
ATOM      3  C1  UNL d   1      -0.496  -1.218  -0.965  0.00  0.00    -0.004 A 
ATOM      4  C2  UNL d   1      -0.959  -2.383  -0.392  0.00  0.00    -0.047 A 
ATOM      5  C3  UNL d   1      -1.164  -2.126   0.984  0.00  0.00    -0.047 A 
ATOM      6  C4  UNL d   1      -0.819  -0.810   1.212  0.00  0.00    -0.004 A 
ENDROOT
TORSDOF 0
ENDMDL
