MODEL 1
REMARK minimizedAffinity -3.34965038
REMARK minimizedRMSD -1
REMARK  0 active torsions:
REMARK  status: ('A' for Active; 'I' for Inactive)
ROOT
ATOM      1  C   UNL d   1      -0.406   0.182  -0.127  0.00  0.00     0.172 C 
ATOM      2  N   UNL d   1      -0.478  -1.018  -0.928  0.00  0.00    -0.070 N 
ATOM      3  C1  UNL d   1      -0.014  -1.152  -2.209  0.00  0.00    -0.004 A 
ATOM      4  C2  UNL d   1      -0.271  -2.442  -2.619  0.00  0.00    -0.047 A 
ATOM      5  C3  UNL d   1      -0.912  -3.107  -1.546  0.00  0.00    -0.047 A 
ATOM      6  C4  UNL d   1      -1.028  -2.202  -0.512  0.00  0.00    -0.004 A 
ENDROOT
TORSDOF 0
ENDMDL
