MODEL 1
REMARK minimizedAffinity -3.21702409
REMARK minimizedRMSD -1
REMARK  0 active torsions:
REMARK  status: ('A' for Active; 'I' for Inactive)
ROOT
ATOM      1  C   UNL d   1      -1.880   0.509   0.865  0.00  0.00     0.172 C 
ATOM      2  N   UNL d   1      -0.911  -0.561   0.909  0.00  0.00    -0.070 N 
ATOM      3  C1  UNL d   1      -1.190  -1.896   0.790  0.00  0.00    -0.004 A 
ATOM      4  C2  UNL d   1      -0.001  -2.586   0.883  0.00  0.00    -0.047 A 
ATOM      5  C3  UNL d   1       1.029  -1.632   1.066  0.00  0.00    -0.047 A 
ATOM      6  C4  UNL d   1       0.437  -0.387   1.078  0.00  0.00    -0.004 A 
ENDROOT
TORSDOF 0
ENDMDL
