MODEL 1
REMARK minimizedAffinity -1.18941033
REMARK minimizedRMSD -1
REMARK  0 active torsions:
REMARK  status: ('A' for Active; 'I' for Inactive)
ROOT
ATOM      1  C   UNL d   1       0.091  -1.040  -2.075  0.00  0.00     0.172 C 
ATOM      2  N   UNL d   1      -0.273  -0.858  -0.689  0.00  0.00    -0.070 N 
ATOM      3  C1  UNL d   1      -0.004   0.250   0.068  0.00  0.00    -0.004 A 
ATOM      4  C2  UNL d   1      -0.513   0.033   1.330  0.00  0.00    -0.047 A 
ATOM      5  C3  UNL d   1      -1.109  -1.251   1.331  0.00  0.00    -0.047 A 
ATOM      6  C4  UNL d   1      -0.946  -1.780   0.068  0.00  0.00    -0.004 A 
ENDROOT
TORSDOF 0
ENDMDL
