MODEL 1
REMARK minimizedAffinity -3.6530323
REMARK minimizedRMSD -1
REMARK  0 active torsions:
REMARK  status: ('A' for Active; 'I' for Inactive)
ROOT
ATOM      1  C   UNL d   1       0.071   0.759   0.015  0.00  0.00     0.172 C 
ATOM      2  N   UNL d   1      -0.110  -0.669   0.140  0.00  0.00    -0.070 N 
ATOM      3  C1  UNL d   1       0.362  -1.612  -0.733  0.00  0.00    -0.004 A 
ATOM      4  C2  UNL d   1      -0.019  -2.850  -0.262  0.00  0.00    -0.047 A 
ATOM      5  C3  UNL d   1      -0.746  -2.643   0.934  0.00  0.00    -0.047 A 
ATOM      6  C4  UNL d   1      -0.787  -1.284   1.160  0.00  0.00    -0.004 A 
ENDROOT
TORSDOF 0
ENDMDL
