MODEL 1
REMARK minimizedAffinity 1.19918084
REMARK minimizedRMSD -1
REMARK  0 active torsions:
REMARK  status: ('A' for Active; 'I' for Inactive)
ROOT
ATOM      1  C1  BNZ d   1       3.901   5.899   5.922  0.00  0.00     0.000 A 
ATOM      2  C2  BNZ d   1       5.270   5.892   5.953  0.00  0.00     0.000 A 
ATOM      3  C3  BNZ d   1       5.996   5.960   4.797  0.00  0.00     0.000 A 
ATOM      4  C4  BNZ d   1       5.354   5.995   3.611  0.00  0.00     0.000 A 
ATOM      5  C5  BNZ d   1       3.974   5.994   3.564  0.00  0.00     0.000 A 
ATOM      6  C6  BNZ d   1       3.246   5.965   4.731  0.00  0.00     0.000 A 
ENDROOT
TORSDOF 0
ENDMDL
