MODEL 1
REMARK minimizedAffinity 4.08662891
REMARK minimizedRMSD -1
REMARK  0 active torsions:
REMARK  status: ('A' for Active; 'I' for Inactive)
ROOT
ATOM      1  C1  BNZ d   1       1.146   2.597  -5.996  0.00  0.00     0.000 A 
ATOM      2  C2  BNZ d   1       0.664   3.879  -6.000  0.00  0.00     0.000 A 
ATOM      3  C3  BNZ d   1      -0.681   4.121  -5.978  0.00  0.00     0.000 A 
ATOM      4  C4  BNZ d   1      -1.542   3.084  -5.992  0.00  0.00     0.000 A 
ATOM      5  C5  BNZ d   1      -1.072   1.785  -5.998  0.00  0.00     0.000 A 
ATOM      6  C6  BNZ d   1       0.283   1.545  -5.981  0.00  0.00     0.000 A 
ENDROOT
TORSDOF 0
ENDMDL
