MODEL 1
REMARK minimizedAffinity 0.883743703
REMARK minimizedRMSD -1
REMARK  0 active torsions:
REMARK  status: ('A' for Active; 'I' for Inactive)
ROOT
ATOM      1  C1  BNZ d   1      -4.250  -2.633  -1.774  0.00  0.00     0.000 A 
ATOM      2  C2  BNZ d   1      -4.192  -3.401  -0.641  0.00  0.00     0.000 A 
ATOM      3  C3  BNZ d   1      -3.021  -3.992  -0.256  0.00  0.00     0.000 A 
ATOM      4  C4  BNZ d   1      -1.922  -3.849  -1.023  0.00  0.00     0.000 A 
ATOM      5  C5  BNZ d   1      -1.966  -3.086  -2.173  0.00  0.00     0.000 A 
ATOM      6  C6  BNZ d   1      -3.137  -2.460  -2.537  0.00  0.00     0.000 A 
ENDROOT
TORSDOF 0
ENDMDL
