MODEL 1
REMARK minimizedAffinity 0.26422593
REMARK minimizedRMSD -1
REMARK  0 active torsions:
REMARK  status: ('A' for Active; 'I' for Inactive)
ROOT
ATOM      1  C1  BNZ d   1      -3.606  -1.842   4.197  0.00  0.00     0.000 A 
ATOM      2  C2  BNZ d   1      -4.864  -2.291   4.499  0.00  0.00     0.000 A 
ATOM      3  C3  BNZ d   1      -5.867  -2.243   3.571  0.00  0.00     0.000 A 
ATOM      4  C4  BNZ d   1      -5.621  -1.710   2.357  0.00  0.00     0.000 A 
ATOM      5  C5  BNZ d   1      -4.360  -1.245   2.040  0.00  0.00     0.000 A 
ATOM      6  C6  BNZ d   1      -3.344  -1.330   2.964  0.00  0.00     0.000 A 
ENDROOT
TORSDOF 0
ENDMDL
