MODEL 1
REMARK minimizedAffinity 3.28692865
REMARK minimizedRMSD -1
REMARK  0 active torsions:
REMARK  status: ('A' for Active; 'I' for Inactive)
ROOT
ATOM      1  C1  BNZ d   1      -2.184  -5.423   1.887  0.00  0.00     0.000 A 
ATOM      2  C2  BNZ d   1      -3.105  -5.408   0.874  0.00  0.00     0.000 A 
ATOM      3  C3  BNZ d   1      -3.314  -4.277   0.135  0.00  0.00     0.000 A 
ATOM      4  C4  BNZ d   1      -2.632  -3.153   0.435  0.00  0.00     0.000 A 
ATOM      5  C5  BNZ d   1      -1.707  -3.150   1.460  0.00  0.00     0.000 A 
ATOM      6  C6  BNZ d   1      -1.471  -4.301   2.177  0.00  0.00     0.000 A 
ENDROOT
TORSDOF 0
ENDMDL
