MODEL 1
REMARK minimizedAffinity 3.28150749
REMARK minimizedRMSD -1
REMARK  0 active torsions:
REMARK  status: ('A' for Active; 'I' for Inactive)
ROOT
ATOM      1  C1  BNZ d   1      -2.477   3.036  -5.369  0.00  0.00     0.000 A 
ATOM      2  C2  BNZ d   1      -1.542   3.813  -5.998  0.00  0.00     0.000 A 
ATOM      3  C3  BNZ d   1      -0.222   3.457  -6.000  0.00  0.00     0.000 A 
ATOM      4  C4  BNZ d   1       0.165   2.347  -5.340  0.00  0.00     0.000 A 
ATOM      5  C5  BNZ d   1      -0.765   1.557  -4.693  0.00  0.00     0.000 A 
ATOM      6  C6  BNZ d   1      -2.097   1.898  -4.726  0.00  0.00     0.000 A 
ENDROOT
TORSDOF 0
ENDMDL
