MODEL 1
REMARK minimizedAffinity 0.817201972
REMARK minimizedRMSD -1
REMARK  0 active torsions:
REMARK  status: ('A' for Active; 'I' for Inactive)
ROOT
ATOM      1  C1  BNZ d   1      -0.362   3.374  -6.000  0.00  0.00     0.000 A 
ATOM      2  C2  BNZ d   1       0.802   2.653  -5.997  0.00  0.00     0.000 A 
ATOM      3  C3  BNZ d   1       1.273   2.089  -4.844  0.00  0.00     0.000 A 
ATOM      4  C4  BNZ d   1       0.601   2.280  -3.690  0.00  0.00     0.000 A 
ATOM      5  C5  BNZ d   1      -0.569   3.013  -3.675  0.00  0.00     0.000 A 
ATOM      6  C6  BNZ d   1      -1.060   3.546  -4.845  0.00  0.00     0.000 A 
ENDROOT
TORSDOF 0
ENDMDL
