MODEL 1
REMARK minimizedAffinity -1.310233
REMARK minimizedRMSD -1
REMARK  0 active torsions:
REMARK  status: ('A' for Active; 'I' for Inactive)
ROOT
ATOM      1  C1  BNZ d   1       2.236  -1.361   0.358  0.00  0.00     0.000 A 
ATOM      2  C2  BNZ d   1       1.351  -2.011   1.177  0.00  0.00     0.000 A 
ATOM      3  C3  BNZ d   1       1.167  -3.361   1.076  0.00  0.00     0.000 A 
ATOM      4  C4  BNZ d   1       1.837  -4.053   0.132  0.00  0.00     0.000 A 
ATOM      5  C5  BNZ d   1       2.726  -3.411  -0.707  0.00  0.00     0.000 A 
ATOM      6  C6  BNZ d   1       2.938  -2.058  -0.577  0.00  0.00     0.000 A 
ENDROOT
TORSDOF 0
ENDMDL
