MODEL 1
REMARK minimizedAffinity -2.85455918
REMARK minimizedRMSD -1
REMARK  0 active torsions:
REMARK  status: ('A' for Active; 'I' for Inactive)
ROOT
ATOM      1  C1  BNZ d   1      -4.090   2.284   0.634  0.00  0.00     0.000 A 
ATOM      2  C2  BNZ d   1      -3.000   2.422   1.453  0.00  0.00     0.000 A 
ATOM      3  C3  BNZ d   1      -2.527   1.362   2.173  0.00  0.00     0.000 A 
ATOM      4  C4  BNZ d   1      -3.167   0.176   2.107  0.00  0.00     0.000 A 
ATOM      5  C5  BNZ d   1      -4.273   0.024   1.293  0.00  0.00     0.000 A 
ATOM      6  C6  BNZ d   1      -4.722   1.083   0.539  0.00  0.00     0.000 A 
ENDROOT
TORSDOF 0
ENDMDL
