MODEL 1
REMARK minimizedAffinity -1.26703691
REMARK minimizedRMSD -1
REMARK  0 active torsions:
REMARK  status: ('A' for Active; 'I' for Inactive)
ROOT
ATOM      1  C1  BNZ d   1      -2.257   1.738   1.958  0.00  0.00     0.000 A 
ATOM      2  C2  BNZ d   1      -3.363   2.384   1.474  0.00  0.00     0.000 A 
ATOM      3  C3  BNZ d   1      -4.446   1.680   1.028  0.00  0.00     0.000 A 
ATOM      4  C4  BNZ d   1      -4.406   0.332   1.028  0.00  0.00     0.000 A 
ATOM      5  C5  BNZ d   1      -3.295  -0.335   1.504  0.00  0.00     0.000 A 
ATOM      6  C6  BNZ d   1      -2.222   0.378   1.988  0.00  0.00     0.000 A 
ENDROOT
TORSDOF 0
ENDMDL
