MODEL 1
REMARK minimizedAffinity 0.909190595
REMARK minimizedRMSD -1
REMARK  0 active torsions:
REMARK  status: ('A' for Active; 'I' for Inactive)
ROOT
ATOM      1  C1  BNZ d   1       5.244   5.855   5.936  0.00  0.00     0.000 A 
ATOM      2  C2  BNZ d   1       6.000   5.899   4.795  0.00  0.00     0.000 A 
ATOM      3  C3  BNZ d   1       5.408   5.989   3.566  0.00  0.00     0.000 A 
ATOM      4  C4  BNZ d   1       4.062   5.995   3.477  0.00  0.00     0.000 A 
ATOM      5  C5  BNZ d   1       3.286   5.941   4.618  0.00  0.00     0.000 A 
ATOM      6  C6  BNZ d   1       3.886   5.890   5.855  0.00  0.00     0.000 A 
ENDROOT
TORSDOF 0
ENDMDL
