MODEL 1
REMARK minimizedAffinity -3.80941582
REMARK minimizedRMSD -1
REMARK  0 active torsions:
REMARK  status: ('A' for Active; 'I' for Inactive)
ROOT
ATOM      1  C1  BNZ d   1      -3.710   1.569   0.412  0.00  0.00     0.000 A 
ATOM      2  C2  BNZ d   1      -2.849   2.048  -0.539  0.00  0.00     0.000 A 
ATOM      3  C3  BNZ d   1      -1.520   1.728  -0.504  0.00  0.00     0.000 A 
ATOM      4  C4  BNZ d   1      -1.048   0.965   0.502  0.00  0.00     0.000 A 
ATOM      5  C5  BNZ d   1      -1.902   0.482   1.474  0.00  0.00     0.000 A 
ATOM      6  C6  BNZ d   1      -3.246   0.774   1.414  0.00  0.00     0.000 A 
ENDROOT
TORSDOF 0
ENDMDL
