MODEL 1
REMARK minimizedAffinity 0.188026741
REMARK minimizedRMSD -1
REMARK  0 active torsions:
REMARK  status: ('A' for Active; 'I' for Inactive)
ROOT
ATOM      1  C1  BNZ d   1      -2.448   5.284  -6.000  0.00  0.00     0.000 A 
ATOM      2  C2  BNZ d   1      -3.769   4.925  -5.999  0.00  0.00     0.000 A 
ATOM      3  C3  BNZ d   1      -4.137   3.609  -5.974  0.00  0.00     0.000 A 
ATOM      4  C4  BNZ d   1      -3.185   2.654  -5.990  0.00  0.00     0.000 A 
ATOM      5  C5  BNZ d   1      -1.848   3.000  -6.000  0.00  0.00     0.000 A 
ATOM      6  C6  BNZ d   1      -1.481   4.326  -5.986  0.00  0.00     0.000 A 
ENDROOT
TORSDOF 0
ENDMDL
