MODEL 1
REMARK minimizedAffinity 5.20134211
REMARK minimizedRMSD -1
REMARK  0 active torsions:
REMARK  status: ('A' for Active; 'I' for Inactive)
ROOT
ATOM      1  C   UNL d   1      -3.360  -1.722  -2.924  0.00  0.00     0.078 C 
ATOM      2  C1  UNL d   1      -2.929  -0.516  -2.143  0.00  0.00    -0.077 A 
ATOM      3  C2  UNL d   1      -3.324   0.771  -2.527  0.00  0.00    -0.001 A 
ATOM      4  C3  UNL d   1      -2.908   1.885  -1.797  0.00  0.00     0.003 A 
ATOM      5  C4  UNL d   1      -2.093   1.723  -0.678  0.00  0.00    -0.005 A 
ATOM      6  C5  UNL d   1      -1.693   0.446  -0.289  0.00  0.00     0.003 A 
ATOM      7  C6  UNL d   1      -2.109  -0.669  -1.018  0.00  0.00    -0.001 A 
ENDROOT
TORSDOF 0
ENDMDL
