MODEL 1
REMARK minimizedAffinity 4.08479309
REMARK minimizedRMSD -1
REMARK  0 active torsions:
REMARK  status: ('A' for Active; 'I' for Inactive)
ROOT
ATOM      1  C   UNL d   1      -3.780   5.729   4.334  0.00  0.00     0.078 C 
ATOM      2  C1  UNL d   1      -3.606   4.745   3.216  0.00  0.00    -0.077 A 
ATOM      3  C2  UNL d   1      -2.349   4.202   2.922  0.00  0.00    -0.001 A 
ATOM      4  C3  UNL d   1      -2.200   3.294   1.872  0.00  0.00     0.003 A 
ATOM      5  C4  UNL d   1      -3.304   2.923   1.106  0.00  0.00    -0.005 A 
ATOM      6  C5  UNL d   1      -4.558   3.460   1.389  0.00  0.00     0.003 A 
ATOM      7  C6  UNL d   1      -4.708   4.368   2.439  0.00  0.00    -0.001 A 
ENDROOT
TORSDOF 0
ENDMDL
