MODEL 1
REMARK minimizedAffinity 4.13232136
REMARK minimizedRMSD -1
REMARK  0 active torsions:
REMARK  status: ('A' for Active; 'I' for Inactive)
ROOT
ATOM      1  C   UNL d   1       2.485  -0.601   1.546  0.00  0.00     0.078 C 
ATOM      2  C1  UNL d   1       2.115  -1.936   2.119  0.00  0.00    -0.077 A 
ATOM      3  C2  UNL d   1       1.162  -2.044   3.139  0.00  0.00    -0.001 A 
ATOM      4  C3  UNL d   1       0.834  -3.293   3.670  0.00  0.00     0.003 A 
ATOM      5  C4  UNL d   1       1.455  -4.443   3.187  0.00  0.00    -0.005 A 
ATOM      6  C5  UNL d   1       2.406  -4.345   2.173  0.00  0.00     0.003 A 
ATOM      7  C6  UNL d   1       2.735  -3.097   1.642  0.00  0.00    -0.001 A 
ENDROOT
TORSDOF 0
ENDMDL
