MODEL 1
REMARK minimizedAffinity -0.468063921
REMARK minimizedRMSD -1
REMARK  0 active torsions:
REMARK  status: ('A' for Active; 'I' for Inactive)
ROOT
ATOM      1  C   UNL d   1       2.461  -0.187   1.859  0.00  0.00     0.078 C 
ATOM      2  C1  UNL d   1       2.297  -1.380   2.752  0.00  0.00    -0.077 A 
ATOM      3  C2  UNL d   1       2.066  -1.227   4.125  0.00  0.00    -0.001 A 
ATOM      4  C3  UNL d   1       1.925  -2.347   4.946  0.00  0.00     0.003 A 
ATOM      5  C4  UNL d   1       2.013  -3.628   4.404  0.00  0.00    -0.005 A 
ATOM      6  C5  UNL d   1       2.244  -3.790   3.040  0.00  0.00     0.003 A 
ATOM      7  C6  UNL d   1       2.386  -2.671   2.217  0.00  0.00    -0.001 A 
ENDROOT
TORSDOF 0
ENDMDL
