MODEL 1
REMARK minimizedAffinity 8.44320393
REMARK minimizedRMSD -1
REMARK  0 active torsions:
REMARK  status: ('A' for Active; 'I' for Inactive)
ROOT
ATOM      1  C   UNL d   1       1.739  -5.127   2.909  0.00  0.00     0.078 C 
ATOM      2  C1  UNL d   1       1.778  -3.629   2.850  0.00  0.00    -0.077 A 
ATOM      3  C2  UNL d   1       0.693  -2.861   3.290  0.00  0.00    -0.001 A 
ATOM      4  C3  UNL d   1       0.739  -1.468   3.220  0.00  0.00     0.003 A 
ATOM      5  C4  UNL d   1       1.868  -0.830   2.709  0.00  0.00    -0.005 A 
ATOM      6  C5  UNL d   1       2.952  -1.586   2.267  0.00  0.00     0.003 A 
ATOM      7  C6  UNL d   1       2.907  -2.979   2.336  0.00  0.00    -0.001 A 
ENDROOT
TORSDOF 0
ENDMDL
