MODEL 1
REMARK minimizedAffinity -2.66749144
REMARK minimizedRMSD -1
REMARK  0 active torsions:
REMARK  status: ('A' for Active; 'I' for Inactive)
ROOT
ATOM      1  C   UNL d   1       5.987  -5.979   2.594  0.00  0.00     0.078 C 
ATOM      2  C1  UNL d   1       5.711  -4.941   3.640  0.00  0.00    -0.077 A 
ATOM      3  C2  UNL d   1       5.531  -3.596   3.293  0.00  0.00    -0.001 A 
ATOM      4  C3  UNL d   1       5.284  -2.640   4.279  0.00  0.00     0.003 A 
ATOM      5  C4  UNL d   1       5.217  -3.017   5.619  0.00  0.00    -0.005 A 
ATOM      6  C5  UNL d   1       5.397  -4.352   5.974  0.00  0.00     0.003 A 
ATOM      7  C6  UNL d   1       5.643  -5.310   4.990  0.00  0.00    -0.001 A 
ENDROOT
TORSDOF 0
ENDMDL
