MODEL 1
REMARK minimizedAffinity -3.27189326
REMARK minimizedRMSD -1
REMARK  0 active torsions:
REMARK  status: ('A' for Active; 'I' for Inactive)
ROOT
ATOM      1  C   UNL d   1       5.992  -2.817   2.006  0.00  0.00     0.078 C 
ATOM      2  C1  UNL d   1       5.612  -3.384   3.341  0.00  0.00    -0.077 A 
ATOM      3  C2  UNL d   1       5.333  -2.545   4.427  0.00  0.00    -0.001 A 
ATOM      4  C3  UNL d   1       4.989  -3.087   5.667  0.00  0.00     0.003 A 
ATOM      5  C4  UNL d   1       4.923  -4.468   5.833  0.00  0.00    -0.005 A 
ATOM      6  C5  UNL d   1       5.200  -5.311   4.758  0.00  0.00     0.003 A 
ATOM      7  C6  UNL d   1       5.544  -4.771   3.518  0.00  0.00    -0.001 A 
ENDROOT
TORSDOF 0
ENDMDL
