MODEL 1
REMARK minimizedAffinity -3.19898248
REMARK minimizedRMSD -1
REMARK  0 active torsions:
REMARK  status: ('A' for Active; 'I' for Inactive)
ROOT
ATOM      1  C   UNL d   1       6.000  -2.231   2.196  0.00  0.00     0.078 C 
ATOM      2  C1  UNL d   1       5.728  -2.947   3.485  0.00  0.00    -0.077 A 
ATOM      3  C2  UNL d   1       5.192  -4.240   3.493  0.00  0.00    -0.001 A 
ATOM      4  C3  UNL d   1       4.935  -4.891   4.702  0.00  0.00     0.003 A 
ATOM      5  C4  UNL d   1       5.210  -4.255   5.911  0.00  0.00    -0.005 A 
ATOM      6  C5  UNL d   1       5.742  -2.967   5.913  0.00  0.00     0.003 A 
ATOM      7  C6  UNL d   1       5.999  -2.315   4.706  0.00  0.00    -0.001 A 
ENDROOT
TORSDOF 0
ENDMDL
