MODEL 1
REMARK minimizedAffinity -3.23236322
REMARK minimizedRMSD -1
REMARK  0 active torsions:
REMARK  status: ('A' for Active; 'I' for Inactive)
ROOT
ATOM      1  C   UNL d   1       6.000  -5.522   3.067  0.00  0.00     0.078 C 
ATOM      2  C1  UNL d   1       5.837  -4.240   3.828  0.00  0.00    -0.077 A 
ATOM      3  C2  UNL d   1       6.000  -3.001   3.197  0.00  0.00    -0.001 A 
ATOM      4  C3  UNL d   1       5.854  -1.816   3.919  0.00  0.00     0.003 A 
ATOM      5  C4  UNL d   1       5.546  -1.859   5.278  0.00  0.00    -0.005 A 
ATOM      6  C5  UNL d   1       5.385  -3.087   5.915  0.00  0.00     0.003 A 
ATOM      7  C6  UNL d   1       5.530  -4.273   5.194  0.00  0.00    -0.001 A 
ENDROOT
TORSDOF 0
ENDMDL
