MODEL 1
REMARK minimizedAffinity -1.86401463
REMARK minimizedRMSD -1
REMARK  0 active torsions:
REMARK  status: ('A' for Active; 'I' for Inactive)
ROOT
ATOM      1  C   UNL d   1       3.380  -5.349   4.693  0.00  0.00     0.078 C 
ATOM      2  C1  UNL d   1       4.240  -4.401   3.912  0.00  0.00    -0.077 A 
ATOM      3  C2  UNL d   1       5.200  -4.873   3.009  0.00  0.00    -0.001 A 
ATOM      4  C3  UNL d   1       6.000  -3.979   2.297  0.00  0.00     0.003 A 
ATOM      5  C4  UNL d   1       5.849  -2.606   2.481  0.00  0.00    -0.005 A 
ATOM      6  C5  UNL d   1       4.898  -2.126   3.379  0.00  0.00     0.003 A 
ATOM      7  C6  UNL d   1       4.097  -3.019   4.092  0.00  0.00    -0.001 A 
ENDROOT
TORSDOF 0
ENDMDL
