MODEL 1
REMARK minimizedAffinity -3.51151705
REMARK minimizedRMSD -1
REMARK  0 active torsions:
REMARK  status: ('A' for Active; 'I' for Inactive)
ROOT
ATOM      1  C   UNL d   1       6.000  -5.586   2.602  0.00  0.00     0.078 C 
ATOM      2  C1  UNL d   1       5.472  -4.712   3.700  0.00  0.00    -0.077 A 
ATOM      3  C2  UNL d   1       5.510  -3.316   3.591  0.00  0.00    -0.001 A 
ATOM      4  C3  UNL d   1       5.024  -2.514   4.625  0.00  0.00     0.003 A 
ATOM      5  C4  UNL d   1       4.499  -3.099   5.776  0.00  0.00    -0.005 A 
ATOM      6  C5  UNL d   1       4.459  -4.486   5.894  0.00  0.00     0.003 A 
ATOM      7  C6  UNL d   1       4.944  -5.290   4.861  0.00  0.00    -0.001 A 
ENDROOT
TORSDOF 0
ENDMDL
