MODEL 1
REMARK minimizedAffinity -3.60744429
REMARK minimizedRMSD -1
REMARK  0 active torsions:
REMARK  status: ('A' for Active; 'I' for Inactive)
ROOT
ATOM      1  C   UNL d   1       5.900  -2.203   1.769  0.00  0.00     0.078 C 
ATOM      2  C1  UNL d   1       5.626  -3.045   2.979  0.00  0.00    -0.077 A 
ATOM      3  C2  UNL d   1       5.068  -2.486   4.135  0.00  0.00    -0.001 A 
ATOM      4  C3  UNL d   1       4.828  -3.280   5.258  0.00  0.00     0.003 A 
ATOM      5  C4  UNL d   1       5.144  -4.637   5.236  0.00  0.00    -0.005 A 
ATOM      6  C5  UNL d   1       5.702  -5.202   4.091  0.00  0.00     0.003 A 
ATOM      7  C6  UNL d   1       5.943  -4.409   2.967  0.00  0.00    -0.001 A 
ENDROOT
TORSDOF 0
ENDMDL
