MODEL 1
REMARK minimizedAffinity -2.29089761
REMARK minimizedRMSD -1
REMARK  0 active torsions:
REMARK  status: ('A' for Active; 'I' for Inactive)
ROOT
ATOM      1  C   UNL d   1       5.495  -5.465   5.990  0.00  0.00     0.078 C 
ATOM      2  C1  UNL d   1       5.663  -4.162   5.268  0.00  0.00    -0.077 A 
ATOM      3  C2  UNL d   1       5.669  -4.109   3.869  0.00  0.00    -0.001 A 
ATOM      4  C3  UNL d   1       5.837  -2.890   3.209  0.00  0.00     0.003 A 
ATOM      5  C4  UNL d   1       6.000  -1.715   3.941  0.00  0.00    -0.005 A 
ATOM      6  C5  UNL d   1       5.997  -1.759   5.333  0.00  0.00     0.003 A 
ATOM      7  C6  UNL d   1       5.830  -2.976   5.995  0.00  0.00    -0.001 A 
ENDROOT
TORSDOF 0
ENDMDL
