MODEL 1
REMARK minimizedAffinity -3.06808138
REMARK minimizedRMSD -1
REMARK  0 active torsions:
REMARK  status: ('A' for Active; 'I' for Inactive)
ROOT
ATOM      1  C   UNL d   1       6.000  -2.377   4.101  0.00  0.00     0.078 C 
ATOM      2  C1  UNL d   1       5.875  -3.602   3.244  0.00  0.00    -0.077 A 
ATOM      3  C2  UNL d   1       5.703  -4.868   3.816  0.00  0.00    -0.001 A 
ATOM      4  C3  UNL d   1       5.598  -6.000   3.006  0.00  0.00     0.003 A 
ATOM      5  C4  UNL d   1       5.665  -5.877   1.620  0.00  0.00    -0.005 A 
ATOM      6  C5  UNL d   1       5.838  -4.622   1.041  0.00  0.00     0.003 A 
ATOM      7  C6  UNL d   1       5.943  -3.488   1.849  0.00  0.00    -0.001 A 
ENDROOT
TORSDOF 0
ENDMDL
