MODEL 1
REMARK minimizedAffinity -3.83028817
REMARK minimizedRMSD -1
REMARK  0 active torsions:
REMARK  status: ('A' for Active; 'I' for Inactive)
ROOT
ATOM      1  C   UNL d   1       5.993  -4.141   1.399  0.00  0.00     0.078 C 
ATOM      2  C1  UNL d   1       5.744  -4.087   2.876  0.00  0.00    -0.077 A 
ATOM      3  C2  UNL d   1       5.269  -2.919   3.486  0.00  0.00    -0.001 A 
ATOM      4  C3  UNL d   1       5.052  -2.881   4.864  0.00  0.00     0.003 A 
ATOM      5  C4  UNL d   1       5.307  -4.007   5.645  0.00  0.00    -0.005 A 
ATOM      6  C5  UNL d   1       5.781  -5.173   5.047  0.00  0.00     0.003 A 
ATOM      7  C6  UNL d   1       6.000  -5.213   3.669  0.00  0.00    -0.001 A 
ENDROOT
TORSDOF 0
ENDMDL
