MODEL 1
REMARK minimizedAffinity -2.83150244
REMARK minimizedRMSD -1
REMARK  0 active torsions:
REMARK  status: ('A' for Active; 'I' for Inactive)
ROOT
ATOM      1  C   UNL d   1       5.955  -2.676   2.700  0.00  0.00     0.078 C 
ATOM      2  C1  UNL d   1       5.366  -3.430   3.854  0.00  0.00    -0.077 A 
ATOM      3  C2  UNL d   1       6.000  -4.566   4.373  0.00  0.00    -0.001 A 
ATOM      4  C3  UNL d   1       5.435  -5.264   5.441  0.00  0.00     0.003 A 
ATOM      5  C4  UNL d   1       4.232  -4.836   5.999  0.00  0.00    -0.005 A 
ATOM      6  C5  UNL d   1       3.593  -3.708   5.489  0.00  0.00     0.003 A 
ATOM      7  C6  UNL d   1       4.156  -3.008   4.421  0.00  0.00    -0.001 A 
ENDROOT
TORSDOF 0
ENDMDL
