MODEL 1
REMARK minimizedAffinity -3.54027534
REMARK minimizedRMSD -1
REMARK  0 active torsions:
REMARK  status: ('A' for Active; 'I' for Inactive)
ROOT
ATOM      1  C   UNL d   1       5.623  -5.996   2.990  0.00  0.00     0.078 C 
ATOM      2  C1  UNL d   1       5.363  -4.797   3.852  0.00  0.00    -0.077 A 
ATOM      3  C2  UNL d   1       5.710  -3.511   3.422  0.00  0.00    -0.001 A 
ATOM      4  C3  UNL d   1       5.471  -2.405   4.239  0.00  0.00     0.003 A 
ATOM      5  C4  UNL d   1       4.884  -2.574   5.492  0.00  0.00    -0.005 A 
ATOM      6  C5  UNL d   1       4.537  -3.850   5.929  0.00  0.00     0.003 A 
ATOM      7  C6  UNL d   1       4.776  -4.958   5.113  0.00  0.00    -0.001 A 
ENDROOT
TORSDOF 0
ENDMDL
