MODEL 1
REMARK minimizedAffinity -3.66926193
REMARK minimizedRMSD -1
REMARK  0 active torsions:
REMARK  status: ('A' for Active; 'I' for Inactive)
ROOT
ATOM      1  C   UNL d   1       5.341  -2.477   1.783  0.00  0.00     0.078 C 
ATOM      2  C1  UNL d   1       5.295  -3.079   3.156  0.00  0.00    -0.077 A 
ATOM      3  C2  UNL d   1       5.334  -4.467   3.337  0.00  0.00    -0.001 A 
ATOM      4  C3  UNL d   1       5.281  -5.013   4.620  0.00  0.00     0.003 A 
ATOM      5  C4  UNL d   1       5.187  -4.179   5.733  0.00  0.00    -0.005 A 
ATOM      6  C5  UNL d   1       5.146  -2.797   5.562  0.00  0.00     0.003 A 
ATOM      7  C6  UNL d   1       5.199  -2.249   4.280  0.00  0.00    -0.001 A 
ENDROOT
TORSDOF 0
ENDMDL
