MODEL 1
REMARK minimizedAffinity -1.9454006
REMARK minimizedRMSD -1
REMARK  0 active torsions:
REMARK  status: ('A' for Active; 'I' for Inactive)
ROOT
ATOM      1  C   UNL d   1       5.999  -2.623   1.830  0.00  0.00     0.078 C 
ATOM      2  C1  UNL d   1       6.000  -3.230   3.201  0.00  0.00    -0.077 A 
ATOM      3  C2  UNL d   1       5.996  -4.620   3.374  0.00  0.00    -0.001 A 
ATOM      4  C3  UNL d   1       5.987  -5.171   4.656  0.00  0.00     0.003 A 
ATOM      5  C4  UNL d   1       5.980  -4.341   5.775  0.00  0.00    -0.005 A 
ATOM      6  C5  UNL d   1       5.982  -2.957   5.613  0.00  0.00     0.003 A 
ATOM      7  C6  UNL d   1       5.991  -2.404   4.332  0.00  0.00    -0.001 A 
ENDROOT
TORSDOF 0
ENDMDL
