MODEL 1
REMARK minimizedAffinity -1.55947709
REMARK minimizedRMSD -1
REMARK  0 active torsions:
REMARK  status: ('A' for Active; 'I' for Inactive)
ROOT
ATOM      1  C   UNL d   1       6.000  -1.964   5.111  0.00  0.00     0.078 C 
ATOM      2  C1  UNL d   1       5.480  -3.367   5.021  0.00  0.00    -0.077 A 
ATOM      3  C2  UNL d   1       5.796  -4.318   6.000  0.00  0.00    -0.001 A 
ATOM      4  C3  UNL d   1       5.312  -5.623   5.898  0.00  0.00     0.003 A 
ATOM      5  C4  UNL d   1       4.511  -5.991   4.819  0.00  0.00    -0.005 A 
ATOM      6  C5  UNL d   1       4.192  -5.052   3.840  0.00  0.00     0.003 A 
ATOM      7  C6  UNL d   1       4.675  -3.746   3.939  0.00  0.00    -0.001 A 
ENDROOT
TORSDOF 0
ENDMDL
