MODEL 1
REMARK minimizedAffinity -3.47828293
REMARK minimizedRMSD -1
REMARK  0 active torsions:
REMARK  status: ('A' for Active; 'I' for Inactive)
ROOT
ATOM      1  C   UNL d   1       5.995  -2.220   2.150  0.00  0.00     0.078 C 
ATOM      2  C1  UNL d   1       5.570  -3.183   3.218  0.00  0.00    -0.077 A 
ATOM      3  C2  UNL d   1       5.259  -2.739   4.509  0.00  0.00    -0.001 A 
ATOM      4  C3  UNL d   1       4.874  -3.648   5.495  0.00  0.00     0.003 A 
ATOM      5  C4  UNL d   1       4.796  -5.008   5.201  0.00  0.00    -0.005 A 
ATOM      6  C5  UNL d   1       5.106  -5.460   3.920  0.00  0.00     0.003 A 
ATOM      7  C6  UNL d   1       5.491  -4.552   2.932  0.00  0.00    -0.001 A 
ENDROOT
TORSDOF 0
ENDMDL
