MODEL 1
REMARK minimizedAffinity 3.39125919
REMARK minimizedRMSD -1
REMARK  1 active torsions:
REMARK  status: ('A' for Active; 'I' for Inactive)
REMARK    1  A    between atoms: C1_2  and  C2_3 
ROOT
ATOM      1  C2  UNL d   1       0.311  -1.358  -0.813  0.00  0.00    -0.081 A 
ATOM      2  C3  UNL d   1       1.467  -1.063  -0.080  0.00  0.00     0.006 A 
ATOM      3  C4  UNL d   1       1.400  -0.241   1.048  0.00  0.00     0.002 A 
ATOM      4  C5  UNL d   1       0.176   0.292   1.466  0.00  0.00    -0.080 A 
ATOM      5  C6  UNL d   1       0.085   1.151   2.692  0.00  0.00     0.076 C 
ATOM      6  C7  UNL d   1      -0.976   0.012   0.723  0.00  0.00     0.002 A 
ATOM      7  C8  UNL d   1      -0.910  -0.809  -0.405  0.00  0.00     0.006 A 
ENDROOT
BRANCH   1   8
ATOM      8  C1  UNL d   1       0.370  -2.295  -1.992  0.00  0.00     0.054 C 
ATOM      9  C   UNL d   1      -0.523  -3.509  -1.778  0.00  0.00     0.018 C 
ENDBRANCH   1   8
TORSDOF 1
ENDMDL
