MODEL 1
REMARK minimizedAffinity -5.22642803
REMARK minimizedRMSD -1
REMARK  1 active torsions:
REMARK  status: ('A' for Active; 'I' for Inactive)
REMARK    1  A    between atoms: C1_2  and  C2_3 
ROOT
ATOM      1  C2  UNL d   1      -2.290  -0.516   0.285  0.00  0.00    -0.081 A 
ATOM      2  C3  UNL d   1      -2.367   0.022   1.575  0.00  0.00     0.006 A 
ATOM      3  C4  UNL d   1      -1.224   0.523   2.203  0.00  0.00     0.002 A 
ATOM      4  C5  UNL d   1       0.012   0.502   1.549  0.00  0.00    -0.080 A 
ATOM      5  C6  UNL d   1       1.241   1.065   2.200  0.00  0.00     0.076 C 
ATOM      6  C7  UNL d   1       0.093  -0.051   0.266  0.00  0.00     0.002 A 
ATOM      7  C8  UNL d   1      -1.049  -0.553  -0.362  0.00  0.00     0.006 A 
ENDROOT
BRANCH   1   8
ATOM      8  C1  UNL d   1      -3.532  -0.998  -0.420  0.00  0.00     0.054 C 
ATOM      9  C   UNL d   1      -3.366  -2.427  -0.917  0.00  0.00     0.018 C 
ENDBRANCH   1   8
TORSDOF 1
ENDMDL
