MODEL 1
REMARK minimizedAffinity -5.59970951
REMARK minimizedRMSD -1
REMARK  1 active torsions:
REMARK  status: ('A' for Active; 'I' for Inactive)
REMARK    1  A    between atoms: C1_2  and  C2_3 
ROOT
ATOM      1  C2  UNL d   1      -0.752  -1.239  -0.379  0.00  0.00    -0.081 A 
ATOM      2  C3  UNL d   1       0.550  -0.989   0.070  0.00  0.00     0.006 A 
ATOM      3  C4  UNL d   1       0.797   0.025   0.999  0.00  0.00     0.002 A 
ATOM      4  C5  UNL d   1      -0.255   0.800   1.499  0.00  0.00    -0.080 A 
ATOM      5  C6  UNL d   1      -0.008   1.872   2.519  0.00  0.00     0.076 C 
ATOM      6  C7  UNL d   1      -1.554   0.563   1.037  0.00  0.00     0.002 A 
ATOM      7  C8  UNL d   1      -1.801  -0.450   0.108  0.00  0.00     0.006 A 
ENDROOT
BRANCH   1   8
ATOM      8  C1  UNL d   1      -1.030  -2.374  -1.332  0.00  0.00     0.054 C 
ATOM      9  C   UNL d   1      -2.392  -2.999  -1.064  0.00  0.00     0.018 C 
ENDBRANCH   1   8
TORSDOF 1
ENDMDL
