MODEL 1
REMARK minimizedAffinity -0.633326828
REMARK minimizedRMSD -1
REMARK  1 active torsions:
REMARK  status: ('A' for Active; 'I' for Inactive)
REMARK    1  A    between atoms: C1_2  and  C2_3 
ROOT
ATOM      1  C2  UNL d   1       0.580  -0.458  -2.836  0.00  0.00    -0.081 A 
ATOM      2  C3  UNL d   1       0.356  -0.524  -1.455  0.00  0.00     0.006 A 
ATOM      3  C4  UNL d   1      -0.601  -1.398  -0.934  0.00  0.00     0.002 A 
ATOM      4  C5  UNL d   1      -1.343  -2.227  -1.783  0.00  0.00    -0.080 A 
ATOM      5  C6  UNL d   1      -2.351  -3.191  -1.234  0.00  0.00     0.076 C 
ATOM      6  C7  UNL d   1      -1.131  -2.149  -3.163  0.00  0.00     0.002 A 
ATOM      7  C8  UNL d   1      -0.175  -1.274  -3.685  0.00  0.00     0.006 A 
ENDROOT
BRANCH   1   8
ATOM      8  C1  UNL d   1       1.656   0.437  -3.396  0.00  0.00     0.054 C 
ATOM      9  C   UNL d   1       2.943  -0.336  -3.649  0.00  0.00     0.018 C 
ENDBRANCH   1   8
TORSDOF 1
ENDMDL
