MODEL 1
REMARK minimizedAffinity -4.56748438
REMARK minimizedRMSD -1
REMARK  1 active torsions:
REMARK  status: ('A' for Active; 'I' for Inactive)
REMARK    1  A    between atoms: C1_2  and  C2_3 
ROOT
ATOM      1  C2  UNL d   1      -1.944  -0.651   0.318  0.00  0.00    -0.081 A 
ATOM      2  C3  UNL d   1      -0.670  -0.644  -0.264  0.00  0.00     0.006 A 
ATOM      3  C4  UNL d   1       0.421  -0.113   0.427  0.00  0.00     0.002 A 
ATOM      4  C5  UNL d   1       0.259   0.413   1.714  0.00  0.00    -0.080 A 
ATOM      5  C6  UNL d   1       1.428   0.959   2.478  0.00  0.00     0.076 C 
ATOM      6  C7  UNL d   1      -1.017   0.423   2.288  0.00  0.00     0.002 A 
ATOM      7  C8  UNL d   1      -2.108  -0.108   1.597  0.00  0.00     0.006 A 
ENDROOT
BRANCH   1   8
ATOM      8  C1  UNL d   1      -3.111  -1.281  -0.398  0.00  0.00     0.054 C 
ATOM      9  C   UNL d   1      -2.934  -2.788  -0.524  0.00  0.00     0.018 C 
ENDBRANCH   1   8
TORSDOF 1
ENDMDL
