MODEL 1
REMARK minimizedAffinity 3.12632442
REMARK minimizedRMSD -1
REMARK  1 active torsions:
REMARK  status: ('A' for Active; 'I' for Inactive)
REMARK    1  A    between atoms: C1_2  and  C2_3 
ROOT
ATOM      1  C2  UNL d   1       1.540  -0.972   4.938  0.00  0.00    -0.081 A 
ATOM      2  C3  UNL d   1       1.919   0.299   4.489  0.00  0.00     0.006 A 
ATOM      3  C4  UNL d   1       1.143   1.419   4.798  0.00  0.00     0.002 A 
ATOM      4  C5  UNL d   1      -0.019   1.289   5.566  0.00  0.00    -0.080 A 
ATOM      5  C6  UNL d   1      -0.844   2.487   5.929  0.00  0.00     0.076 C 
ATOM      6  C7  UNL d   1      -0.407   0.017   6.000  0.00  0.00     0.002 A 
ATOM      7  C8  UNL d   1       0.368  -1.104   5.691  0.00  0.00     0.006 A 
ENDROOT
BRANCH   1   8
ATOM      8  C1  UNL d   1       2.408  -2.173   4.663  0.00  0.00     0.054 C 
ATOM      9  C   UNL d   1       3.241  -2.545   5.881  0.00  0.00     0.018 C 
ENDBRANCH   1   8
TORSDOF 1
ENDMDL
