MODEL 1
REMARK minimizedAffinity 8.32267189
REMARK minimizedRMSD -1
REMARK  0 active torsions:
REMARK  status: ('A' for Active; 'I' for Inactive)
ROOT
ATOM      1  C   UNL d   1       3.774   0.725  -0.543  0.00  0.00     0.023 A 
ATOM      2  C1  UNL d   1       2.995  -0.298  -0.002  0.00  0.00     0.003 A 
ATOM      3  C2  UNL d   1       1.654  -0.427  -0.372  0.00  0.00     0.048 A 
ATOM      4  C3  UNL d   1       1.100   0.469  -1.285  0.00  0.00     0.023 A 
ATOM      5  C4  UNL d   1       1.876   1.493  -1.830  0.00  0.00     0.048 A 
ATOM      6  C5  UNL d   1       3.215   1.619  -1.456  0.00  0.00     0.003 A 
ATOM      7  I   UNL d   1      -0.895   0.278  -1.838  0.00  0.00    -0.146 I 
ENDROOT
TORSDOF 0
ENDMDL
