MODEL 1
REMARK minimizedAffinity 3.26940894
REMARK minimizedRMSD -1
REMARK  0 active torsions:
REMARK  status: ('A' for Active; 'I' for Inactive)
ROOT
ATOM      1  C   UNL d   1       0.468  -2.962   2.719  0.00  0.00     0.023 A 
ATOM      2  C1  UNL d   1       1.229  -3.074   1.556  0.00  0.00     0.003 A 
ATOM      3  C2  UNL d   1       1.045  -2.168   0.510  0.00  0.00     0.048 A 
ATOM      4  C3  UNL d   1       0.098  -1.151   0.634  0.00  0.00     0.023 A 
ATOM      5  C4  UNL d   1      -0.665  -1.035   1.797  0.00  0.00     0.048 A 
ATOM      6  C5  UNL d   1      -0.478  -1.944   2.840  0.00  0.00     0.003 A 
ATOM      7  I   UNL d   1      -0.177   0.199  -0.921  0.00  0.00    -0.146 I 
ENDROOT
TORSDOF 0
ENDMDL
