MODEL 1
REMARK minimizedAffinity -0.809559047
REMARK minimizedRMSD -1
REMARK  0 active torsions:
REMARK  status: ('A' for Active; 'I' for Inactive)
ROOT
ATOM      1  C   UNL d   1       1.137  -3.723   2.012  0.00  0.00     0.023 A 
ATOM      2  C1  UNL d   1       0.124  -3.456   2.933  0.00  0.00     0.003 A 
ATOM      3  C2  UNL d   1      -0.623  -2.280   2.830  0.00  0.00     0.048 A 
ATOM      4  C3  UNL d   1      -0.352  -1.377   1.802  0.00  0.00     0.023 A 
ATOM      5  C4  UNL d   1       0.660  -1.641   0.878  0.00  0.00     0.048 A 
ATOM      6  C5  UNL d   1       1.404  -2.817   0.986  0.00  0.00     0.003 A 
ATOM      7  I   UNL d   1      -1.463   0.373   1.646  0.00  0.00    -0.146 I 
ENDROOT
TORSDOF 0
ENDMDL
