MODEL 1
REMARK minimizedAffinity 4.49584389
REMARK minimizedRMSD -1
REMARK  0 active torsions:
REMARK  status: ('A' for Active; 'I' for Inactive)
ROOT
ATOM      1  C   UNL d   1       0.852  -3.262   2.593  0.00  0.00     0.023 A 
ATOM      2  C1  UNL d   1      -0.088  -2.557   3.346  0.00  0.00     0.003 A 
ATOM      3  C2  UNL d   1      -0.589  -1.341   2.878  0.00  0.00     0.048 A 
ATOM      4  C3  UNL d   1      -0.147  -0.835   1.656  0.00  0.00     0.023 A 
ATOM      5  C4  UNL d   1       0.793  -1.537   0.899  0.00  0.00     0.048 A 
ATOM      6  C5  UNL d   1       1.292  -2.752   1.371  0.00  0.00     0.003 A 
ATOM      7  I   UNL d   1      -0.891   0.976   0.958  0.00  0.00    -0.146 I 
ENDROOT
TORSDOF 0
ENDMDL
