MODEL 1
REMARK minimizedAffinity 2.69643593
REMARK minimizedRMSD -1
REMARK  0 active torsions:
REMARK  status: ('A' for Active; 'I' for Inactive)
ROOT
ATOM      1  C   UNL d   1      -5.258  -1.061  -3.628  0.00  0.00     0.023 A 
ATOM      2  C1  UNL d   1      -5.470   0.038  -4.462  0.00  0.00     0.003 A 
ATOM      3  C2  UNL d   1      -4.629   1.150  -4.381  0.00  0.00     0.048 A 
ATOM      4  C3  UNL d   1      -3.578   1.156  -3.464  0.00  0.00     0.023 A 
ATOM      5  C4  UNL d   1      -3.362   0.059  -2.629  0.00  0.00     0.048 A 
ATOM      6  C5  UNL d   1      -4.206  -1.050  -2.713  0.00  0.00     0.003 A 
ATOM      7  I   UNL d   1      -2.325   2.810  -3.342  0.00  0.00    -0.146 I 
ENDROOT
TORSDOF 0
ENDMDL
