MODEL 1
REMARK minimizedAffinity 0.790447474
REMARK minimizedRMSD -1
REMARK  0 active torsions:
REMARK  status: ('A' for Active; 'I' for Inactive)
ROOT
ATOM      1  C   UNL d   1      -0.738  -4.188   3.508  0.00  0.00     0.023 A 
ATOM      2  C1  UNL d   1      -1.651  -3.161   3.746  0.00  0.00     0.003 A 
ATOM      3  C2  UNL d   1      -1.520  -1.940   3.081  0.00  0.00     0.048 A 
ATOM      4  C3  UNL d   1      -0.473  -1.754   2.179  0.00  0.00     0.023 A 
ATOM      5  C4  UNL d   1       0.443  -2.779   1.937  0.00  0.00     0.048 A 
ATOM      6  C5  UNL d   1       0.308  -3.998   2.605  0.00  0.00     0.003 A 
ATOM      7  I   UNL d   1      -0.275   0.062   1.187  0.00  0.00    -0.146 I 
ENDROOT
TORSDOF 0
ENDMDL
