MODEL 1
REMARK minimizedAffinity 5.47148561
REMARK minimizedRMSD -1
REMARK  0 active torsions:
REMARK  status: ('A' for Active; 'I' for Inactive)
ROOT
ATOM      1  C   UNL d   1      -2.244  -0.535   0.371  0.00  0.00     0.023 A 
ATOM      2  C1  UNL d   1      -1.373  -0.443   1.457  0.00  0.00     0.003 A 
ATOM      3  C2  UNL d   1      -0.006  -0.255   1.244  0.00  0.00     0.048 A 
ATOM      4  C3  UNL d   1       0.483  -0.158  -0.059  0.00  0.00     0.023 A 
ATOM      5  C4  UNL d   1      -0.385  -0.249  -1.148  0.00  0.00     0.048 A 
ATOM      6  C5  UNL d   1      -1.750  -0.438  -0.930  0.00  0.00     0.003 A 
ATOM      7  I   UNL d   1       2.517   0.123  -0.379  0.00  0.00    -0.146 I 
ENDROOT
TORSDOF 0
ENDMDL
