MODEL 1
REMARK minimizedAffinity 5.70354748
REMARK minimizedRMSD -1
REMARK  0 active torsions:
REMARK  status: ('A' for Active; 'I' for Inactive)
ROOT
ATOM      1  C   UNL d   1      -5.701   1.991  -3.455  0.00  0.00     0.023 A 
ATOM      2  C1  UNL d   1      -4.788   0.957  -3.250  0.00  0.00     0.003 A 
ATOM      3  C2  UNL d   1      -3.459   1.250  -2.935  0.00  0.00     0.048 A 
ATOM      4  C3  UNL d   1      -3.051   2.578  -2.824  0.00  0.00     0.023 A 
ATOM      5  C4  UNL d   1      -3.962   3.616  -3.027  0.00  0.00     0.048 A 
ATOM      6  C5  UNL d   1      -5.289   3.319  -3.344  0.00  0.00     0.003 A 
ATOM      7  I   UNL d   1      -1.075   3.016  -2.354  0.00  0.00    -0.146 I 
ENDROOT
TORSDOF 0
ENDMDL
