MODEL 1
REMARK minimizedAffinity -0.964566231
REMARK minimizedRMSD -1
REMARK  0 active torsions:
REMARK  status: ('A' for Active; 'I' for Inactive)
ROOT
ATOM      1  C   UNL d   1      -0.675  -0.328   1.618  0.00  0.00     0.023 A 
ATOM      2  C1  UNL d   1      -0.050  -0.626   0.407  0.00  0.00     0.003 A 
ATOM      3  C2  UNL d   1       0.864  -1.680   0.333  0.00  0.00     0.048 A 
ATOM      4  C3  UNL d   1       1.146  -2.432   1.473  0.00  0.00     0.023 A 
ATOM      5  C4  UNL d   1       0.522  -2.137   2.686  0.00  0.00     0.048 A 
ATOM      6  C5  UNL d   1      -0.390  -1.082   2.756  0.00  0.00     0.003 A 
ATOM      7  I   UNL d   1       2.506  -4.000   1.365  0.00  0.00    -0.146 I 
ENDROOT
TORSDOF 0
ENDMDL
