MODEL 1
REMARK minimizedAffinity 1.18905342
REMARK minimizedRMSD -1
REMARK  0 active torsions:
REMARK  status: ('A' for Active; 'I' for Inactive)
ROOT
ATOM      1  C   UNL d   1      -1.058  -0.522   1.620  0.00  0.00     0.023 A 
ATOM      2  C1  UNL d   1      -0.243  -0.641   0.494  0.00  0.00     0.003 A 
ATOM      3  C2  UNL d   1       0.736  -1.635   0.442  0.00  0.00     0.048 A 
ATOM      4  C3  UNL d   1       0.894  -2.507   1.518  0.00  0.00     0.023 A 
ATOM      5  C4  UNL d   1       0.081  -2.393   2.646  0.00  0.00     0.048 A 
ATOM      6  C5  UNL d   1      -0.896  -1.396   2.694  0.00  0.00     0.003 A 
ATOM      7  I   UNL d   1       2.351  -3.988   1.442  0.00  0.00    -0.146 I 
ENDROOT
TORSDOF 0
ENDMDL
