MODEL 1
REMARK minimizedAffinity -1.19633853
REMARK minimizedRMSD -1
REMARK  2 active torsions:
REMARK  status: ('A' for Active; 'I' for Inactive)
REMARK    1  A    between atoms: C2'_3  and  C1'_4 
REMARK    2  A    between atoms: C1'_4  and  C1_5 
ROOT
ATOM      1  C1  I4B d   1       2.177  -0.540  -0.241  0.00  0.00    -0.075 A 
ATOM      2  C2  I4B d   1       3.017  -0.022   0.713  0.00  0.00     0.003 A 
ATOM      3  C3  I4B d   1       2.845   1.308   1.167  0.00  0.00     0.002 A 
ATOM      4  C4  I4B d   1       1.860   2.095   0.608  0.00  0.00    -0.004 A 
ATOM      5  C5  I4B d   1       0.995   1.561  -0.343  0.00  0.00     0.002 A 
ATOM      6  C6  I4B d   1       1.147   0.231  -0.762  0.00  0.00     0.003 A 
ENDROOT
BRANCH   1   7
ATOM      7  C1' I4B d   1       2.408  -1.938  -0.722  0.00  0.00     0.060 C 
BRANCH   7   8
ATOM      8  C2' I4B d   1       1.595  -2.872   0.152  0.00  0.00    -0.013 C 
ATOM      9  C4' I4B d   1       1.276  -2.237   1.480  0.00  0.00     0.013 C 
ATOM     10  C3' I4B d   1       0.343  -3.230  -0.592  0.00  0.00     0.013 C 
ENDBRANCH   7   8
ENDBRANCH   1   7
TORSDOF 2
ENDMDL
