MODEL 1
REMARK minimizedAffinity 7.96694279
REMARK minimizedRMSD -1
REMARK  2 active torsions:
REMARK  status: ('A' for Active; 'I' for Inactive)
REMARK    1  A    between atoms: C2'_3  and  C1'_4 
REMARK    2  A    between atoms: C1'_4  and  C1_5 
ROOT
ATOM      1  C1  I4B d   1       2.581  -0.762   0.143  0.00  0.00    -0.075 A 
ATOM      2  C2  I4B d   1       1.442  -0.001   0.050  0.00  0.00     0.003 A 
ATOM      3  C3  I4B d   1       1.510   1.405   0.203  0.00  0.00     0.002 A 
ATOM      4  C4  I4B d   1       2.720   1.999   0.496  0.00  0.00    -0.004 A 
ATOM      5  C5  I4B d   1       3.877   1.229   0.567  0.00  0.00     0.002 A 
ATOM      6  C6  I4B d   1       3.810  -0.159   0.377  0.00  0.00     0.003 A 
ENDROOT
BRANCH   1   7
ATOM      7  C1' I4B d   1       2.468  -2.248   0.009  0.00  0.00     0.060 C 
BRANCH   7   8
ATOM      8  C2' I4B d   1       1.363  -2.717   0.933  0.00  0.00    -0.013 C 
ATOM      9  C4' I4B d   1       0.605  -3.873   0.335  0.00  0.00     0.013 C 
ATOM     10  C3' I4B d   1       1.987  -3.099   2.243  0.00  0.00     0.013 C 
ENDBRANCH   7   8
ENDBRANCH   1   7
TORSDOF 2
ENDMDL
