MODEL 1
REMARK minimizedAffinity 11.2541904
REMARK minimizedRMSD -1
REMARK  2 active torsions:
REMARK  status: ('A' for Active; 'I' for Inactive)
REMARK    1  A    between atoms: C2'_3  and  C1'_4 
REMARK    2  A    between atoms: C1'_4  and  C1_5 
ROOT
ATOM      1  C1  I4B d   1      -5.196   1.809  -2.559  0.00  0.00    -0.075 A 
ATOM      2  C2  I4B d   1      -5.236   2.460  -1.351  0.00  0.00     0.003 A 
ATOM      3  C3  I4B d   1      -5.667   3.807  -1.282  0.00  0.00     0.002 A 
ATOM      4  C4  I4B d   1      -5.998   4.475  -2.443  0.00  0.00    -0.004 A 
ATOM      5  C5  I4B d   1      -5.979   3.807  -3.663  0.00  0.00     0.002 A 
ATOM      6  C6  I4B d   1      -5.587   2.461  -3.721  0.00  0.00     0.003 A 
ENDROOT
BRANCH   1   7
ATOM      7  C1' I4B d   1      -4.704   0.396  -2.600  0.00  0.00     0.060 C 
BRANCH   7   8
ATOM      8  C2' I4B d   1      -4.221   0.030  -1.212  0.00  0.00    -0.013 C 
ATOM      9  C4' I4B d   1      -4.428  -1.436  -0.932  0.00  0.00     0.013 C 
ATOM     10  C3' I4B d   1      -2.771   0.400  -1.114  0.00  0.00     0.013 C 
ENDBRANCH   7   8
ENDBRANCH   1   7
TORSDOF 2
ENDMDL
