MODEL 1
REMARK minimizedAffinity 7.18411779
REMARK minimizedRMSD -1
REMARK  2 active torsions:
REMARK  status: ('A' for Active; 'I' for Inactive)
REMARK    1  A    between atoms: C2'_3  and  C1'_4 
REMARK    2  A    between atoms: C1'_4  and  C1_5 
ROOT
ATOM      1  C1  I4B d   1       2.929  -0.136   0.984  0.00  0.00    -0.075 A 
ATOM      2  C2  I4B d   1       2.969  -1.202   1.847  0.00  0.00     0.003 A 
ATOM      3  C3  I4B d   1       2.915  -2.526   1.348  0.00  0.00     0.002 A 
ATOM      4  C4  I4B d   1       2.770  -2.736  -0.008  0.00  0.00    -0.004 A 
ATOM      5  C5  I4B d   1       2.752  -1.654  -0.884  0.00  0.00     0.002 A 
ATOM      6  C6  I4B d   1       2.844  -0.346  -0.386  0.00  0.00     0.003 A 
ENDROOT
BRANCH   1   7
ATOM      7  C1' I4B d   1       2.955   1.249   1.547  0.00  0.00     0.060 C 
BRANCH   7   8
ATOM      8  C2' I4B d   1       2.358   2.184   0.515  0.00  0.00    -0.013 C 
ATOM      9  C4' I4B d   1       0.859   2.056   0.466  0.00  0.00     0.013 C 
ATOM     10  C3' I4B d   1       2.771   3.583   0.865  0.00  0.00     0.013 C 
ENDBRANCH   7   8
ENDBRANCH   1   7
TORSDOF 2
ENDMDL
