MODEL 1
REMARK minimizedAffinity -2.22649598
REMARK minimizedRMSD -1
REMARK  0 active torsions:
REMARK  status: ('A' for Active; 'I' for Inactive)
ROOT
ATOM      1  C   UNL d   1       0.679   6.000   5.998  0.00  0.00     0.078 C 
ATOM      2  C1  UNL d   1       1.881   5.312   5.422  0.00  0.00    -0.077 A 
ATOM      3  C2  UNL d   1       2.777   5.999   4.594  0.00  0.00    -0.001 A 
ATOM      4  C3  UNL d   1       3.887   5.344   4.058  0.00  0.00     0.003 A 
ATOM      5  C4  UNL d   1       4.109   3.998   4.342  0.00  0.00    -0.005 A 
ATOM      6  C5  UNL d   1       3.222   3.306   5.163  0.00  0.00     0.003 A 
ATOM      7  C6  UNL d   1       2.112   3.959   5.701  0.00  0.00    -0.001 A 
ENDROOT
TORSDOF 0
ENDMDL
