MODEL 1
REMARK minimizedAffinity 5.20094681
REMARK minimizedRMSD -1
REMARK  0 active torsions:
REMARK  status: ('A' for Active; 'I' for Inactive)
ROOT
ATOM      1  C   UNL d   1      -4.487   0.816   0.486  0.00  0.00     0.078 C 
ATOM      2  C1  UNL d   1      -4.178   2.069   1.252  0.00  0.00    -0.077 A 
ATOM      3  C2  UNL d   1      -4.474   2.171   2.617  0.00  0.00    -0.001 A 
ATOM      4  C3  UNL d   1      -4.190   3.346   3.314  0.00  0.00     0.003 A 
ATOM      5  C4  UNL d   1      -3.610   4.428   2.655  0.00  0.00    -0.005 A 
ATOM      6  C5  UNL d   1      -3.315   4.337   1.296  0.00  0.00     0.003 A 
ATOM      7  C6  UNL d   1      -3.598   3.162   0.597  0.00  0.00    -0.001 A 
ENDROOT
TORSDOF 0
ENDMDL
