MODEL 1
REMARK minimizedAffinity 2.74442911
REMARK minimizedRMSD -1
REMARK  0 active torsions:
REMARK  status: ('A' for Active; 'I' for Inactive)
ROOT
ATOM      1  C   UNL d   1      -3.865   3.219   2.547  0.00  0.00     0.078 C 
ATOM      2  C1  UNL d   1      -3.630   2.195   1.478  0.00  0.00    -0.077 A 
ATOM      3  C2  UNL d   1      -2.337   1.919   1.016  0.00  0.00    -0.001 A 
ATOM      4  C3  UNL d   1      -2.133   0.969   0.013  0.00  0.00     0.003 A 
ATOM      5  C4  UNL d   1      -3.218   0.290  -0.537  0.00  0.00    -0.005 A 
ATOM      6  C5  UNL d   1      -4.508   0.560  -0.086  0.00  0.00     0.003 A 
ATOM      7  C6  UNL d   1      -4.714   1.509   0.917  0.00  0.00    -0.001 A 
ENDROOT
TORSDOF 0
ENDMDL
