MODEL 1
REMARK minimizedAffinity 0.451388061
REMARK minimizedRMSD -1
REMARK  0 active torsions:
REMARK  status: ('A' for Active; 'I' for Inactive)
ROOT
ATOM      1  C   UNL d   1      -0.291   2.594   1.652  0.00  0.00     0.078 C 
ATOM      2  C1  UNL d   1       0.627   3.637   2.215  0.00  0.00    -0.077 A 
ATOM      3  C2  UNL d   1       0.283   4.994   2.180  0.00  0.00    -0.001 A 
ATOM      4  C3  UNL d   1       1.151   5.956   2.699  0.00  0.00     0.003 A 
ATOM      5  C4  UNL d   1       2.370   5.571   3.255  0.00  0.00    -0.005 A 
ATOM      6  C5  UNL d   1       2.721   4.223   3.292  0.00  0.00     0.003 A 
ATOM      7  C6  UNL d   1       1.854   3.260   2.774  0.00  0.00    -0.001 A 
ENDROOT
TORSDOF 0
ENDMDL
