MODEL 1
REMARK minimizedAffinity 0.32971859
REMARK minimizedRMSD -1
REMARK  0 active torsions:
REMARK  status: ('A' for Active; 'I' for Inactive)
ROOT
ATOM      1  C   UNL d   1       4.193   2.514   2.538  0.00  0.00     0.078 C 
ATOM      2  C1  UNL d   1       3.679   1.514   1.546  0.00  0.00    -0.077 A 
ATOM      3  C2  UNL d   1       4.072   0.171   1.605  0.00  0.00    -0.001 A 
ATOM      4  C3  UNL d   1       3.593  -0.746   0.669  0.00  0.00     0.003 A 
ATOM      5  C4  UNL d   1       2.720  -0.331  -0.335  0.00  0.00    -0.005 A 
ATOM      6  C5  UNL d   1       2.326   1.004  -0.403  0.00  0.00     0.003 A 
ATOM      7  C6  UNL d   1       2.803   1.923   0.532  0.00  0.00    -0.001 A 
ENDROOT
TORSDOF 0
ENDMDL
