MODEL 1
REMARK minimizedAffinity -0.555830538
REMARK minimizedRMSD -1
REMARK  0 active torsions:
REMARK  status: ('A' for Active; 'I' for Inactive)
ROOT
ATOM      1  C   UNL d   1       1.900  -2.140  -0.284  0.00  0.00     0.078 C 
ATOM      2  C1  UNL d   1       2.581  -0.805  -0.333  0.00  0.00    -0.077 A 
ATOM      3  C2  UNL d   1       1.865   0.378  -0.112  0.00  0.00    -0.001 A 
ATOM      4  C3  UNL d   1       2.509   1.614  -0.169  0.00  0.00     0.003 A 
ATOM      5  C4  UNL d   1       3.873   1.680  -0.449  0.00  0.00    -0.005 A 
ATOM      6  C5  UNL d   1       4.593   0.509  -0.673  0.00  0.00     0.003 A 
ATOM      7  C6  UNL d   1       3.950  -0.729  -0.615  0.00  0.00    -0.001 A 
ENDROOT
TORSDOF 0
ENDMDL
