MODEL 1
REMARK minimizedAffinity -4.69846296
REMARK minimizedRMSD -1
REMARK  0 active torsions:
REMARK  status: ('A' for Active; 'I' for Inactive)
ROOT
ATOM      1  C   UNL d   1       3.297   3.400   4.570  0.00  0.00     0.078 C 
ATOM      2  C1  UNL d   1       2.029   4.193   4.684  0.00  0.00    -0.077 A 
ATOM      3  C2  UNL d   1       1.272   4.176   5.862  0.00  0.00    -0.001 A 
ATOM      4  C3  UNL d   1       0.089   4.912   5.951  0.00  0.00     0.003 A 
ATOM      5  C4  UNL d   1      -0.348   5.669   4.866  0.00  0.00    -0.005 A 
ATOM      6  C5  UNL d   1       0.398   5.690   3.689  0.00  0.00     0.003 A 
ATOM      7  C6  UNL d   1       1.581   4.955   3.598  0.00  0.00    -0.001 A 
ENDROOT
TORSDOF 0
ENDMDL
