MODEL 1
REMARK minimizedAffinity 5.22190523
REMARK minimizedRMSD -1
REMARK  0 active torsions:
REMARK  status: ('A' for Active; 'I' for Inactive)
ROOT
ATOM      1  C   UNL d   1       2.248   0.720   0.603  0.00  0.00     0.078 C 
ATOM      2  C1  UNL d   1       3.561   1.099  -0.014  0.00  0.00    -0.077 A 
ATOM      3  C2  UNL d   1       4.651   1.474   0.782  0.00  0.00    -0.001 A 
ATOM      4  C3  UNL d   1       5.864   1.834   0.193  0.00  0.00     0.003 A 
ATOM      5  C4  UNL d   1       6.000   1.822  -1.194  0.00  0.00    -0.005 A 
ATOM      6  C5  UNL d   1       4.920   1.452  -1.994  0.00  0.00     0.003 A 
ATOM      7  C6  UNL d   1       3.706   1.093  -1.407  0.00  0.00    -0.001 A 
ENDROOT
TORSDOF 0
ENDMDL
