MODEL 1
REMARK minimizedAffinity -4.56220198
REMARK minimizedRMSD -1
REMARK  0 active torsions:
REMARK  status: ('A' for Active; 'I' for Inactive)
ROOT
ATOM      1  C   UNL d   1       3.690   4.048   4.433  0.00  0.00     0.078 C 
ATOM      2  C1  UNL d   1       2.235   4.396   4.537  0.00  0.00    -0.077 A 
ATOM      3  C2  UNL d   1       1.581   5.079   3.504  0.00  0.00    -0.001 A 
ATOM      4  C3  UNL d   1       0.229   5.404   3.619  0.00  0.00     0.003 A 
ATOM      5  C4  UNL d   1      -0.481   5.053   4.765  0.00  0.00    -0.005 A 
ATOM      6  C5  UNL d   1       0.162   4.375   5.799  0.00  0.00     0.003 A 
ATOM      7  C6  UNL d   1       1.514   4.049   5.686  0.00  0.00    -0.001 A 
ENDROOT
TORSDOF 0
ENDMDL
