MODEL 1
REMARK minimizedAffinity -2.72554374
REMARK minimizedRMSD -1
REMARK  0 active torsions:
REMARK  status: ('A' for Active; 'I' for Inactive)
ROOT
ATOM      1  C   UNL d   1       3.135   2.257   5.984  0.00  0.00     0.078 C 
ATOM      2  C1  UNL d   1       3.362   3.564   5.284  0.00  0.00    -0.077 A 
ATOM      3  C2  UNL d   1       3.733   4.710   5.998  0.00  0.00    -0.001 A 
ATOM      4  C3  UNL d   1       3.931   5.922   5.335  0.00  0.00     0.003 A 
ATOM      5  C4  UNL d   1       3.759   6.000   3.954  0.00  0.00    -0.005 A 
ATOM      6  C5  UNL d   1       3.388   4.865   3.235  0.00  0.00     0.003 A 
ATOM      7  C6  UNL d   1       3.189   3.653   3.897  0.00  0.00    -0.001 A 
ENDROOT
TORSDOF 0
ENDMDL
