MODEL 1
REMARK minimizedAffinity -0.0931700021
REMARK minimizedRMSD -1
REMARK  0 active torsions:
REMARK  status: ('A' for Active; 'I' for Inactive)
ROOT
ATOM      1  C   UNL d   1       4.134   2.602  -0.367  0.00  0.00     0.077 C 
ATOM      2  C1  UNL d   1       3.049   1.577  -0.216  0.00  0.00    -0.074 A 
ATOM      3  C2  UNL d   1       1.817   1.913   0.354  0.00  0.00    -0.005 A 
ATOM      4  C3  UNL d   1       0.814   0.952   0.479  0.00  0.00     0.006 A 
ATOM      5  C4  UNL d   1       1.033  -0.353   0.036  0.00  0.00    -0.005 A 
ATOM      6  C5  UNL d   1       2.259  -0.708  -0.536  0.00  0.00    -0.074 A 
ATOM      7  C6  UNL d   1       2.507  -2.104  -1.026  0.00  0.00     0.077 C 
ATOM      8  C7  UNL d   1       3.259   0.266  -0.665  0.00  0.00    -0.001 A 
ENDROOT
TORSDOF 0
ENDMDL
