MODEL 1
REMARK minimizedAffinity -2.32837749
REMARK minimizedRMSD -1
REMARK  0 active torsions:
REMARK  status: ('A' for Active; 'I' for Inactive)
ROOT
ATOM      1  C   UNL d   1       4.465   1.940  -0.712  0.00  0.00     0.077 C 
ATOM      2  C1  UNL d   1       3.220   1.132  -0.499  0.00  0.00    -0.074 A 
ATOM      3  C2  UNL d   1       2.011   1.750  -0.162  0.00  0.00    -0.005 A 
ATOM      4  C3  UNL d   1       0.859   0.987   0.024  0.00  0.00     0.006 A 
ATOM      5  C4  UNL d   1       0.903  -0.400  -0.125  0.00  0.00    -0.005 A 
ATOM      6  C5  UNL d   1       2.102  -1.035  -0.463  0.00  0.00    -0.074 A 
ATOM      7  C6  UNL d   1       2.164  -2.524  -0.637  0.00  0.00     0.077 C 
ATOM      8  C7  UNL d   1       3.254  -0.261  -0.655  0.00  0.00    -0.001 A 
ENDROOT
TORSDOF 0
ENDMDL
