MODEL 1
REMARK minimizedAffinity 1.49780989
REMARK minimizedRMSD -1
REMARK  0 active torsions:
REMARK  status: ('A' for Active; 'I' for Inactive)
ROOT
ATOM      1  C   UNL d   1       0.501   1.534   0.484  0.00  0.00     0.077 C 
ATOM      2  C1  UNL d   1       1.800   1.097  -0.127  0.00  0.00    -0.074 A 
ATOM      3  C2  UNL d   1       1.988  -0.223  -0.549  0.00  0.00    -0.005 A 
ATOM      4  C3  UNL d   1       3.197  -0.612  -1.124  0.00  0.00     0.006 A 
ATOM      5  C4  UNL d   1       4.230   0.313  -1.282  0.00  0.00    -0.005 A 
ATOM      6  C5  UNL d   1       4.060   1.638  -0.867  0.00  0.00    -0.074 A 
ATOM      7  C6  UNL d   1       5.156   2.648  -1.040  0.00  0.00     0.077 C 
ATOM      8  C7  UNL d   1       2.839   2.023  -0.297  0.00  0.00    -0.001 A 
ENDROOT
TORSDOF 0
ENDMDL
