MODEL 1
REMARK minimizedAffinity 3.27071476
REMARK minimizedRMSD -1
REMARK  0 active torsions:
REMARK  status: ('A' for Active; 'I' for Inactive)
ROOT
ATOM      1  C   UNL d   1       0.676  -2.166  -0.389  0.00  0.00     0.077 C 
ATOM      2  C1  UNL d   1       1.869  -1.900  -1.258  0.00  0.00    -0.074 A 
ATOM      3  C2  UNL d   1       2.185  -2.748  -2.325  0.00  0.00    -0.005 A 
ATOM      4  C3  UNL d   1       3.292  -2.482  -3.130  0.00  0.00     0.006 A 
ATOM      5  C4  UNL d   1       4.093  -1.367  -2.878  0.00  0.00    -0.005 A 
ATOM      6  C5  UNL d   1       3.792  -0.508  -1.817  0.00  0.00    -0.074 A 
ATOM      7  C6  UNL d   1       4.637   0.700  -1.538  0.00  0.00     0.077 C 
ATOM      8  C7  UNL d   1       2.674  -0.778  -1.016  0.00  0.00    -0.001 A 
ENDROOT
TORSDOF 0
ENDMDL
