MODEL 1
REMARK minimizedAffinity 0.116381347
REMARK minimizedRMSD -1
REMARK  0 active torsions:
REMARK  status: ('A' for Active; 'I' for Inactive)
ROOT
ATOM      1  C   UNL d   1       2.220  -2.711  -1.471  0.00  0.00     0.077 C 
ATOM      2  C1  UNL d   1       2.130  -1.265  -1.083  0.00  0.00    -0.074 A 
ATOM      3  C2  UNL d   1       0.958  -0.742  -0.528  0.00  0.00    -0.005 A 
ATOM      4  C3  UNL d   1       0.892   0.603  -0.164  0.00  0.00     0.006 A 
ATOM      5  C4  UNL d   1       1.996   1.436  -0.350  0.00  0.00    -0.005 A 
ATOM      6  C5  UNL d   1       3.176   0.930  -0.903  0.00  0.00    -0.074 A 
ATOM      7  C6  UNL d   1       4.375   1.810  -1.101  0.00  0.00     0.077 C 
ATOM      8  C7  UNL d   1       3.237  -0.424  -1.260  0.00  0.00    -0.001 A 
ENDROOT
TORSDOF 0
ENDMDL
