MODEL 1
REMARK minimizedAffinity 1.85574412
REMARK minimizedRMSD -1
REMARK  0 active torsions:
REMARK  status: ('A' for Active; 'I' for Inactive)
ROOT
ATOM      1  C   UNL d   1       2.187  -2.307  -0.701  0.00  0.00     0.077 C 
ATOM      2  C1  UNL d   1       2.237  -0.812  -0.588  0.00  0.00    -0.074 A 
ATOM      3  C2  UNL d   1       1.087  -0.075  -0.289  0.00  0.00    -0.005 A 
ATOM      4  C3  UNL d   1       1.150   1.314  -0.177  0.00  0.00     0.006 A 
ATOM      5  C4  UNL d   1       2.363   1.979  -0.363  0.00  0.00    -0.005 A 
ATOM      6  C5  UNL d   1       3.524   1.259  -0.662  0.00  0.00    -0.074 A 
ATOM      7  C6  UNL d   1       4.837   1.957  -0.856  0.00  0.00     0.077 C 
ATOM      8  C7  UNL d   1       3.453  -0.137  -0.766  0.00  0.00    -0.001 A 
ENDROOT
TORSDOF 0
ENDMDL
