MODEL 1
REMARK minimizedAffinity -1.18459165
REMARK minimizedRMSD -1
REMARK  0 active torsions:
REMARK  status: ('A' for Active; 'I' for Inactive)
ROOT
ATOM      1  C   UNL d   1      -1.481  -0.155  -1.207  0.00  0.00     0.077 C 
ATOM      2  C1  UNL d   1      -0.043  -0.420  -0.871  0.00  0.00    -0.074 A 
ATOM      3  C2  UNL d   1       0.428  -1.726  -0.706  0.00  0.00    -0.005 A 
ATOM      4  C3  UNL d   1       1.770  -1.957  -0.403  0.00  0.00     0.006 A 
ATOM      5  C4  UNL d   1       2.652  -0.886  -0.262  0.00  0.00    -0.005 A 
ATOM      6  C5  UNL d   1       2.200   0.427  -0.423  0.00  0.00    -0.074 A 
ATOM      7  C6  UNL d   1       3.138   1.590  -0.285  0.00  0.00     0.077 C 
ATOM      8  C7  UNL d   1       0.852   0.651  -0.735  0.00  0.00    -0.001 A 
ENDROOT
TORSDOF 0
ENDMDL
