MODEL 1
REMARK minimizedAffinity 0.350652874
REMARK minimizedRMSD -1
REMARK  0 active torsions:
REMARK  status: ('A' for Active; 'I' for Inactive)
ROOT
ATOM      1  C   UNL d   1       2.031  -2.498  -0.308  0.00  0.00     0.077 C 
ATOM      2  C1  UNL d   1       2.982  -1.659  -1.109  0.00  0.00    -0.074 A 
ATOM      3  C2  UNL d   1       3.551  -2.145  -2.290  0.00  0.00    -0.005 A 
ATOM      4  C3  UNL d   1       4.426  -1.349  -3.029  0.00  0.00     0.006 A 
ATOM      5  C4  UNL d   1       4.741  -0.061  -2.595  0.00  0.00    -0.005 A 
ATOM      6  C5  UNL d   1       4.182   0.442  -1.416  0.00  0.00    -0.074 A 
ATOM      7  C6  UNL d   1       4.502   1.828  -0.940  0.00  0.00     0.077 C 
ATOM      8  C7  UNL d   1       3.297  -0.361  -0.683  0.00  0.00    -0.001 A 
ENDROOT
TORSDOF 0
ENDMDL
