MODEL 1
REMARK minimizedAffinity 8.4969244
REMARK minimizedRMSD -1
REMARK  0 active torsions:
REMARK  status: ('A' for Active; 'I' for Inactive)
ROOT
ATOM      1  C   UNL d   1       3.708   1.265  -0.835  0.00  0.00     0.077 C 
ATOM      2  C1  UNL d   1       2.810   0.069  -0.944  0.00  0.00    -0.074 A 
ATOM      3  C2  UNL d   1       3.341  -1.218  -1.081  0.00  0.00    -0.005 A 
ATOM      4  C3  UNL d   1       2.494  -2.322  -1.172  0.00  0.00     0.006 A 
ATOM      5  C4  UNL d   1       1.109  -2.151  -1.127  0.00  0.00    -0.005 A 
ATOM      6  C5  UNL d   1       0.561  -0.872  -0.990  0.00  0.00    -0.074 A 
ATOM      7  C6  UNL d   1      -0.925  -0.672  -0.930  0.00  0.00     0.077 C 
ATOM      8  C7  UNL d   1       1.419   0.232  -0.892  0.00  0.00    -0.001 A 
ENDROOT
TORSDOF 0
ENDMDL
