MODEL 1
REMARK minimizedAffinity 3.74448824
REMARK minimizedRMSD -1
REMARK  0 active torsions:
REMARK  status: ('A' for Active; 'I' for Inactive)
ROOT
ATOM      1  C   UNL d   1       1.307  -2.882  -0.915  0.00  0.00     0.077 C 
ATOM      2  C1  UNL d   1       1.490  -1.410  -0.696  0.00  0.00    -0.074 A 
ATOM      3  C2  UNL d   1       0.472  -0.635  -0.132  0.00  0.00    -0.005 A 
ATOM      4  C3  UNL d   1       0.660   0.732   0.074  0.00  0.00     0.006 A 
ATOM      5  C4  UNL d   1       1.867   1.336  -0.281  0.00  0.00    -0.005 A 
ATOM      6  C5  UNL d   1       2.897   0.577  -0.846  0.00  0.00    -0.074 A 
ATOM      7  C6  UNL d   1       4.203   1.209  -1.224  0.00  0.00     0.077 C 
ATOM      8  C7  UNL d   1       2.702  -0.797  -1.043  0.00  0.00    -0.001 A 
ENDROOT
TORSDOF 0
ENDMDL
