MODEL 1
REMARK minimizedAffinity -0.58975035
REMARK minimizedRMSD -1
REMARK  0 active torsions:
REMARK  status: ('A' for Active; 'I' for Inactive)
ROOT
ATOM      1  C   UNL d   1       1.701   0.192  -0.062  0.00  0.00     0.172 C 
ATOM      2  N   UNL d   1       0.549  -0.428   0.550  0.00  0.00    -0.070 N 
ATOM      3  C1  UNL d   1       0.570  -1.542   1.346  0.00  0.00    -0.004 A 
ATOM      4  C2  UNL d   1      -0.726  -1.813   1.728  0.00  0.00    -0.047 A 
ATOM      5  C3  UNL d   1      -1.555  -0.829   1.140  0.00  0.00    -0.047 A 
ATOM      6  C4  UNL d   1      -0.740   0.015   0.416  0.00  0.00    -0.004 A 
ENDROOT
TORSDOF 0
ENDMDL
