MODEL 1
REMARK minimizedAffinity -3.21885586
REMARK minimizedRMSD -1
REMARK  0 active torsions:
REMARK  status: ('A' for Active; 'I' for Inactive)
ROOT
ATOM      1  C   UNL d   1       1.283   0.147   0.448  0.00  0.00     0.172 C 
ATOM      2  N   UNL d   1      -0.088  -0.273   0.274  0.00  0.00    -0.070 N 
ATOM      3  C1  UNL d   1      -0.727  -1.236   1.009  0.00  0.00    -0.004 A 
ATOM      4  C2  UNL d   1      -2.018  -1.340   0.537  0.00  0.00    -0.047 A 
ATOM      5  C3  UNL d   1      -2.159  -0.408  -0.518  0.00  0.00    -0.047 A 
ATOM      6  C4  UNL d   1      -0.949   0.239  -0.659  0.00  0.00    -0.004 A 
ENDROOT
TORSDOF 0
ENDMDL
