MODEL 1
REMARK minimizedAffinity -1.17258775
REMARK minimizedRMSD -1
REMARK  0 active torsions:
REMARK  status: ('A' for Active; 'I' for Inactive)
ROOT
ATOM      1  C   UNL d   1       2.327   1.990   0.392  0.00  0.00     0.172 C 
ATOM      2  N   UNL d   1       1.311   0.974   0.247  0.00  0.00    -0.070 N 
ATOM      3  C1  UNL d   1       0.227   1.042  -0.586  0.00  0.00    -0.004 A 
ATOM      4  C2  UNL d   1      -0.497  -0.121  -0.433  0.00  0.00    -0.047 A 
ATOM      5  C3  UNL d   1       0.176  -0.915   0.525  0.00  0.00    -0.047 A 
ATOM      6  C4  UNL d   1       1.292  -0.213   0.930  0.00  0.00    -0.004 A 
ENDROOT
TORSDOF 0
ENDMDL
