MODEL 1
REMARK minimizedAffinity -3.5046339
REMARK minimizedRMSD -1
REMARK  0 active torsions:
REMARK  status: ('A' for Active; 'I' for Inactive)
ROOT
ATOM      1  C   UNL d   1       1.072   0.323   0.320  0.00  0.00     0.172 C 
ATOM      2  N   UNL d   1      -0.252  -0.047  -0.123  0.00  0.00    -0.070 N 
ATOM      3  C1  UNL d   1      -1.232  -0.593   0.661  0.00  0.00    -0.004 A 
ATOM      4  C2  UNL d   1      -2.341  -0.798  -0.131  0.00  0.00    -0.047 A 
ATOM      5  C3  UNL d   1      -2.015  -0.361  -1.437  0.00  0.00    -0.047 A 
ATOM      6  C4  UNL d   1      -0.716   0.099  -1.404  0.00  0.00    -0.004 A 
ENDROOT
TORSDOF 0
ENDMDL
