MODEL 1
REMARK minimizedAffinity -3.17318034
REMARK minimizedRMSD -1
REMARK  0 active torsions:
REMARK  status: ('A' for Active; 'I' for Inactive)
ROOT
ATOM      1  C   UNL d   1       1.237   0.091   0.209  0.00  0.00     0.172 C 
ATOM      2  N   UNL d   1      -0.117  -0.193  -0.204  0.00  0.00    -0.070 N 
ATOM      3  C1  UNL d   1      -1.081  -0.780   0.570  0.00  0.00    -0.004 A 
ATOM      4  C2  UNL d   1      -2.230  -0.874  -0.185  0.00  0.00    -0.047 A 
ATOM      5  C3  UNL d   1      -1.946  -0.324  -1.458  0.00  0.00    -0.047 A 
ATOM      6  C4  UNL d   1      -0.631   0.090  -1.442  0.00  0.00    -0.004 A 
ENDROOT
TORSDOF 0
ENDMDL
