MODEL 1
REMARK minimizedAffinity -3.93642402
REMARK minimizedRMSD -1
REMARK  0 active torsions:
REMARK  status: ('A' for Active; 'I' for Inactive)
ROOT
ATOM      1  C   UNL d   1      -0.072  -0.165  -2.056  0.00  0.00     0.172 C 
ATOM      2  N   UNL d   1      -1.087  -0.137  -1.030  0.00  0.00    -0.070 N 
ATOM      3  C1  UNL d   1      -1.052   0.625   0.107  0.00  0.00    -0.004 A 
ATOM      4  C2  UNL d   1      -2.202   0.367   0.823  0.00  0.00    -0.047 A 
ATOM      5  C3  UNL d   1      -2.953  -0.583   0.091  0.00  0.00    -0.047 A 
ATOM      6  C4  UNL d   1      -2.240  -0.878  -1.052  0.00  0.00    -0.004 A 
ENDROOT
TORSDOF 0
ENDMDL
