MODEL 1
REMARK minimizedAffinity -2.61382961
REMARK minimizedRMSD -1
REMARK  0 active torsions:
REMARK  status: ('A' for Active; 'I' for Inactive)
ROOT
ATOM      1  C   UNL d   1       0.510   0.546   0.297  0.00  0.00     0.172 C 
ATOM      2  N   UNL d   1      -0.777   0.160  -0.232  0.00  0.00    -0.070 N 
ATOM      3  C1  UNL d   1      -1.893  -0.123   0.510  0.00  0.00    -0.004 A 
ATOM      4  C2  UNL d   1      -2.909  -0.447  -0.363  0.00  0.00    -0.047 A 
ATOM      5  C3  UNL d   1      -2.386  -0.357  -1.674  0.00  0.00    -0.047 A 
ATOM      6  C4  UNL d   1      -1.065   0.021  -1.564  0.00  0.00    -0.004 A 
ENDROOT
TORSDOF 0
ENDMDL
