MODEL 1
REMARK minimizedAffinity -2.99203491
REMARK minimizedRMSD -1
REMARK  0 active torsions:
REMARK  status: ('A' for Active; 'I' for Inactive)
ROOT
ATOM      1  C   UNL d   1      -1.867  -0.161  -0.446  0.00  0.00     0.172 C 
ATOM      2  N   UNL d   1      -0.499   0.101  -0.065  0.00  0.00    -0.070 N 
ATOM      3  C1  UNL d   1       0.612  -0.427  -0.666  0.00  0.00    -0.004 A 
ATOM      4  C2  UNL d   1       1.720   0.066  -0.012  0.00  0.00    -0.047 A 
ATOM      5  C3  UNL d   1       1.259   0.919   1.018  0.00  0.00    -0.047 A 
ATOM      6  C4  UNL d   1      -0.119   0.922   0.963  0.00  0.00    -0.004 A 
ENDROOT
TORSDOF 0
ENDMDL
