MODEL 1
REMARK minimizedAffinity -2.74831796
REMARK minimizedRMSD -1
REMARK  0 active torsions:
REMARK  status: ('A' for Active; 'I' for Inactive)
ROOT
ATOM      1  C   UNL d   1       2.005  -0.013   0.587  0.00  0.00     0.172 C 
ATOM      2  N   UNL d   1       0.575  -0.210   0.570  0.00  0.00    -0.070 N 
ATOM      3  C1  UNL d   1      -0.277   0.213  -0.415  0.00  0.00    -0.004 A 
ATOM      4  C2  UNL d   1      -1.554  -0.168  -0.060  0.00  0.00    -0.047 A 
ATOM      5  C3  UNL d   1      -1.465  -0.842   1.181  0.00  0.00    -0.047 A 
ATOM      6  C4  UNL d   1      -0.136  -0.853   1.548  0.00  0.00    -0.004 A 
ENDROOT
TORSDOF 0
ENDMDL
