MODEL 1
REMARK minimizedAffinity -3.78225374
REMARK minimizedRMSD -1
REMARK  0 active torsions:
REMARK  status: ('A' for Active; 'I' for Inactive)
ROOT
ATOM      1  C   UNL d   1       1.025   0.395   0.101  0.00  0.00     0.172 C 
ATOM      2  N   UNL d   1      -0.247  -0.072  -0.400  0.00  0.00    -0.070 N 
ATOM      3  C1  UNL d   1      -0.597  -0.175  -1.720  0.00  0.00    -0.004 A 
ATOM      4  C2  UNL d   1      -1.886  -0.658  -1.778  0.00  0.00    -0.047 A 
ATOM      5  C3  UNL d   1      -2.327  -0.850  -0.447  0.00  0.00    -0.047 A 
ATOM      6  C4  UNL d   1      -1.293  -0.479   0.386  0.00  0.00    -0.004 A 
ENDROOT
TORSDOF 0
ENDMDL
