MODEL 1
REMARK minimizedAffinity -3.59583855
REMARK minimizedRMSD -1
REMARK  0 active torsions:
REMARK  status: ('A' for Active; 'I' for Inactive)
ROOT
ATOM      1  C   UNL d   1       0.832   0.306   0.397  0.00  0.00     0.172 C 
ATOM      2  N   UNL d   1      -0.545   0.027   0.065  0.00  0.00    -0.070 N 
ATOM      3  C1  UNL d   1      -1.446  -0.618   0.870  0.00  0.00    -0.004 A 
ATOM      4  C2  UNL d   1      -2.644  -0.685   0.193  0.00  0.00    -0.047 A 
ATOM      5  C3  UNL d   1      -2.457  -0.060  -1.063  0.00  0.00    -0.047 A 
ATOM      6  C4  UNL d   1      -1.149   0.372  -1.116  0.00  0.00    -0.004 A 
ENDROOT
TORSDOF 0
ENDMDL
