MODEL 1
REMARK minimizedAffinity -3.46832776
REMARK minimizedRMSD -1
REMARK  0 active torsions:
REMARK  status: ('A' for Active; 'I' for Inactive)
ROOT
ATOM      1  C   UNL d   1       1.663  -0.076   0.067  0.00  0.00     0.172 C 
ATOM      2  N   UNL d   1       0.275  -0.188   0.450  0.00  0.00    -0.070 N 
ATOM      3  C1  UNL d   1      -0.617   0.847   0.531  0.00  0.00    -0.004 A 
ATOM      4  C2  UNL d   1      -1.831   0.328   0.927  0.00  0.00    -0.047 A 
ATOM      5  C3  UNL d   1      -1.662  -1.067   1.090  0.00  0.00    -0.047 A 
ATOM      6  C4  UNL d   1      -0.349  -1.360   0.788  0.00  0.00    -0.004 A 
ENDROOT
TORSDOF 0
ENDMDL
