MODEL 1
REMARK minimizedAffinity -2.85025477
REMARK minimizedRMSD -1
REMARK  0 active torsions:
REMARK  status: ('A' for Active; 'I' for Inactive)
ROOT
ATOM      1  C   UNL d   1      -2.493  -0.552   0.390  0.00  0.00     0.172 C 
ATOM      2  N   UNL d   1      -1.053  -0.439   0.367  0.00  0.00    -0.070 N 
ATOM      3  C1  UNL d   1      -0.333   0.433  -0.405  0.00  0.00    -0.004 A 
ATOM      4  C2  UNL d   1       1.003   0.229  -0.139  0.00  0.00    -0.047 A 
ATOM      5  C3  UNL d   1       1.090  -0.803   0.826  0.00  0.00    -0.047 A 
ATOM      6  C4  UNL d   1      -0.198  -1.198   1.121  0.00  0.00    -0.004 A 
ENDROOT
TORSDOF 0
ENDMDL
