MODEL 1
REMARK minimizedAffinity -3.36180353
REMARK minimizedRMSD -1
REMARK  0 active torsions:
REMARK  status: ('A' for Active; 'I' for Inactive)
ROOT
ATOM      1  C   UNL d   1       0.936  -0.008   0.062  0.00  0.00     0.172 C 
ATOM      2  N   UNL d   1      -0.383  -0.252  -0.474  0.00  0.00    -0.070 N 
ATOM      3  C1  UNL d   1      -0.662  -0.683  -1.743  0.00  0.00    -0.004 A 
ATOM      4  C2  UNL d   1      -2.030  -0.792  -1.861  0.00  0.00    -0.047 A 
ATOM      5  C3  UNL d   1      -2.594  -0.413  -0.620  0.00  0.00    -0.047 A 
ATOM      6  C4  UNL d   1      -1.552  -0.083   0.221  0.00  0.00    -0.004 A 
ENDROOT
TORSDOF 0
ENDMDL
