MODEL 1
REMARK minimizedAffinity -3.04252481
REMARK minimizedRMSD -1
REMARK  0 active torsions:
REMARK  status: ('A' for Active; 'I' for Inactive)
ROOT
ATOM      1  C   UNL d   1       1.257   0.786   0.367  0.00  0.00     0.172 C 
ATOM      2  N   UNL d   1      -0.078   0.300   0.104  0.00  0.00    -0.070 N 
ATOM      3  C1  UNL d   1      -0.915  -0.270   1.025  0.00  0.00    -0.004 A 
ATOM      4  C2  UNL d   1      -2.090  -0.597   0.383  0.00  0.00    -0.047 A 
ATOM      5  C3  UNL d   1      -1.953  -0.209  -0.972  0.00  0.00    -0.047 A 
ATOM      6  C4  UNL d   1      -0.698   0.343  -1.116  0.00  0.00    -0.004 A 
ENDROOT
TORSDOF 0
ENDMDL
