MODEL 1
REMARK minimizedAffinity -0.725270927
REMARK minimizedRMSD -1
REMARK  0 active torsions:
REMARK  status: ('A' for Active; 'I' for Inactive)
ROOT
ATOM      1  C   UNL d   1      -1.364  -0.034   0.487  0.00  0.00     0.020 A 
ATOM      2  C1  UNL d   1      -1.576   0.809  -0.604  0.00  0.00     0.020 A 
ATOM      3  C2  UNL d   1      -0.725   0.748  -1.709  0.00  0.00     0.034 A 
ATOM      4  C3  UNL d   1       0.342  -0.158  -1.727  0.00  0.00     0.017 A 
ATOM      5  C4  UNL d   1       0.553  -1.004  -0.632  0.00  0.00     0.017 A 
ATOM      6  C5  UNL d   1      -0.302  -0.938   0.472  0.00  0.00     0.034 A 
ATOM      7 Cl   UNL d   1       1.848  -2.148  -0.581  0.00  0.00    -0.070 Cl
ATOM      8 Cl1  UNL d   1       1.354  -0.180  -3.127  0.00  0.00    -0.070 Cl
ENDROOT
TORSDOF 0
ENDMDL
