MODEL 1
REMARK minimizedAffinity -4.40847254
REMARK minimizedRMSD -1
REMARK  0 active torsions:
REMARK  status: ('A' for Active; 'I' for Inactive)
ROOT
ATOM      1  C   UNL d   1       0.227  -0.863  -0.923  0.00  0.00     0.020 A 
ATOM      2  C1  UNL d   1      -1.062  -0.376  -0.706  0.00  0.00     0.020 A 
ATOM      3  C2  UNL d   1      -1.334   0.398   0.424  0.00  0.00     0.034 A 
ATOM      4  C3  UNL d   1      -0.316   0.688   1.340  0.00  0.00     0.017 A 
ATOM      5  C4  UNL d   1       0.977   0.199   1.121  0.00  0.00     0.017 A 
ATOM      6  C5  UNL d   1       1.244  -0.576  -0.012  0.00  0.00     0.034 A 
ATOM      7 Cl   UNL d   1       2.284   0.515   2.207  0.00  0.00    -0.070 Cl
ATOM      8 Cl1  UNL d   1      -0.724   1.652   2.715  0.00  0.00    -0.070 Cl
ENDROOT
TORSDOF 0
ENDMDL
