MODEL 1
REMARK minimizedAffinity -3.39756227
REMARK minimizedRMSD -1
REMARK  0 active torsions:
REMARK  status: ('A' for Active; 'I' for Inactive)
ROOT
ATOM      1  C   UNL d   1      -1.045   1.401   2.585  0.00  0.00     0.020 A 
ATOM      2  C1  UNL d   1       0.270   1.374   2.125  0.00  0.00     0.020 A 
ATOM      3  C2  UNL d   1       0.542   0.985   0.811  0.00  0.00     0.034 A 
ATOM      4  C3  UNL d   1      -0.503   0.623  -0.046  0.00  0.00     0.017 A 
ATOM      5  C4  UNL d   1      -1.823   0.650   0.417  0.00  0.00     0.017 A 
ATOM      6  C5  UNL d   1      -2.090   1.040   1.733  0.00  0.00     0.034 A 
ATOM      7 Cl   UNL d   1      -3.166   0.217  -0.582  0.00  0.00    -0.070 Cl
ATOM      8 Cl1  UNL d   1      -0.094   0.153  -1.658  0.00  0.00    -0.070 Cl
ENDROOT
TORSDOF 0
ENDMDL
