MODEL 1
REMARK minimizedAffinity -4.14844942
REMARK minimizedRMSD -1
REMARK  0 active torsions:
REMARK  status: ('A' for Active; 'I' for Inactive)
ROOT
ATOM      1  C   UNL d   1      -0.501  -0.135  -0.566  0.00  0.00     0.020 A 
ATOM      2  C1  UNL d   1      -1.641   0.442  -0.007  0.00  0.00     0.020 A 
ATOM      3  C2  UNL d   1      -1.586   0.999   1.273  0.00  0.00     0.034 A 
ATOM      4  C3  UNL d   1      -0.389   0.980   1.998  0.00  0.00     0.017 A 
ATOM      5  C4  UNL d   1       0.755   0.401   1.436  0.00  0.00     0.017 A 
ATOM      6  C5  UNL d   1       0.694  -0.155   0.154  0.00  0.00     0.034 A 
ATOM      7 Cl   UNL d   1       2.268   0.340   2.269  0.00  0.00    -0.070 Cl
ATOM      8 Cl1  UNL d   1      -0.393   1.687   3.574  0.00  0.00    -0.070 Cl
ENDROOT
TORSDOF 0
ENDMDL
