MODEL 1
REMARK minimizedAffinity -2.28633666
REMARK minimizedRMSD -1
REMARK  0 active torsions:
REMARK  status: ('A' for Active; 'I' for Inactive)
ROOT
ATOM      1  C   UNL d   1      -0.842   1.515   2.417  0.00  0.00     0.020 A 
ATOM      2  C1  UNL d   1       0.470   1.740   2.003  0.00  0.00     0.020 A 
ATOM      3  C2  UNL d   1       0.948   1.135   0.838  0.00  0.00     0.034 A 
ATOM      4  C3  UNL d   1       0.113   0.303   0.084  0.00  0.00     0.017 A 
ATOM      5  C4  UNL d   1      -1.205   0.078   0.500  0.00  0.00     0.017 A 
ATOM      6  C5  UNL d   1      -1.678   0.686   1.667  0.00  0.00     0.034 A 
ATOM      7 Cl   UNL d   1      -2.294  -0.935  -0.378  0.00  0.00    -0.070 Cl
ATOM      8 Cl1  UNL d   1       0.769  -0.412  -1.346  0.00  0.00    -0.070 Cl
ENDROOT
TORSDOF 0
ENDMDL
