MODEL 1
REMARK minimizedAffinity -3.02475762
REMARK minimizedRMSD -1
REMARK  0 active torsions:
REMARK  status: ('A' for Active; 'I' for Inactive)
ROOT
ATOM      1  C   UNL d   1      -0.645   0.342   1.183  0.00  0.00     0.020 A 
ATOM      2  C1  UNL d   1      -1.424   0.570   0.050  0.00  0.00     0.020 A 
ATOM      3  C2  UNL d   1      -1.007   0.087  -1.192  0.00  0.00     0.034 A 
ATOM      4  C3  UNL d   1       0.192  -0.626  -1.304  0.00  0.00     0.017 A 
ATOM      5  C4  UNL d   1       0.973  -0.854  -0.166  0.00  0.00     0.017 A 
ATOM      6  C5  UNL d   1       0.551  -0.368   1.075  0.00  0.00     0.034 A 
ATOM      7 Cl   UNL d   1       2.465  -1.726  -0.225  0.00  0.00    -0.070 Cl
ATOM      8 Cl1  UNL d   1       0.645  -1.195  -2.872  0.00  0.00    -0.070 Cl
ENDROOT
TORSDOF 0
ENDMDL
