MODEL 1
REMARK minimizedAffinity -3.80302286
REMARK minimizedRMSD -1
REMARK  0 active torsions:
REMARK  status: ('A' for Active; 'I' for Inactive)
ROOT
ATOM      1  C   UNL d   1      -2.193   0.729   0.472  0.00  0.00     0.020 A 
ATOM      2  C1  UNL d   1      -1.857   1.065   1.783  0.00  0.00     0.020 A 
ATOM      3  C2  UNL d   1      -0.552   0.871   2.240  0.00  0.00     0.034 A 
ATOM      4  C3  UNL d   1       0.421   0.339   1.387  0.00  0.00     0.017 A 
ATOM      5  C4  UNL d   1       0.083   0.001   0.072  0.00  0.00     0.017 A 
ATOM      6  C5  UNL d   1      -1.226   0.198  -0.381  0.00  0.00     0.034 A 
ATOM      7 Cl   UNL d   1       1.229  -0.660  -1.040  0.00  0.00    -0.070 Cl
ATOM      8 Cl1  UNL d   1       2.015   0.125   2.020  0.00  0.00    -0.070 Cl
ENDROOT
TORSDOF 0
ENDMDL
