MODEL 1
REMARK minimizedAffinity -4.26437902
REMARK minimizedRMSD -1
REMARK  0 active torsions:
REMARK  status: ('A' for Active; 'I' for Inactive)
ROOT
ATOM      1  C   UNL d   1      -0.539   1.027   2.808  0.00  0.00     0.020 A 
ATOM      2  C1  UNL d   1       0.727   1.380   2.341  0.00  0.00     0.020 A 
ATOM      3  C2  UNL d   1       1.075   1.133   1.012  0.00  0.00     0.034 A 
ATOM      4  C3  UNL d   1       0.156   0.531   0.144  0.00  0.00     0.017 A 
ATOM      5  C4  UNL d   1      -1.114   0.177   0.613  0.00  0.00     0.017 A 
ATOM      6  C5  UNL d   1      -1.457   0.427   1.945  0.00  0.00     0.034 A 
ATOM      7 Cl   UNL d   1      -2.301  -0.569  -0.398  0.00  0.00    -0.070 Cl
ATOM      8 Cl1  UNL d   1       0.654   0.255  -1.488  0.00  0.00    -0.070 Cl
ENDROOT
TORSDOF 0
ENDMDL
