MODEL 1
REMARK minimizedAffinity -4.25184345
REMARK minimizedRMSD -1
REMARK  0 active torsions:
REMARK  status: ('A' for Active; 'I' for Inactive)
ROOT
ATOM      1  C   UNL d   1       2.336  -1.148   1.403  0.00  0.00     0.020 A 
ATOM      2  C1  UNL d   1       1.540  -1.866   0.511  0.00  0.00     0.020 A 
ATOM      3  C2  UNL d   1       0.202  -1.511   0.327  0.00  0.00     0.034 A 
ATOM      4  C3  UNL d   1      -0.345  -0.435   1.036  0.00  0.00     0.017 A 
ATOM      5  C4  UNL d   1       0.455   0.285   1.931  0.00  0.00     0.017 A 
ATOM      6  C5  UNL d   1       1.794  -0.074   2.111  0.00  0.00     0.034 A 
ATOM      7 Cl   UNL d   1      -0.149   1.624   2.842  0.00  0.00    -0.070 Cl
ATOM      8 Cl1  UNL d   1      -2.006  -0.052   0.759  0.00  0.00    -0.070 Cl
ENDROOT
TORSDOF 0
ENDMDL
