MODEL 1
REMARK minimizedAffinity -3.57196307
REMARK minimizedRMSD -1
REMARK  0 active torsions:
REMARK  status: ('A' for Active; 'I' for Inactive)
ROOT
ATOM      1  C   UNL d   1      -1.548   1.908   1.513  0.00  0.00     0.020 A 
ATOM      2  C1  UNL d   1      -2.089   1.112   0.505  0.00  0.00     0.020 A 
ATOM      3  C2  UNL d   1      -1.308   0.124  -0.099  0.00  0.00     0.034 A 
ATOM      4  C3  UNL d   1       0.018  -0.070   0.305  0.00  0.00     0.017 A 
ATOM      5  C4  UNL d   1       0.560   0.730   1.317  0.00  0.00     0.017 A 
ATOM      6  C5  UNL d   1      -0.226   1.718   1.919  0.00  0.00     0.034 A 
ATOM      7 Cl   UNL d   1       2.188   0.549   1.870  0.00  0.00    -0.070 Cl
ATOM      8 Cl1  UNL d   1       0.925  -1.310  -0.485  0.00  0.00    -0.070 Cl
ENDROOT
TORSDOF 0
ENDMDL
