MODEL 1
REMARK minimizedAffinity 6.32093191
REMARK minimizedRMSD -1
REMARK  0 active torsions:
REMARK  status: ('A' for Active; 'I' for Inactive)
ROOT
ATOM      1  C   UNL d   1       1.656  -0.826   0.653  0.00  0.00     0.023 A 
ATOM      2  C1  UNL d   1       1.374  -2.063   1.232  0.00  0.00     0.003 A 
ATOM      3  C2  UNL d   1       2.398  -2.989   1.439  0.00  0.00     0.048 A 
ATOM      4  C3  UNL d   1       3.703  -2.672   1.063  0.00  0.00     0.023 A 
ATOM      5  C4  UNL d   1       3.990  -1.435   0.484  0.00  0.00     0.048 A 
ATOM      6  C5  UNL d   1       2.963  -0.513   0.279  0.00  0.00     0.003 A 
ATOM      7  I   UNL d   1       5.230  -4.048   1.369  0.00  0.00    -0.146 I 
ENDROOT
TORSDOF 0
ENDMDL
