MODEL 1
REMARK minimizedAffinity 7.00184059
REMARK minimizedRMSD -1
REMARK  0 active torsions:
REMARK  status: ('A' for Active; 'I' for Inactive)
ROOT
ATOM      1  C   UNL d   1      -2.259   5.984  -4.503  0.00  0.00     0.023 A 
ATOM      2  C1  UNL d   1      -3.376   5.611  -3.755  0.00  0.00     0.003 A 
ATOM      3  C2  UNL d   1      -4.126   4.494  -4.129  0.00  0.00     0.048 A 
ATOM      4  C3  UNL d   1      -3.752   3.753  -5.250  0.00  0.00     0.023 A 
ATOM      5  C4  UNL d   1      -2.634   4.122  -6.000  0.00  0.00     0.048 A 
ATOM      6  C5  UNL d   1      -1.888   5.241  -5.623  0.00  0.00     0.003 A 
ATOM      7  I   UNL d   1      -4.866   2.090  -5.807  0.00  0.00    -0.146 I 
ENDROOT
TORSDOF 0
ENDMDL
