MODEL 1
REMARK minimizedAffinity 3.05507731
REMARK minimizedRMSD -1
REMARK  0 active torsions:
REMARK  status: ('A' for Active; 'I' for Inactive)
ROOT
ATOM      1  C   UNL d   1       1.553   4.538   5.087  0.00  0.00     0.023 A 
ATOM      2  C1  UNL d   1       2.012   4.286   3.794  0.00  0.00     0.003 A 
ATOM      3  C2  UNL d   1       3.288   4.705   3.411  0.00  0.00     0.048 A 
ATOM      4  C3  UNL d   1       4.100   5.374   4.326  0.00  0.00     0.023 A 
ATOM      5  C4  UNL d   1       3.646   5.627   5.621  0.00  0.00     0.048 A 
ATOM      6  C5  UNL d   1       2.369   5.208   6.000  0.00  0.00     0.003 A 
ATOM      7  I   UNL d   1       6.000   5.997   3.758  0.00  0.00    -0.146 I 
ENDROOT
TORSDOF 0
ENDMDL
