MODEL 1
REMARK minimizedAffinity 8.30959225
REMARK minimizedRMSD -1
REMARK  0 active torsions:
REMARK  status: ('A' for Active; 'I' for Inactive)
ROOT
ATOM      1  C   UNL d   1       5.999  -4.391  -1.208  0.00  0.00     0.023 A 
ATOM      2  C1  UNL d   1       5.115  -5.469  -1.160  0.00  0.00     0.003 A 
ATOM      3  C2  UNL d   1       3.832  -5.298  -0.635  0.00  0.00     0.048 A 
ATOM      4  C3  UNL d   1       3.440  -4.047  -0.161  0.00  0.00     0.023 A 
ATOM      5  C4  UNL d   1       4.321  -2.965  -0.208  0.00  0.00     0.048 A 
ATOM      6  C5  UNL d   1       5.603  -3.141  -0.732  0.00  0.00     0.003 A 
ATOM      7  I   UNL d   1       1.531  -3.790   0.620  0.00  0.00    -0.146 I 
ENDROOT
TORSDOF 0
ENDMDL
