MODEL 1
REMARK minimizedAffinity 14.5758257
REMARK minimizedRMSD -1
REMARK  0 active torsions:
REMARK  status: ('A' for Active; 'I' for Inactive)
ROOT
ATOM      1  C   UNL d   1      -0.611  -2.801   1.295  0.00  0.00     0.023 A 
ATOM      2  C1  UNL d   1      -1.014  -2.324   2.542  0.00  0.00     0.003 A 
ATOM      3  C2  UNL d   1      -0.073  -1.786   3.423  0.00  0.00     0.048 A 
ATOM      4  C3  UNL d   1       1.269  -1.728   3.049  0.00  0.00     0.023 A 
ATOM      5  C4  UNL d   1       1.676  -2.203   1.801  0.00  0.00     0.048 A 
ATOM      6  C5  UNL d   1       0.732  -2.741   0.925  0.00  0.00     0.003 A 
ATOM      7  I   UNL d   1       2.671  -0.927   4.357  0.00  0.00    -0.146 I 
ENDROOT
TORSDOF 0
ENDMDL
