MODEL 1
REMARK minimizedAffinity 2.14698625
REMARK minimizedRMSD -1
REMARK  0 active torsions:
REMARK  status: ('A' for Active; 'I' for Inactive)
ROOT
ATOM      1  C   UNL d   1       1.131   4.944   5.038  0.00  0.00     0.023 A 
ATOM      2  C1  UNL d   1       1.785   4.506   3.886  0.00  0.00     0.003 A 
ATOM      3  C2  UNL d   1       3.134   4.808   3.690  0.00  0.00     0.048 A 
ATOM      4  C3  UNL d   1       3.824   5.547   4.651  0.00  0.00     0.023 A 
ATOM      5  C4  UNL d   1       3.174   5.986   5.805  0.00  0.00     0.048 A 
ATOM      6  C5  UNL d   1       1.824   5.683   5.996  0.00  0.00     0.003 A 
ATOM      7  I   UNL d   1       5.832   5.996   4.362  0.00  0.00    -0.146 I 
ENDROOT
TORSDOF 0
ENDMDL
