MODEL 1
REMARK minimizedAffinity 10.0931883
REMARK minimizedRMSD -1
REMARK  0 active torsions:
REMARK  status: ('A' for Active; 'I' for Inactive)
ROOT
ATOM      1  C   UNL d   1      -4.451   4.879  -5.999  0.00  0.00     0.023 A 
ATOM      2  C1  UNL d   1      -3.393   4.143  -5.467  0.00  0.00     0.003 A 
ATOM      3  C2  UNL d   1      -3.623   2.874  -4.931  0.00  0.00     0.048 A 
ATOM      4  C3  UNL d   1      -4.914   2.347  -4.933  0.00  0.00     0.023 A 
ATOM      5  C4  UNL d   1      -5.976   3.079  -5.465  0.00  0.00     0.048 A 
ATOM      6  C5  UNL d   1      -5.741   4.348  -5.999  0.00  0.00     0.003 A 
ATOM      7  I   UNL d   1      -5.259   0.458  -4.137  0.00  0.00    -0.146 I 
ENDROOT
TORSDOF 0
ENDMDL
