MODEL 1
REMARK minimizedAffinity 8.86902332
REMARK minimizedRMSD -1
REMARK  0 active torsions:
REMARK  status: ('A' for Active; 'I' for Inactive)
ROOT
ATOM      1  C   UNL d   1      -3.080   1.134   1.829  0.00  0.00     0.020 A 
ATOM      2  C1  UNL d   1      -2.844  -0.158   2.297  0.00  0.00     0.020 A 
ATOM      3  C2  UNL d   1      -1.545  -0.557   2.620  0.00  0.00     0.034 A 
ATOM      4  C3  UNL d   1      -0.478   0.337   2.476  0.00  0.00     0.017 A 
ATOM      5  C4  UNL d   1      -0.716   1.634   2.007  0.00  0.00     0.017 A 
ATOM      6  C5  UNL d   1      -2.019   2.028   1.685  0.00  0.00     0.034 A 
ATOM      7 Cl   UNL d   1       0.549   2.793   1.804  0.00  0.00    -0.070 Cl
ATOM      8 Cl1  UNL d   1       1.102  -0.224   2.894  0.00  0.00    -0.070 Cl
ENDROOT
TORSDOF 0
ENDMDL
