MODEL 1
REMARK minimizedAffinity 7.1760397
REMARK minimizedRMSD -1
REMARK  0 active torsions:
REMARK  status: ('A' for Active; 'I' for Inactive)
ROOT
ATOM      1  C   UNL d   1      -0.130   0.056  -5.902  0.00  0.00     0.020 A 
ATOM      2  C1  UNL d   1       0.119   0.613  -4.648  0.00  0.00     0.020 A 
ATOM      3  C2  UNL d   1      -0.163  -0.117  -3.492  0.00  0.00     0.034 A 
ATOM      4  C3  UNL d   1      -0.696  -1.407  -3.586  0.00  0.00     0.017 A 
ATOM      5  C4  UNL d   1      -0.947  -1.965  -4.845  0.00  0.00     0.017 A 
ATOM      6  C5  UNL d   1      -0.662  -1.230  -6.000  0.00  0.00     0.034 A 
ATOM      7 Cl   UNL d   1      -1.604  -3.552  -5.041  0.00  0.00    -0.070 Cl
ATOM      8 Cl1  UNL d   1      -1.021  -2.252  -2.114  0.00  0.00    -0.070 Cl
ENDROOT
TORSDOF 0
ENDMDL
