MODEL 1
REMARK minimizedAffinity 14.1125641
REMARK minimizedRMSD -1
REMARK  0 active torsions:
REMARK  status: ('A' for Active; 'I' for Inactive)
ROOT
ATOM      1  C   UNL d   1       5.442   1.885   0.361  0.00  0.00     0.020 A 
ATOM      2  C1  UNL d   1       6.000   1.275   1.484  0.00  0.00     0.020 A 
ATOM      3  C2  UNL d   1       5.805   1.830   2.750  0.00  0.00     0.034 A 
ATOM      4  C3  UNL d   1       5.050   2.999   2.897  0.00  0.00     0.017 A 
ATOM      5  C4  UNL d   1       4.490   3.611   1.770  0.00  0.00     0.017 A 
ATOM      6  C5  UNL d   1       4.688   3.051   0.504  0.00  0.00     0.034 A 
ATOM      7 Cl   UNL d   1       3.546   5.056   1.872  0.00  0.00    -0.070 Cl
ATOM      8 Cl1  UNL d   1       4.849   3.631   4.493  0.00  0.00    -0.070 Cl
ENDROOT
TORSDOF 0
ENDMDL
