MODEL 1
REMARK minimizedAffinity 10.0948982
REMARK minimizedRMSD -1
REMARK  0 active torsions:
REMARK  status: ('A' for Active; 'I' for Inactive)
ROOT
ATOM      1  C   UNL d   1       5.504   2.499   3.826  0.00  0.00     0.020 A 
ATOM      2  C1  UNL d   1       5.411   1.736   2.663  0.00  0.00     0.020 A 
ATOM      3  C2  UNL d   1       4.845   2.286   1.511  0.00  0.00     0.034 A 
ATOM      4  C3  UNL d   1       4.371   3.603   1.519  0.00  0.00     0.017 A 
ATOM      5  C4  UNL d   1       4.465   4.368   2.687  0.00  0.00     0.017 A 
ATOM      6  C5  UNL d   1       5.033   3.813   3.838  0.00  0.00     0.034 A 
ATOM      7 Cl   UNL d   1       3.902   6.000   2.775  0.00  0.00    -0.070 Cl
ATOM      8 Cl1  UNL d   1       3.684   4.219   0.058  0.00  0.00    -0.070 Cl
ENDROOT
TORSDOF 0
ENDMDL
