MODEL 1
REMARK minimizedAffinity 13.2398252
REMARK minimizedRMSD -1
REMARK  0 active torsions:
REMARK  status: ('A' for Active; 'I' for Inactive)
ROOT
ATOM      1  C   UNL d   1       2.614  -2.530  -4.766  0.00  0.00     0.020 A 
ATOM      2  C1  UNL d   1       2.281  -3.669  -5.497  0.00  0.00     0.020 A 
ATOM      3  C2  UNL d   1       0.954  -3.898  -5.866  0.00  0.00     0.034 A 
ATOM      4  C3  UNL d   1      -0.045  -2.987  -5.505  0.00  0.00     0.017 A 
ATOM      5  C4  UNL d   1       0.291  -1.843  -4.772  0.00  0.00     0.017 A 
ATOM      6  C5  UNL d   1       1.621  -1.618  -4.404  0.00  0.00     0.034 A 
ATOM      7 Cl   UNL d   1      -0.886  -0.672  -4.290  0.00  0.00    -0.070 Cl
ATOM      8 Cl1  UNL d   1      -1.665  -3.333  -5.996  0.00  0.00    -0.070 Cl
ENDROOT
TORSDOF 0
ENDMDL
