MODEL 1
REMARK minimizedAffinity 4.86145449
REMARK minimizedRMSD -1
REMARK  0 active torsions:
REMARK  status: ('A' for Active; 'I' for Inactive)
ROOT
ATOM      1  C   UNL d   1       1.876  -0.419   4.201  0.00  0.00     0.020 A 
ATOM      2  C1  UNL d   1       1.823  -1.664   3.576  0.00  0.00     0.020 A 
ATOM      3  C2  UNL d   1       0.861  -1.913   2.595  0.00  0.00     0.034 A 
ATOM      4  C3  UNL d   1      -0.053  -0.915   2.236  0.00  0.00     0.017 A 
ATOM      5  C4  UNL d   1       0.000   0.334   2.864  0.00  0.00     0.017 A 
ATOM      6  C5  UNL d   1       0.966   0.578   3.846  0.00  0.00     0.034 A 
ATOM      7 Cl   UNL d   1      -1.093   1.615   2.475  0.00  0.00    -0.070 Cl
ATOM      8 Cl1  UNL d   1      -1.216  -1.293   1.015  0.00  0.00    -0.070 Cl
ENDROOT
TORSDOF 0
ENDMDL
