MODEL 1
REMARK minimizedAffinity 11.2075853
REMARK minimizedRMSD -1
REMARK  0 active torsions:
REMARK  status: ('A' for Active; 'I' for Inactive)
ROOT
ATOM      1  C   UNL d   1       4.082   6.000   1.865  0.00  0.00     0.020 A 
ATOM      2  C1  UNL d   1       3.752   4.924   1.043  0.00  0.00     0.020 A 
ATOM      3  C2  UNL d   1       4.112   3.626   1.413  0.00  0.00     0.034 A 
ATOM      4  C3  UNL d   1       4.804   3.401   2.609  0.00  0.00     0.017 A 
ATOM      5  C4  UNL d   1       5.136   4.483   3.433  0.00  0.00     0.017 A 
ATOM      6  C5  UNL d   1       4.773   5.780   3.058  0.00  0.00     0.034 A 
ATOM      7 Cl   UNL d   1       5.989   4.284   4.923  0.00  0.00    -0.070 Cl
ATOM      8 Cl1  UNL d   1       5.217   1.771   3.004  0.00  0.00    -0.070 Cl
ENDROOT
TORSDOF 0
ENDMDL
