MODEL 1
REMARK minimizedAffinity 18.1474266
REMARK minimizedRMSD -1
REMARK  0 active torsions:
REMARK  status: ('A' for Active; 'I' for Inactive)
ROOT
ATOM      1  C   UNL d   1      -1.913  -1.863  -2.665  0.00  0.00     0.020 A 
ATOM      2  C1  UNL d   1      -0.880  -1.919  -1.729  0.00  0.00     0.020 A 
ATOM      3  C2  UNL d   1       0.421  -1.581  -2.105  0.00  0.00     0.034 A 
ATOM      4  C3  UNL d   1       0.695  -1.185  -3.419  0.00  0.00     0.017 A 
ATOM      5  C4  UNL d   1      -0.342  -1.129  -4.357  0.00  0.00     0.017 A 
ATOM      6  C5  UNL d   1      -1.644  -1.468  -3.976  0.00  0.00     0.034 A 
ATOM      7 Cl   UNL d   1      -0.083  -0.650  -5.998  0.00  0.00    -0.070 Cl
ATOM      8 Cl1  UNL d   1       2.327  -0.781  -3.814  0.00  0.00    -0.070 Cl
ENDROOT
TORSDOF 0
ENDMDL
