MODEL 1
REMARK minimizedAffinity 9.59172821
REMARK minimizedRMSD -1
REMARK  0 active torsions:
REMARK  status: ('A' for Active; 'I' for Inactive)
ROOT
ATOM      1  C   UNL d   1      -1.016  -4.502   5.657  0.00  0.00     0.020 A 
ATOM      2  C1  UNL d   1       0.249  -4.979   5.999  0.00  0.00     0.020 A 
ATOM      3  C2  UNL d   1       1.360  -4.620   5.233  0.00  0.00     0.034 A 
ATOM      4  C3  UNL d   1       1.209  -3.783   4.122  0.00  0.00     0.017 A 
ATOM      5  C4  UNL d   1      -0.061  -3.305   3.780  0.00  0.00     0.017 A 
ATOM      6  C5  UNL d   1      -1.170  -3.667   4.550  0.00  0.00     0.034 A 
ATOM      7 Cl   UNL d   1      -0.326  -2.268   2.423  0.00  0.00    -0.070 Cl
ATOM      8 Cl1  UNL d   1       2.627  -3.380   3.221  0.00  0.00    -0.070 Cl
ENDROOT
TORSDOF 0
ENDMDL
