MODEL 1
REMARK minimizedAffinity 13.1581745
REMARK minimizedRMSD -1
REMARK  0 active torsions:
REMARK  status: ('A' for Active; 'I' for Inactive)
ROOT
ATOM      1  C   UNL d   1      -5.998   5.694  -1.491  0.00  0.00     0.020 A 
ATOM      2  C1  UNL d   1      -5.999   5.876  -0.109  0.00  0.00     0.020 A 
ATOM      3  C2  UNL d   1      -5.998   4.768   0.742  0.00  0.00     0.034 A 
ATOM      4  C3  UNL d   1      -5.998   3.474   0.211  0.00  0.00     0.017 A 
ATOM      5  C4  UNL d   1      -5.998   3.292  -1.177  0.00  0.00     0.017 A 
ATOM      6  C5  UNL d   1      -5.998   4.404  -2.024  0.00  0.00     0.034 A 
ATOM      7 Cl   UNL d   1      -5.998   1.725  -1.907  0.00  0.00    -0.070 Cl
ATOM      8 Cl1  UNL d   1      -5.998   2.150   1.321  0.00  0.00    -0.070 Cl
ENDROOT
TORSDOF 0
ENDMDL
