MODEL 1
REMARK minimizedAffinity -4.04940605
REMARK minimizedRMSD -1
REMARK  2 active torsions:
REMARK  status: ('A' for Active; 'I' for Inactive)
REMARK    1  A    between atoms: C1_2  and  C2_3 
REMARK    2  A    between atoms: C2_3  and  C3_4 
ROOT
ATOM      1  C3  UNL d   1       1.604  -2.740  -1.281  0.00  0.00    -0.075 A 
ATOM      2  C4  UNL d   1       0.465  -3.319  -1.859  0.00  0.00     0.002 A 
ATOM      3  C5  UNL d   1       0.030  -2.918  -3.122  0.00  0.00     0.002 A 
ATOM      4  C6  UNL d   1       0.719  -1.926  -3.817  0.00  0.00    -0.004 A 
ATOM      5  C7  UNL d   1       1.842  -1.332  -3.245  0.00  0.00     0.002 A 
ATOM      6  C8  UNL d   1       2.282  -1.735  -1.983  0.00  0.00     0.002 A 
ENDROOT
BRANCH   1   7
ATOM      7  C2  UNL d   1       2.097  -3.191   0.073  0.00  0.00     0.056 C 
BRANCH   7   8
ATOM      8  C1  UNL d   1       2.930  -4.477   0.037  0.00  0.00     0.007 C 
ATOM      9  C   UNL d   1       2.084  -5.736  -0.103  0.00  0.00     0.009 C 
ENDBRANCH   7   8
ENDBRANCH   1   7
TORSDOF 2
ENDMDL
