MODEL 1
REMARK minimizedAffinity 7.0612793
REMARK minimizedRMSD -1
REMARK  2 active torsions:
REMARK  status: ('A' for Active; 'I' for Inactive)
REMARK    1  A    between atoms: C1_2  and  C2_3 
REMARK    2  A    between atoms: C2_3  and  C3_4 
ROOT
ATOM      1  C3  UNL d   1       4.212  -2.654  -0.928  0.00  0.00    -0.075 A 
ATOM      2  C4  UNL d   1       3.363  -3.749  -0.711  0.00  0.00     0.002 A 
ATOM      3  C5  UNL d   1       2.187  -3.599   0.024  0.00  0.00     0.002 A 
ATOM      4  C6  UNL d   1       1.850  -2.359   0.560  0.00  0.00    -0.004 A 
ATOM      5  C7  UNL d   1       2.694  -1.267   0.366  0.00  0.00     0.002 A 
ATOM      6  C8  UNL d   1       3.869  -1.413  -0.373  0.00  0.00     0.002 A 
ENDROOT
BRANCH   1   7
ATOM      7  C2  UNL d   1       5.471  -2.803  -1.748  0.00  0.00     0.056 C 
BRANCH   7   8
ATOM      8  C1  UNL d   1       5.220  -3.148  -3.219  0.00  0.00     0.007 C 
ATOM      9  C   UNL d   1       4.239  -2.201  -3.899  0.00  0.00     0.009 C 
ENDBRANCH   7   8
ENDBRANCH   1   7
TORSDOF 2
ENDMDL
