MODEL 1
REMARK minimizedAffinity 3.4048512
REMARK minimizedRMSD -1
REMARK  2 active torsions:
REMARK  status: ('A' for Active; 'I' for Inactive)
REMARK    1  A    between atoms: C1_2  and  C2_3 
REMARK    2  A    between atoms: C2_3  and  C3_4 
ROOT
ATOM      1  C3  UNL d   1       3.477  -3.256  -1.509  0.00  0.00    -0.075 A 
ATOM      2  C4  UNL d   1       4.624  -2.971  -0.754  0.00  0.00     0.002 A 
ATOM      3  C5  UNL d   1       5.677  -2.246  -1.311  0.00  0.00     0.002 A 
ATOM      4  C6  UNL d   1       5.603  -1.807  -2.631  0.00  0.00    -0.004 A 
ATOM      5  C7  UNL d   1       4.476  -2.099  -3.396  0.00  0.00     0.002 A 
ATOM      6  C8  UNL d   1       3.418  -2.821  -2.840  0.00  0.00     0.002 A 
ENDROOT
BRANCH   1   7
ATOM      7  C2  UNL d   1       2.322  -4.015  -0.902  0.00  0.00     0.056 C 
BRANCH   7   8
ATOM      8  C1  UNL d   1       2.070  -5.385  -1.542  0.00  0.00     0.007 C 
ATOM      9  C   UNL d   1       0.728  -5.991  -1.155  0.00  0.00     0.009 C 
ENDBRANCH   7   8
ENDBRANCH   1   7
TORSDOF 2
ENDMDL
