MODEL 1
REMARK minimizedAffinity 9.5272398
REMARK minimizedRMSD -1
REMARK  2 active torsions:
REMARK  status: ('A' for Active; 'I' for Inactive)
REMARK    1  A    between atoms: C1_2  and  C2_3 
REMARK    2  A    between atoms: C2_3  and  C3_4 
ROOT
ATOM      1  C3  UNL d   1       3.524  -3.414  -1.330  0.00  0.00    -0.075 A 
ATOM      2  C4  UNL d   1       3.249  -4.488  -2.189  0.00  0.00     0.002 A 
ATOM      3  C5  UNL d   1       2.235  -5.397  -1.884  0.00  0.00     0.002 A 
ATOM      4  C6  UNL d   1       1.491  -5.250  -0.715  0.00  0.00    -0.004 A 
ATOM      5  C7  UNL d   1       1.767  -4.196   0.153  0.00  0.00     0.002 A 
ATOM      6  C8  UNL d   1       2.778  -3.283  -0.151  0.00  0.00     0.002 A 
ENDROOT
BRANCH   1   7
ATOM      7  C2  UNL d   1       4.600  -2.410  -1.668  0.00  0.00     0.056 C 
BRANCH   7   8
ATOM      8  C1  UNL d   1       4.785  -2.177  -3.171  0.00  0.00     0.007 C 
ATOM      9  C   UNL d   1       3.530  -1.654  -3.857  0.00  0.00     0.009 C 
ENDBRANCH   7   8
ENDBRANCH   1   7
TORSDOF 2
ENDMDL
