MODEL 1
REMARK minimizedAffinity 5.55305004
REMARK minimizedRMSD -1
REMARK  2 active torsions:
REMARK  status: ('A' for Active; 'I' for Inactive)
REMARK    1  A    between atoms: C1_2  and  C2_3 
REMARK    2  A    between atoms: C2_3  and  C3_4 
ROOT
ATOM      1  C3  UNL d   1       3.170  -3.921  -0.663  0.00  0.00    -0.075 A 
ATOM      2  C4  UNL d   1       3.350  -4.940  -1.610  0.00  0.00     0.002 A 
ATOM      3  C5  UNL d   1       2.414  -5.968  -1.730  0.00  0.00     0.002 A 
ATOM      4  C6  UNL d   1       1.295  -5.996  -0.901  0.00  0.00    -0.004 A 
ATOM      5  C7  UNL d   1       1.115  -4.998   0.054  0.00  0.00     0.002 A 
ATOM      6  C8  UNL d   1       2.047  -3.966   0.174  0.00  0.00     0.002 A 
ENDROOT
BRANCH   1   7
ATOM      7  C2  UNL d   1       4.163  -2.789  -0.547  0.00  0.00     0.056 C 
BRANCH   7   8
ATOM      8  C1  UNL d   1       4.768  -2.351  -1.885  0.00  0.00     0.007 C 
ATOM      9  C   UNL d   1       3.748  -2.295  -3.015  0.00  0.00     0.009 C 
ENDBRANCH   7   8
ENDBRANCH   1   7
TORSDOF 2
ENDMDL
