MODEL 1
REMARK minimizedAffinity 6.66959
REMARK minimizedRMSD -1
REMARK  2 active torsions:
REMARK  status: ('A' for Active; 'I' for Inactive)
REMARK    1  A    between atoms: C1_2  and  C2_3 
REMARK    2  A    between atoms: C2_3  and  C3_4 
ROOT
ATOM      1  C3  UNL d   1      -1.688   2.480  -1.645  0.00  0.00    -0.075 A 
ATOM      2  C4  UNL d   1      -1.089   1.878  -0.529  0.00  0.00     0.002 A 
ATOM      3  C5  UNL d   1      -0.076   2.534   0.170  0.00  0.00     0.002 A 
ATOM      4  C6  UNL d   1       0.358   3.792  -0.242  0.00  0.00    -0.004 A 
ATOM      5  C7  UNL d   1      -0.219   4.392  -1.359  0.00  0.00     0.002 A 
ATOM      6  C8  UNL d   1      -1.236   3.740  -2.059  0.00  0.00     0.002 A 
ENDROOT
BRANCH   1   7
ATOM      7  C2  UNL d   1      -2.806   1.788  -2.389  0.00  0.00     0.056 C 
BRANCH   7   8
ATOM      8  C1  UNL d   1      -4.006   1.420  -1.510  0.00  0.00     0.007 C 
ATOM      9  C   UNL d   1      -4.226  -0.082  -1.392  0.00  0.00     0.009 C 
ENDBRANCH   7   8
ENDBRANCH   1   7
TORSDOF 2
ENDMDL
