MODEL 1
REMARK minimizedAffinity 0.294358194
REMARK minimizedRMSD -1
REMARK  0 active torsions:
REMARK  status: ('A' for Active; 'I' for Inactive)
ROOT
ATOM      1  C   UNL d   1      -5.629  -2.053  -5.996  0.00  0.00     0.078 C 
ATOM      2  C1  UNL d   1      -5.506  -3.406  -5.361  0.00  0.00    -0.077 A 
ATOM      3  C2  UNL d   1      -6.000  -4.550  -5.999  0.00  0.00    -0.001 A 
ATOM      4  C3  UNL d   1      -5.887  -5.801  -5.391  0.00  0.00     0.003 A 
ATOM      5  C4  UNL d   1      -5.283  -5.920  -4.142  0.00  0.00    -0.005 A 
ATOM      6  C5  UNL d   1      -4.790  -4.787  -3.498  0.00  0.00     0.003 A 
ATOM      7  C6  UNL d   1      -4.902  -3.535  -4.104  0.00  0.00    -0.001 A 
ENDROOT
TORSDOF 0
ENDMDL
