MODEL 1
REMARK minimizedAffinity 2.38016748
REMARK minimizedRMSD -1
REMARK  0 active torsions:
REMARK  status: ('A' for Active; 'I' for Inactive)
ROOT
ATOM      1  C   UNL d   1       2.570   2.883   0.318  0.00  0.00     0.078 C 
ATOM      2  C1  UNL d   1       1.498   1.938   0.772  0.00  0.00    -0.077 A 
ATOM      3  C2  UNL d   1       1.821   0.736   1.415  0.00  0.00    -0.001 A 
ATOM      4  C3  UNL d   1       0.813  -0.139   1.823  0.00  0.00     0.003 A 
ATOM      5  C4  UNL d   1      -0.524   0.177   1.592  0.00  0.00    -0.005 A 
ATOM      6  C5  UNL d   1      -0.855   1.369   0.952  0.00  0.00     0.003 A 
ATOM      7  C6  UNL d   1       0.151   2.246   0.542  0.00  0.00    -0.001 A 
ENDROOT
TORSDOF 0
ENDMDL
