MODEL 1
REMARK minimizedAffinity -4.59647179
REMARK minimizedRMSD -1
REMARK  0 active torsions:
REMARK  status: ('A' for Active; 'I' for Inactive)
ROOT
ATOM      1  C   UNL d   1      -5.543  -5.051  -5.918  0.00  0.00     0.078 C 
ATOM      2  C1  UNL d   1      -5.196  -4.888  -4.469  0.00  0.00    -0.077 A 
ATOM      3  C2  UNL d   1      -5.250  -3.632  -3.851  0.00  0.00    -0.001 A 
ATOM      4  C3  UNL d   1      -4.915  -3.493  -2.503  0.00  0.00     0.003 A 
ATOM      5  C4  UNL d   1      -4.523  -4.606  -1.762  0.00  0.00    -0.005 A 
ATOM      6  C5  UNL d   1      -4.465  -5.859  -2.368  0.00  0.00     0.003 A 
ATOM      7  C6  UNL d   1      -4.799  -6.000  -3.716  0.00  0.00    -0.001 A 
ENDROOT
TORSDOF 0
ENDMDL
