MODEL 1
REMARK minimizedAffinity -1.70641255
REMARK minimizedRMSD -1
REMARK  0 active torsions:
REMARK  status: ('A' for Active; 'I' for Inactive)
ROOT
ATOM      1  C   UNL d   1      -5.971  -4.309  -1.883  0.00  0.00     0.078 C 
ATOM      2  C1  UNL d   1      -5.605  -4.563  -3.315  0.00  0.00    -0.077 A 
ATOM      3  C2  UNL d   1      -4.880  -3.619  -4.053  0.00  0.00    -0.001 A 
ATOM      4  C3  UNL d   1      -4.555  -3.864  -5.388  0.00  0.00     0.003 A 
ATOM      5  C4  UNL d   1      -4.950  -5.054  -5.997  0.00  0.00    -0.005 A 
ATOM      6  C5  UNL d   1      -5.673  -5.999  -5.271  0.00  0.00     0.003 A 
ATOM      7  C6  UNL d   1      -5.999  -5.754  -3.936  0.00  0.00    -0.001 A 
ENDROOT
TORSDOF 0
ENDMDL
