MODEL 1
REMARK minimizedAffinity -3.80046129
REMARK minimizedRMSD -1
REMARK  0 active torsions:
REMARK  status: ('A' for Active; 'I' for Inactive)
ROOT
ATOM      1  O1  BZF d   1       1.683  -0.148   0.663  0.00  0.00    -0.204 OA
ATOM      2  C2  BZF d   1       1.489  -0.786  -0.546  0.00  0.00     0.174 A 
ATOM      3  C3  BZF d   1       0.183  -0.793  -0.879  0.00  0.00    -0.012 A 
ATOM      4  C3A BZF d   1      -0.471  -0.036   0.144  0.00  0.00    -0.107 A 
ATOM      5  C4  BZF d   1      -1.770   0.326   0.360  0.00  0.00     0.055 A 
ATOM      6  C5  BZF d   1      -2.087   1.005   1.493  0.00  0.00    -0.016 A 
ATOM      7  C6  BZF d   1      -1.132   1.335   2.433  0.00  0.00     0.022 A 
ATOM      8  C7  BZF d   1       0.171   1.003   2.260  0.00  0.00     0.029 A 
ATOM      9  C7A BZF d   1       0.499   0.345   1.100  0.00  0.00     0.058 A 
ENDROOT
TORSDOF 0
ENDMDL
