MODEL 1
REMARK minimizedAffinity -5.02366638
REMARK minimizedRMSD -1
REMARK  0 active torsions:
REMARK  status: ('A' for Active; 'I' for Inactive)
ROOT
ATOM      1  O1  BZF d   1       0.830  -0.691  -0.804  0.00  0.00    -0.204 OA
ATOM      2  C2  BZF d   1       2.118  -0.643  -0.307  0.00  0.00     0.174 A 
ATOM      3  C3  BZF d   1       2.134  -0.099   0.927  0.00  0.00    -0.012 A 
ATOM      4  C3A BZF d   1       0.761   0.127   1.257  0.00  0.00    -0.107 A 
ATOM      5  C4  BZF d   1       0.130   0.633   2.357  0.00  0.00     0.055 A 
ATOM      6  C5  BZF d   1      -1.220   0.788   2.332  0.00  0.00    -0.016 A 
ATOM      7  C6  BZF d   1      -1.969   0.453   1.223  0.00  0.00     0.022 A 
ATOM      8  C7  BZF d   1      -1.388  -0.058   0.110  0.00  0.00     0.029 A 
ATOM      9  C7A BZF d   1      -0.028  -0.247   0.144  0.00  0.00     0.058 A 
ENDROOT
TORSDOF 0
ENDMDL
