MODEL 1
REMARK minimizedAffinity 1.03663039
REMARK minimizedRMSD -1
REMARK  0 active torsions:
REMARK  status: ('A' for Active; 'I' for Inactive)
ROOT
ATOM      1  O1  BZF d   1       0.462  -1.212  -0.304  0.00  0.00    -0.204 OA
ATOM      2  C2  BZF d   1       0.060  -1.081  -1.620  0.00  0.00     0.174 A 
ATOM      3  C3  BZF d   1      -1.014  -0.272  -1.714  0.00  0.00    -0.012 A 
ATOM      4  C3A BZF d   1      -1.246   0.202  -0.384  0.00  0.00    -0.107 A 
ATOM      5  C4  BZF d   1      -2.165   1.051   0.163  0.00  0.00     0.055 A 
ATOM      6  C5  BZF d   1      -2.165   1.247   1.508  0.00  0.00    -0.016 A 
ATOM      7  C6  BZF d   1      -1.265   0.606   2.335  0.00  0.00     0.022 A 
ATOM      8  C7  BZF d   1      -0.332  -0.241   1.838  0.00  0.00     0.029 A 
ATOM      9  C7A BZF d   1      -0.309  -0.416   0.476  0.00  0.00     0.058 A 
ENDROOT
TORSDOF 0
ENDMDL
