MODEL 1
REMARK minimizedAffinity -4.27343512
REMARK minimizedRMSD -1
REMARK  0 active torsions:
REMARK  status: ('A' for Active; 'I' for Inactive)
ROOT
ATOM      1  O1  BZF d   1      -0.968  -1.041  -0.359  0.00  0.00    -0.204 OA
ATOM      2  C2  BZF d   1       0.284  -1.205  -0.919  0.00  0.00     0.174 A 
ATOM      3  C3  BZF d   1       1.144  -0.279  -0.447  0.00  0.00    -0.012 A 
ATOM      4  C3A BZF d   1       0.406   0.455   0.534  0.00  0.00    -0.107 A 
ATOM      5  C4  BZF d   1       0.721   1.494   1.362  0.00  0.00     0.055 A 
ATOM      6  C5  BZF d   1      -0.249   2.029   2.149  0.00  0.00    -0.016 A 
ATOM      7  C6  BZF d   1      -1.544   1.554   2.129  0.00  0.00     0.022 A 
ATOM      8  C7  BZF d   1      -1.903   0.522   1.328  0.00  0.00     0.029 A 
ATOM      9  C7A BZF d   1      -0.917  -0.043   0.556  0.00  0.00     0.058 A 
ENDROOT
TORSDOF 0
ENDMDL
