MODEL 1
REMARK minimizedAffinity -4.12311554
REMARK minimizedRMSD -1
REMARK  0 active torsions:
REMARK  status: ('A' for Active; 'I' for Inactive)
ROOT
ATOM      1  O1  BZF d   1       0.675  -0.796  -0.329  0.00  0.00    -0.204 OA
ATOM      2  C2  BZF d   1       0.304  -0.762  -1.659  0.00  0.00     0.174 A 
ATOM      3  C3  BZF d   1      -0.877  -0.128  -1.811  0.00  0.00    -0.012 A 
ATOM      4  C3A BZF d   1      -1.223   0.340  -0.504  0.00  0.00    -0.107 A 
ATOM      5  C4  BZF d   1      -2.277   1.055  -0.011  0.00  0.00     0.055 A 
ATOM      6  C5  BZF d   1      -2.352   1.284   1.326  0.00  0.00    -0.016 A 
ATOM      7  C6  BZF d   1      -1.396   0.809   2.199  0.00  0.00     0.022 A 
ATOM      8  C7  BZF d   1      -0.330   0.099   1.757  0.00  0.00     0.029 A 
ATOM      9  C7A BZF d   1      -0.233  -0.106   0.402  0.00  0.00     0.058 A 
ENDROOT
TORSDOF 0
ENDMDL
