MODEL 1
REMARK minimizedAffinity 2.45608115
REMARK minimizedRMSD -1
REMARK  3 active torsions:
REMARK  status: ('A' for Active; 'I' for Inactive)
REMARK    1  A    between atoms: C3'_2  and  C2'_3 
REMARK    2  A    between atoms: C2'_3  and  C1'_4 
REMARK    3  A    between atoms: C1'_4  and  C1_5 
ROOT
ATOM      1  C1  N4B d   1       4.397  -3.738  -4.498  0.00  0.00    -0.075 A 
ATOM      2  C2  N4B d   1       5.644  -3.876  -5.145  0.00  0.00     0.002 A 
ATOM      3  C3  N4B d   1       5.911  -4.999  -5.890  0.00  0.00     0.002 A 
ATOM      4  C4  N4B d   1       4.956  -6.000  -5.988  0.00  0.00    -0.004 A 
ATOM      5  C5  N4B d   1       3.743  -5.847  -5.381  0.00  0.00     0.002 A 
ATOM      6  C6  N4B d   1       3.461  -4.722  -4.632  0.00  0.00     0.002 A 
ENDROOT
BRANCH   1   7
ATOM      7  C1' N4B d   1       4.092  -2.568  -3.602  0.00  0.00     0.057 C 
BRANCH   7   8
ATOM      8  C2' N4B d   1       2.579  -2.428  -3.460  0.00  0.00     0.009 C 
BRANCH   8   9
ATOM      9  C3' N4B d   1       2.154  -2.313  -2.006  0.00  0.00     0.004 C 
ATOM     10  C4' N4B d   1       0.716  -2.680  -1.790  0.00  0.00     0.003 C 
ENDBRANCH   8   9
ENDBRANCH   7   8
ENDBRANCH   1   7
TORSDOF 3
ENDMDL
