MODEL 1
REMARK minimizedAffinity 3.13140559
REMARK minimizedRMSD -1
REMARK  3 active torsions:
REMARK  status: ('A' for Active; 'I' for Inactive)
REMARK    1  A    between atoms: C3'_2  and  C2'_3 
REMARK    2  A    between atoms: C2'_3  and  C1'_4 
REMARK    3  A    between atoms: C1'_4  and  C1_5 
ROOT
ATOM      1  C1  N4B d   1       3.589  -5.999  -4.377  0.00  0.00    -0.075 A 
ATOM      2  C2  N4B d   1       4.806  -5.963  -5.093  0.00  0.00     0.002 A 
ATOM      3  C3  N4B d   1       5.999  -5.904  -4.415  0.00  0.00     0.002 A 
ATOM      4  C4  N4B d   1       6.000  -5.861  -3.029  0.00  0.00    -0.004 A 
ATOM      5  C5  N4B d   1       4.821  -5.921  -2.345  0.00  0.00     0.002 A 
ATOM      6  C6  N4B d   1       3.615  -5.985  -3.012  0.00  0.00     0.002 A 
ENDROOT
BRANCH   1   7
ATOM      7  C1' N4B d   1       2.257  -5.976  -5.074  0.00  0.00     0.057 C 
BRANCH   7   8
ATOM      8  C2' N4B d   1       1.618  -4.603  -4.892  0.00  0.00     0.009 C 
BRANCH   8   9
ATOM      9  C3' N4B d   1       2.109  -3.911  -3.631  0.00  0.00     0.004 C 
ATOM     10  C4' N4B d   1       0.988  -3.434  -2.757  0.00  0.00     0.003 C 
ENDBRANCH   8   9
ENDBRANCH   7   8
ENDBRANCH   1   7
TORSDOF 3
ENDMDL
