MODEL 1
REMARK minimizedAffinity -3.5514071
REMARK minimizedRMSD -1
REMARK  3 active torsions:
REMARK  status: ('A' for Active; 'I' for Inactive)
REMARK    1  A    between atoms: C3'_2  and  C2'_3 
REMARK    2  A    between atoms: C2'_3  and  C1'_4 
REMARK    3  A    between atoms: C1'_4  and  C1_5 
ROOT
ATOM      1  C1  N4B d   1      -3.712  -0.628   3.089  0.00  0.00    -0.075 A 
ATOM      2  C2  N4B d   1      -3.620   0.317   2.044  0.00  0.00     0.002 A 
ATOM      3  C3  N4B d   1      -4.718   1.066   1.697  0.00  0.00     0.002 A 
ATOM      4  C4  N4B d   1      -5.918   0.874   2.365  0.00  0.00    -0.004 A 
ATOM      5  C5  N4B d   1      -5.991  -0.023   3.391  0.00  0.00     0.002 A 
ATOM      6  C6  N4B d   1      -4.895  -0.779   3.753  0.00  0.00     0.002 A 
ENDROOT
BRANCH   1   7
ATOM      7  C1' N4B d   1      -2.563  -1.530   3.447  0.00  0.00     0.057 C 
BRANCH   7   8
ATOM      8  C2' N4B d   1      -2.203  -2.387   2.237  0.00  0.00     0.009 C 
BRANCH   8   9
ATOM      9  C3' N4B d   1      -0.744  -2.232   1.844  0.00  0.00     0.004 C 
ATOM     10  C4' N4B d   1      -0.535  -1.184   0.791  0.00  0.00     0.003 C 
ENDBRANCH   8   9
ENDBRANCH   7   8
ENDBRANCH   1   7
TORSDOF 3
ENDMDL
