MODEL 1
REMARK minimizedAffinity 9.26135635
REMARK minimizedRMSD -1
REMARK  3 active torsions:
REMARK  status: ('A' for Active; 'I' for Inactive)
REMARK    1  A    between atoms: C3'_2  and  C2'_3 
REMARK    2  A    between atoms: C2'_3  and  C1'_4 
REMARK    3  A    between atoms: C1'_4  and  C1_5 
ROOT
ATOM      1  C1  N4B d   1      -1.483  -2.262   0.305  0.00  0.00    -0.075 A 
ATOM      2  C2  N4B d   1      -2.211  -3.300   0.928  0.00  0.00     0.002 A 
ATOM      3  C3  N4B d   1      -2.967  -4.159   0.169  0.00  0.00     0.002 A 
ATOM      4  C4  N4B d   1      -3.024  -3.990  -1.206  0.00  0.00    -0.004 A 
ATOM      5  C5  N4B d   1      -2.298  -3.001  -1.803  0.00  0.00     0.002 A 
ATOM      6  C6  N4B d   1      -1.531  -2.132  -1.052  0.00  0.00     0.002 A 
ENDROOT
BRANCH   1   7
ATOM      7  C1' N4B d   1      -0.712  -1.245   1.101  0.00  0.00     0.057 C 
BRANCH   7   8
ATOM      8  C2' N4B d   1       0.325  -0.584   0.198  0.00  0.00     0.009 C 
BRANCH   8   9
ATOM      9  C3' N4B d   1       0.007   0.880  -0.056  0.00  0.00     0.004 C 
ATOM     10  C4' N4B d   1      -1.098   1.394   0.818  0.00  0.00     0.003 C 
ENDBRANCH   8   9
ENDBRANCH   7   8
ENDBRANCH   1   7
TORSDOF 3
ENDMDL
