MODEL 1
REMARK minimizedAffinity 4.78605843
REMARK minimizedRMSD -1
REMARK  3 active torsions:
REMARK  status: ('A' for Active; 'I' for Inactive)
REMARK    1  A    between atoms: C3'_2  and  C2'_3 
REMARK    2  A    between atoms: C2'_3  and  C1'_4 
REMARK    3  A    between atoms: C1'_4  and  C1_5 
ROOT
ATOM      1  C1  N4B d   1       0.243   2.480   1.811  0.00  0.00    -0.075 A 
ATOM      2  C2  N4B d   1      -0.639   2.032   2.818  0.00  0.00     0.002 A 
ATOM      3  C3  N4B d   1      -1.201   2.933   3.689  0.00  0.00     0.002 A 
ATOM      4  C4  N4B d   1      -0.881   4.278   3.585  0.00  0.00    -0.004 A 
ATOM      5  C5  N4B d   1      -0.048   4.706   2.593  0.00  0.00     0.002 A 
ATOM      6  C6  N4B d   1       0.520   3.812   1.708  0.00  0.00     0.002 A 
ENDROOT
BRANCH   1   7
ATOM      7  C1' N4B d   1       0.948   1.522   0.889  0.00  0.00     0.057 C 
BRANCH   7   8
ATOM      8  C2' N4B d   1      -0.072   0.893  -0.055  0.00  0.00     0.009 C 
BRANCH   8   9
ATOM      9  C3' N4B d   1      -0.380  -0.547   0.320  0.00  0.00     0.004 C 
ATOM     10  C4' N4B d   1       0.842  -1.416   0.339  0.00  0.00     0.003 C 
ENDBRANCH   8   9
ENDBRANCH   7   8
ENDBRANCH   1   7
TORSDOF 3
ENDMDL
