MODEL 1
REMARK minimizedAffinity -2.03100419
REMARK minimizedRMSD -1
REMARK  3 active torsions:
REMARK  status: ('A' for Active; 'I' for Inactive)
REMARK    1  A    between atoms: C3'_2  and  C2'_3 
REMARK    2  A    between atoms: C2'_3  and  C1'_4 
REMARK    3  A    between atoms: C1'_4  and  C1_5 
ROOT
ATOM      1  C1  N4B d   1       3.194   3.035  -4.010  0.00  0.00    -0.075 A 
ATOM      2  C2  N4B d   1       3.763   3.102  -2.719  0.00  0.00     0.002 A 
ATOM      3  C3  N4B d   1       5.128   3.101  -2.569  0.00  0.00     0.002 A 
ATOM      4  C4  N4B d   1       5.941   3.015  -3.689  0.00  0.00    -0.004 A 
ATOM      5  C5  N4B d   1       5.384   2.976  -4.934  0.00  0.00     0.002 A 
ATOM      6  C6  N4B d   1       4.014   2.981  -5.100  0.00  0.00     0.002 A 
ENDROOT
BRANCH   1   7
ATOM      7  C1' N4B d   1       1.707   2.947  -4.219  0.00  0.00     0.057 C 
BRANCH   7   8
ATOM      8  C2' N4B d   1       1.418   2.831  -5.713  0.00  0.00     0.009 C 
BRANCH   8   9
ATOM      9  C3' N4B d   1       0.043   2.243  -5.981  0.00  0.00     0.004 C 
ATOM     10  C4' N4B d   1      -1.039   3.281  -5.999  0.00  0.00     0.003 C 
ENDBRANCH   8   9
ENDBRANCH   7   8
ENDBRANCH   1   7
TORSDOF 3
ENDMDL
