MODEL 1
REMARK minimizedAffinity -0.594049215
REMARK minimizedRMSD -1
REMARK  3 active torsions:
REMARK  status: ('A' for Active; 'I' for Inactive)
REMARK    1  A    between atoms: C3'_2  and  C2'_3 
REMARK    2  A    between atoms: C2'_3  and  C1'_4 
REMARK    3  A    between atoms: C1'_4  and  C1_5 
ROOT
ATOM      1  C1  N4B d   1      -1.943  -0.565   2.046  0.00  0.00    -0.075 A 
ATOM      2  C2  N4B d   1      -0.615  -0.715   1.590  0.00  0.00     0.002 A 
ATOM      3  C3  N4B d   1      -0.089   0.187   0.698  0.00  0.00     0.002 A 
ATOM      4  C4  N4B d   1      -0.875   1.232   0.236  0.00  0.00    -0.004 A 
ATOM      5  C5  N4B d   1      -2.148   1.385   0.701  0.00  0.00     0.002 A 
ATOM      6  C6  N4B d   1      -2.688   0.488   1.601  0.00  0.00     0.002 A 
ENDROOT
BRANCH   1   7
ATOM      7  C1' N4B d   1      -2.589  -1.574   2.955  0.00  0.00     0.057 C 
BRANCH   7   8
ATOM      8  C2' N4B d   1      -3.141  -0.860   4.185  0.00  0.00     0.009 C 
BRANCH   8   9
ATOM      9  C3' N4B d   1      -4.660  -0.856   4.205  0.00  0.00     0.004 C 
ATOM     10  C4' N4B d   1      -5.251  -2.141   3.707  0.00  0.00     0.003 C 
ENDBRANCH   8   9
ENDBRANCH   7   8
ENDBRANCH   1   7
TORSDOF 3
ENDMDL
