MODEL 1
REMARK minimizedAffinity 15.5312796
REMARK minimizedRMSD -1
REMARK  0 active torsions:
REMARK  status: ('A' for Active; 'I' for Inactive)
ROOT
ATOM      1  C   UNL d   1      -5.396   1.088   1.902  0.00  0.00     0.124 A 
ATOM      2  C1  UNL d   1      -5.701   2.441   1.858  0.00  0.00     0.062 A 
ATOM      3  C2  UNL d   1      -5.701   3.197   3.026  0.00  0.00     0.162 A 
ATOM      4  C3  UNL d   1      -5.394   2.601   4.250  0.00  0.00    -0.034 A 
ATOM      5  C4  UNL d   1      -5.089   1.240   4.286  0.00  0.00     0.162 A 
ATOM      6  C5  UNL d   1      -5.091   0.488   3.115  0.00  0.00     0.062 A 
ATOM      7  F   UNL d   1      -4.796  -0.819   3.160  0.00  0.00    -0.097 F 
ATOM      8  F1  UNL d   1      -4.790   0.635   5.445  0.00  0.00    -0.096 F 
ATOM      9  I   UNL d   1      -5.393   3.728   6.000  0.00  0.00    -0.060 I 
ATOM     10  F2  UNL d   1      -6.000   4.503   2.954  0.00  0.00    -0.096 F 
ATOM     11  F3  UNL d   1      -5.998   3.023   0.686  0.00  0.00    -0.097 F 
ATOM     12  F4  UNL d   1      -5.398   0.363   0.776  0.00  0.00    -0.092 F 
ENDROOT
TORSDOF 0
ENDMDL
