MODEL 1
REMARK minimizedAffinity 11.7269421
REMARK minimizedRMSD -1
REMARK  0 active torsions:
REMARK  status: ('A' for Active; 'I' for Inactive)
ROOT
ATOM      1  C   UNL d   1       2.047   1.575   0.110  0.00  0.00     0.124 A 
ATOM      2  C1  UNL d   1       1.011   0.667   0.280  0.00  0.00     0.062 A 
ATOM      3  C2  UNL d   1       1.164  -0.416   1.142  0.00  0.00     0.162 A 
ATOM      4  C3  UNL d   1       2.357  -0.595   1.841  0.00  0.00    -0.034 A 
ATOM      5  C4  UNL d   1       3.395   0.322   1.665  0.00  0.00     0.162 A 
ATOM      6  C5  UNL d   1       3.237   1.402   0.803  0.00  0.00     0.062 A 
ATOM      7  F   UNL d   1       4.239   2.279   0.640  0.00  0.00    -0.097 F 
ATOM      8  F1  UNL d   1       4.555   0.179   2.322  0.00  0.00    -0.096 F 
ATOM      9  I   UNL d   1       2.589  -2.213   3.131  0.00  0.00    -0.060 I 
ATOM     10  F2  UNL d   1       0.147  -1.278   1.286  0.00  0.00    -0.096 F 
ATOM     11  F3  UNL d   1      -0.139   0.831  -0.389  0.00  0.00    -0.097 F 
ATOM     12  F4  UNL d   1       1.898   2.615  -0.720  0.00  0.00    -0.092 F 
ENDROOT
TORSDOF 0
ENDMDL
