MODEL 1
REMARK minimizedAffinity 25.9012623
REMARK minimizedRMSD -1
REMARK  0 active torsions:
REMARK  status: ('A' for Active; 'I' for Inactive)
ROOT
ATOM      1  C   UNL d   1       2.786  -0.508   2.013  0.00  0.00     0.124 A 
ATOM      2  C1  UNL d   1       2.381   0.338   0.990  0.00  0.00     0.062 A 
ATOM      3  C2  UNL d   1       3.194   1.397   0.595  0.00  0.00     0.162 A 
ATOM      4  C3  UNL d   1       4.420   1.615   1.222  0.00  0.00    -0.034 A 
ATOM      5  C4  UNL d   1       4.820   0.760   2.251  0.00  0.00     0.162 A 
ATOM      6  C5  UNL d   1       4.004  -0.296   2.643  0.00  0.00     0.062 A 
ATOM      7  F   UNL d   1       4.397  -1.112   3.632  0.00  0.00    -0.097 F 
ATOM      8  F1  UNL d   1       5.993   0.942   2.876  0.00  0.00    -0.096 F 
ATOM      9  I   UNL d   1       5.638   3.197   0.634  0.00  0.00    -0.060 I 
ATOM     10  F2  UNL d   1       2.778   2.198  -0.397  0.00  0.00    -0.096 F 
ATOM     11  F3  UNL d   1       1.204   0.136   0.381  0.00  0.00    -0.097 F 
ATOM     12  F4  UNL d   1       2.001  -1.525   2.392  0.00  0.00    -0.092 F 
ENDROOT
TORSDOF 0
ENDMDL
