MODEL 1
REMARK minimizedAffinity 8.17210388
REMARK minimizedRMSD -1
REMARK  0 active torsions:
REMARK  status: ('A' for Active; 'I' for Inactive)
ROOT
ATOM      1  C   UNL d   1      -2.296   0.034   0.637  0.00  0.00     0.124 A 
ATOM      2  C1  UNL d   1      -0.985  -0.352   0.882  0.00  0.00     0.062 A 
ATOM      3  C2  UNL d   1      -0.215   0.338   1.814  0.00  0.00     0.162 A 
ATOM      4  C3  UNL d   1      -0.755   1.420   2.510  0.00  0.00    -0.034 A 
ATOM      5  C4  UNL d   1      -2.073   1.802   2.258  0.00  0.00     0.162 A 
ATOM      6  C5  UNL d   1      -2.839   1.110   1.325  0.00  0.00     0.062 A 
ATOM      7  F   UNL d   1      -4.105   1.483   1.090  0.00  0.00    -0.097 F 
ATOM      8  F1  UNL d   1      -2.623   2.838   2.909  0.00  0.00    -0.096 F 
ATOM      9  I   UNL d   1       0.393   2.454   3.905  0.00  0.00    -0.060 I 
ATOM     10  F2  UNL d   1       1.049  -0.056   2.030  0.00  0.00    -0.096 F 
ATOM     11  F3  UNL d   1      -0.458  -1.390   0.218  0.00  0.00    -0.097 F 
ATOM     12  F4  UNL d   1      -3.034  -0.631  -0.261  0.00  0.00    -0.092 F 
ENDROOT
TORSDOF 0
ENDMDL
