MODEL 1
REMARK minimizedAffinity 14.5927801
REMARK minimizedRMSD -1
REMARK  0 active torsions:
REMARK  status: ('A' for Active; 'I' for Inactive)
ROOT
ATOM      1  C   UNL d   1      -0.330   1.243   2.172  0.00  0.00     0.124 A 
ATOM      2  C1  UNL d   1      -1.670   1.551   1.983  0.00  0.00     0.062 A 
ATOM      3  C2  UNL d   1      -2.506   0.658   1.319  0.00  0.00     0.162 A 
ATOM      4  C3  UNL d   1      -2.005  -0.553   0.840  0.00  0.00    -0.034 A 
ATOM      5  C4  UNL d   1      -0.656  -0.855   1.033  0.00  0.00     0.162 A 
ATOM      6  C5  UNL d   1       0.176   0.041   1.698  0.00  0.00     0.062 A 
ATOM      7  F   UNL d   1       1.470  -0.259   1.880  0.00  0.00    -0.097 F 
ATOM      8  F1  UNL d   1      -0.141  -2.010   0.586  0.00  0.00    -0.096 F 
ATOM      9  I   UNL d   1      -3.252  -1.890  -0.154  0.00  0.00    -0.060 I 
ATOM     10  F2  UNL d   1      -3.797   0.982   1.150  0.00  0.00    -0.096 F 
ATOM     11  F3  UNL d   1      -2.161   2.712   2.440  0.00  0.00    -0.097 F 
ATOM     12  F4  UNL d   1       0.473   2.104   2.811  0.00  0.00    -0.092 F 
ENDROOT
TORSDOF 0
ENDMDL
