MODEL 1
REMARK minimizedAffinity 29.4677925
REMARK minimizedRMSD -1
REMARK  0 active torsions:
REMARK  status: ('A' for Active; 'I' for Inactive)
ROOT
ATOM      1  C   UNL d   1       4.115   0.388   0.969  0.00  0.00     0.124 A 
ATOM      2  C1  UNL d   1       3.477   1.517   0.476  0.00  0.00     0.062 A 
ATOM      3  C2  UNL d   1       2.118   1.710   0.706  0.00  0.00     0.162 A 
ATOM      4  C3  UNL d   1       1.387   0.770   1.433  0.00  0.00    -0.034 A 
ATOM      5  C4  UNL d   1       2.035  -0.364   1.925  0.00  0.00     0.162 A 
ATOM      6  C5  UNL d   1       3.394  -0.552   1.693  0.00  0.00     0.062 A 
ATOM      7  F   UNL d   1       4.009  -1.644   2.170  0.00  0.00    -0.097 F 
ATOM      8  F1  UNL d   1       1.363  -1.287   2.628  0.00  0.00    -0.096 F 
ATOM      9  I   UNL d   1      -0.646   1.054   1.779  0.00  0.00    -0.060 I 
ATOM     10  F2  UNL d   1       1.527   2.811   0.218  0.00  0.00    -0.096 F 
ATOM     11  F3  UNL d   1       4.171   2.426  -0.224  0.00  0.00    -0.097 F 
ATOM     12  F4  UNL d   1       5.423   0.204   0.746  0.00  0.00    -0.092 F 
ENDROOT
TORSDOF 0
ENDMDL
