MODEL 1
REMARK minimizedAffinity 11.0785713
REMARK minimizedRMSD -1
REMARK  0 active torsions:
REMARK  status: ('A' for Active; 'I' for Inactive)
ROOT
ATOM      1  C   UNL d   1      -4.782   0.826   4.973  0.00  0.00     0.124 A 
ATOM      2  C1  UNL d   1      -3.862  -0.210   4.891  0.00  0.00     0.062 A 
ATOM      3  C2  UNL d   1      -2.970  -0.271   3.825  0.00  0.00     0.162 A 
ATOM      4  C3  UNL d   1      -2.992   0.708   2.831  0.00  0.00    -0.034 A 
ATOM      5  C4  UNL d   1      -3.921   1.746   2.920  0.00  0.00     0.162 A 
ATOM      6  C5  UNL d   1      -4.811   1.803   3.988  0.00  0.00     0.062 A 
ATOM      7  F   UNL d   1      -5.699   2.805   4.065  0.00  0.00    -0.097 F 
ATOM      8  F1  UNL d   1      -3.970   2.704   1.982  0.00  0.00    -0.096 F 
ATOM      9  I   UNL d   1      -1.660   0.620   1.235  0.00  0.00    -0.060 I 
ATOM     10  F2  UNL d   1      -2.092  -1.284   3.771  0.00  0.00    -0.096 F 
ATOM     11  F3  UNL d   1      -3.833  -1.156   5.841  0.00  0.00    -0.097 F 
ATOM     12  F4  UNL d   1      -5.640   0.882   6.000  0.00  0.00    -0.092 F 
ENDROOT
TORSDOF 0
ENDMDL
