MODEL 1
REMARK minimizedAffinity 10.784914
REMARK minimizedRMSD -1
REMARK  0 active torsions:
REMARK  status: ('A' for Active; 'I' for Inactive)
ROOT
ATOM      1  C   UNL d   1      -3.606  -0.350   0.565  0.00  0.00     0.124 A 
ATOM      2  C1  UNL d   1      -3.922   0.672   1.450  0.00  0.00     0.062 A 
ATOM      3  C2  UNL d   1      -2.914   1.457   2.001  0.00  0.00     0.162 A 
ATOM      4  C3  UNL d   1      -1.579   1.224   1.669  0.00  0.00    -0.034 A 
ATOM      5  C4  UNL d   1      -1.269   0.194   0.780  0.00  0.00     0.162 A 
ATOM      6  C5  UNL d   1      -2.281  -0.589   0.231  0.00  0.00     0.062 A 
ATOM      7  F   UNL d   1      -1.973  -1.576  -0.622  0.00  0.00    -0.097 F 
ATOM      8  F1  UNL d   1       0.003  -0.058   0.439  0.00  0.00    -0.096 F 
ATOM      9  I   UNL d   1      -0.069   2.396   2.491  0.00  0.00    -0.060 I 
ATOM     10  F2  UNL d   1      -3.248   2.438   2.852  0.00  0.00    -0.096 F 
ATOM     11  F3  UNL d   1      -5.202   0.903   1.775  0.00  0.00    -0.097 F 
ATOM     12  F4  UNL d   1      -4.578  -1.105   0.037  0.00  0.00    -0.092 F 
ENDROOT
TORSDOF 0
ENDMDL
