MODEL 1
REMARK minimizedAffinity 17.6764278
REMARK minimizedRMSD -1
REMARK  0 active torsions:
REMARK  status: ('A' for Active; 'I' for Inactive)
ROOT
ATOM      1  C   UNL d   1      -3.559  -0.231   0.506  0.00  0.00     0.124 A 
ATOM      2  C1  UNL d   1      -2.276  -0.673   0.211  0.00  0.00     0.062 A 
ATOM      3  C2  UNL d   1      -1.172  -0.057   0.793  0.00  0.00     0.162 A 
ATOM      4  C3  UNL d   1      -1.345   1.009   1.676  0.00  0.00    -0.034 A 
ATOM      5  C4  UNL d   1      -2.638   1.449   1.967  0.00  0.00     0.162 A 
ATOM      6  C5  UNL d   1      -3.738   0.830   1.383  0.00  0.00     0.062 A 
ATOM      7  F   UNL d   1      -4.976   1.258   1.669  0.00  0.00    -0.097 F 
ATOM      8  F1  UNL d   1      -2.840   2.471   2.812  0.00  0.00    -0.096 F 
ATOM      9  I   UNL d   1       0.303   1.933   2.548  0.00  0.00    -0.060 I 
ATOM     10  F2  UNL d   1       0.055  -0.505   0.490  0.00  0.00    -0.096 F 
ATOM     11  F3  UNL d   1      -2.100  -1.696  -0.637  0.00  0.00    -0.097 F 
ATOM     12  F4  UNL d   1      -4.619  -0.825  -0.056  0.00  0.00    -0.092 F 
ENDROOT
TORSDOF 0
ENDMDL
