MODEL 1
REMARK minimizedAffinity 13.2177992
REMARK minimizedRMSD -1
REMARK  0 active torsions:
REMARK  status: ('A' for Active; 'I' for Inactive)
ROOT
ATOM      1  C   UNL d   1      -0.506   1.727   2.863  0.00  0.00     0.124 A 
ATOM      2  C1  UNL d   1       0.175   0.808   2.077  0.00  0.00     0.062 A 
ATOM      3  C2  UNL d   1      -0.496   0.106   1.080  0.00  0.00     0.162 A 
ATOM      4  C3  UNL d   1      -1.857   0.320   0.863  0.00  0.00    -0.034 A 
ATOM      5  C4  UNL d   1      -2.536   1.245   1.659  0.00  0.00     0.162 A 
ATOM      6  C5  UNL d   1      -1.860   1.944   2.654  0.00  0.00     0.062 A 
ATOM      7  F   UNL d   1      -2.520   2.831   3.412  0.00  0.00    -0.097 F 
ATOM      8  F1  UNL d   1      -3.845   1.475   1.477  0.00  0.00    -0.096 F 
ATOM      9  I   UNL d   1      -2.865  -0.729  -0.626  0.00  0.00    -0.060 I 
ATOM     10  F2  UNL d   1       0.187  -0.776   0.335  0.00  0.00    -0.096 F 
ATOM     11  F3  UNL d   1       1.484   0.595   2.278  0.00  0.00    -0.097 F 
ATOM     12  F4  UNL d   1       0.142   2.400   3.822  0.00  0.00    -0.092 F 
ENDROOT
TORSDOF 0
ENDMDL
