MODEL 1
REMARK minimizedAffinity 12.680295
REMARK minimizedRMSD -1
REMARK  0 active torsions:
REMARK  status: ('A' for Active; 'I' for Inactive)
ROOT
ATOM      1  C   UNL d   1      -1.875   1.756   3.267  0.00  0.00     0.124 A 
ATOM      2  C1  UNL d   1      -2.246   1.217   2.043  0.00  0.00     0.062 A 
ATOM      3  C2  UNL d   1      -1.278   0.902   1.094  0.00  0.00     0.162 A 
ATOM      4  C3  UNL d   1       0.072   1.124   1.366  0.00  0.00    -0.034 A 
ATOM      5  C4  UNL d   1       0.438   1.667   2.599  0.00  0.00     0.162 A 
ATOM      6  C5  UNL d   1      -0.534   1.980   3.544  0.00  0.00     0.062 A 
ATOM      7  F   UNL d   1      -0.173   2.500   4.726  0.00  0.00    -0.097 F 
ATOM      8  F1  UNL d   1       1.727   1.893   2.893  0.00  0.00    -0.096 F 
ATOM      9  I   UNL d   1       1.523   0.654  -0.050  0.00  0.00    -0.060 I 
ATOM     10  F2  UNL d   1      -1.666   0.383  -0.080  0.00  0.00    -0.096 F 
ATOM     11  F3  UNL d   1      -3.542   1.001   1.773  0.00  0.00    -0.097 F 
ATOM     12  F4  UNL d   1      -2.809   2.059   4.178  0.00  0.00    -0.092 F 
ENDROOT
TORSDOF 0
ENDMDL
