MODEL 1
REMARK minimizedAffinity 10.2990313
REMARK minimizedRMSD -1
REMARK  0 active torsions:
REMARK  status: ('A' for Active; 'I' for Inactive)
ROOT
ATOM      1  C   UNL d   1      -0.534   2.038   2.766  0.00  0.00     0.124 A 
ATOM      2  C1  UNL d   1       0.129   1.139   1.942  0.00  0.00     0.062 A 
ATOM      3  C2  UNL d   1      -0.588   0.173   1.240  0.00  0.00     0.162 A 
ATOM      4  C3  UNL d   1      -1.976   0.102   1.359  0.00  0.00    -0.034 A 
ATOM      5  C4  UNL d   1      -2.635   1.009   2.191  0.00  0.00     0.162 A 
ATOM      6  C5  UNL d   1      -1.915   1.973   2.890  0.00  0.00     0.062 A 
ATOM      7  F   UNL d   1      -2.556   2.840   3.685  0.00  0.00    -0.097 F 
ATOM      8  F1  UNL d   1      -3.969   0.969   2.328  0.00  0.00    -0.096 F 
ATOM      9  I   UNL d   1      -3.050  -1.340   0.312  0.00  0.00    -0.060 I 
ATOM     10  F2  UNL d   1       0.079  -0.682   0.451  0.00  0.00    -0.096 F 
ATOM     11  F3  UNL d   1       1.463   1.200   1.821  0.00  0.00    -0.097 F 
ATOM     12  F4  UNL d   1       0.158   2.966   3.440  0.00  0.00    -0.092 F 
ENDROOT
TORSDOF 0
ENDMDL
