MODEL 1
REMARK minimizedAffinity 9.03305244
REMARK minimizedRMSD -1
REMARK  0 active torsions:
REMARK  status: ('A' for Active; 'I' for Inactive)
ROOT
ATOM      1  C   UNL d   1      -1.825   1.687   2.937  0.00  0.00     0.124 A 
ATOM      2  C1  UNL d   1      -2.024   0.904   1.809  0.00  0.00     0.062 A 
ATOM      3  C2  UNL d   1      -0.947   0.559   0.997  0.00  0.00     0.162 A 
ATOM      4  C3  UNL d   1       0.340   0.997   1.312  0.00  0.00    -0.034 A 
ATOM      5  C4  UNL d   1       0.532   1.785   2.448  0.00  0.00     0.162 A 
ATOM      6  C5  UNL d   1      -0.548   2.127   3.256  0.00  0.00     0.062 A 
ATOM      7  F   UNL d   1      -0.354   2.883   4.346  0.00  0.00    -0.097 F 
ATOM      8  F1  UNL d   1       1.756   2.222   2.780  0.00  0.00    -0.096 F 
ATOM      9  I   UNL d   1       1.953   0.483   0.101  0.00  0.00    -0.060 I 
ATOM     10  F2  UNL d   1      -1.168  -0.199  -0.087  0.00  0.00    -0.096 F 
ATOM     11  F3  UNL d   1      -3.257   0.479   1.498  0.00  0.00    -0.097 F 
ATOM     12  F4  UNL d   1      -2.863   2.018   3.716  0.00  0.00    -0.092 F 
ENDROOT
TORSDOF 0
ENDMDL
