MODEL 1
REMARK minimizedAffinity 7.15088129
REMARK minimizedRMSD -1
REMARK  0 active torsions:
REMARK  status: ('A' for Active; 'I' for Inactive)
ROOT
ATOM      1  C   UNL d   1      -2.055   0.149   1.073  0.00  0.00     0.124 A 
ATOM      2  C1  UNL d   1      -2.572   1.288   1.674  0.00  0.00     0.062 A 
ATOM      3  C2  UNL d   1      -1.760   2.089   2.472  0.00  0.00     0.162 A 
ATOM      4  C3  UNL d   1      -0.421   1.754   2.673  0.00  0.00    -0.034 A 
ATOM      5  C4  UNL d   1       0.092   0.606   2.066  0.00  0.00     0.162 A 
ATOM      6  C5  UNL d   1      -0.724  -0.191   1.270  0.00  0.00     0.062 A 
ATOM      7  F   UNL d   1      -0.222  -1.291   0.690  0.00  0.00    -0.097 F 
ATOM      8  F1  UNL d   1       1.375   0.255   2.238  0.00  0.00    -0.096 F 
ATOM      9  I   UNL d   1       0.797   2.948   3.866  0.00  0.00    -0.060 I 
ATOM     10  F2  UNL d   1      -2.287   3.184   3.041  0.00  0.00    -0.096 F 
ATOM     11  F3  UNL d   1      -3.858   1.618   1.487  0.00  0.00    -0.097 F 
ATOM     12  F4  UNL d   1      -2.838  -0.620   0.307  0.00  0.00    -0.092 F 
ENDROOT
TORSDOF 0
ENDMDL
