MODEL 1
REMARK minimizedAffinity 11.7687445
REMARK minimizedRMSD -1
REMARK  0 active torsions:
REMARK  status: ('A' for Active; 'I' for Inactive)
ROOT
ATOM      1  C   UNL d   1      -2.890   1.248   1.749  0.00  0.00     0.124 A 
ATOM      2  C1  UNL d   1      -2.542   0.136   0.995  0.00  0.00     0.062 A 
ATOM      3  C2  UNL d   1      -1.202  -0.161   0.763  0.00  0.00     0.162 A 
ATOM      4  C3  UNL d   1      -0.200   0.656   1.287  0.00  0.00    -0.034 A 
ATOM      5  C4  UNL d   1      -0.558   1.773   2.043  0.00  0.00     0.162 A 
ATOM      6  C5  UNL d   1      -1.898   2.065   2.272  0.00  0.00     0.062 A 
ATOM      7  F   UNL d   1      -2.233   3.140   3.001  0.00  0.00    -0.097 F 
ATOM      8  F1  UNL d   1       0.381   2.579   2.562  0.00  0.00    -0.096 F 
ATOM      9  I   UNL d   1       1.805   0.216   0.942  0.00  0.00    -0.060 I 
ATOM     10  F2  UNL d   1      -0.895  -1.242   0.031  0.00  0.00    -0.096 F 
ATOM     11  F3  UNL d   1      -3.499  -0.654   0.488  0.00  0.00    -0.097 F 
ATOM     12  F4  UNL d   1      -4.180   1.532   1.970  0.00  0.00    -0.092 F 
ENDROOT
TORSDOF 0
ENDMDL
