MODEL 1
REMARK minimizedAffinity 10.5290222
REMARK minimizedRMSD -1
REMARK  0 active torsions:
REMARK  status: ('A' for Active; 'I' for Inactive)
ROOT
ATOM      1  C   UNL d   1      -0.286   2.043   2.934  0.00  0.00     0.124 A 
ATOM      2  C1  UNL d   1       0.357   1.008   2.270  0.00  0.00     0.062 A 
ATOM      3  C2  UNL d   1      -0.365   0.147   1.448  0.00  0.00     0.162 A 
ATOM      4  C3  UNL d   1      -1.739   0.319   1.283  0.00  0.00    -0.034 A 
ATOM      5  C4  UNL d   1      -2.380   1.362   1.955  0.00  0.00     0.162 A 
ATOM      6  C5  UNL d   1      -1.654   2.219   2.776  0.00  0.00     0.062 A 
ATOM      7  F   UNL d   1      -2.277   3.218   3.416  0.00  0.00    -0.097 F 
ATOM      8  F1  UNL d   1      -3.700   1.556   1.820  0.00  0.00    -0.096 F 
ATOM      9  I   UNL d   1      -2.822  -0.965   0.055  0.00  0.00    -0.060 I 
ATOM     10  F2  UNL d   1       0.283  -0.844   0.818  0.00  0.00    -0.096 F 
ATOM     11  F3  UNL d   1       1.678   0.835   2.422  0.00  0.00    -0.097 F 
ATOM     12  F4  UNL d   1       0.410   2.868   3.725  0.00  0.00    -0.092 F 
ENDROOT
TORSDOF 0
ENDMDL
