MODEL 1
REMARK minimizedAffinity 17.4128361
REMARK minimizedRMSD -1
REMARK  0 active torsions:
REMARK  status: ('A' for Active; 'I' for Inactive)
ROOT
ATOM      1  C   UNL d   1      -1.651   0.324   0.852  0.00  0.00     0.124 A 
ATOM      2  C1  UNL d   1      -2.261   1.351   1.559  0.00  0.00     0.062 A 
ATOM      3  C2  UNL d   1      -1.573   2.007   2.575  0.00  0.00     0.162 A 
ATOM      4  C3  UNL d   1      -0.265   1.639   2.890  0.00  0.00    -0.034 A 
ATOM      5  C4  UNL d   1       0.343   0.605   2.175  0.00  0.00     0.162 A 
ATOM      6  C5  UNL d   1      -0.350  -0.048   1.161  0.00  0.00     0.062 A 
ATOM      7  F   UNL d   1       0.242  -1.039   0.479  0.00  0.00    -0.097 F 
ATOM      8  F1  UNL d   1       1.599   0.226   2.452  0.00  0.00    -0.096 F 
ATOM      9  I   UNL d   1       0.768   2.618   4.409  0.00  0.00    -0.060 I 
ATOM     10  F2  UNL d   1      -2.188   2.995   3.241  0.00  0.00    -0.096 F 
ATOM     11  F3  UNL d   1      -3.518   1.711   1.263  0.00  0.00    -0.097 F 
ATOM     12  F4  UNL d   1      -2.316  -0.307  -0.125  0.00  0.00    -0.092 F 
ENDROOT
TORSDOF 0
ENDMDL
