MODEL 1
REMARK minimizedAffinity 22.8135548
REMARK minimizedRMSD -1
REMARK  0 active torsions:
REMARK  status: ('A' for Active; 'I' for Inactive)
ROOT
ATOM      1  C   UNL d   1      -1.701  -0.050   1.116  0.00  0.00     0.124 A 
ATOM      2  C1  UNL d   1      -2.057   1.257   1.417  0.00  0.00     0.062 A 
ATOM      3  C2  UNL d   1      -1.141   2.108   2.029  0.00  0.00     0.162 A 
ATOM      4  C3  UNL d   1       0.140   1.655   2.343  0.00  0.00    -0.034 A 
ATOM      5  C4  UNL d   1       0.490   0.338   2.037  0.00  0.00     0.162 A 
ATOM      6  C5  UNL d   1      -0.429  -0.508   1.426  0.00  0.00     0.062 A 
ATOM      7  F   UNL d   1      -0.084  -1.771   1.135  0.00  0.00    -0.097 F 
ATOM      8  F1  UNL d   1       1.714  -0.130   2.325  0.00  0.00    -0.096 F 
ATOM      9  I   UNL d   1       1.513   2.924   3.258  0.00  0.00    -0.060 I 
ATOM     10  F2  UNL d   1      -1.512   3.366   2.309  0.00  0.00    -0.096 F 
ATOM     11  F3  UNL d   1      -3.286   1.702   1.120  0.00  0.00    -0.097 F 
ATOM     12  F4  UNL d   1      -2.585  -0.867   0.528  0.00  0.00    -0.092 F 
ENDROOT
TORSDOF 0
ENDMDL
