MODEL 1
REMARK minimizedAffinity 1.59601223
REMARK minimizedRMSD -1
REMARK  3 active torsions:
REMARK  status: ('A' for Active; 'I' for Inactive)
REMARK    1  A    between atoms: C3'_2  and  C2'_3 
REMARK    2  A    between atoms: C2'_3  and  C1'_4 
REMARK    3  A    between atoms: C1'_4  and  C1_5 
ROOT
ATOM      1  C1  N4B d   1      -0.726  -5.988  -3.346  0.00  0.00    -0.075 A 
ATOM      2  C2  N4B d   1      -1.476  -5.987  -4.543  0.00  0.00     0.002 A 
ATOM      3  C3  N4B d   1      -0.833  -5.987  -5.756  0.00  0.00     0.002 A 
ATOM      4  C4  N4B d   1       0.553  -5.968  -5.798  0.00  0.00    -0.004 A 
ATOM      5  C5  N4B d   1       1.270  -5.995  -4.638  0.00  0.00     0.002 A 
ATOM      6  C6  N4B d   1       0.637  -5.999  -3.411  0.00  0.00     0.002 A 
ENDROOT
BRANCH   1   7
ATOM      7  C1' N4B d   1      -1.384  -5.901  -1.996  0.00  0.00     0.057 C 
BRANCH   7   8
ATOM      8  C2' N4B d   1      -2.686  -5.115  -2.123  0.00  0.00     0.009 C 
BRANCH   8   9
ATOM      9  C3' N4B d   1      -3.906  -6.000  -1.931  0.00  0.00     0.004 C 
ATOM     10  C4' N4B d   1      -4.507  -5.870  -0.564  0.00  0.00     0.003 C 
ENDBRANCH   8   9
ENDBRANCH   7   8
ENDBRANCH   1   7
TORSDOF 3
ENDMDL
