MODEL 1
REMARK minimizedAffinity 8.41113281
REMARK minimizedRMSD -1
REMARK  3 active torsions:
REMARK  status: ('A' for Active; 'I' for Inactive)
REMARK    1  A    between atoms: C3'_2  and  C2'_3 
REMARK    2  A    between atoms: C2'_3  and  C1'_4 
REMARK    3  A    between atoms: C1'_4  and  C1_5 
ROOT
ATOM      1  C1  N4B d   1      -0.242  -5.506  -3.550  0.00  0.00    -0.075 A 
ATOM      2  C2  N4B d   1      -0.807  -5.999  -4.746  0.00  0.00     0.002 A 
ATOM      3  C3  N4B d   1      -0.280  -5.627  -5.959  0.00  0.00     0.002 A 
ATOM      4  C4  N4B d   1       0.796  -4.753  -6.000  0.00  0.00    -0.004 A 
ATOM      5  C5  N4B d   1       1.352  -4.301  -4.839  0.00  0.00     0.002 A 
ATOM      6  C6  N4B d   1       0.835  -4.670  -3.613  0.00  0.00     0.002 A 
ENDROOT
BRANCH   1   7
ATOM      7  C1' N4B d   1      -0.837  -5.817  -2.204  0.00  0.00     0.057 C 
BRANCH   7   8
ATOM      8  C2' N4B d   1       0.044  -5.212  -1.115  0.00  0.00     0.009 C 
BRANCH   8   9
ATOM      9  C3' N4B d   1      -0.677  -4.121  -0.341  0.00  0.00     0.004 C 
ATOM     10  C4' N4B d   1       0.075  -3.682   0.880  0.00  0.00     0.003 C 
ENDBRANCH   8   9
ENDBRANCH   7   8
ENDBRANCH   1   7
TORSDOF 3
ENDMDL
