MODEL 1
REMARK minimizedAffinity 4.19610214
REMARK minimizedRMSD -1
REMARK  3 active torsions:
REMARK  status: ('A' for Active; 'I' for Inactive)
REMARK    1  A    between atoms: C3'_2  and  C2'_3 
REMARK    2  A    between atoms: C2'_3  and  C1'_4 
REMARK    3  A    between atoms: C1'_4  and  C1_5 
ROOT
ATOM      1  C1  N4B d   1       0.723  -1.741   0.702  0.00  0.00    -0.075 A 
ATOM      2  C2  N4B d   1       0.310  -0.510   1.259  0.00  0.00     0.002 A 
ATOM      3  C3  N4B d   1      -1.002  -0.117   1.158  0.00  0.00     0.002 A 
ATOM      4  C4  N4B d   1      -1.911  -0.925   0.491  0.00  0.00    -0.004 A 
ATOM      5  C5  N4B d   1      -1.510  -2.123  -0.021  0.00  0.00     0.002 A 
ATOM      6  C6  N4B d   1      -0.195  -2.534   0.076  0.00  0.00     0.002 A 
ENDROOT
BRANCH   1   7
ATOM      7  C1' N4B d   1       2.163  -2.173   0.712  0.00  0.00     0.057 C 
BRANCH   7   8
ATOM      8  C2' N4B d   1       3.057  -0.938   0.772  0.00  0.00     0.009 C 
BRANCH   8   9
ATOM      9  C3' N4B d   1       3.081  -0.190  -0.550  0.00  0.00     0.004 C 
ATOM     10  C4' N4B d   1       2.194   1.020  -0.549  0.00  0.00     0.003 C 
ENDBRANCH   8   9
ENDBRANCH   7   8
ENDBRANCH   1   7
TORSDOF 3
ENDMDL
