MODEL 1
REMARK minimizedAffinity 3.27237821
REMARK minimizedRMSD -1
REMARK  3 active torsions:
REMARK  status: ('A' for Active; 'I' for Inactive)
REMARK    1  A    between atoms: C3'_2  and  C2'_3 
REMARK    2  A    between atoms: C2'_3  and  C1'_4 
REMARK    3  A    between atoms: C1'_4  and  C1_5 
ROOT
ATOM      1  C1  N4B d   1       0.193  -0.394   0.759  0.00  0.00    -0.075 A 
ATOM      2  C2  N4B d   1       1.482  -0.929   0.980  0.00  0.00     0.002 A 
ATOM      3  C3  N4B d   1       1.663  -2.289   1.019  0.00  0.00     0.002 A 
ATOM      4  C4  N4B d   1       0.573  -3.132   0.860  0.00  0.00    -0.004 A 
ATOM      5  C5  N4B d   1      -0.664  -2.608   0.622  0.00  0.00     0.002 A 
ATOM      6  C6  N4B d   1      -0.861  -1.242   0.576  0.00  0.00     0.002 A 
ENDROOT
BRANCH   1   7
ATOM      7  C1' N4B d   1      -0.069   1.086   0.794  0.00  0.00     0.057 C 
BRANCH   7   8
ATOM      8  C2' N4B d   1       0.458   1.718  -0.491  0.00  0.00     0.009 C 
BRANCH   8   9
ATOM      9  C3' N4B d   1      -0.589   1.730  -1.591  0.00  0.00     0.004 C 
ATOM     10  C4' N4B d   1      -0.464   2.916  -2.500  0.00  0.00     0.003 C 
ENDBRANCH   8   9
ENDBRANCH   7   8
ENDBRANCH   1   7
TORSDOF 3
ENDMDL
