MODEL 1
REMARK minimizedAffinity 6.08138895
REMARK minimizedRMSD -1
REMARK  3 active torsions:
REMARK  status: ('A' for Active; 'I' for Inactive)
REMARK    1  A    between atoms: C3'_2  and  C2'_3 
REMARK    2  A    between atoms: C2'_3  and  C1'_4 
REMARK    3  A    between atoms: C1'_4  and  C1_5 
ROOT
ATOM      1  C1  N4B d   1      -0.038  -5.271  -2.527  0.00  0.00    -0.075 A 
ATOM      2  C2  N4B d   1       1.335  -5.266  -2.854  0.00  0.00     0.002 A 
ATOM      3  C3  N4B d   1       1.740  -5.619  -4.119  0.00  0.00     0.002 A 
ATOM      4  C4  N4B d   1       0.796  -5.995  -5.061  0.00  0.00    -0.004 A 
ATOM      5  C5  N4B d   1      -0.531  -5.972  -4.744  0.00  0.00     0.002 A 
ATOM      6  C6  N4B d   1      -0.953  -5.617  -3.479  0.00  0.00     0.002 A 
ENDROOT
BRANCH   1   7
ATOM      7  C1' N4B d   1      -0.523  -4.976  -1.133  0.00  0.00     0.057 C 
BRANCH   7   8
ATOM      8  C2' N4B d   1       0.393  -3.937  -0.494  0.00  0.00     0.009 C 
BRANCH   8   9
ATOM      9  C3' N4B d   1      -0.386  -2.911   0.311  0.00  0.00     0.004 C 
ATOM     10  C4' N4B d   1       0.498  -2.039   1.152  0.00  0.00     0.003 C 
ENDBRANCH   8   9
ENDBRANCH   7   8
ENDBRANCH   1   7
TORSDOF 3
ENDMDL
