MODEL 1
REMARK minimizedAffinity 5.21250725
REMARK minimizedRMSD -1
REMARK  3 active torsions:
REMARK  status: ('A' for Active; 'I' for Inactive)
REMARK    1  A    between atoms: C3'_2  and  C2'_3 
REMARK    2  A    between atoms: C2'_3  and  C1'_4 
REMARK    3  A    between atoms: C1'_4  and  C1_5 
ROOT
ATOM      1  C1  N4B d   1      -0.407  -5.888  -3.372  0.00  0.00    -0.075 A 
ATOM      2  C2  N4B d   1      -0.907  -5.915  -4.692  0.00  0.00     0.002 A 
ATOM      3  C3  N4B d   1      -0.039  -5.979  -5.755  0.00  0.00     0.002 A 
ATOM      4  C4  N4B d   1       1.328  -5.998  -5.523  0.00  0.00    -0.004 A 
ATOM      5  C5  N4B d   1       1.803  -5.998  -4.244  0.00  0.00     0.002 A 
ATOM      6  C6  N4B d   1       0.942  -5.937  -3.167  0.00  0.00     0.002 A 
ENDROOT
BRANCH   1   7
ATOM      7  C1' N4B d   1      -1.313  -5.732  -2.182  0.00  0.00     0.057 C 
BRANCH   7   8
ATOM      8  C2' N4B d   1      -2.753  -5.997  -2.611  0.00  0.00     0.009 C 
BRANCH   8   9
ATOM      9  C3' N4B d   1      -3.746  -5.175  -1.808  0.00  0.00     0.004 C 
ATOM     10  C4' N4B d   1      -4.868  -6.000  -1.251  0.00  0.00     0.003 C 
ENDBRANCH   8   9
ENDBRANCH   7   8
ENDBRANCH   1   7
TORSDOF 3
ENDMDL
