MODEL 1
REMARK minimizedAffinity -3.6762085
REMARK minimizedRMSD -1
REMARK  2 active torsions:
REMARK  status: ('A' for Active; 'I' for Inactive)
REMARK    1  A    between atoms: C2'_3  and  C1'_4 
REMARK    2  A    between atoms: C1'_4  and  C1_5 
ROOT
ATOM      1  C1  I4B d   1       0.182  -0.158  -0.137  0.00  0.00    -0.075 A 
ATOM      2  C2  I4B d   1       0.732  -0.373   1.102  0.00  0.00     0.003 A 
ATOM      3  C3  I4B d   1       0.413   0.485   2.182  0.00  0.00     0.002 A 
ATOM      4  C4  I4B d   1      -0.415   1.568   1.968  0.00  0.00    -0.004 A 
ATOM      5  C5  I4B d   1      -0.989   1.772   0.716  0.00  0.00     0.002 A 
ATOM      6  C6  I4B d   1      -0.699   0.897  -0.340  0.00  0.00     0.003 A 
ENDROOT
BRANCH   1   7
ATOM      7  C1' I4B d   1       0.567  -1.064  -1.263  0.00  0.00     0.060 C 
BRANCH   7   8
ATOM      8  C2' I4B d   1       0.092  -2.462  -0.921  0.00  0.00    -0.013 C 
ATOM      9  C4' I4B d   1      -1.020  -2.900  -1.836  0.00  0.00     0.013 C 
ATOM     10  C3' I4B d   1       1.269  -3.387  -1.017  0.00  0.00     0.013 C 
ENDBRANCH   7   8
ENDBRANCH   1   7
TORSDOF 2
ENDMDL
