MODEL 1
REMARK minimizedAffinity -4.53674316
REMARK minimizedRMSD -1
REMARK  2 active torsions:
REMARK  status: ('A' for Active; 'I' for Inactive)
REMARK    1  A    between atoms: C2'_3  and  C1'_4 
REMARK    2  A    between atoms: C1'_4  and  C1_5 
ROOT
ATOM      1  C1  I4B d   1       0.185  -0.008  -0.236  0.00  0.00    -0.075 A 
ATOM      2  C2  I4B d   1       0.822  -0.045   0.980  0.00  0.00     0.003 A 
ATOM      3  C3  I4B d   1       0.393   0.796   2.035  0.00  0.00     0.002 A 
ATOM      4  C4  I4B d   1      -0.637   1.688   1.817  0.00  0.00    -0.004 A 
ATOM      5  C5  I4B d   1      -1.296   1.708   0.592  0.00  0.00     0.002 A 
ATOM      6  C6  I4B d   1      -0.891   0.845  -0.438  0.00  0.00     0.003 A 
ENDROOT
BRANCH   1   7
ATOM      7  C1' I4B d   1       0.685  -0.887  -1.338  0.00  0.00     0.060 C 
BRANCH   7   8
ATOM      8  C2' I4B d   1      -0.113  -2.174  -1.309  0.00  0.00    -0.013 C 
ATOM      9  C4' I4B d   1      -0.828  -2.403  -2.614  0.00  0.00     0.013 C 
ATOM     10  C3' I4B d   1       0.832  -3.298  -1.005  0.00  0.00     0.013 C 
ENDBRANCH   7   8
ENDBRANCH   1   7
TORSDOF 2
ENDMDL
