MODEL 1
REMARK minimizedAffinity -1.8956815
REMARK minimizedRMSD -1
REMARK  0 active torsions:
REMARK  status: ('A' for Active; 'I' for Inactive)
ROOT
ATOM      1  C2' OXE d   1      -5.991  -3.167  -2.279  0.00  0.00     0.078 C 
ATOM      2  C1' OXE d   1      -5.982  -5.974  -2.264  0.00  0.00     0.078 C 
ATOM      3  C1  OXE d   1      -5.756  -5.277  -3.582  0.00  0.00    -0.078 A 
ATOM      4  C2  OXE d   1      -5.809  -3.903  -3.588  0.00  0.00    -0.078 A 
ATOM      5  C3  OXE d   1      -5.554  -3.209  -4.767  0.00  0.00     0.003 A 
ATOM      6  C4  OXE d   1      -5.396  -3.898  -5.976  0.00  0.00    -0.002 A 
ATOM      7  C5  OXE d   1      -5.379  -5.296  -5.999  0.00  0.00    -0.002 A 
ATOM      8  C6  OXE d   1      -5.514  -5.999  -4.807  0.00  0.00     0.003 A 
ENDROOT
TORSDOF 0
ENDMDL
