MODEL 1
REMARK minimizedAffinity -0.516935647
REMARK minimizedRMSD -1
REMARK  0 active torsions:
REMARK  status: ('A' for Active; 'I' for Inactive)
ROOT
ATOM      1  C2' OXE d   1       2.992   1.372   2.342  0.00  0.00     0.078 C 
ATOM      2  C1' OXE d   1       4.160  -0.707   0.861  0.00  0.00     0.078 C 
ATOM      3  C1  OXE d   1       3.467  -1.066   2.152  0.00  0.00    -0.078 A 
ATOM      4  C2  OXE d   1       2.939  -0.036   2.893  0.00  0.00    -0.078 A 
ATOM      5  C3  OXE d   1       2.242  -0.317   4.065  0.00  0.00     0.003 A 
ATOM      6  C4  OXE d   1       2.206  -1.621   4.573  0.00  0.00    -0.002 A 
ATOM      7  C5  OXE d   1       2.772  -2.679   3.854  0.00  0.00    -0.002 A 
ATOM      8  C6  OXE d   1       3.368  -2.425   2.623  0.00  0.00     0.003 A 
ENDROOT
TORSDOF 0
ENDMDL
