MODEL 1
REMARK minimizedAffinity 1.00523388
REMARK minimizedRMSD -1
REMARK  0 active torsions:
REMARK  status: ('A' for Active; 'I' for Inactive)
ROOT
ATOM      1  C2' OXE d   1      -4.880  -3.167  -5.986  0.00  0.00     0.078 C 
ATOM      2  C1' OXE d   1      -4.857  -5.974  -5.999  0.00  0.00     0.078 C 
ATOM      3  C1  OXE d   1      -4.866  -5.277  -4.662  0.00  0.00    -0.078 A 
ATOM      4  C2  OXE d   1      -4.830  -3.903  -4.665  0.00  0.00    -0.078 A 
ATOM      5  C3  OXE d   1      -4.893  -3.209  -3.460  0.00  0.00     0.003 A 
ATOM      6  C4  OXE d   1      -4.836  -3.898  -2.242  0.00  0.00    -0.002 A 
ATOM      7  C5  OXE d   1      -4.832  -5.297  -2.216  0.00  0.00    -0.002 A 
ATOM      8  C6  OXE d   1      -4.890  -6.000  -3.415  0.00  0.00     0.003 A 
ENDROOT
TORSDOF 0
ENDMDL
