MODEL 1
REMARK minimizedAffinity 1.26035917
REMARK minimizedRMSD -1
REMARK  0 active torsions:
REMARK  status: ('A' for Active; 'I' for Inactive)
ROOT
ATOM      1  C2' OXE d   1       0.644  -4.550   0.357  0.00  0.00     0.078 C 
ATOM      2  C1' OXE d   1      -0.109  -5.061   3.013  0.00  0.00     0.078 C 
ATOM      3  C1  OXE d   1       0.449  -3.697   2.690  0.00  0.00    -0.078 A 
ATOM      4  C2  OXE d   1       0.858  -3.471   1.398  0.00  0.00    -0.078 A 
ATOM      5  C3  OXE d   1       1.329  -2.213   1.034  0.00  0.00     0.003 A 
ATOM      6  C4  OXE d   1       1.534  -1.225   2.004  0.00  0.00    -0.002 A 
ATOM      7  C5  OXE d   1       1.161  -1.448   3.334  0.00  0.00    -0.002 A 
ATOM      8  C6  OXE d   1       0.579  -2.661   3.684  0.00  0.00     0.003 A 
ENDROOT
TORSDOF 0
ENDMDL
