MODEL 1
REMARK minimizedAffinity 6.39944792
REMARK minimizedRMSD -1
REMARK  0 active torsions:
REMARK  status: ('A' for Active; 'I' for Inactive)
ROOT
ATOM      1  C2' OXE d   1      -5.505  -3.486  -2.075  0.00  0.00     0.078 C 
ATOM      2  C1' OXE d   1      -4.363  -2.054  -4.202  0.00  0.00     0.078 C 
ATOM      3  C1  OXE d   1      -4.906  -3.430  -4.492  0.00  0.00    -0.078 A 
ATOM      4  C2  OXE d   1      -5.421  -4.143  -3.436  0.00  0.00    -0.078 A 
ATOM      5  C3  OXE d   1      -5.985  -5.396  -3.659  0.00  0.00     0.003 A 
ATOM      6  C4  OXE d   1      -5.893  -6.000  -4.919  0.00  0.00    -0.002 A 
ATOM      7  C5  OXE d   1      -5.337  -5.307  -6.000  0.00  0.00    -0.002 A 
ATOM      8  C6  OXE d   1      -4.878  -4.008  -5.813  0.00  0.00     0.003 A 
ENDROOT
TORSDOF 0
ENDMDL
