MODEL 1
REMARK minimizedAffinity 7.92959881
REMARK minimizedRMSD -1
REMARK  0 active torsions:
REMARK  status: ('A' for Active; 'I' for Inactive)
ROOT
ATOM      1  C2' OXE d   1      -3.226  -5.246  -2.420  0.00  0.00     0.078 C 
ATOM      2  C1' OXE d   1      -5.462  -3.550  -2.347  0.00  0.00     0.078 C 
ATOM      3  C1  OXE d   1      -5.164  -4.265  -3.641  0.00  0.00    -0.078 A 
ATOM      4  C2  OXE d   1      -4.041  -5.056  -3.681  0.00  0.00    -0.078 A 
ATOM      5  C3  OXE d   1      -3.750  -5.781  -4.834  0.00  0.00     0.003 A 
ATOM      6  C4  OXE d   1      -4.502  -5.592  -5.999  0.00  0.00    -0.002 A 
ATOM      7  C5  OXE d   1      -5.627  -4.760  -5.991  0.00  0.00    -0.002 A 
ATOM      8  C6  OXE d   1      -5.995  -4.124  -4.810  0.00  0.00     0.003 A 
ENDROOT
TORSDOF 0
ENDMDL
