MODEL 1
REMARK minimizedAffinity 0.89881146
REMARK minimizedRMSD -1
REMARK  0 active torsions:
REMARK  status: ('A' for Active; 'I' for Inactive)
ROOT
ATOM      1  C2' OXE d   1      -5.998  -3.410  -2.312  0.00  0.00     0.078 C 
ATOM      2  C1' OXE d   1      -4.901  -5.989  -2.155  0.00  0.00     0.078 C 
ATOM      3  C1  OXE d   1      -4.993  -5.346  -3.516  0.00  0.00    -0.078 A 
ATOM      4  C2  OXE d   1      -5.574  -4.103  -3.589  0.00  0.00    -0.078 A 
ATOM      5  C3  OXE d   1      -5.634  -3.441  -4.812  0.00  0.00     0.003 A 
ATOM      6  C4  OXE d   1      -5.249  -4.093  -5.990  0.00  0.00    -0.002 A 
ATOM      7  C5  OXE d   1      -4.691  -5.374  -5.943  0.00  0.00    -0.002 A 
ATOM      8  C6  OXE d   1      -4.517  -5.997  -4.711  0.00  0.00     0.003 A 
ENDROOT
TORSDOF 0
ENDMDL
