MODEL 1
REMARK minimizedAffinity -1.7156949
REMARK minimizedRMSD -1
REMARK  0 active torsions:
REMARK  status: ('A' for Active; 'I' for Inactive)
ROOT
ATOM      1  C2' OXE d   1      -5.876  -3.599  -5.620  0.00  0.00     0.078 C 
ATOM      2  C1' OXE d   1      -4.159  -5.820  -5.658  0.00  0.00     0.078 C 
ATOM      3  C1  OXE d   1      -4.662  -5.343  -4.319  0.00  0.00    -0.078 A 
ATOM      4  C2  OXE d   1      -5.464  -4.227  -4.306  0.00  0.00    -0.078 A 
ATOM      5  C3  OXE d   1      -6.000  -3.777  -3.102  0.00  0.00     0.003 A 
ATOM      6  C4  OXE d   1      -5.605  -4.357  -1.890  0.00  0.00    -0.002 A 
ATOM      7  C5  OXE d   1      -4.758  -5.470  -1.878  0.00  0.00    -0.002 A 
ATOM      8  C6  OXE d   1      -4.312  -6.000  -3.084  0.00  0.00     0.003 A 
ENDROOT
TORSDOF 0
ENDMDL
