MODEL 1
REMARK minimizedAffinity 4.19893885
REMARK minimizedRMSD -1
REMARK  0 active torsions:
REMARK  status: ('A' for Active; 'I' for Inactive)
ROOT
ATOM      1  C2' OXE d   1       1.072  -5.158   2.952  0.00  0.00     0.078 C 
ATOM      2  C1' OXE d   1       2.817  -3.592   4.496  0.00  0.00     0.078 C 
ATOM      3  C1  OXE d   1       2.018  -2.901   3.420  0.00  0.00    -0.078 A 
ATOM      4  C2  OXE d   1       1.201  -3.683   2.638  0.00  0.00    -0.078 A 
ATOM      5  C3  OXE d   1       0.401  -3.088   1.667  0.00  0.00     0.003 A 
ATOM      6  C4  OXE d   1       0.534  -1.725   1.376  0.00  0.00    -0.002 A 
ATOM      7  C5  OXE d   1       1.389  -0.917   2.134  0.00  0.00    -0.002 A 
ATOM      8  C6  OXE d   1       2.105  -1.481   3.185  0.00  0.00     0.003 A 
ENDROOT
TORSDOF 0
ENDMDL
