MODEL 1
REMARK minimizedAffinity -4.42130184
REMARK minimizedRMSD -1
REMARK  0 active torsions:
REMARK  status: ('A' for Active; 'I' for Inactive)
ROOT
ATOM      1  O1  BZF d   1       3.478  -2.899   0.113  0.00  0.00    -0.204 OA
ATOM      2  C2  BZF d   1       3.110  -4.208  -0.133  0.00  0.00     0.174 A 
ATOM      3  C3  BZF d   1       1.773  -4.355  -0.037  0.00  0.00    -0.012 A 
ATOM      4  C3A BZF d   1       1.265  -3.038   0.197  0.00  0.00    -0.107 A 
ATOM      5  C4  BZF d   1       0.008  -2.533   0.364  0.00  0.00     0.055 A 
ATOM      6  C5  BZF d   1      -0.141  -1.212   0.648  0.00  0.00    -0.016 A 
ATOM      7  C6  BZF d   1       0.945  -0.370   0.777  0.00  0.00     0.022 A 
ATOM      8  C7  BZF d   1       2.211  -0.825   0.615  0.00  0.00     0.029 A 
ATOM      9  C7A BZF d   1       2.363  -2.152   0.295  0.00  0.00     0.058 A 
ENDROOT
TORSDOF 0
ENDMDL
