MODEL 1
REMARK minimizedAffinity -1.20395422
REMARK minimizedRMSD -1
REMARK  0 active torsions:
REMARK  status: ('A' for Active; 'I' for Inactive)
ROOT
ATOM      1  O1  BZF d   1      -0.068  -3.264   0.367  0.00  0.00    -0.204 OA
ATOM      2  C2  BZF d   1      -0.612  -2.057   0.760  0.00  0.00     0.174 A 
ATOM      3  C3  BZF d   1       0.354  -1.131   0.932  0.00  0.00    -0.012 A 
ATOM      4  C3A BZF d   1       1.569  -1.777   0.539  0.00  0.00    -0.107 A 
ATOM      5  C4  BZF d   1       2.870  -1.368   0.474  0.00  0.00     0.055 A 
ATOM      6  C5  BZF d   1       3.827  -2.265   0.118  0.00  0.00    -0.016 A 
ATOM      7  C6  BZF d   1       3.518  -3.578  -0.174  0.00  0.00     0.022 A 
ATOM      8  C7  BZF d   1       2.241  -4.029  -0.127  0.00  0.00     0.029 A 
ATOM      9  C7A BZF d   1       1.268  -3.116   0.200  0.00  0.00     0.058 A 
ENDROOT
TORSDOF 0
ENDMDL
