MODEL 1
REMARK minimizedAffinity 1.0907166
REMARK minimizedRMSD -1
REMARK  0 active torsions:
REMARK  status: ('A' for Active; 'I' for Inactive)
ROOT
ATOM      1  O1  BZF d   1       1.299  -3.872   0.960  0.00  0.00    -0.204 OA
ATOM      2  C2  BZF d   1       2.677  -3.885   0.870  0.00  0.00     0.174 A 
ATOM      3  C3  BZF d   1       3.163  -2.630   0.780  0.00  0.00    -0.012 A 
ATOM      4  C3A BZF d   1       2.023  -1.776   0.910  0.00  0.00    -0.107 A 
ATOM      5  C4  BZF d   1       1.862  -0.420   0.917  0.00  0.00     0.055 A 
ATOM      6  C5  BZF d   1       0.606   0.096   0.988  0.00  0.00    -0.016 A 
ATOM      7  C6  BZF d   1      -0.509  -0.713   1.048  0.00  0.00     0.022 A 
ATOM      8  C7  BZF d   1      -0.399  -2.064   1.049  0.00  0.00     0.029 A 
ATOM      9  C7A BZF d   1       0.870  -2.588   1.011  0.00  0.00     0.058 A 
ENDROOT
TORSDOF 0
ENDMDL
