MODEL 1
REMARK minimizedAffinity -1.28383362
REMARK minimizedRMSD -1
REMARK  0 active torsions:
REMARK  status: ('A' for Active; 'I' for Inactive)
ROOT
ATOM      1  O1  BZF d   1       1.914  -4.014   0.805  0.00  0.00    -0.204 OA
ATOM      2  C2  BZF d   1       2.886  -3.771  -0.146  0.00  0.00     0.174 A 
ATOM      3  C3  BZF d   1       2.802  -2.506  -0.604  0.00  0.00    -0.012 A 
ATOM      4  C3A BZF d   1       1.767  -1.893   0.171  0.00  0.00    -0.107 A 
ATOM      5  C4  BZF d   1       1.229  -0.638   0.194  0.00  0.00     0.055 A 
ATOM      6  C5  BZF d   1       0.179  -0.385   1.019  0.00  0.00    -0.016 A 
ATOM      7  C6  BZF d   1      -0.360  -1.362   1.830  0.00  0.00     0.022 A 
ATOM      8  C7  BZF d   1       0.144  -2.620   1.846  0.00  0.00     0.029 A 
ATOM      9  C7A BZF d   1       1.225  -2.871   1.037  0.00  0.00     0.058 A 
ENDROOT
TORSDOF 0
ENDMDL
