MODEL 1
REMARK minimizedAffinity -3.0788238
REMARK minimizedRMSD -1
REMARK  0 active torsions:
REMARK  status: ('A' for Active; 'I' for Inactive)
ROOT
ATOM      1  O1  BZF d   1      -0.175   0.071   1.579  0.00  0.00    -0.204 OA
ATOM      2  C2  BZF d   1      -1.514  -0.236   1.430  0.00  0.00     0.174 A 
ATOM      3  C3  BZF d   1      -1.666  -1.405   0.776  0.00  0.00    -0.012 A 
ATOM      4  C3A BZF d   1      -0.339  -1.903   0.581  0.00  0.00    -0.107 A 
ATOM      5  C4  BZF d   1       0.164  -3.034   0.004  0.00  0.00     0.055 A 
ATOM      6  C5  BZF d   1       1.512  -3.185  -0.089  0.00  0.00    -0.016 A 
ATOM      7  C6  BZF d   1       2.384  -2.223   0.379  0.00  0.00     0.022 A 
ATOM      8  C7  BZF d   1       1.932  -1.087   0.963  0.00  0.00     0.029 A 
ATOM      9  C7A BZF d   1       0.571  -0.947   1.088  0.00  0.00     0.058 A 
ENDROOT
TORSDOF 0
ENDMDL
