MODEL 1
REMARK minimizedAffinity -3.97100472
REMARK minimizedRMSD -1
REMARK  0 active torsions:
REMARK  status: ('A' for Active; 'I' for Inactive)
ROOT
ATOM      1  O1  BZF d   1       1.303  -0.662   0.900  0.00  0.00    -0.204 OA
ATOM      2  C2  BZF d   1      -0.045  -0.478   0.661  0.00  0.00     0.174 A 
ATOM      3  C3  BZF d   1      -0.560  -1.528  -0.011  0.00  0.00    -0.012 A 
ATOM      4  C3A BZF d   1       0.515  -2.466  -0.123  0.00  0.00    -0.107 A 
ATOM      5  C4  BZF d   1       0.620  -3.711  -0.675  0.00  0.00     0.055 A 
ATOM      6  C5  BZF d   1       1.830  -4.330  -0.682  0.00  0.00    -0.016 A 
ATOM      7  C6  BZF d   1       2.954  -3.732  -0.151  0.00  0.00     0.022 A 
ATOM      8  C7  BZF d   1       2.898  -2.501   0.412  0.00  0.00     0.029 A 
ATOM      9  C7A BZF d   1       1.670  -1.886   0.450  0.00  0.00     0.058 A 
ENDROOT
TORSDOF 0
ENDMDL
