MODEL 1
REMARK minimizedAffinity 1.39792418
REMARK minimizedRMSD -1
REMARK  0 active torsions:
REMARK  status: ('A' for Active; 'I' for Inactive)
ROOT
ATOM      1  O1  BZF d   1       2.562  -2.773   0.274  0.00  0.00    -0.204 OA
ATOM      2  C2  BZF d   1       2.034  -3.993  -0.102  0.00  0.00     0.174 A 
ATOM      3  C3  BZF d   1       0.691  -3.990   0.017  0.00  0.00    -0.012 A 
ATOM      4  C3A BZF d   1       0.351  -2.656   0.410  0.00  0.00    -0.107 A 
ATOM      5  C4  BZF d   1      -0.833  -2.027   0.670  0.00  0.00     0.055 A 
ATOM      6  C5  BZF d   1      -0.815  -0.738   1.101  0.00  0.00    -0.016 A 
ATOM      7  C6  BZF d   1       0.367  -0.052   1.288  0.00  0.00     0.022 A 
ATOM      8  C7  BZF d   1       1.566  -0.632   1.039  0.00  0.00     0.029 A 
ATOM      9  C7A BZF d   1       1.550  -1.924   0.571  0.00  0.00     0.058 A 
ENDROOT
TORSDOF 0
ENDMDL
