MODEL 1
REMARK minimizedAffinity -2.66129351
REMARK minimizedRMSD -1
REMARK  0 active torsions:
REMARK  status: ('A' for Active; 'I' for Inactive)
ROOT
ATOM      1  O1  BZF d   1       2.980  -2.883  -0.212  0.00  0.00    -0.204 OA
ATOM      2  C2  BZF d   1       2.265  -4.064  -0.243  0.00  0.00     0.174 A 
ATOM      3  C3  BZF d   1       0.986  -3.859   0.134  0.00  0.00    -0.012 A 
ATOM      4  C3A BZF d   1       0.873  -2.446   0.328  0.00  0.00    -0.107 A 
ATOM      5  C4  BZF d   1      -0.158  -1.628   0.691  0.00  0.00     0.055 A 
ATOM      6  C5  BZF d   1       0.080  -0.301   0.862  0.00  0.00    -0.016 A 
ATOM      7  C6  BZF d   1       1.337   0.240   0.683  0.00  0.00     0.022 A 
ATOM      8  C7  BZF d   1       2.390  -0.531   0.317  0.00  0.00     0.029 A 
ATOM      9  C7A BZF d   1       2.145  -1.867   0.112  0.00  0.00     0.058 A 
ENDROOT
TORSDOF 0
ENDMDL
