MODEL 1
REMARK minimizedAffinity -1.82269073
REMARK minimizedRMSD -1
REMARK  0 active torsions:
REMARK  status: ('A' for Active; 'I' for Inactive)
ROOT
ATOM      1  O1  BZF d   1      -0.465  -3.943   0.336  0.00  0.00    -0.204 OA
ATOM      2  C2  BZF d   1      -1.723  -3.427   0.584  0.00  0.00     0.174 A 
ATOM      3  C3  BZF d   1      -1.664  -2.093   0.773  0.00  0.00    -0.012 A 
ATOM      4  C3A BZF d   1      -0.296  -1.740   0.544  0.00  0.00    -0.107 A 
ATOM      5  C4  BZF d   1       0.384  -0.557   0.567  0.00  0.00     0.055 A 
ATOM      6  C5  BZF d   1       1.729  -0.564   0.371  0.00  0.00    -0.016 A 
ATOM      7  C6  BZF d   1       2.425  -1.735   0.154  0.00  0.00     0.022 A 
ATOM      8  C7  BZF d   1       1.792  -2.934   0.117  0.00  0.00     0.029 A 
ATOM      9  C7A BZF d   1       0.429  -2.926   0.283  0.00  0.00     0.058 A 
ENDROOT
TORSDOF 0
ENDMDL
