MODEL 1
REMARK minimizedAffinity -3.746562
REMARK minimizedRMSD -1
REMARK  0 active torsions:
REMARK  status: ('A' for Active; 'I' for Inactive)
ROOT
ATOM      1  O1  BZF d   1       3.795  -1.967   0.221  0.00  0.00    -0.204 OA
ATOM      2  C2  BZF d   1       3.863  -3.258  -0.265  0.00  0.00     0.174 A 
ATOM      3  C3  BZF d   1       2.632  -3.800  -0.360  0.00  0.00    -0.012 A 
ATOM      4  C3A BZF d   1       1.731  -2.752   0.009  0.00  0.00    -0.107 A 
ATOM      5  C4  BZF d   1       0.370  -2.671   0.095  0.00  0.00     0.055 A 
ATOM      6  C5  BZF d   1      -0.195  -1.525   0.557  0.00  0.00    -0.016 A 
ATOM      7  C6  BZF d   1       0.568  -0.444   0.946  0.00  0.00     0.022 A 
ATOM      8  C7  BZF d   1       1.921  -0.475   0.874  0.00  0.00     0.029 A 
ATOM      9  C7A BZF d   1       2.494  -1.620   0.376  0.00  0.00     0.058 A 
ENDROOT
TORSDOF 0
ENDMDL
