MODEL 1
REMARK minimizedAffinity 2.29167819
REMARK minimizedRMSD -1
REMARK  0 active torsions:
REMARK  status: ('A' for Active; 'I' for Inactive)
ROOT
ATOM      1  O1  BZF d   1       0.355  -3.941  -0.509  0.00  0.00    -0.204 OA
ATOM      2  C2  BZF d   1       1.594  -4.480  -0.220  0.00  0.00     0.174 A 
ATOM      3  C3  BZF d   1       2.322  -3.629   0.531  0.00  0.00    -0.012 A 
ATOM      4  C3A BZF d   1       1.452  -2.526   0.801  0.00  0.00    -0.107 A 
ATOM      5  C4  BZF d   1       1.596  -1.369   1.511  0.00  0.00     0.055 A 
ATOM      6  C5  BZF d   1       0.580  -0.467   1.518  0.00  0.00    -0.016 A 
ATOM      7  C6  BZF d   1      -0.591  -0.687   0.821  0.00  0.00     0.022 A 
ATOM      8  C7  BZF d   1      -0.782  -1.822   0.106  0.00  0.00     0.029 A 
ATOM      9  C7A BZF d   1       0.231  -2.751   0.125  0.00  0.00     0.058 A 
ENDROOT
TORSDOF 0
ENDMDL
