MODEL 1
REMARK minimizedAffinity 2.00521851
REMARK minimizedRMSD -1
REMARK  0 active torsions:
REMARK  status: ('A' for Active; 'I' for Inactive)
ROOT
ATOM      1  O1  BZF d   1      -1.572  -1.709   0.900  0.00  0.00    -0.204 OA
ATOM      2  C2  BZF d   1      -1.943  -0.378   0.902  0.00  0.00     0.174 A 
ATOM      3  C3  BZF d   1      -0.863   0.419   1.034  0.00  0.00    -0.012 A 
ATOM      4  C3A BZF d   1       0.261  -0.465   1.028  0.00  0.00    -0.107 A 
ATOM      5  C4  BZF d   1       1.610  -0.270   1.111  0.00  0.00     0.055 A 
ATOM      6  C5  BZF d   1       2.433  -1.351   1.150  0.00  0.00    -0.016 A 
ATOM      7  C6  BZF d   1       1.942  -2.639   1.112  0.00  0.00     0.022 A 
ATOM      8  C7  BZF d   1       0.611  -2.883   1.025  0.00  0.00     0.029 A 
ATOM      9  C7A BZF d   1      -0.221  -1.793   0.952  0.00  0.00     0.058 A 
ENDROOT
TORSDOF 0
ENDMDL
