MODEL 1
REMARK minimizedAffinity -0.629879177
REMARK minimizedRMSD -1
REMARK  0 active torsions:
REMARK  status: ('A' for Active; 'I' for Inactive)
ROOT
ATOM      1  O1  BZF d   1       3.595  -2.190   0.450  0.00  0.00    -0.204 OA
ATOM      2  C2  BZF d   1       3.630  -3.409  -0.201  0.00  0.00     0.174 A 
ATOM      3  C3  BZF d   1       2.382  -3.862  -0.435  0.00  0.00    -0.012 A 
ATOM      4  C3A BZF d   1       1.512  -2.822   0.020  0.00  0.00    -0.107 A 
ATOM      5  C4  BZF d   1       0.154  -2.675   0.041  0.00  0.00     0.055 A 
ATOM      6  C5  BZF d   1      -0.382  -1.569   0.621  0.00  0.00    -0.016 A 
ATOM      7  C6  BZF d   1       0.408  -0.594   1.193  0.00  0.00     0.022 A 
ATOM      8  C7  BZF d   1       1.760  -0.693   1.193  0.00  0.00     0.029 A 
ATOM      9  C7A BZF d   1       2.306  -1.793   0.578  0.00  0.00     0.058 A 
ENDROOT
TORSDOF 0
ENDMDL
