MODEL 1
REMARK minimizedAffinity 1.74669242
REMARK minimizedRMSD -1
REMARK  0 active torsions:
REMARK  status: ('A' for Active; 'I' for Inactive)
ROOT
ATOM      1  O1  BZF d   1      -0.504  -2.158   1.303  0.00  0.00    -0.204 OA
ATOM      2  C2  BZF d   1      -0.480  -0.778   1.359  0.00  0.00     0.174 A 
ATOM      3  C3  BZF d   1       0.738  -0.306   1.025  0.00  0.00    -0.012 A 
ATOM      4  C3A BZF d   1       1.499  -1.459   0.653  0.00  0.00    -0.107 A 
ATOM      5  C4  BZF d   1       2.779  -1.636   0.210  0.00  0.00     0.055 A 
ATOM      6  C5  BZF d   1       3.237  -2.899   0.005  0.00  0.00    -0.016 A 
ATOM      7  C6  BZF d   1       2.447  -4.005   0.238  0.00  0.00     0.022 A 
ATOM      8  C7  BZF d   1       1.169  -3.879   0.672  0.00  0.00     0.029 A 
ATOM      9  C7A BZF d   1       0.692  -2.603   0.848  0.00  0.00     0.058 A 
ENDROOT
TORSDOF 0
ENDMDL
