MODEL 1
REMARK minimizedAffinity -1.50687408
REMARK minimizedRMSD -1
REMARK  0 active torsions:
REMARK  status: ('A' for Active; 'I' for Inactive)
ROOT
ATOM      1  O1  BZF d   1       1.258  -4.373   0.619  0.00  0.00    -0.204 OA
ATOM      2  C2  BZF d   1       2.538  -4.391   0.098  0.00  0.00     0.174 A 
ATOM      3  C3  BZF d   1       2.935  -3.147  -0.238  0.00  0.00    -0.012 A 
ATOM      4  C3A BZF d   1       1.870  -2.286   0.179  0.00  0.00    -0.107 A 
ATOM      5  C4  BZF d   1       1.682  -0.935   0.130  0.00  0.00     0.055 A 
ATOM      6  C5  BZF d   1       0.500  -0.417   0.555  0.00  0.00    -0.016 A 
ATOM      7  C6  BZF d   1      -0.516  -1.220   1.029  0.00  0.00     0.022 A 
ATOM      8  C7  BZF d   1      -0.374  -2.566   1.101  0.00  0.00     0.029 A 
ATOM      9  C7A BZF d   1       0.832  -3.090   0.703  0.00  0.00     0.058 A 
ENDROOT
TORSDOF 0
ENDMDL
