MODEL 1
REMARK minimizedAffinity -2.96573639
REMARK minimizedRMSD -1
REMARK  0 active torsions:
REMARK  status: ('A' for Active; 'I' for Inactive)
ROOT
ATOM      1  O1  BZF d   1       3.368  -1.918   0.141  0.00  0.00    -0.204 OA
ATOM      2  C2  BZF d   1       3.515  -3.279  -0.039  0.00  0.00     0.174 A 
ATOM      3  C3  BZF d   1       2.350  -3.920   0.186  0.00  0.00    -0.012 A 
ATOM      4  C3A BZF d   1       1.394  -2.885   0.438  0.00  0.00    -0.107 A 
ATOM      5  C4  BZF d   1       0.056  -2.890   0.712  0.00  0.00     0.055 A 
ATOM      6  C5  BZF d   1      -0.566  -1.712   0.980  0.00  0.00    -0.016 A 
ATOM      7  C6  BZF d   1       0.117  -0.514   0.986  0.00  0.00     0.022 A 
ATOM      8  C7  BZF d   1       1.444  -0.459   0.715  0.00  0.00     0.029 A 
ATOM      9  C7A BZF d   1       2.070  -1.643   0.412  0.00  0.00     0.058 A 
ENDROOT
TORSDOF 0
ENDMDL
