MODEL 1
REMARK minimizedAffinity -3.85609937
REMARK minimizedRMSD -1
REMARK  0 active torsions:
REMARK  status: ('A' for Active; 'I' for Inactive)
ROOT
ATOM      1  C   UNL d   1       0.134   1.094   3.621  0.00  0.00     0.078 C 
ATOM      2  C1  UNL d   1       0.226   1.004   2.127  0.00  0.00    -0.077 A 
ATOM      3  C2  UNL d   1       1.219   1.695   1.423  0.00  0.00    -0.001 A 
ATOM      4  C3  UNL d   1       1.287   1.610   0.031  0.00  0.00     0.003 A 
ATOM      5  C4  UNL d   1       0.364   0.835  -0.668  0.00  0.00    -0.005 A 
ATOM      6  C5  UNL d   1      -0.630   0.146   0.024  0.00  0.00     0.003 A 
ATOM      7  C6  UNL d   1      -0.699   0.230   1.415  0.00  0.00    -0.001 A 
ENDROOT
TORSDOF 0
ENDMDL
