MODEL 1
REMARK minimizedAffinity -5.58440256
REMARK minimizedRMSD -1
REMARK  0 active torsions:
REMARK  status: ('A' for Active; 'I' for Inactive)
ROOT
ATOM      1  C   UNL d   1       0.747  -0.970  -0.748  0.00  0.00     0.078 C 
ATOM      2  C1  UNL d   1       1.224   0.262  -0.037  0.00  0.00    -0.077 A 
ATOM      3  C2  UNL d   1       0.362   0.999   0.785  0.00  0.00    -0.001 A 
ATOM      4  C3  UNL d   1       0.817   2.149   1.433  0.00  0.00     0.003 A 
ATOM      5  C4  UNL d   1       2.134   2.572   1.265  0.00  0.00    -0.005 A 
ATOM      6  C5  UNL d   1       2.998   1.846   0.448  0.00  0.00     0.003 A 
ATOM      7  C6  UNL d   1       2.545   0.696  -0.201  0.00  0.00    -0.001 A 
ENDROOT
TORSDOF 0
ENDMDL
