MODEL 1
REMARK minimizedAffinity -1.91242707
REMARK minimizedRMSD -1
REMARK  0 active torsions:
REMARK  status: ('A' for Active; 'I' for Inactive)
ROOT
ATOM      1  C   UNL d   1      -0.129  -0.530  -0.404  0.00  0.00     0.078 C 
ATOM      2  C1  UNL d   1      -1.138  -0.930  -1.438  0.00  0.00    -0.077 A 
ATOM      3  C2  UNL d   1      -2.263  -1.688  -1.093  0.00  0.00    -0.001 A 
ATOM      4  C3  UNL d   1      -3.189  -2.061  -2.069  0.00  0.00     0.003 A 
ATOM      5  C4  UNL d   1      -2.999  -1.681  -3.396  0.00  0.00    -0.005 A 
ATOM      6  C5  UNL d   1      -1.881  -0.928  -3.749  0.00  0.00     0.003 A 
ATOM      7  C6  UNL d   1      -0.954  -0.555  -2.775  0.00  0.00    -0.001 A 
ENDROOT
TORSDOF 0
ENDMDL
