MODEL 1
REMARK minimizedAffinity -2.81973767
REMARK minimizedRMSD -1
REMARK  0 active torsions:
REMARK  status: ('A' for Active; 'I' for Inactive)
ROOT
ATOM      1  C   UNL d   1       0.205  -1.814  -0.731  0.00  0.00     0.078 C 
ATOM      2  C1  UNL d   1      -0.970  -1.622  -1.643  0.00  0.00    -0.077 A 
ATOM      3  C2  UNL d   1      -0.822  -0.997  -2.887  0.00  0.00    -0.001 A 
ATOM      4  C3  UNL d   1      -1.926  -0.816  -3.722  0.00  0.00     0.003 A 
ATOM      5  C4  UNL d   1      -3.186  -1.256  -3.322  0.00  0.00    -0.005 A 
ATOM      6  C5  UNL d   1      -3.343  -1.878  -2.084  0.00  0.00     0.003 A 
ATOM      7  C6  UNL d   1      -2.240  -2.059  -1.248  0.00  0.00    -0.001 A 
ENDROOT
TORSDOF 0
ENDMDL
