MODEL 1
REMARK minimizedAffinity -3.16675425
REMARK minimizedRMSD -1
REMARK  0 active torsions:
REMARK  status: ('A' for Active; 'I' for Inactive)
ROOT
ATOM      1  C   UNL d   1       0.060  -1.001  -0.465  0.00  0.00     0.078 C 
ATOM      2  C1  UNL d   1       0.295   0.288   0.263  0.00  0.00    -0.077 A 
ATOM      3  C2  UNL d   1      -0.115   0.451   1.593  0.00  0.00    -0.001 A 
ATOM      4  C3  UNL d   1       0.102   1.660   2.255  0.00  0.00     0.003 A 
ATOM      5  C4  UNL d   1       0.727   2.717   1.596  0.00  0.00    -0.005 A 
ATOM      6  C5  UNL d   1       1.136   2.565   0.273  0.00  0.00     0.003 A 
ATOM      7  C6  UNL d   1       0.920   1.357  -0.391  0.00  0.00    -0.001 A 
ENDROOT
TORSDOF 0
ENDMDL
