MODEL 1
REMARK minimizedAffinity -4.26774502
REMARK minimizedRMSD -1
REMARK  0 active torsions:
REMARK  status: ('A' for Active; 'I' for Inactive)
ROOT
ATOM      1  C   UNL d   1      -0.782  -1.366  -1.051  0.00  0.00     0.078 C 
ATOM      2  C1  UNL d   1      -0.377  -0.222  -0.171  0.00  0.00    -0.077 A 
ATOM      3  C2  UNL d   1      -0.586  -0.267   1.213  0.00  0.00    -0.001 A 
ATOM      4  C3  UNL d   1      -0.212   0.810   2.019  0.00  0.00     0.003 A 
ATOM      5  C4  UNL d   1       0.371   1.940   1.451  0.00  0.00    -0.005 A 
ATOM      6  C5  UNL d   1       0.581   1.995   0.074  0.00  0.00     0.003 A 
ATOM      7  C6  UNL d   1       0.209   0.920  -0.733  0.00  0.00    -0.001 A 
ENDROOT
TORSDOF 0
ENDMDL
