MODEL 1
REMARK minimizedAffinity -3.55025887
REMARK minimizedRMSD -1
REMARK  0 active torsions:
REMARK  status: ('A' for Active; 'I' for Inactive)
ROOT
ATOM      1  C   UNL d   1       0.143  -2.431  -0.769  0.00  0.00     0.078 C 
ATOM      2  C1  UNL d   1      -0.942  -2.404  -1.804  0.00  0.00    -0.077 A 
ATOM      3  C2  UNL d   1      -2.187  -2.996  -1.559  0.00  0.00    -0.001 A 
ATOM      4  C3  UNL d   1      -3.185  -2.971  -2.535  0.00  0.00     0.003 A 
ATOM      5  C4  UNL d   1      -2.947  -2.357  -3.763  0.00  0.00    -0.005 A 
ATOM      6  C5  UNL d   1      -1.710  -1.766  -4.016  0.00  0.00     0.003 A 
ATOM      7  C6  UNL d   1      -0.712  -1.790  -3.042  0.00  0.00    -0.001 A 
ENDROOT
TORSDOF 0
ENDMDL
