MODEL 1
REMARK minimizedAffinity -4.44353485
REMARK minimizedRMSD -1
REMARK  0 active torsions:
REMARK  status: ('A' for Active; 'I' for Inactive)
ROOT
ATOM      1  C   UNL d   1      -0.372  -1.038  -0.225  0.00  0.00     0.078 C 
ATOM      2  C1  UNL d   1       0.146   0.217   0.412  0.00  0.00    -0.077 A 
ATOM      3  C2  UNL d   1       0.871   1.157  -0.332  0.00  0.00    -0.001 A 
ATOM      4  C3  UNL d   1       1.356   2.316   0.276  0.00  0.00     0.003 A 
ATOM      5  C4  UNL d   1       1.123   2.546   1.630  0.00  0.00    -0.005 A 
ATOM      6  C5  UNL d   1       0.405   1.616   2.379  0.00  0.00     0.003 A 
ATOM      7  C6  UNL d   1      -0.081   0.456   1.773  0.00  0.00    -0.001 A 
ENDROOT
TORSDOF 0
ENDMDL
