MODEL 1
REMARK minimizedAffinity -2.77689862
REMARK minimizedRMSD -1
REMARK  0 active torsions:
REMARK  status: ('A' for Active; 'I' for Inactive)
ROOT
ATOM      1  C   UNL d   1      -1.188  -1.339  -1.037  0.00  0.00     0.078 C 
ATOM      2  C1  UNL d   1      -0.377  -0.432  -0.160  0.00  0.00    -0.077 A 
ATOM      3  C2  UNL d   1       0.903  -0.014  -0.544  0.00  0.00    -0.001 A 
ATOM      4  C3  UNL d   1       1.650   0.823   0.287  0.00  0.00     0.003 A 
ATOM      5  C4  UNL d   1       1.127   1.248   1.506  0.00  0.00    -0.005 A 
ATOM      6  C5  UNL d   1      -0.146   0.835   1.897  0.00  0.00     0.003 A 
ATOM      7  C6  UNL d   1      -0.895  -0.001   1.068  0.00  0.00    -0.001 A 
ENDROOT
TORSDOF 0
ENDMDL
