MODEL 1
REMARK minimizedAffinity -3.10974765
REMARK minimizedRMSD -1
REMARK  0 active torsions:
REMARK  status: ('A' for Active; 'I' for Inactive)
ROOT
ATOM      1  C   UNL d   1       0.323  -0.357   0.115  0.00  0.00     0.078 C 
ATOM      2  C1  UNL d   1      -0.629  -0.829  -0.943  0.00  0.00    -0.077 A 
ATOM      3  C2  UNL d   1      -0.567  -0.324  -2.247  0.00  0.00    -0.001 A 
ATOM      4  C3  UNL d   1      -1.466  -0.766  -3.219  0.00  0.00     0.003 A 
ATOM      5  C4  UNL d   1      -2.436  -1.713  -2.897  0.00  0.00    -0.005 A 
ATOM      6  C5  UNL d   1      -2.507  -2.220  -1.600  0.00  0.00     0.003 A 
ATOM      7  C6  UNL d   1      -1.609  -1.779  -0.627  0.00  0.00    -0.001 A 
ENDROOT
TORSDOF 0
ENDMDL
