MODEL 1
REMARK minimizedAffinity 2.84787369
REMARK minimizedRMSD -1
REMARK  0 active torsions:
REMARK  status: ('A' for Active; 'I' for Inactive)
ROOT
ATOM      1  C   UNL d   1       1.329  -0.717  -0.900  0.00  0.00     0.078 C 
ATOM      2  C1  UNL d   1       0.063  -0.637  -0.101  0.00  0.00    -0.077 A 
ATOM      3  C2  UNL d   1      -1.180  -0.892  -0.693  0.00  0.00    -0.001 A 
ATOM      4  C3  UNL d   1      -2.352  -0.805   0.061  0.00  0.00     0.003 A 
ATOM      5  C4  UNL d   1      -2.292  -0.460   1.410  0.00  0.00    -0.005 A 
ATOM      6  C5  UNL d   1      -1.060  -0.202   2.006  0.00  0.00     0.003 A 
ATOM      7  C6  UNL d   1       0.113  -0.289   1.254  0.00  0.00    -0.001 A 
ENDROOT
TORSDOF 0
ENDMDL
