MODEL 1
REMARK minimizedAffinity -1.93584514
REMARK minimizedRMSD -1
REMARK  0 active torsions:
REMARK  status: ('A' for Active; 'I' for Inactive)
ROOT
ATOM      1  C   UNL d   1      -5.033  -3.243  -1.089  0.00  0.00     0.078 C 
ATOM      2  C1  UNL d   1      -3.911  -2.528  -1.780  0.00  0.00    -0.077 A 
ATOM      3  C2  UNL d   1      -2.622  -2.511  -1.234  0.00  0.00    -0.001 A 
ATOM      4  C3  UNL d   1      -1.589  -1.832  -1.884  0.00  0.00     0.003 A 
ATOM      5  C4  UNL d   1      -1.835  -1.165  -3.082  0.00  0.00    -0.005 A 
ATOM      6  C5  UNL d   1      -3.116  -1.175  -3.632  0.00  0.00     0.003 A 
ATOM      7  C6  UNL d   1      -4.149  -1.852  -2.984  0.00  0.00    -0.001 A 
ENDROOT
TORSDOF 0
ENDMDL
