MODEL 1
REMARK minimizedAffinity -4.08625507
REMARK minimizedRMSD -1
REMARK  0 active torsions:
REMARK  status: ('A' for Active; 'I' for Inactive)
ROOT
ATOM      1  C   UNL d   1      -0.355  -1.227  -0.860  0.00  0.00     0.078 C 
ATOM      2  C1  UNL d   1      -1.479  -1.830  -1.648  0.00  0.00    -0.077 A 
ATOM      3  C2  UNL d   1      -1.867  -1.291  -2.881  0.00  0.00    -0.001 A 
ATOM      4  C3  UNL d   1      -2.921  -1.857  -3.598  0.00  0.00     0.003 A 
ATOM      5  C4  UNL d   1      -3.598  -2.964  -3.091  0.00  0.00    -0.005 A 
ATOM      6  C5  UNL d   1      -3.222  -3.506  -1.864  0.00  0.00     0.003 A 
ATOM      7  C6  UNL d   1      -2.167  -2.941  -1.145  0.00  0.00    -0.001 A 
ENDROOT
TORSDOF 0
ENDMDL
