MODEL 1
REMARK minimizedAffinity -4.52296829
REMARK minimizedRMSD -1
REMARK  0 active torsions:
REMARK  status: ('A' for Active; 'I' for Inactive)
ROOT
ATOM      1  C   UNL d   1      -1.061  -1.173  -0.825  0.00  0.00     0.078 C 
ATOM      2  C1  UNL d   1      -0.143  -0.284  -0.039  0.00  0.00    -0.077 A 
ATOM      3  C2  UNL d   1      -0.650   0.660   0.862  0.00  0.00    -0.001 A 
ATOM      4  C3  UNL d   1       0.216   1.487   1.579  0.00  0.00     0.003 A 
ATOM      5  C4  UNL d   1       1.594   1.378   1.402  0.00  0.00    -0.005 A 
ATOM      6  C5  UNL d   1       2.107   0.443   0.506  0.00  0.00     0.003 A 
ATOM      7  C6  UNL d   1       1.243  -0.385  -0.212  0.00  0.00    -0.001 A 
ENDROOT
TORSDOF 0
ENDMDL
