MODEL 1
REMARK minimizedAffinity -1.44420505
REMARK minimizedRMSD -1
REMARK  1 active torsions:
REMARK  status: ('A' for Active; 'I' for Inactive)
REMARK    1  A    between atoms: C1_2  and  C2_3 
ROOT
ATOM      1  C2  UNL d   1       1.975  -0.764  -0.884  0.00  0.00    -0.073 A 
ATOM      2  C3  UNL d   1       2.944   0.243  -0.950  0.00  0.00    -0.002 A 
ATOM      3  C4  UNL d   1       4.127   0.038  -1.661  0.00  0.00     0.004 A 
ATOM      4  C5  UNL d   1       4.350  -1.173  -2.317  0.00  0.00    -0.004 A 
ATOM      5  C6  UNL d   1       3.389  -2.188  -2.272  0.00  0.00    -0.075 A 
ATOM      6  C7  UNL d   1       3.615  -3.496  -2.970  0.00  0.00     0.076 C 
ATOM      7  C8  UNL d   1       2.204  -1.975  -1.554  0.00  0.00     0.001 A 
ENDROOT
BRANCH   1   8
ATOM      8  C1  UNL d   1       0.693  -0.545  -0.123  0.00  0.00     0.053 C 
ATOM      9  C   UNL d   1      -0.504  -1.154  -0.835  0.00  0.00     0.018 C 
ENDBRANCH   1   8
TORSDOF 1
ENDMDL
