MODEL 1
REMARK minimizedAffinity 0.880108833
REMARK minimizedRMSD -1
REMARK  1 active torsions:
REMARK  status: ('A' for Active; 'I' for Inactive)
REMARK    1  A    between atoms: C1_2  and  C2_3 
ROOT
ATOM      1  C2  UNL d   1       2.973  -1.356  -1.532  0.00  0.00    -0.073 A 
ATOM      2  C3  UNL d   1       3.421  -2.112  -2.622  0.00  0.00    -0.002 A 
ATOM      3  C4  UNL d   1       4.610  -1.776  -3.271  0.00  0.00     0.004 A 
ATOM      4  C5  UNL d   1       5.366  -0.689  -2.833  0.00  0.00    -0.004 A 
ATOM      5  C6  UNL d   1       4.942   0.070  -1.738  0.00  0.00    -0.075 A 
ATOM      6  C7  UNL d   1       5.742   1.244  -1.256  0.00  0.00     0.076 C 
ATOM      7  C8  UNL d   1       3.745  -0.271  -1.094  0.00  0.00     0.001 A 
ENDROOT
BRANCH   1   8
ATOM      8  C1  UNL d   1       1.693  -1.718  -0.824  0.00  0.00     0.053 C 
ATOM      9  C   UNL d   1       0.859  -0.491  -0.492  0.00  0.00     0.018 C 
ENDBRANCH   1   8
TORSDOF 1
ENDMDL
