MODEL 1
REMARK minimizedAffinity 1.05771911
REMARK minimizedRMSD -1
REMARK  1 active torsions:
REMARK  status: ('A' for Active; 'I' for Inactive)
REMARK    1  A    between atoms: C1_2  and  C2_3 
ROOT
ATOM      1  C2  UNL d   1       2.354  -0.418  -0.772  0.00  0.00    -0.073 A 
ATOM      2  C3  UNL d   1       1.826   0.796  -0.319  0.00  0.00    -0.002 A 
ATOM      3  C4  UNL d   1       0.447   1.010  -0.324  0.00  0.00     0.004 A 
ATOM      4  C5  UNL d   1      -0.417   0.012  -0.774  0.00  0.00    -0.004 A 
ATOM      5  C6  UNL d   1       0.091  -1.213  -1.219  0.00  0.00    -0.075 A 
ATOM      6  C7  UNL d   1      -0.824  -2.296  -1.708  0.00  0.00     0.076 C 
ATOM      7  C8  UNL d   1       1.477  -1.419  -1.214  0.00  0.00     0.001 A 
ENDROOT
BRANCH   1   8
ATOM      8  C1  UNL d   1       3.842  -0.656  -0.762  0.00  0.00     0.053 C 
ATOM      9  C   UNL d   1       4.619   0.574  -1.204  0.00  0.00     0.018 C 
ENDBRANCH   1   8
TORSDOF 1
ENDMDL
