MODEL 1
REMARK minimizedAffinity 4.71353292
REMARK minimizedRMSD -1
REMARK  1 active torsions:
REMARK  status: ('A' for Active; 'I' for Inactive)
REMARK    1  A    between atoms: C1_2  and  C2_3 
ROOT
ATOM      1  C2  UNL d   1       3.104   0.939   3.845  0.00  0.00    -0.073 A 
ATOM      2  C3  UNL d   1       3.872  -0.068   4.442  0.00  0.00    -0.002 A 
ATOM      3  C4  UNL d   1       3.806  -1.379   3.968  0.00  0.00     0.004 A 
ATOM      4  C5  UNL d   1       2.980  -1.695   2.890  0.00  0.00    -0.004 A 
ATOM      5  C6  UNL d   1       2.214  -0.701   2.273  0.00  0.00    -0.075 A 
ATOM      6  C7  UNL d   1       1.318  -1.026   1.113  0.00  0.00     0.076 C 
ATOM      7  C8  UNL d   1       2.283   0.612   2.756  0.00  0.00     0.001 A 
ENDROOT
BRANCH   1   8
ATOM      8  C1  UNL d   1       3.176   2.357   4.349  0.00  0.00     0.053 C 
ATOM      9  C   UNL d   1       2.440   3.324   3.436  0.00  0.00     0.018 C 
ENDBRANCH   1   8
TORSDOF 1
ENDMDL
