MODEL 1
REMARK minimizedAffinity 6.03347921
REMARK minimizedRMSD -1
REMARK  1 active torsions:
REMARK  status: ('A' for Active; 'I' for Inactive)
REMARK    1  A    between atoms: C1_2  and  C2_3 
ROOT
ATOM      1  C2  UNL d   1      -0.605  -1.722   0.332  0.00  0.00    -0.073 A 
ATOM      2  C3  UNL d   1       0.738  -1.413   0.575  0.00  0.00    -0.002 A 
ATOM      3  C4  UNL d   1       1.210  -0.115   0.376  0.00  0.00     0.004 A 
ATOM      4  C5  UNL d   1       0.345   0.888  -0.061  0.00  0.00    -0.004 A 
ATOM      5  C6  UNL d   1      -1.004   0.601  -0.299  0.00  0.00    -0.075 A 
ATOM      6  C7  UNL d   1      -1.947   1.668  -0.772  0.00  0.00     0.076 C 
ATOM      7  C8  UNL d   1      -1.470  -0.705  -0.099  0.00  0.00     0.001 A 
ENDROOT
BRANCH   1   8
ATOM      8  C1  UNL d   1      -1.121  -3.120   0.551  0.00  0.00     0.053 C 
ATOM      9  C   UNL d   1      -0.551  -4.103  -0.459  0.00  0.00     0.018 C 
ENDBRANCH   1   8
TORSDOF 1
ENDMDL
