MODEL 1
REMARK minimizedAffinity 4.50012922
REMARK minimizedRMSD -1
REMARK  1 active torsions:
REMARK  status: ('A' for Active; 'I' for Inactive)
REMARK    1  A    between atoms: C1_2  and  C2_3 
ROOT
ATOM      1  C2  UNL d   1       0.361   0.668   1.320  0.00  0.00    -0.073 A 
ATOM      2  C3  UNL d   1       1.021   0.115   0.217  0.00  0.00    -0.002 A 
ATOM      3  C4  UNL d   1       0.345  -0.068  -0.991  0.00  0.00     0.004 A 
ATOM      4  C5  UNL d   1      -0.993   0.306  -1.109  0.00  0.00    -0.004 A 
ATOM      5  C6  UNL d   1      -1.667   0.871  -0.022  0.00  0.00    -0.075 A 
ATOM      6  C7  UNL d   1      -3.108   1.276  -0.132  0.00  0.00     0.076 C 
ATOM      7  C8  UNL d   1      -0.983   1.049   1.188  0.00  0.00     0.001 A 
ENDROOT
BRANCH   1   8
ATOM      8  C1  UNL d   1       1.088   0.874   2.623  0.00  0.00     0.053 C 
ATOM      9  C   UNL d   1       1.104   2.335   3.043  0.00  0.00     0.018 C 
ENDBRANCH   1   8
TORSDOF 1
ENDMDL
