MODEL 1
REMARK minimizedAffinity 5.74726439
REMARK minimizedRMSD -1
REMARK  0 active torsions:
REMARK  status: ('A' for Active; 'I' for Inactive)
ROOT
ATOM      1  C   UNL d   1      -0.466   2.753  -1.818  0.00  0.00     0.078 C 
ATOM      2  C1  UNL d   1      -0.987   1.975  -2.989  0.00  0.00    -0.077 A 
ATOM      3  C2  UNL d   1      -2.351   1.979  -3.308  0.00  0.00    -0.001 A 
ATOM      4  C3  UNL d   1      -2.824   1.242  -4.395  0.00  0.00     0.003 A 
ATOM      5  C4  UNL d   1      -1.940   0.495  -5.171  0.00  0.00    -0.005 A 
ATOM      6  C5  UNL d   1      -0.582   0.482  -4.860  0.00  0.00     0.003 A 
ATOM      7  C6  UNL d   1      -0.107   1.219  -3.773  0.00  0.00    -0.001 A 
ENDROOT
TORSDOF 0
ENDMDL
