MODEL 1
REMARK minimizedAffinity 13.4180355
REMARK minimizedRMSD -1
REMARK  0 active torsions:
REMARK  status: ('A' for Active; 'I' for Inactive)
ROOT
ATOM      1  C   UNL d   1       0.229   1.666   1.266  0.00  0.00     0.078 C 
ATOM      2  C1  UNL d   1      -0.090   2.432   0.016  0.00  0.00    -0.077 A 
ATOM      3  C2  UNL d   1       0.195   3.799  -0.084  0.00  0.00    -0.001 A 
ATOM      4  C3  UNL d   1      -0.116   4.501  -1.250  0.00  0.00     0.003 A 
ATOM      5  C4  UNL d   1      -0.715   3.845  -2.323  0.00  0.00    -0.005 A 
ATOM      6  C5  UNL d   1      -1.004   2.485  -2.232  0.00  0.00     0.003 A 
ATOM      7  C6  UNL d   1      -0.694   1.781  -1.067  0.00  0.00    -0.001 A 
ENDROOT
TORSDOF 0
ENDMDL
