MODEL 1
REMARK minimizedAffinity -2.82978773
REMARK minimizedRMSD -1
REMARK  0 active torsions:
REMARK  status: ('A' for Active; 'I' for Inactive)
ROOT
ATOM      1  C   UNL d   1      -0.381   3.376  -0.010  0.00  0.00     0.078 C 
ATOM      2  C1  UNL d   1      -0.251   2.450   1.162  0.00  0.00    -0.077 A 
ATOM      3  C2  UNL d   1       1.007   2.061   1.638  0.00  0.00    -0.001 A 
ATOM      4  C3  UNL d   1       1.113   1.191   2.724  0.00  0.00     0.003 A 
ATOM      5  C4  UNL d   1      -0.036   0.701   3.342  0.00  0.00    -0.005 A 
ATOM      6  C5  UNL d   1      -1.292   1.081   2.874  0.00  0.00     0.003 A 
ATOM      7  C6  UNL d   1      -1.400   1.951   1.789  0.00  0.00    -0.001 A 
ENDROOT
TORSDOF 0
ENDMDL
