MODEL 1
REMARK minimizedAffinity -1.56061244
REMARK minimizedRMSD -1
REMARK  0 active torsions:
REMARK  status: ('A' for Active; 'I' for Inactive)
ROOT
ATOM      1  C   UNL d   1      -1.410   5.995  -3.601  0.00  0.00     0.078 C 
ATOM      2  C1  UNL d   1      -0.539   5.113  -2.758  0.00  0.00    -0.077 A 
ATOM      3  C2  UNL d   1      -1.086   4.064  -2.008  0.00  0.00    -0.001 A 
ATOM      4  C3  UNL d   1      -0.265   3.256  -1.220  0.00  0.00     0.003 A 
ATOM      5  C4  UNL d   1       1.108   3.489  -1.173  0.00  0.00    -0.005 A 
ATOM      6  C5  UNL d   1       1.661   4.532  -1.914  0.00  0.00     0.003 A 
ATOM      7  C6  UNL d   1       0.842   5.340  -2.703  0.00  0.00    -0.001 A 
ENDROOT
TORSDOF 0
ENDMDL
