MODEL 1
REMARK minimizedAffinity 5.36051416
REMARK minimizedRMSD -1
REMARK  0 active torsions:
REMARK  status: ('A' for Active; 'I' for Inactive)
ROOT
ATOM      1  C   UNL d   1       1.831  -0.986  -3.337  0.00  0.00     0.078 C 
ATOM      2  C1  UNL d   1       3.261  -1.405  -3.509  0.00  0.00    -0.077 A 
ATOM      3  C2  UNL d   1       4.023  -1.833  -2.415  0.00  0.00    -0.001 A 
ATOM      4  C3  UNL d   1       5.356  -2.211  -2.587  0.00  0.00     0.003 A 
ATOM      5  C4  UNL d   1       5.938  -2.163  -3.852  0.00  0.00    -0.005 A 
ATOM      6  C5  UNL d   1       5.189  -1.736  -4.946  0.00  0.00     0.003 A 
ATOM      7  C6  UNL d   1       3.856  -1.358  -4.776  0.00  0.00    -0.001 A 
ENDROOT
TORSDOF 0
ENDMDL
