MODEL 1
REMARK minimizedAffinity -5.61403036
REMARK minimizedRMSD -1
REMARK  0 active torsions:
REMARK  status: ('A' for Active; 'I' for Inactive)
ROOT
ATOM      1  C   UNL d   1      -0.200   3.135   2.302  0.00  0.00     0.078 C 
ATOM      2  C1  UNL d   1       0.245   1.962   1.481  0.00  0.00    -0.077 A 
ATOM      3  C2  UNL d   1      -0.015   1.903   0.106  0.00  0.00    -0.001 A 
ATOM      4  C3  UNL d   1       0.396   0.801  -0.644  0.00  0.00     0.003 A 
ATOM      5  C4  UNL d   1       1.070  -0.252  -0.028  0.00  0.00    -0.005 A 
ATOM      6  C5  UNL d   1       1.333  -0.203   1.339  0.00  0.00     0.003 A 
ATOM      7  C6  UNL d   1       0.922   0.898   2.091  0.00  0.00    -0.001 A 
ENDROOT
TORSDOF 0
ENDMDL
