MODEL 1
REMARK minimizedAffinity -3.85480952
REMARK minimizedRMSD -1
REMARK  0 active torsions:
REMARK  status: ('A' for Active; 'I' for Inactive)
ROOT
ATOM      1  C   UNL d   1       1.859  -0.572  -0.095  0.00  0.00     0.078 C 
ATOM      2  C1  UNL d   1       1.345   0.224   1.067  0.00  0.00    -0.077 A 
ATOM      3  C2  UNL d   1       1.346  -0.307   2.362  0.00  0.00    -0.001 A 
ATOM      4  C3  UNL d   1       0.855   0.441   3.433  0.00  0.00     0.003 A 
ATOM      5  C4  UNL d   1       0.359   1.726   3.219  0.00  0.00    -0.005 A 
ATOM      6  C5  UNL d   1       0.352   2.262   1.934  0.00  0.00     0.003 A 
ATOM      7  C6  UNL d   1       0.842   1.515   0.862  0.00  0.00    -0.001 A 
ENDROOT
TORSDOF 0
ENDMDL
