MODEL 1
REMARK minimizedAffinity -2.99569464
REMARK minimizedRMSD -1
REMARK  0 active torsions:
REMARK  status: ('A' for Active; 'I' for Inactive)
ROOT
ATOM      1  C   UNL d   1      -0.111  -1.878   3.004  0.00  0.00     0.172 C 
ATOM      2  N   UNL d   1       0.276  -1.244   1.766  0.00  0.00    -0.070 N 
ATOM      3  C1  UNL d   1       1.462  -1.434   1.108  0.00  0.00    -0.004 A 
ATOM      4  C2  UNL d   1       1.444  -0.654  -0.028  0.00  0.00    -0.047 A 
ATOM      5  C3  UNL d   1       0.205   0.029  -0.053  0.00  0.00    -0.047 A 
ATOM      6  C4  UNL d   1      -0.498  -0.355   1.069  0.00  0.00    -0.004 A 
ENDROOT
TORSDOF 0
ENDMDL
