MODEL 1
REMARK minimizedAffinity -2.998842
REMARK minimizedRMSD -1
REMARK  0 active torsions:
REMARK  status: ('A' for Active; 'I' for Inactive)
ROOT
ATOM      1  C   UNL d   1      -1.867   1.511   0.357  0.00  0.00     0.172 C 
ATOM      2  N   UNL d   1      -2.127   1.687  -1.053  0.00  0.00    -0.070 N 
ATOM      3  C1  UNL d   1      -3.277   1.329  -1.703  0.00  0.00    -0.004 A 
ATOM      4  C2  UNL d   1      -3.132   1.662  -3.032  0.00  0.00    -0.047 A 
ATOM      5  C3  UNL d   1      -1.848   2.239  -3.186  0.00  0.00    -0.047 A 
ATOM      6  C4  UNL d   1      -1.248   2.242  -1.945  0.00  0.00    -0.004 A 
ENDROOT
TORSDOF 0
ENDMDL
