MODEL 1
REMARK minimizedAffinity -2.37736416
REMARK minimizedRMSD -1
REMARK  0 active torsions:
REMARK  status: ('A' for Active; 'I' for Inactive)
ROOT
ATOM      1  C   UNL d   1      -1.512   0.197  -0.011  0.00  0.00     0.172 C 
ATOM      2  N   UNL d   1      -0.094   0.386  -0.208  0.00  0.00    -0.070 N 
ATOM      3  C1  UNL d   1       0.525   1.580  -0.465  0.00  0.00    -0.004 A 
ATOM      4  C2  UNL d   1       1.876   1.338  -0.587  0.00  0.00    -0.047 A 
ATOM      5  C3  UNL d   1       2.076  -0.050  -0.397  0.00  0.00    -0.047 A 
ATOM      6  C4  UNL d   1       0.840  -0.616  -0.164  0.00  0.00    -0.004 A 
ENDROOT
TORSDOF 0
ENDMDL
