MODEL 1
REMARK minimizedAffinity -3.30673981
REMARK minimizedRMSD -1
REMARK  0 active torsions:
REMARK  status: ('A' for Active; 'I' for Inactive)
ROOT
ATOM      1  C   UNL d   1       2.001  -1.625   0.795  0.00  0.00     0.172 C 
ATOM      2  N   UNL d   1       0.864  -0.869   0.326  0.00  0.00    -0.070 N 
ATOM      3  C1  UNL d   1       0.762  -0.254  -0.894  0.00  0.00    -0.004 A 
ATOM      4  C2  UNL d   1      -0.471   0.357  -0.956  0.00  0.00    -0.047 A 
ATOM      5  C3  UNL d   1      -1.133   0.102   0.268  0.00  0.00    -0.047 A 
ATOM      6  C4  UNL d   1      -0.284  -0.659   1.043  0.00  0.00    -0.004 A 
ENDROOT
TORSDOF 0
ENDMDL
