MODEL 1
REMARK minimizedAffinity -3.03861523
REMARK minimizedRMSD -1
REMARK  0 active torsions:
REMARK  status: ('A' for Active; 'I' for Inactive)
ROOT
ATOM      1  C   UNL d   1      -1.125   0.963  -0.675  0.00  0.00     0.172 C 
ATOM      2  N   UNL d   1      -0.533   0.181   0.385  0.00  0.00    -0.070 N 
ATOM      3  C1  UNL d   1       0.708  -0.397   0.353  0.00  0.00    -0.004 A 
ATOM      4  C2  UNL d   1       0.900  -1.052   1.550  0.00  0.00    -0.047 A 
ATOM      5  C3  UNL d   1      -0.266  -0.862   2.328  0.00  0.00    -0.047 A 
ATOM      6  C4  UNL d   1      -1.137  -0.095   1.583  0.00  0.00    -0.004 A 
ENDROOT
TORSDOF 0
ENDMDL
