MODEL 1
REMARK minimizedAffinity -3.73727155
REMARK minimizedRMSD -1
REMARK  0 active torsions:
REMARK  status: ('A' for Active; 'I' for Inactive)
ROOT
ATOM      1  C   UNL d   1      -1.222  -0.378   1.667  0.00  0.00     0.172 C 
ATOM      2  N   UNL d   1       0.072  -0.552   1.049  0.00  0.00    -0.070 N 
ATOM      3  C1  UNL d   1       1.046  -1.418   1.468  0.00  0.00    -0.004 A 
ATOM      4  C2  UNL d   1       2.123  -1.285   0.618  0.00  0.00    -0.047 A 
ATOM      5  C3  UNL d   1       1.784  -0.305  -0.344  0.00  0.00    -0.047 A 
ATOM      6  C4  UNL d   1       0.508   0.132  -0.054  0.00  0.00    -0.004 A 
ENDROOT
TORSDOF 0
ENDMDL
