MODEL 1
REMARK minimizedAffinity -1.59087062
REMARK minimizedRMSD -1
REMARK  0 active torsions:
REMARK  status: ('A' for Active; 'I' for Inactive)
ROOT
ATOM      1  C   UNL d   1      -1.549   1.100  -2.502  0.00  0.00     0.172 C 
ATOM      2  N   UNL d   1      -0.855   0.695  -1.302  0.00  0.00    -0.070 N 
ATOM      3  C1  UNL d   1       0.433   0.234  -1.242  0.00  0.00    -0.004 A 
ATOM      4  C2  UNL d   1       0.721  -0.043   0.077  0.00  0.00    -0.047 A 
ATOM      5  C3  UNL d   1      -0.434   0.261   0.836  0.00  0.00    -0.047 A 
ATOM      6  C4  UNL d   1      -1.394   0.716  -0.043  0.00  0.00    -0.004 A 
ENDROOT
TORSDOF 0
ENDMDL
