MODEL 1
REMARK minimizedAffinity -3.72890759
REMARK minimizedRMSD -1
REMARK  0 active torsions:
REMARK  status: ('A' for Active; 'I' for Inactive)
ROOT
ATOM      1  C   UNL d   1      -0.949   0.164   1.306  0.00  0.00     0.172 C 
ATOM      2  N   UNL d   1       0.116  -0.778   1.556  0.00  0.00    -0.070 N 
ATOM      3  C1  UNL d   1       1.125  -1.092   0.685  0.00  0.00    -0.004 A 
ATOM      4  C2  UNL d   1       1.934  -2.026   1.296  0.00  0.00    -0.047 A 
ATOM      5  C3  UNL d   1       1.392  -2.282   2.578  0.00  0.00    -0.047 A 
ATOM      6  C4  UNL d   1       0.267  -1.496   2.713  0.00  0.00    -0.004 A 
ENDROOT
TORSDOF 0
ENDMDL
