MODEL 1
REMARK minimizedAffinity 1.1275059
REMARK minimizedRMSD -1
REMARK  0 active torsions:
REMARK  status: ('A' for Active; 'I' for Inactive)
ROOT
ATOM      1  C   UNL d   1      -1.891  -4.878  -4.485  0.00  0.00     0.172 C 
ATOM      2  N   UNL d   1      -0.536  -5.156  -4.902  0.00  0.00    -0.070 N 
ATOM      3  C1  UNL d   1      -0.171  -5.999  -5.917  0.00  0.00    -0.004 A 
ATOM      4  C2  UNL d   1       1.205  -5.990  -5.999  0.00  0.00    -0.047 A 
ATOM      5  C3  UNL d   1       1.683  -5.111  -4.998  0.00  0.00    -0.047 A 
ATOM      6  C4  UNL d   1       0.583  -4.608  -4.334  0.00  0.00    -0.004 A 
ENDROOT
TORSDOF 0
ENDMDL
