MODEL 1
REMARK minimizedAffinity 2.02135158
REMARK minimizedRMSD -1
REMARK  0 active torsions:
REMARK  status: ('A' for Active; 'I' for Inactive)
ROOT
ATOM      1  C   UNL d   1       3.475   1.978  -1.287  0.00  0.00     0.172 C 
ATOM      2  N   UNL d   1       2.597   1.133  -0.511  0.00  0.00    -0.070 N 
ATOM      3  C1  UNL d   1       1.342   1.468  -0.079  0.00  0.00    -0.004 A 
ATOM      4  C2  UNL d   1       0.837   0.396   0.624  0.00  0.00    -0.047 A 
ATOM      5  C3  UNL d   1       1.823  -0.619   0.614  0.00  0.00    -0.047 A 
ATOM      6  C4  UNL d   1       2.902  -0.136  -0.095  0.00  0.00    -0.004 A 
ENDROOT
TORSDOF 0
ENDMDL
