MODEL 1
REMARK minimizedAffinity 3.5283289
REMARK minimizedRMSD -1
REMARK  0 active torsions:
REMARK  status: ('A' for Active; 'I' for Inactive)
ROOT
ATOM      1  C   UNL d   1       3.409  -1.630   1.555  0.00  0.00     0.172 C 
ATOM      2  N   UNL d   1       2.555  -0.992   0.581  0.00  0.00    -0.070 N 
ATOM      3  C1  UNL d   1       1.306  -1.417   0.215  0.00  0.00    -0.004 A 
ATOM      4  C2  UNL d   1       0.824  -0.543  -0.736  0.00  0.00    -0.047 A 
ATOM      5  C3  UNL d   1       1.819   0.441  -0.949  0.00  0.00    -0.047 A 
ATOM      6  C4  UNL d   1       2.880   0.138  -0.121  0.00  0.00    -0.004 A 
ENDROOT
TORSDOF 0
ENDMDL
