MODEL 1
REMARK minimizedAffinity 2.02794242
REMARK minimizedRMSD -1
REMARK  0 active torsions:
REMARK  status: ('A' for Active; 'I' for Inactive)
ROOT
ATOM      1  C   UNL d   1       1.633   0.310  -1.096  0.00  0.00     0.172 C 
ATOM      2  N   UNL d   1       1.809  -0.362   0.170  0.00  0.00    -0.070 N 
ATOM      3  C1  UNL d   1       2.917  -1.072   0.549  0.00  0.00    -0.004 A 
ATOM      4  C2  UNL d   1       2.694  -1.554   1.821  0.00  0.00    -0.047 A 
ATOM      5  C3  UNL d   1       1.407  -1.121   2.219  0.00  0.00    -0.047 A 
ATOM      6  C4  UNL d   1       0.882  -0.385   1.178  0.00  0.00    -0.004 A 
ENDROOT
TORSDOF 0
ENDMDL
