MODEL 1
REMARK minimizedAffinity -4.05584049
REMARK minimizedRMSD -1
REMARK  0 active torsions:
REMARK  status: ('A' for Active; 'I' for Inactive)
ROOT
ATOM      1  C   UNL d   1       0.194  -1.429  -1.064  0.00  0.00     0.172 C 
ATOM      2  N   UNL d   1       0.351  -1.871   0.301  0.00  0.00    -0.070 N 
ATOM      3  C1  UNL d   1       1.352  -2.680   0.768  0.00  0.00    -0.004 A 
ATOM      4  C2  UNL d   1       1.148  -2.868   2.118  0.00  0.00    -0.047 A 
ATOM      5  C3  UNL d   1      -0.016  -2.147   2.475  0.00  0.00    -0.047 A 
ATOM      6  C4  UNL d   1      -0.489  -1.540   1.331  0.00  0.00    -0.004 A 
ENDROOT
TORSDOF 0
ENDMDL
