MODEL 1
REMARK minimizedAffinity -1.3146863
REMARK minimizedRMSD -1
REMARK  0 active torsions:
REMARK  status: ('A' for Active; 'I' for Inactive)
ROOT
ATOM      1  C   UNL d   1       2.127  -1.415   1.293  0.00  0.00     0.172 C 
ATOM      2  N   UNL d   1       1.192  -0.398   0.872  0.00  0.00    -0.070 N 
ATOM      3  C1  UNL d   1       1.455   0.610  -0.017  0.00  0.00    -0.004 A 
ATOM      4  C2  UNL d   1       0.310   1.364  -0.152  0.00  0.00    -0.047 A 
ATOM      5  C3  UNL d   1      -0.676   0.790   0.686  0.00  0.00    -0.047 A 
ATOM      6  C4  UNL d   1      -0.103  -0.300   1.307  0.00  0.00    -0.004 A 
ENDROOT
TORSDOF 0
ENDMDL
