MODEL 1
REMARK minimizedAffinity -1.50509048
REMARK minimizedRMSD -1
REMARK  0 active torsions:
REMARK  status: ('A' for Active; 'I' for Inactive)
ROOT
ATOM      1  C   UNL d   1      -1.436  -0.615   2.365  0.00  0.00     0.172 C 
ATOM      2  N   UNL d   1      -1.293  -0.002   1.065  0.00  0.00    -0.070 N 
ATOM      3  C1  UNL d   1      -0.235   0.765   0.656  0.00  0.00    -0.004 A 
ATOM      4  C2  UNL d   1      -0.477   1.158  -0.643  0.00  0.00    -0.047 A 
ATOM      5  C3  UNL d   1      -1.723   0.609  -1.027  0.00  0.00    -0.047 A 
ATOM      6  C4  UNL d   1      -2.207  -0.104   0.049  0.00  0.00    -0.004 A 
ENDROOT
TORSDOF 0
ENDMDL
