MODEL 1
REMARK minimizedAffinity -1.71649671
REMARK minimizedRMSD -1
REMARK  0 active torsions:
REMARK  status: ('A' for Active; 'I' for Inactive)
ROOT
ATOM      1  O1  BZF d   1      -3.811   5.240   5.233  0.00  0.00    -0.204 OA
ATOM      2  C2  BZF d   1      -4.963   5.435   5.970  0.00  0.00     0.174 A 
ATOM      3  C3  BZF d   1      -5.985   5.804   5.171  0.00  0.00    -0.012 A 
ATOM      4  C3A BZF d   1      -5.461   5.753   3.841  0.00  0.00    -0.107 A 
ATOM      5  C4  BZF d   1      -5.999   5.996   2.610  0.00  0.00     0.055 A 
ATOM      6  C5  BZF d   1      -5.198   5.927   1.514  0.00  0.00    -0.016 A 
ATOM      7  C6  BZF d   1      -3.856   5.623   1.613  0.00  0.00     0.022 A 
ATOM      8  C7  BZF d   1      -3.278   5.369   2.812  0.00  0.00     0.029 A 
ATOM      9  C7A BZF d   1      -4.092   5.405   3.918  0.00  0.00     0.058 A 
ENDROOT
TORSDOF 0
ENDMDL
