MODEL 1
REMARK minimizedAffinity -0.889203966
REMARK minimizedRMSD -1
REMARK  0 active torsions:
REMARK  status: ('A' for Active; 'I' for Inactive)
ROOT
ATOM      1  O1  BZF d   1      -3.883   5.966   5.229  0.00  0.00    -0.204 OA
ATOM      2  C2  BZF d   1      -4.981   5.597   5.982  0.00  0.00     0.174 A 
ATOM      3  C3  BZF d   1      -5.998   5.209   5.186  0.00  0.00    -0.012 A 
ATOM      4  C3A BZF d   1      -5.474   5.255   3.855  0.00  0.00    -0.107 A 
ATOM      5  C4  BZF d   1      -5.999   4.967   2.628  0.00  0.00     0.055 A 
ATOM      6  C5  BZF d   1      -5.246   5.188   1.519  0.00  0.00    -0.016 A 
ATOM      7  C6  BZF d   1      -3.968   5.701   1.599  0.00  0.00     0.022 A 
ATOM      8  C7  BZF d   1      -3.402   5.997   2.794  0.00  0.00     0.029 A 
ATOM      9  C7A BZF d   1      -4.148   5.744   3.919  0.00  0.00     0.058 A 
ENDROOT
TORSDOF 0
ENDMDL
