MODEL 1
REMARK minimizedAffinity 7.08418989
REMARK minimizedRMSD -1
REMARK  0 active torsions:
REMARK  status: ('A' for Active; 'I' for Inactive)
ROOT
ATOM      1  O1  BZF d   1       0.184  -4.908   0.123  0.00  0.00    -0.204 OA
ATOM      2  C2  BZF d   1      -0.900  -5.103  -0.710  0.00  0.00     0.174 A 
ATOM      3  C3  BZF d   1      -0.987  -4.113  -1.622  0.00  0.00    -0.012 A 
ATOM      4  C3A BZF d   1       0.166  -3.295  -1.400  0.00  0.00    -0.107 A 
ATOM      5  C4  BZF d   1       0.646  -2.167  -2.002  0.00  0.00     0.055 A 
ATOM      6  C5  BZF d   1       1.760  -1.573  -1.497  0.00  0.00    -0.016 A 
ATOM      7  C6  BZF d   1       2.414  -2.076  -0.392  0.00  0.00     0.022 A 
ATOM      8  C7  BZF d   1       1.978  -3.196   0.235  0.00  0.00     0.029 A 
ATOM      9  C7A BZF d   1       0.872  -3.817  -0.292  0.00  0.00     0.058 A 
ENDROOT
TORSDOF 0
ENDMDL
