MODEL 1
REMARK minimizedAffinity -4.19474554
REMARK minimizedRMSD -1
REMARK  0 active torsions:
REMARK  status: ('A' for Active; 'I' for Inactive)
ROOT
ATOM      1  O1  BZF d   1      -4.029   5.985   5.525  0.00  0.00    -0.204 OA
ATOM      2  C2  BZF d   1      -5.406   5.968   5.630  0.00  0.00     0.174 A 
ATOM      3  C3  BZF d   1      -5.979   6.000   4.409  0.00  0.00    -0.012 A 
ATOM      4  C3A BZF d   1      -4.891   5.946   3.481  0.00  0.00    -0.107 A 
ATOM      5  C4  BZF d   1      -4.820   5.931   2.118  0.00  0.00     0.055 A 
ATOM      6  C5  BZF d   1      -3.600   5.950   1.520  0.00  0.00    -0.016 A 
ATOM      7  C6  BZF d   1      -2.433   5.989   2.253  0.00  0.00     0.022 A 
ATOM      8  C7  BZF d   1      -2.452   6.000   3.608  0.00  0.00     0.029 A 
ATOM      9  C7A BZF d   1      -3.683   5.948   4.216  0.00  0.00     0.058 A 
ENDROOT
TORSDOF 0
ENDMDL
