MODEL 1
REMARK minimizedAffinity 7.69552326
REMARK minimizedRMSD -1
REMARK  0 active torsions:
REMARK  status: ('A' for Active; 'I' for Inactive)
ROOT
ATOM      1  O1  BZF d   1      -0.051  -2.855   3.452  0.00  0.00    -0.204 OA
ATOM      2  C2  BZF d   1       1.048  -2.126   3.865  0.00  0.00     0.174 A 
ATOM      3  C3  BZF d   1       1.652  -2.723   4.912  0.00  0.00    -0.012 A 
ATOM      4  C3A BZF d   1       0.938  -3.946   5.111  0.00  0.00    -0.107 A 
ATOM      5  C4  BZF d   1       1.074  -4.980   5.993  0.00  0.00     0.055 A 
ATOM      6  C5  BZF d   1       0.167  -5.992   5.970  0.00  0.00    -0.016 A 
ATOM      7  C6  BZF d   1      -0.890  -5.999   5.084  0.00  0.00     0.022 A 
ATOM      8  C7  BZF d   1      -1.063  -4.999   4.186  0.00  0.00     0.029 A 
ATOM      9  C7A BZF d   1      -0.130  -3.991   4.185  0.00  0.00     0.058 A 
ENDROOT
TORSDOF 0
ENDMDL
