MODEL 1
REMARK minimizedAffinity 11.7008724
REMARK minimizedRMSD -1
REMARK  0 active torsions:
REMARK  status: ('A' for Active; 'I' for Inactive)
ROOT
ATOM      1  O1  BZF d   1       1.987   2.170   0.332  0.00  0.00    -0.204 OA
ATOM      2  C2  BZF d   1       1.605   0.986  -0.270  0.00  0.00     0.174 A 
ATOM      3  C3  BZF d   1       2.684   0.292  -0.688  0.00  0.00    -0.012 A 
ATOM      4  C3A BZF d   1       3.813   1.049  -0.243  0.00  0.00    -0.107 A 
ATOM      5  C4  BZF d   1       5.163   0.866  -0.340  0.00  0.00     0.055 A 
ATOM      6  C5  BZF d   1       5.996   1.828   0.137  0.00  0.00    -0.016 A 
ATOM      7  C6  BZF d   1       5.514   2.986   0.712  0.00  0.00     0.022 A 
ATOM      8  C7  BZF d   1       4.183   3.210   0.835  0.00  0.00     0.029 A 
ATOM      9  C7A BZF d   1       3.339   2.224   0.384  0.00  0.00     0.058 A 
ENDROOT
TORSDOF 0
ENDMDL
