MODEL 1
REMARK minimizedAffinity -3.13281751
REMARK minimizedRMSD -1
REMARK  0 active torsions:
REMARK  status: ('A' for Active; 'I' for Inactive)
ROOT
ATOM      1  O1  BZF d   1      -3.756   5.974   5.073  0.00  0.00    -0.204 OA
ATOM      2  C2  BZF d   1      -4.939   5.957   5.786  0.00  0.00     0.174 A 
ATOM      3  C3  BZF d   1      -6.000   5.997   4.955  0.00  0.00    -0.012 A 
ATOM      4  C3A BZF d   1      -5.446   5.948   3.636  0.00  0.00    -0.107 A 
ATOM      5  C4  BZF d   1      -5.997   5.941   2.386  0.00  0.00     0.055 A 
ATOM      6  C5  BZF d   1      -5.177   5.962   1.303  0.00  0.00    -0.016 A 
ATOM      7  C6  BZF d   1      -3.804   5.996   1.432  0.00  0.00     0.022 A 
ATOM      8  C7  BZF d   1      -3.211   6.000   2.651  0.00  0.00     0.029 A 
ATOM      9  C7A BZF d   1      -4.037   5.945   3.748  0.00  0.00     0.058 A 
ENDROOT
TORSDOF 0
ENDMDL
