MODEL 1
REMARK minimizedAffinity 1.04252827
REMARK minimizedRMSD -1
REMARK  0 active torsions:
REMARK  status: ('A' for Active; 'I' for Inactive)
ROOT
ATOM      1  O1  BZF d   1      -3.125   5.935   1.954  0.00  0.00    -0.204 OA
ATOM      2  C2  BZF d   1      -4.075   5.903   0.952  0.00  0.00     0.174 A 
ATOM      3  C3  BZF d   1      -5.318   5.854   1.473  0.00  0.00    -0.012 A 
ATOM      4  C3A BZF d   1      -5.137   5.949   2.889  0.00  0.00    -0.107 A 
ATOM      5  C4  BZF d   1      -6.000   5.971   3.947  0.00  0.00     0.055 A 
ATOM      6  C5  BZF d   1      -5.497   5.999   5.210  0.00  0.00    -0.016 A 
ATOM      7  C6  BZF d   1      -4.138   5.999   5.450  0.00  0.00     0.022 A 
ATOM      8  C7  BZF d   1      -3.243   5.983   4.433  0.00  0.00     0.029 A 
ATOM      9  C7A BZF d   1      -3.748   5.989   3.156  0.00  0.00     0.058 A 
ENDROOT
TORSDOF 0
ENDMDL
