MODEL 1
REMARK minimizedAffinity 1.14697504
REMARK minimizedRMSD -1
REMARK  0 active torsions:
REMARK  status: ('A' for Active; 'I' for Inactive)
ROOT
ATOM      1  C   UNL d   1      -1.272  -3.121   0.020  0.00  0.00     0.023 A 
ATOM      2  C1  UNL d   1      -1.264  -2.334   1.172  0.00  0.00     0.003 A 
ATOM      3  C2  UNL d   1      -0.751  -1.036   1.129  0.00  0.00     0.048 A 
ATOM      4  C3  UNL d   1      -0.248  -0.531  -0.069  0.00  0.00     0.023 A 
ATOM      5  C4  UNL d   1      -0.255  -1.314  -1.225  0.00  0.00     0.048 A 
ATOM      6  C5  UNL d   1      -0.768  -2.611  -1.177  0.00  0.00     0.003 A 
ATOM      7  I   UNL d   1       0.516   1.401  -0.135  0.00  0.00    -0.146 I 
ENDROOT
TORSDOF 0
ENDMDL
