MODEL 1
REMARK minimizedAffinity -2.20977306
REMARK minimizedRMSD -1
REMARK  0 active torsions:
REMARK  status: ('A' for Active; 'I' for Inactive)
ROOT
ATOM      1  C   UNL d   1       2.682   3.659   0.996  0.00  0.00     0.023 A 
ATOM      2  C1  UNL d   1       3.112   2.530   0.298  0.00  0.00     0.003 A 
ATOM      3  C2  UNL d   1       2.198   1.534  -0.052  0.00  0.00     0.048 A 
ATOM      4  C3  UNL d   1       0.855   1.674   0.297  0.00  0.00     0.023 A 
ATOM      5  C4  UNL d   1       0.420   2.802   0.994  0.00  0.00     0.048 A 
ATOM      6  C5  UNL d   1       1.337   3.795   1.343  0.00  0.00     0.003 A 
ATOM      7  I   UNL d   1      -0.507   0.193  -0.224  0.00  0.00    -0.146 I 
ENDROOT
TORSDOF 0
ENDMDL
