MODEL 1
REMARK minimizedAffinity 3.49360895
REMARK minimizedRMSD -1
REMARK  0 active torsions:
REMARK  status: ('A' for Active; 'I' for Inactive)
ROOT
ATOM      1  C   UNL d   1      -1.087  -0.708  -0.189  0.00  0.00     0.023 A 
ATOM      2  C1  UNL d   1      -0.222  -0.056  -1.069  0.00  0.00     0.003 A 
ATOM      3  C2  UNL d   1       0.528   1.037  -0.631  0.00  0.00     0.048 A 
ATOM      4  C3  UNL d   1       0.408   1.474   0.688  0.00  0.00     0.023 A 
ATOM      5  C4  UNL d   1      -0.455   0.825   1.572  0.00  0.00     0.048 A 
ATOM      6  C5  UNL d   1      -1.203  -0.268   1.130  0.00  0.00     0.003 A 
ATOM      7  I   UNL d   1       1.523   3.101   1.342  0.00  0.00    -0.146 I 
ENDROOT
TORSDOF 0
ENDMDL
