MODEL 1
REMARK minimizedAffinity 0.26963374
REMARK minimizedRMSD -1
REMARK  0 active torsions:
REMARK  status: ('A' for Active; 'I' for Inactive)
ROOT
ATOM      1  C   UNL d   1      -1.114  -0.394  -0.176  0.00  0.00     0.023 A 
ATOM      2  C1  UNL d   1      -1.218   0.094   1.126  0.00  0.00     0.003 A 
ATOM      3  C2  UNL d   1      -0.438   1.179   1.532  0.00  0.00     0.048 A 
ATOM      4  C3  UNL d   1       0.445   1.771   0.629  0.00  0.00     0.023 A 
ATOM      5  C4  UNL d   1       0.552   1.287  -0.676  0.00  0.00     0.048 A 
ATOM      6  C5  UNL d   1      -0.230   0.202  -1.076  0.00  0.00     0.003 A 
ATOM      7  I   UNL d   1       1.607   3.386   1.230  0.00  0.00    -0.146 I 
ENDROOT
TORSDOF 0
ENDMDL
