MODEL 1
REMARK minimizedAffinity 5.79817724
REMARK minimizedRMSD -1
REMARK  0 active torsions:
REMARK  status: ('A' for Active; 'I' for Inactive)
ROOT
ATOM      1  C   UNL d   1       0.567  -0.212  -0.528  0.00  0.00     0.023 A 
ATOM      2  C1  UNL d   1       1.825   0.371  -0.684  0.00  0.00     0.003 A 
ATOM      3  C2  UNL d   1       2.173   1.496   0.067  0.00  0.00     0.048 A 
ATOM      4  C3  UNL d   1       1.258   2.032   0.973  0.00  0.00     0.023 A 
ATOM      5  C4  UNL d   1      -0.001   1.452   1.133  0.00  0.00     0.048 A 
ATOM      6  C5  UNL d   1      -0.345   0.328   0.379  0.00  0.00     0.003 A 
ATOM      7  I   UNL d   1       1.773   3.706   2.092  0.00  0.00    -0.146 I 
ENDROOT
TORSDOF 0
ENDMDL
