MODEL 1
REMARK minimizedAffinity 4.48615932
REMARK minimizedRMSD -1
REMARK  0 active torsions:
REMARK  status: ('A' for Active; 'I' for Inactive)
ROOT
ATOM      1  C   UNL d   1      -1.214  -1.789   1.980  0.00  0.00     0.023 A 
ATOM      2  C1  UNL d   1      -1.352  -2.507   0.791  0.00  0.00     0.003 A 
ATOM      3  C2  UNL d   1      -0.926  -1.949  -0.416  0.00  0.00     0.048 A 
ATOM      4  C3  UNL d   1      -0.362  -0.674  -0.428  0.00  0.00     0.023 A 
ATOM      5  C4  UNL d   1      -0.221   0.048   0.759  0.00  0.00     0.048 A 
ATOM      6  C5  UNL d   1      -0.650  -0.514   1.963  0.00  0.00     0.003 A 
ATOM      7  I   UNL d   1       0.273   0.158  -2.223  0.00  0.00    -0.146 I 
ENDROOT
TORSDOF 0
ENDMDL
