MODEL 1
REMARK minimizedAffinity 0.628094316
REMARK minimizedRMSD -1
REMARK  0 active torsions:
REMARK  status: ('A' for Active; 'I' for Inactive)
ROOT
ATOM      1  C   UNL d   1       2.779   3.676   1.190  0.00  0.00     0.023 A 
ATOM      2  C1  UNL d   1       3.507   2.764   0.425  0.00  0.00     0.003 A 
ATOM      3  C2  UNL d   1       2.848   1.741  -0.260  0.00  0.00     0.048 A 
ATOM      4  C3  UNL d   1       1.460   1.636  -0.176  0.00  0.00     0.023 A 
ATOM      5  C4  UNL d   1       0.727   2.546   0.588  0.00  0.00     0.048 A 
ATOM      6  C5  UNL d   1       1.391   3.567   1.271  0.00  0.00     0.003 A 
ATOM      7  I   UNL d   1       0.476   0.114  -1.194  0.00  0.00    -0.146 I 
ENDROOT
TORSDOF 0
ENDMDL
