MODEL 1
REMARK minimizedAffinity -1.47940874
REMARK minimizedRMSD -1
REMARK  0 active torsions:
REMARK  status: ('A' for Active; 'I' for Inactive)
ROOT
ATOM      1  C   UNL d   1       3.222   2.669   0.364  0.00  0.00     0.023 A 
ATOM      2  C1  UNL d   1       2.179   3.175   1.140  0.00  0.00     0.003 A 
ATOM      3  C2  UNL d   1       0.957   2.500   1.194  0.00  0.00     0.048 A 
ATOM      4  C3  UNL d   1       0.786   1.320   0.472  0.00  0.00     0.023 A 
ATOM      5  C4  UNL d   1       1.828   0.810  -0.305  0.00  0.00     0.048 A 
ATOM      6  C5  UNL d   1       3.047   1.488  -0.357  0.00  0.00     0.003 A 
ATOM      7  I   UNL d   1      -1.031   0.314   0.551  0.00  0.00    -0.146 I 
ENDROOT
TORSDOF 0
ENDMDL
