MODEL 1
REMARK minimizedAffinity -0.703672528
REMARK minimizedRMSD -1
REMARK  0 active torsions:
REMARK  status: ('A' for Active; 'I' for Inactive)
ROOT
ATOM      1  C   UNL d   1       1.685   4.313   1.525  0.00  0.00     0.023 A 
ATOM      2  C1  UNL d   1       0.308   4.251   1.311  0.00  0.00     0.003 A 
ATOM      3  C2  UNL d   1      -0.272   3.076   0.828  0.00  0.00     0.048 A 
ATOM      4  C3  UNL d   1       0.530   1.967   0.562  0.00  0.00     0.023 A 
ATOM      5  C4  UNL d   1       1.908   2.025   0.775  0.00  0.00     0.048 A 
ATOM      6  C5  UNL d   1       2.484   3.201   1.257  0.00  0.00     0.003 A 
ATOM      7  I   UNL d   1      -0.332   0.218  -0.157  0.00  0.00    -0.146 I 
ENDROOT
TORSDOF 0
ENDMDL
