MODEL 1
REMARK minimizedAffinity 1.85318208
REMARK minimizedRMSD -1
REMARK  0 active torsions:
REMARK  status: ('A' for Active; 'I' for Inactive)
ROOT
ATOM      1  C   UNL d   1       0.371   1.532  -0.040  0.00  0.00     0.023 A 
ATOM      2  C1  UNL d   1      -0.381   1.208   1.089  0.00  0.00     0.003 A 
ATOM      3  C2  UNL d   1      -0.867  -0.090   1.258  0.00  0.00     0.048 A 
ATOM      4  C3  UNL d   1      -0.596  -1.060   0.293  0.00  0.00     0.023 A 
ATOM      5  C4  UNL d   1       0.157  -0.741  -0.838  0.00  0.00     0.048 A 
ATOM      6  C5  UNL d   1       0.639   0.558  -1.003  0.00  0.00     0.003 A 
ATOM      7  I   UNL d   1      -1.318  -2.993   0.542  0.00  0.00    -0.146 I 
ENDROOT
TORSDOF 0
ENDMDL
