MODEL 1
REMARK minimizedAffinity -2.17023396
REMARK minimizedRMSD -1
REMARK  0 active torsions:
REMARK  status: ('A' for Active; 'I' for Inactive)
ROOT
ATOM      1  C   UNL d   1      -1.199  -2.650   0.376  0.00  0.00     0.023 A 
ATOM      2  C1  UNL d   1      -1.043  -1.890   1.536  0.00  0.00     0.003 A 
ATOM      3  C2  UNL d   1      -0.577  -0.576   1.454  0.00  0.00     0.048 A 
ATOM      4  C3  UNL d   1      -0.270  -0.028   0.209  0.00  0.00     0.023 A 
ATOM      5  C4  UNL d   1      -0.425  -0.784  -0.954  0.00  0.00     0.048 A 
ATOM      6  C5  UNL d   1      -0.890  -2.097  -0.867  0.00  0.00     0.003 A 
ATOM      7  I   UNL d   1       0.424   1.927   0.085  0.00  0.00    -0.146 I 
ENDROOT
TORSDOF 0
ENDMDL
