MODEL 1
REMARK minimizedAffinity 6.98535442
REMARK minimizedRMSD -1
REMARK  0 active torsions:
REMARK  status: ('A' for Active; 'I' for Inactive)
ROOT
ATOM      1  C   UNL d   1      -1.412  -0.756   1.588  0.00  0.00     0.023 A 
ATOM      2  C1  UNL d   1      -1.475  -0.019   0.405  0.00  0.00     0.003 A 
ATOM      3  C2  UNL d   1      -0.630   1.076   0.217  0.00  0.00     0.048 A 
ATOM      4  C3  UNL d   1       0.278   1.428   1.216  0.00  0.00     0.023 A 
ATOM      5  C4  UNL d   1       0.345   0.693   2.401  0.00  0.00     0.048 A 
ATOM      6  C5  UNL d   1      -0.503  -0.400   2.584  0.00  0.00     0.003 A 
ATOM      7  I   UNL d   1       1.538   3.058   0.939  0.00  0.00    -0.146 I 
ENDROOT
TORSDOF 0
ENDMDL
