MODEL 1
REMARK minimizedAffinity -3.65611482
REMARK minimizedRMSD -1
REMARK  0 active torsions:
REMARK  status: ('A' for Active; 'I' for Inactive)
ROOT
ATOM      1  C   UNL d   1       0.754  -0.251  -1.380  0.00  0.00     0.023 A 
ATOM      2  C1  UNL d   1      -0.204   0.343  -0.558  0.00  0.00     0.003 A 
ATOM      3  C2  UNL d   1       0.137   1.443   0.231  0.00  0.00     0.048 A 
ATOM      4  C3  UNL d   1       1.438   1.945   0.193  0.00  0.00     0.023 A 
ATOM      5  C4  UNL d   1       2.399   1.355  -0.629  0.00  0.00     0.048 A 
ATOM      6  C5  UNL d   1       2.054   0.255  -1.415  0.00  0.00     0.003 A 
ATOM      7  I   UNL d   1       1.947   3.583   1.367  0.00  0.00    -0.146 I 
ENDROOT
TORSDOF 0
ENDMDL
