MODEL 1
REMARK minimizedAffinity -4.86437273
REMARK minimizedRMSD -1
REMARK  0 active torsions:
REMARK  status: ('A' for Active; 'I' for Inactive)
ROOT
ATOM      1  C   UNL d   1      -0.018  -3.444  -0.800  0.00  0.00     0.023 A 
ATOM      2  C1  UNL d   1       0.008  -2.478  -1.805  0.00  0.00     0.003 A 
ATOM      3  C2  UNL d   1       0.037  -1.122  -1.471  0.00  0.00     0.048 A 
ATOM      4  C3  UNL d   1       0.041  -0.740  -0.130  0.00  0.00     0.023 A 
ATOM      5  C4  UNL d   1       0.016  -1.704   0.879  0.00  0.00     0.048 A 
ATOM      6  C5  UNL d   1      -0.014  -3.058   0.541  0.00  0.00     0.003 A 
ATOM      7  I   UNL d   1       0.085   1.277   0.369  0.00  0.00    -0.146 I 
ENDROOT
TORSDOF 0
ENDMDL
