MODEL 1
REMARK minimizedAffinity -4.90378141
REMARK minimizedRMSD -1
REMARK  1 active torsions:
REMARK  status: ('A' for Active; 'I' for Inactive)
REMARK    1  A    between atoms: C1_2  and  C2_3 
ROOT
ATOM      1  C2  UNL d   1       0.761  -0.299  -1.090  0.00  0.00    -0.077 A 
ATOM      2  C3  UNL d   1       0.970  -1.672  -0.898  0.00  0.00     0.002 A 
ATOM      3  C4  UNL d   1       1.765  -2.397  -1.789  0.00  0.00     0.002 A 
ATOM      4  C5  UNL d   1       2.360  -1.756  -2.873  0.00  0.00    -0.004 A 
ATOM      5  C6  UNL d   1       2.156  -0.391  -3.073  0.00  0.00     0.002 A 
ATOM      6  C7  UNL d   1       1.361   0.334  -2.185  0.00  0.00     0.002 A 
ENDROOT
BRANCH   1   7
ATOM      7  C1  UNL d   1      -0.056   0.494  -0.103  0.00  0.00     0.055 C 
ATOM      8  C   UNL d   1      -0.663  -0.407   0.963  0.00  0.00     0.019 C 
ENDBRANCH   1   7
TORSDOF 1
ENDMDL
