MODEL 1
REMARK minimizedAffinity -4.46711397
REMARK minimizedRMSD -1
REMARK  1 active torsions:
REMARK  status: ('A' for Active; 'I' for Inactive)
REMARK    1  A    between atoms: C1_2  and  C2_3 
ROOT
ATOM      1  C2  UNL d   1       0.496   0.188  -0.563  0.00  0.00    -0.077 A 
ATOM      2  C3  UNL d   1       0.474  -1.029  -1.257  0.00  0.00     0.002 A 
ATOM      3  C4  UNL d   1       1.430  -1.300  -2.238  0.00  0.00     0.002 A 
ATOM      4  C5  UNL d   1       2.416  -0.360  -2.531  0.00  0.00    -0.004 A 
ATOM      5  C6  UNL d   1       2.445   0.855  -1.847  0.00  0.00     0.002 A 
ATOM      6  C7  UNL d   1       1.490   1.127  -0.867  0.00  0.00     0.002 A 
ENDROOT
BRANCH   1   7
ATOM      7  C1  UNL d   1      -0.504   0.462   0.530  0.00  0.00     0.055 C 
ATOM      8  C   UNL d   1      -0.574  -0.693   1.518  0.00  0.00     0.019 C 
ENDBRANCH   1   7
TORSDOF 1
ENDMDL
