MODEL 1
REMARK minimizedAffinity -4.91918993
REMARK minimizedRMSD -1
REMARK  1 active torsions:
REMARK  status: ('A' for Active; 'I' for Inactive)
REMARK    1  A    between atoms: C1_2  and  C2_3 
ROOT
ATOM      1  C2  UNL d   1       0.398  -0.559  -0.705  0.00  0.00    -0.077 A 
ATOM      2  C3  UNL d   1       1.188   0.245  -1.539  0.00  0.00     0.002 A 
ATOM      3  C4  UNL d   1       2.123  -0.335  -2.399  0.00  0.00     0.002 A 
ATOM      4  C5  UNL d   1       2.274  -1.720  -2.435  0.00  0.00    -0.004 A 
ATOM      5  C6  UNL d   1       1.495  -2.527  -1.608  0.00  0.00     0.002 A 
ATOM      6  C7  UNL d   1       0.560  -1.950  -0.747  0.00  0.00     0.002 A 
ENDROOT
BRANCH   1   7
ATOM      7  C1  UNL d   1      -0.646   0.061   0.187  0.00  0.00     0.055 C 
ATOM      8  C   UNL d   1      -1.435   1.135  -0.548  0.00  0.00     0.019 C 
ENDBRANCH   1   7
TORSDOF 1
ENDMDL
