MODEL 1
REMARK minimizedAffinity -5.0788126
REMARK minimizedRMSD -1
REMARK  1 active torsions:
REMARK  status: ('A' for Active; 'I' for Inactive)
REMARK    1  A    between atoms: C1_2  and  C2_3 
ROOT
ATOM      1  C2  UNL d   1      -1.479   0.481   0.653  0.00  0.00    -0.077 A 
ATOM      2  C3  UNL d   1      -0.410  -0.343   0.277  0.00  0.00     0.002 A 
ATOM      3  C4  UNL d   1       0.354  -0.039  -0.852  0.00  0.00     0.002 A 
ATOM      4  C5  UNL d   1       0.058   1.092  -1.611  0.00  0.00    -0.004 A 
ATOM      5  C6  UNL d   1      -1.005   1.917  -1.246  0.00  0.00     0.002 A 
ATOM      6  C7  UNL d   1      -1.769   1.614  -0.119  0.00  0.00     0.002 A 
ENDROOT
BRANCH   1   7
ATOM      7  C1  UNL d   1      -2.273   0.182   1.898  0.00  0.00     0.055 C 
ATOM      8  C   UNL d   1      -3.746   0.513   1.708  0.00  0.00     0.019 C 
ENDBRANCH   1   7
TORSDOF 1
ENDMDL
