MODEL 1
REMARK minimizedAffinity 3.64532423
REMARK minimizedRMSD -1
REMARK  1 active torsions:
REMARK  status: ('A' for Active; 'I' for Inactive)
REMARK    1  A    between atoms: C1_2  and  C2_3 
ROOT
ATOM      1  C2  UNL d   1      -0.016  -0.011   3.600  0.00  0.00    -0.077 A 
ATOM      2  C3  UNL d   1      -1.369   0.353   3.548  0.00  0.00     0.002 A 
ATOM      3  C4  UNL d   1      -2.041   0.738   4.710  0.00  0.00     0.002 A 
ATOM      4  C5  UNL d   1      -1.368   0.768   5.929  0.00  0.00    -0.004 A 
ATOM      5  C6  UNL d   1      -0.023   0.406   5.991  0.00  0.00     0.002 A 
ATOM      6  C7  UNL d   1       0.650   0.020   4.831  0.00  0.00     0.002 A 
ENDROOT
BRANCH   1   7
ATOM      7  C1  UNL d   1       0.724  -0.379   2.340  0.00  0.00     0.055 C 
ATOM      8  C   UNL d   1       0.148  -1.638   1.708  0.00  0.00     0.019 C 
ENDBRANCH   1   7
TORSDOF 1
ENDMDL
