MODEL 1
REMARK minimizedAffinity -4.87108994
REMARK minimizedRMSD -1
REMARK  1 active torsions:
REMARK  status: ('A' for Active; 'I' for Inactive)
REMARK    1  A    between atoms: C1_2  and  C2_3 
ROOT
ATOM      1  C2  UNL d   1       1.371  -0.374  -1.464  0.00  0.00    -0.077 A 
ATOM      2  C3  UNL d   1       1.894   0.887  -1.784  0.00  0.00     0.002 A 
ATOM      3  C4  UNL d   1       1.529   2.012  -1.042  0.00  0.00     0.002 A 
ATOM      4  C5  UNL d   1       0.644   1.886   0.027  0.00  0.00    -0.004 A 
ATOM      5  C6  UNL d   1       0.117   0.637   0.352  0.00  0.00     0.002 A 
ATOM      6  C7  UNL d   1       0.479  -0.488  -0.389  0.00  0.00     0.002 A 
ENDROOT
BRANCH   1   7
ATOM      7  C1  UNL d   1       1.801  -1.596  -2.232  0.00  0.00     0.055 C 
ATOM      8  C   UNL d   1       1.260  -2.869  -1.596  0.00  0.00     0.019 C 
ENDBRANCH   1   7
TORSDOF 1
ENDMDL
