MODEL 1
REMARK minimizedAffinity -6.23207092
REMARK minimizedRMSD -1
REMARK  1 active torsions:
REMARK  status: ('A' for Active; 'I' for Inactive)
REMARK    1  A    between atoms: C1_2  and  C2_3 
ROOT
ATOM      1  C2  UNL d   1       0.364  -0.434  -0.465  0.00  0.00    -0.077 A 
ATOM      2  C3  UNL d   1       0.989  -1.612  -0.899  0.00  0.00     0.002 A 
ATOM      3  C4  UNL d   1       1.797  -1.604  -2.038  0.00  0.00     0.002 A 
ATOM      4  C5  UNL d   1       1.991  -0.422  -2.749  0.00  0.00    -0.004 A 
ATOM      5  C6  UNL d   1       1.372   0.754  -2.327  0.00  0.00     0.002 A 
ATOM      6  C7  UNL d   1       0.564   0.748  -1.189  0.00  0.00     0.002 A 
ENDROOT
BRANCH   1   7
ATOM      7  C1  UNL d   1      -0.467  -0.429   0.791  0.00  0.00     0.055 C 
ATOM      8  C   UNL d   1      -1.892   0.025   0.509  0.00  0.00     0.019 C 
ENDBRANCH   1   7
TORSDOF 1
ENDMDL
