MODEL 1
REMARK minimizedAffinity -5.22721577
REMARK minimizedRMSD -1
REMARK  1 active torsions:
REMARK  status: ('A' for Active; 'I' for Inactive)
REMARK    1  A    between atoms: C1_2  and  C2_3 
ROOT
ATOM      1  C2  UNL d   1       0.283   0.743  -0.486  0.00  0.00    -0.077 A 
ATOM      2  C3  UNL d   1      -0.972   1.018  -1.047  0.00  0.00     0.002 A 
ATOM      3  C4  UNL d   1      -2.138   0.787  -0.316  0.00  0.00     0.002 A 
ATOM      4  C5  UNL d   1      -2.062   0.284   0.981  0.00  0.00    -0.004 A 
ATOM      5  C6  UNL d   1      -0.818   0.005   1.547  0.00  0.00     0.002 A 
ATOM      6  C7  UNL d   1       0.349   0.235   0.818  0.00  0.00     0.002 A 
ENDROOT
BRANCH   1   7
ATOM      7  C1  UNL d   1       1.545   1.038  -1.255  0.00  0.00     0.055 C 
ATOM      8  C   UNL d   1       1.525   0.376  -2.625  0.00  0.00     0.019 C 
ENDBRANCH   1   7
TORSDOF 1
ENDMDL
