MODEL 1
REMARK minimizedAffinity -3.14080906
REMARK minimizedRMSD -1
REMARK  1 active torsions:
REMARK  status: ('A' for Active; 'I' for Inactive)
REMARK    1  A    between atoms: C1_2  and  C2_3 
ROOT
ATOM      1  C2  UNL d   1      -1.323   0.184   1.103  0.00  0.00    -0.077 A 
ATOM      2  C3  UNL d   1      -2.379  -0.540   0.532  0.00  0.00     0.002 A 
ATOM      3  C4  UNL d   1      -3.688  -0.353   0.980  0.00  0.00     0.002 A 
ATOM      4  C5  UNL d   1      -3.954   0.560   1.998  0.00  0.00    -0.004 A 
ATOM      5  C6  UNL d   1      -2.910   1.284   2.574  0.00  0.00     0.002 A 
ATOM      6  C7  UNL d   1      -1.601   1.097   2.128  0.00  0.00     0.002 A 
ENDROOT
BRANCH   1   7
ATOM      7  C1  UNL d   1       0.082   0.020   0.587  0.00  0.00     0.055 C 
ATOM      8  C   UNL d   1       0.398   1.042  -0.495  0.00  0.00     0.019 C 
ENDBRANCH   1   7
TORSDOF 1
ENDMDL
