MODEL 1
REMARK minimizedAffinity -5.40791798
REMARK minimizedRMSD -1
REMARK  1 active torsions:
REMARK  status: ('A' for Active; 'I' for Inactive)
REMARK    1  A    between atoms: C1_2  and  C2_3 
ROOT
ATOM      1  C2  UNL d   1      -0.189   0.260  -0.120  0.00  0.00    -0.077 A 
ATOM      2  C3  UNL d   1       0.816   1.232  -0.226  0.00  0.00     0.002 A 
ATOM      3  C4  UNL d   1       1.767   1.157  -1.245  0.00  0.00     0.002 A 
ATOM      4  C5  UNL d   1       1.720   0.115  -2.169  0.00  0.00    -0.004 A 
ATOM      5  C6  UNL d   1       0.726  -0.858  -2.070  0.00  0.00     0.002 A 
ATOM      6  C7  UNL d   1      -0.225  -0.786  -1.051  0.00  0.00     0.002 A 
ENDROOT
BRANCH   1   7
ATOM      7  C1  UNL d   1      -1.244   0.366   0.950  0.00  0.00     0.055 C 
ATOM      8  C   UNL d   1      -2.435  -0.531   0.643  0.00  0.00     0.019 C 
ENDBRANCH   1   7
TORSDOF 1
ENDMDL
