MODEL 1
REMARK minimizedAffinity 20.9475975
REMARK minimizedRMSD -1
REMARK  0 active torsions:
REMARK  status: ('A' for Active; 'I' for Inactive)
ROOT
ATOM      1  C   UNL d   1      -3.531   3.071  -3.916  0.00  0.00     0.077 C 
ATOM      2  C1  UNL d   1      -2.955   1.858  -3.248  0.00  0.00    -0.074 A 
ATOM      3  C2  UNL d   1      -2.866   0.638  -3.926  0.00  0.00    -0.005 A 
ATOM      4  C3  UNL d   1      -2.319  -0.480  -3.296  0.00  0.00     0.006 A 
ATOM      5  C4  UNL d   1      -1.856  -0.389  -1.982  0.00  0.00    -0.005 A 
ATOM      6  C5  UNL d   1      -1.936   0.823  -1.289  0.00  0.00    -0.074 A 
ATOM      7  C6  UNL d   1      -1.434   0.941   0.120  0.00  0.00     0.077 C 
ATOM      8  C7  UNL d   1      -2.480   1.943  -1.932  0.00  0.00    -0.001 A 
ENDROOT
TORSDOF 0
ENDMDL
