MODEL 1
REMARK minimizedAffinity 12.1515417
REMARK minimizedRMSD -1
REMARK  0 active torsions:
REMARK  status: ('A' for Active; 'I' for Inactive)
ROOT
ATOM      1  C   UNL d   1       1.863  -2.927   2.327  0.00  0.00     0.077 C 
ATOM      2  C1  UNL d   1       1.965  -2.118   3.586  0.00  0.00    -0.074 A 
ATOM      3  C2  UNL d   1       2.084  -2.741   4.833  0.00  0.00    -0.005 A 
ATOM      4  C3  UNL d   1       2.188  -1.975   5.994  0.00  0.00     0.006 A 
ATOM      5  C4  UNL d   1       2.174  -0.582   5.921  0.00  0.00    -0.005 A 
ATOM      6  C5  UNL d   1       2.057   0.058   4.683  0.00  0.00    -0.074 A 
ATOM      7  C6  UNL d   1       2.051   1.555   4.586  0.00  0.00     0.077 C 
ATOM      8  C7  UNL d   1       1.960  -0.718   3.520  0.00  0.00    -0.001 A 
ENDROOT
TORSDOF 0
ENDMDL
