MODEL 1
REMARK minimizedAffinity 4.70539284
REMARK minimizedRMSD -1
REMARK  0 active torsions:
REMARK  status: ('A' for Active; 'I' for Inactive)
ROOT
ATOM      1  C   UNL d   1      -2.071   0.113  -0.501  0.00  0.00     0.077 C 
ATOM      2  C1  UNL d   1      -2.359   0.349  -1.953  0.00  0.00    -0.074 A 
ATOM      3  C2  UNL d   1      -2.264  -0.691  -2.884  0.00  0.00    -0.005 A 
ATOM      4  C3  UNL d   1      -2.545  -0.458  -4.230  0.00  0.00     0.006 A 
ATOM      5  C4  UNL d   1      -2.922   0.815  -4.659  0.00  0.00    -0.005 A 
ATOM      6  C5  UNL d   1      -3.024   1.867  -3.743  0.00  0.00    -0.074 A 
ATOM      7  C6  UNL d   1      -3.438   3.239  -4.186  0.00  0.00     0.077 C 
ATOM      8  C7  UNL d   1      -2.747   1.623  -2.391  0.00  0.00    -0.001 A 
ENDROOT
TORSDOF 0
ENDMDL
