MODEL 1
REMARK minimizedAffinity 3.51712704
REMARK minimizedRMSD -1
REMARK  0 active torsions:
REMARK  status: ('A' for Active; 'I' for Inactive)
ROOT
ATOM      1  C   UNL d   1      -3.163   2.536  -3.602  0.00  0.00     0.077 C 
ATOM      2  C1  UNL d   1      -2.788   1.209  -3.013  0.00  0.00    -0.074 A 
ATOM      3  C2  UNL d   1      -2.666   0.073  -3.819  0.00  0.00    -0.005 A 
ATOM      4  C3  UNL d   1      -2.307  -1.153  -3.258  0.00  0.00     0.006 A 
ATOM      5  C4  UNL d   1      -2.067  -1.254  -1.887  0.00  0.00    -0.005 A 
ATOM      6  C5  UNL d   1      -2.184  -0.129  -1.065  0.00  0.00    -0.074 A 
ATOM      7  C6  UNL d   1      -1.920  -0.219   0.409  0.00  0.00     0.077 C 
ATOM      8  C7  UNL d   1      -2.538   1.101  -1.637  0.00  0.00    -0.001 A 
ENDROOT
TORSDOF 0
ENDMDL
