MODEL 1
REMARK minimizedAffinity -2.50850344
REMARK minimizedRMSD -1
REMARK  0 active torsions:
REMARK  status: ('A' for Active; 'I' for Inactive)
ROOT
ATOM      1  C   UNL d   1      -0.520   0.108  -0.973  0.00  0.00     0.077 C 
ATOM      2  C1  UNL d   1       0.467   0.087   0.156  0.00  0.00    -0.074 A 
ATOM      3  C2  UNL d   1       1.186   1.236   0.503  0.00  0.00    -0.005 A 
ATOM      4  C3  UNL d   1       2.094   1.204   1.561  0.00  0.00     0.006 A 
ATOM      5  C4  UNL d   1       2.292   0.026   2.282  0.00  0.00    -0.005 A 
ATOM      6  C5  UNL d   1       1.582  -1.132   1.950  0.00  0.00    -0.074 A 
ATOM      7  C6  UNL d   1       1.776  -2.404   2.720  0.00  0.00     0.077 C 
ATOM      8  C7  UNL d   1       0.666  -1.090   0.890  0.00  0.00    -0.001 A 
ENDROOT
TORSDOF 0
ENDMDL
