MODEL 1
REMARK minimizedAffinity 12.0690899
REMARK minimizedRMSD -1
REMARK  0 active torsions:
REMARK  status: ('A' for Active; 'I' for Inactive)
ROOT
ATOM      1  C   UNL d   1       2.904   4.883  -0.377  0.00  0.00     0.077 C 
ATOM      2  C1  UNL d   1       1.508   4.828   0.169  0.00  0.00    -0.074 A 
ATOM      3  C2  UNL d   1       0.768   5.998   0.370  0.00  0.00    -0.005 A 
ATOM      4  C3  UNL d   1      -0.532   5.930   0.869  0.00  0.00     0.006 A 
ATOM      5  C4  UNL d   1      -1.105   4.695   1.172  0.00  0.00    -0.005 A 
ATOM      6  C5  UNL d   1      -0.381   3.514   0.976  0.00  0.00    -0.074 A 
ATOM      7  C6  UNL d   1      -0.986   2.177   1.287  0.00  0.00     0.077 C 
ATOM      8  C7  UNL d   1       0.923   3.590   0.468  0.00  0.00    -0.001 A 
ENDROOT
TORSDOF 0
ENDMDL
