MODEL 1
REMARK minimizedAffinity 5.72801971
REMARK minimizedRMSD -1
REMARK  0 active torsions:
REMARK  status: ('A' for Active; 'I' for Inactive)
ROOT
ATOM      1  C   UNL d   1      -1.194  -0.223  -0.642  0.00  0.00     0.077 C 
ATOM      2  C1  UNL d   1      -1.810   0.472  -1.819  0.00  0.00    -0.074 A 
ATOM      3  C2  UNL d   1      -1.855  -0.142  -3.074  0.00  0.00    -0.005 A 
ATOM      4  C3  UNL d   1      -2.440   0.514  -4.158  0.00  0.00     0.006 A 
ATOM      5  C4  UNL d   1      -2.985   1.788  -3.997  0.00  0.00    -0.005 A 
ATOM      6  C5  UNL d   1      -2.950   2.418  -2.749  0.00  0.00    -0.074 A 
ATOM      7  C6  UNL d   1      -3.539   3.784  -2.556  0.00  0.00     0.077 C 
ATOM      8  C7  UNL d   1      -2.367   1.750  -1.663  0.00  0.00    -0.001 A 
ENDROOT
TORSDOF 0
ENDMDL
