MODEL 1
REMARK minimizedAffinity 10.8482513
REMARK minimizedRMSD -1
REMARK  0 active torsions:
REMARK  status: ('A' for Active; 'I' for Inactive)
ROOT
ATOM      1  C   UNL d   1      -3.279   2.183  -4.140  0.00  0.00     0.077 C 
ATOM      2  C1  UNL d   1      -2.634   0.968  -3.544  0.00  0.00    -0.074 A 
ATOM      3  C2  UNL d   1      -1.439   1.069  -2.824  0.00  0.00    -0.005 A 
ATOM      4  C3  UNL d   1      -0.855  -0.069  -2.268  0.00  0.00     0.006 A 
ATOM      5  C4  UNL d   1      -1.459  -1.318  -2.426  0.00  0.00    -0.005 A 
ATOM      6  C5  UNL d   1      -2.654  -1.438  -3.142  0.00  0.00    -0.074 A 
ATOM      7  C6  UNL d   1      -3.321  -2.770  -3.313  0.00  0.00     0.077 C 
ATOM      8  C7  UNL d   1      -3.238  -0.288  -3.692  0.00  0.00    -0.001 A 
ENDROOT
TORSDOF 0
ENDMDL
