MODEL 1
REMARK minimizedAffinity 14.881115
REMARK minimizedRMSD -1
REMARK  0 active torsions:
REMARK  status: ('A' for Active; 'I' for Inactive)
ROOT
ATOM      1  C   UNL d   1       1.738   2.460   3.826  0.00  0.00     0.077 C 
ATOM      2  C1  UNL d   1       1.926   1.012   4.168  0.00  0.00    -0.074 A 
ATOM      3  C2  UNL d   1       2.301   0.621   5.457  0.00  0.00    -0.005 A 
ATOM      4  C3  UNL d   1       2.463  -0.731   5.763  0.00  0.00     0.006 A 
ATOM      5  C4  UNL d   1       2.252  -1.703   4.785  0.00  0.00    -0.005 A 
ATOM      6  C5  UNL d   1       1.876  -1.331   3.490  0.00  0.00    -0.074 A 
ATOM      7  C6  UNL d   1       1.636  -2.363   2.429  0.00  0.00     0.077 C 
ATOM      8  C7  UNL d   1       1.708   0.029   3.192  0.00  0.00    -0.001 A 
ENDROOT
TORSDOF 0
ENDMDL
