MODEL 1
REMARK minimizedAffinity 7.51224709
REMARK minimizedRMSD -1
REMARK  0 active torsions:
REMARK  status: ('A' for Active; 'I' for Inactive)
ROOT
ATOM      1  C2' OXE d   1       0.696  -2.104   2.901  0.00  0.00     0.078 C 
ATOM      2  C1' OXE d   1      -1.285  -0.921   1.302  0.00  0.00     0.078 C 
ATOM      3  C1  OXE d   1       0.150  -0.535   1.045  0.00  0.00    -0.078 A 
ATOM      4  C2  OXE d   1       1.108  -1.083   1.863  0.00  0.00    -0.078 A 
ATOM      5  C3  OXE d   1       2.452  -0.802   1.635  0.00  0.00     0.003 A 
ATOM      6  C4  OXE d   1       2.825   0.152   0.680  0.00  0.00    -0.002 A 
ATOM      7  C5  OXE d   1       1.861   0.752  -0.137  0.00  0.00    -0.002 A 
ATOM      8  C6  OXE d   1       0.526   0.389   0.004  0.00  0.00     0.003 A 
ENDROOT
TORSDOF 0
ENDMDL
