MODEL 1
REMARK minimizedAffinity 4.05757427
REMARK minimizedRMSD -1
REMARK  0 active torsions:
REMARK  status: ('A' for Active; 'I' for Inactive)
ROOT
ATOM      1  C2' OXE d   1       2.672  -1.025   3.795  0.00  0.00     0.078 C 
ATOM      2  C1' OXE d   1       1.207  -3.327   3.134  0.00  0.00     0.078 C 
ATOM      3  C1  OXE d   1       1.176  -2.171   2.165  0.00  0.00    -0.078 A 
ATOM      4  C2  OXE d   1       1.858  -1.032   2.519  0.00  0.00    -0.078 A 
ATOM      5  C3  OXE d   1       1.907   0.044   1.636  0.00  0.00     0.003 A 
ATOM      6  C4  OXE d   1       1.143   0.034   0.463  0.00  0.00    -0.002 A 
ATOM      7  C5  OXE d   1       0.410  -1.102   0.103  0.00  0.00    -0.002 A 
ATOM      8  C6  OXE d   1       0.450  -2.226   0.921  0.00  0.00     0.003 A 
ENDROOT
TORSDOF 0
ENDMDL
