MODEL 1
REMARK minimizedAffinity -0.581722617
REMARK minimizedRMSD -1
REMARK  0 active torsions:
REMARK  status: ('A' for Active; 'I' for Inactive)
ROOT
ATOM      1  C2' OXE d   1       1.105  -5.941  -4.781  0.00  0.00     0.078 C 
ATOM      2  C1' OXE d   1      -1.433  -5.991  -5.981  0.00  0.00     0.078 C 
ATOM      3  C1  OXE d   1      -1.367  -5.972  -4.474  0.00  0.00    -0.078 A 
ATOM      4  C2  OXE d   1      -0.121  -5.994  -3.895  0.00  0.00    -0.078 A 
ATOM      5  C3  OXE d   1      -0.003  -5.922  -2.510  0.00  0.00     0.003 A 
ATOM      6  C4  OXE d   1      -1.142  -5.982  -1.697  0.00  0.00    -0.002 A 
ATOM      7  C5  OXE d   1      -2.420  -6.000  -2.266  0.00  0.00    -0.002 A 
ATOM      8  C6  OXE d   1      -2.551  -5.952  -3.650  0.00  0.00     0.003 A 
ENDROOT
TORSDOF 0
ENDMDL
