MODEL 1
REMARK minimizedAffinity 3.81723976
REMARK minimizedRMSD -1
REMARK  0 active torsions:
REMARK  status: ('A' for Active; 'I' for Inactive)
ROOT
ATOM      1  C2' OXE d   1       3.634   0.503  -0.025  0.00  0.00     0.078 C 
ATOM      2  C1' OXE d   1       0.901   0.388  -0.658  0.00  0.00     0.078 C 
ATOM      3  C1  OXE d   1       1.343  -0.193   0.662  0.00  0.00    -0.078 A 
ATOM      4  C2  OXE d   1       2.688  -0.175   0.943  0.00  0.00    -0.078 A 
ATOM      5  C3  OXE d   1       3.143  -0.649   2.170  0.00  0.00     0.003 A 
ATOM      6  C4  OXE d   1       2.264  -1.283   3.055  0.00  0.00    -0.002 A 
ATOM      7  C5  OXE d   1       0.895  -1.349   2.771  0.00  0.00    -0.002 A 
ATOM      8  C6  OXE d   1       0.414  -0.772   1.601  0.00  0.00     0.003 A 
ENDROOT
TORSDOF 0
ENDMDL
