MODEL 1
REMARK minimizedAffinity 2.33581686
REMARK minimizedRMSD -1
REMARK  0 active torsions:
REMARK  status: ('A' for Active; 'I' for Inactive)
ROOT
ATOM      1  C2' OXE d   1      -4.491   0.362   1.513  0.00  0.00     0.078 C 
ATOM      2  C1' OXE d   1      -3.294  -1.990   0.557  0.00  0.00     0.078 C 
ATOM      3  C1  OXE d   1      -4.216  -1.242  -0.373  0.00  0.00    -0.078 A 
ATOM      4  C2  OXE d   1      -4.834  -0.118   0.119  0.00  0.00    -0.078 A 
ATOM      5  C3  OXE d   1      -5.652   0.640  -0.714  0.00  0.00     0.003 A 
ATOM      6  C4  OXE d   1      -5.973   0.184  -1.999  0.00  0.00    -0.002 A 
ATOM      7  C5  OXE d   1      -5.385  -0.981  -2.505  0.00  0.00    -0.002 A 
ATOM      8  C6  OXE d   1      -4.474  -1.681  -1.723  0.00  0.00     0.003 A 
ENDROOT
TORSDOF 0
ENDMDL
