MODEL 1
REMARK minimizedAffinity 4.15059137
REMARK minimizedRMSD -1
REMARK  0 active torsions:
REMARK  status: ('A' for Active; 'I' for Inactive)
ROOT
ATOM      1  C2' OXE d   1       3.659   0.369   0.059  0.00  0.00     0.078 C 
ATOM      2  C1' OXE d   1       1.036   0.058  -0.890  0.00  0.00     0.078 C 
ATOM      3  C1  OXE d   1       1.319  -0.336   0.538  0.00  0.00    -0.078 A 
ATOM      4  C2  OXE d   1       2.615  -0.225   0.980  0.00  0.00    -0.078 A 
ATOM      5  C3  OXE d   1       2.920  -0.523   2.305  0.00  0.00     0.003 A 
ATOM      6  C4  OXE d   1       1.950  -1.081   3.147  0.00  0.00    -0.002 A 
ATOM      7  C5  OXE d   1       0.633  -1.241   2.704  0.00  0.00    -0.002 A 
ATOM      8  C6  OXE d   1       0.292  -0.834   1.419  0.00  0.00     0.003 A 
ENDROOT
TORSDOF 0
ENDMDL
