MODEL 1
REMARK minimizedAffinity -1.73036015
REMARK minimizedRMSD -1
REMARK  0 active torsions:
REMARK  status: ('A' for Active; 'I' for Inactive)
ROOT
ATOM      1  C2' OXE d   1       1.161  -5.936  -4.851  0.00  0.00     0.078 C 
ATOM      2  C1' OXE d   1      -1.400  -5.999  -5.999  0.00  0.00     0.078 C 
ATOM      3  C1  OXE d   1      -1.305  -5.974  -4.494  0.00  0.00    -0.078 A 
ATOM      4  C2  OXE d   1      -0.047  -5.990  -3.940  0.00  0.00    -0.078 A 
ATOM      5  C3  OXE d   1       0.098  -5.912  -2.558  0.00  0.00     0.003 A 
ATOM      6  C4  OXE d   1      -1.024  -5.973  -1.723  0.00  0.00    -0.002 A 
ATOM      7  C5  OXE d   1      -2.313  -5.996  -2.266  0.00  0.00    -0.002 A 
ATOM      8  C6  OXE d   1      -2.471  -5.954  -3.647  0.00  0.00     0.003 A 
ENDROOT
TORSDOF 0
ENDMDL
