MODEL 1
REMARK minimizedAffinity 4.22557497
REMARK minimizedRMSD -1
REMARK  0 active torsions:
REMARK  status: ('A' for Active; 'I' for Inactive)
ROOT
ATOM      1  C2' OXE d   1       3.049  -5.845  -4.381  0.00  0.00     0.078 C 
ATOM      2  C1' OXE d   1       1.405  -5.970  -2.109  0.00  0.00     0.078 C 
ATOM      3  C1  OXE d   1       0.736  -5.940  -3.461  0.00  0.00    -0.078 A 
ATOM      4  C2  OXE d   1       1.547  -5.832  -4.565  0.00  0.00    -0.078 A 
ATOM      5  C3  OXE d   1       0.984  -5.855  -5.838  0.00  0.00     0.003 A 
ATOM      6  C4  OXE d   1      -0.407  -5.833  -5.999  0.00  0.00    -0.002 A 
ATOM      7  C5  OXE d   1      -1.251  -5.903  -4.886  0.00  0.00    -0.002 A 
ATOM      8  C6  OXE d   1      -0.697  -6.000  -3.615  0.00  0.00     0.003 A 
ENDROOT
TORSDOF 0
ENDMDL
