MODEL 1
REMARK minimizedAffinity 0.115891859
REMARK minimizedRMSD -1
REMARK  0 active torsions:
REMARK  status: ('A' for Active; 'I' for Inactive)
ROOT
ATOM      1  C2' OXE d   1      -2.585  -5.941  -2.665  0.00  0.00     0.078 C 
ATOM      2  C1' OXE d   1       0.068  -5.979  -1.748  0.00  0.00     0.078 C 
ATOM      3  C1  OXE d   1      -0.161  -5.966  -3.239  0.00  0.00    -0.078 A 
ATOM      4  C2  OXE d   1      -1.463  -5.994  -3.679  0.00  0.00    -0.078 A 
ATOM      5  C3  OXE d   1      -1.731  -5.928  -5.043  0.00  0.00     0.003 A 
ATOM      6  C4  OXE d   1      -0.687  -5.988  -5.975  0.00  0.00    -0.002 A 
ATOM      7  C5  OXE d   1       0.645  -6.000  -5.548  0.00  0.00    -0.002 A 
ATOM      8  C6  OXE d   1       0.925  -5.946  -4.187  0.00  0.00     0.003 A 
ENDROOT
TORSDOF 0
ENDMDL
