MODEL 1
REMARK minimizedAffinity 5.17988443
REMARK minimizedRMSD -1
REMARK  0 active torsions:
REMARK  status: ('A' for Active; 'I' for Inactive)
ROOT
ATOM      1  C2' OXE d   1       1.817  -5.677  -4.584  0.00  0.00     0.078 C 
ATOM      2  C1' OXE d   1       1.018  -5.649  -1.893  0.00  0.00     0.078 C 
ATOM      3  C1  OXE d   1      -0.055  -5.789  -2.944  0.00  0.00    -0.078 A 
ATOM      4  C2  OXE d   1       0.341  -5.755  -4.260  0.00  0.00    -0.078 A 
ATOM      5  C3  OXE d   1      -0.602  -5.936  -5.268  0.00  0.00     0.003 A 
ATOM      6  C4  OXE d   1      -1.966  -5.997  -4.960  0.00  0.00    -0.002 A 
ATOM      7  C5  OXE d   1      -2.394  -5.993  -3.628  0.00  0.00    -0.002 A 
ATOM      8  C6  OXE d   1      -1.450  -5.933  -2.609  0.00  0.00     0.003 A 
ENDROOT
TORSDOF 0
ENDMDL
