MODEL 1
REMARK minimizedAffinity -0.501217306
REMARK minimizedRMSD -1
REMARK  0 active torsions:
REMARK  status: ('A' for Active; 'I' for Inactive)
ROOT
ATOM      1  C2' OXE d   1      -2.456  -6.000  -1.111  0.00  0.00     0.078 C 
ATOM      2  C1' OXE d   1      -4.124  -5.991  -3.370  0.00  0.00     0.078 C 
ATOM      3  C1  OXE d   1      -2.632  -5.984  -3.596  0.00  0.00    -0.078 A 
ATOM      4  C2  OXE d   1      -1.824  -5.941  -2.486  0.00  0.00    -0.078 A 
ATOM      5  C3  OXE d   1      -0.441  -5.988  -2.637  0.00  0.00     0.003 A 
ATOM      6  C4  OXE d   1       0.135  -5.923  -3.911  0.00  0.00    -0.002 A 
ATOM      7  C5  OXE d   1      -0.670  -5.927  -5.055  0.00  0.00    -0.002 A 
ATOM      8  C6  OXE d   1      -2.052  -5.999  -4.916  0.00  0.00     0.003 A 
ENDROOT
TORSDOF 0
ENDMDL
