MODEL 1
REMARK minimizedAffinity 1.21445906
REMARK minimizedRMSD -1
REMARK  0 active torsions:
REMARK  status: ('A' for Active; 'I' for Inactive)
ROOT
ATOM      1  C2' OXE d   1      -2.523  -5.987  -4.754  0.00  0.00     0.078 C 
ATOM      2  C1' OXE d   1      -1.126  -5.998  -2.319  0.00  0.00     0.078 C 
ATOM      3  C1  OXE d   1      -0.319  -5.958  -3.593  0.00  0.00    -0.078 A 
ATOM      4  C2  OXE d   1      -1.009  -5.999  -4.780  0.00  0.00    -0.078 A 
ATOM      5  C3  OXE d   1      -0.316  -5.909  -5.984  0.00  0.00     0.003 A 
ATOM      6  C4  OXE d   1       1.083  -5.932  -6.000  0.00  0.00    -0.002 A 
ATOM      7  C5  OXE d   1       1.807  -5.929  -4.802  0.00  0.00    -0.002 A 
ATOM      8  C6  OXE d   1       1.122  -5.899  -3.593  0.00  0.00     0.003 A 
ENDROOT
TORSDOF 0
ENDMDL
