MODEL 1
REMARK minimizedAffinity -0.0630478039
REMARK minimizedRMSD -1
REMARK  0 active torsions:
REMARK  status: ('A' for Active; 'I' for Inactive)
ROOT
ATOM      1  C2' OXE d   1      -2.992  -5.677  -2.999  0.00  0.00     0.078 C 
ATOM      2  C1' OXE d   1      -0.573  -4.801  -1.877  0.00  0.00     0.078 C 
ATOM      3  C1  OXE d   1      -0.570  -5.199  -3.332  0.00  0.00    -0.078 A 
ATOM      4  C2  OXE d   1      -1.748  -5.671  -3.861  0.00  0.00    -0.078 A 
ATOM      5  C3  OXE d   1      -1.814  -5.999  -5.212  0.00  0.00     0.003 A 
ATOM      6  C4  OXE d   1      -0.657  -6.000  -5.999  0.00  0.00    -0.002 A 
ATOM      7  C5  OXE d   1       0.562  -5.561  -5.470  0.00  0.00    -0.002 A 
ATOM      8  C6  OXE d   1       0.613  -5.117  -4.153  0.00  0.00     0.003 A 
ENDROOT
TORSDOF 0
ENDMDL
