MODEL 1
REMARK minimizedAffinity -0.092772536
REMARK minimizedRMSD -1
REMARK  0 active torsions:
REMARK  status: ('A' for Active; 'I' for Inactive)
ROOT
ATOM      1  C2' OXE d   1       1.472  -5.999  -2.426  0.00  0.00     0.078 C 
ATOM      2  C1' OXE d   1       1.490  -5.823  -5.228  0.00  0.00     0.078 C 
ATOM      3  C1  OXE d   1       0.152  -5.865  -4.534  0.00  0.00    -0.078 A 
ATOM      4  C2  OXE d   1       0.152  -5.999  -3.166  0.00  0.00    -0.078 A 
ATOM      5  C3  OXE d   1      -1.054  -5.988  -2.472  0.00  0.00     0.003 A 
ATOM      6  C4  OXE d   1      -2.271  -5.997  -3.165  0.00  0.00    -0.002 A 
ATOM      7  C5  OXE d   1      -2.294  -5.902  -4.561  0.00  0.00    -0.002 A 
ATOM      8  C6  OXE d   1      -1.094  -5.792  -5.256  0.00  0.00     0.003 A 
ENDROOT
TORSDOF 0
ENDMDL
