MODEL 1
REMARK minimizedAffinity 2.78593969
REMARK minimizedRMSD -1
REMARK  0 active torsions:
REMARK  status: ('A' for Active; 'I' for Inactive)
ROOT
ATOM      1  C2' OXE d   1       1.382  -5.941  -3.874  0.00  0.00     0.078 C 
ATOM      2  C1' OXE d   1      -0.535  -5.959  -5.924  0.00  0.00     0.078 C 
ATOM      3  C1  OXE d   1      -1.029  -5.956  -4.499  0.00  0.00    -0.078 A 
ATOM      4  C2  OXE d   1      -0.084  -5.995  -3.502  0.00  0.00    -0.078 A 
ATOM      5  C3  OXE d   1      -0.484  -5.939  -2.170  0.00  0.00     0.003 A 
ATOM      6  C4  OXE d   1      -1.842  -5.998  -1.835  0.00  0.00    -0.002 A 
ATOM      7  C5  OXE d   1      -2.821  -6.000  -2.835  0.00  0.00    -0.002 A 
ATOM      8  C6  OXE d   1      -2.433  -5.936  -4.168  0.00  0.00     0.003 A 
ENDROOT
TORSDOF 0
ENDMDL
