MODEL 1
REMARK minimizedAffinity 0.962221146
REMARK minimizedRMSD -1
REMARK  0 active torsions:
REMARK  status: ('A' for Active; 'I' for Inactive)
ROOT
ATOM      1  C2' OXE d   1       0.782  -6.000  -4.377  0.00  0.00     0.078 C 
ATOM      2  C1' OXE d   1       0.089  -5.973  -1.656  0.00  0.00     0.078 C 
ATOM      3  C1  OXE d   1      -1.030  -5.977  -2.667  0.00  0.00    -0.078 A 
ATOM      4  C2  OXE d   1      -0.682  -5.943  -3.996  0.00  0.00    -0.078 A 
ATOM      5  C3  OXE d   1      -1.674  -6.000  -4.971  0.00  0.00     0.003 A 
ATOM      6  C4  OXE d   1      -3.026  -5.937  -4.611  0.00  0.00    -0.002 A 
ATOM      7  C5  OXE d   1      -3.402  -5.931  -3.263  0.00  0.00    -0.002 A 
ATOM      8  C6  OXE d   1      -2.420  -5.993  -2.281  0.00  0.00     0.003 A 
ENDROOT
TORSDOF 0
ENDMDL
