MODEL 1
REMARK minimizedAffinity 0.373998076
REMARK minimizedRMSD -1
REMARK  0 active torsions:
REMARK  status: ('A' for Active; 'I' for Inactive)
ROOT
ATOM      1  C2' OXE d   1      -2.609  -6.000  -2.393  0.00  0.00     0.078 C 
ATOM      2  C1' OXE d   1       0.169  -6.000  -1.988  0.00  0.00     0.078 C 
ATOM      3  C1  OXE d   1      -0.335  -5.951  -3.409  0.00  0.00    -0.078 A 
ATOM      4  C2  OXE d   1      -1.695  -5.999  -3.599  0.00  0.00    -0.078 A 
ATOM      5  C3  OXE d   1      -2.214  -5.902  -4.887  0.00  0.00     0.003 A 
ATOM      6  C4  OXE d   1      -1.362  -5.911  -5.998  0.00  0.00    -0.002 A 
ATOM      7  C5  OXE d   1       0.026  -5.903  -5.827  0.00  0.00    -0.002 A 
ATOM      8  C6  OXE d   1       0.555  -5.880  -4.542  0.00  0.00     0.003 A 
ENDROOT
TORSDOF 0
ENDMDL
