MODEL 1
REMARK minimizedAffinity 4.34469509
REMARK minimizedRMSD -1
REMARK  0 active torsions:
REMARK  status: ('A' for Active; 'I' for Inactive)
ROOT
ATOM      1  C2' OXE d   1      -6.000   0.719  -2.300  0.00  0.00     0.078 C 
ATOM      2  C1' OXE d   1      -4.330  -1.468  -2.855  0.00  0.00     0.078 C 
ATOM      3  C1  OXE d   1      -4.203  -0.812  -1.503  0.00  0.00    -0.078 A 
ATOM      4  C2  OXE d   1      -4.991   0.286  -1.257  0.00  0.00    -0.078 A 
ATOM      5  C3  OXE d   1      -4.953   0.896  -0.007  0.00  0.00     0.003 A 
ATOM      6  C4  OXE d   1      -4.010   0.496   0.948  0.00  0.00    -0.002 A 
ATOM      7  C5  OXE d   1      -3.170  -0.595   0.703  0.00  0.00    -0.002 A 
ATOM      8  C6  OXE d   1      -3.283  -1.286  -0.498  0.00  0.00     0.003 A 
ENDROOT
TORSDOF 0
ENDMDL
