MODEL 1
REMARK minimizedAffinity 17.9396248
REMARK minimizedRMSD -1
REMARK  0 active torsions:
REMARK  status: ('A' for Active; 'I' for Inactive)
ROOT
ATOM      1  C1  DEN d   1       2.132   4.891   3.828  0.00  0.00     0.130 A 
ATOM      2  C2  DEN d   1       1.309   5.462   4.890  0.00  0.00    -0.031 A 
ATOM      3  C3  DEN d   1       2.210   5.995   5.931  0.00  0.00     0.027 A 
ATOM      4  C4  DEN d   1       4.789   5.997   5.998  0.00  0.00     0.027 A 
ATOM      5  C5  DEN d   1       5.929   5.614   5.327  0.00  0.00    -0.003 A 
ATOM      6  C6  DEN d   1       5.884   4.939   4.136  0.00  0.00     0.001 A 
ATOM      7  C7  DEN d   1       4.674   4.666   3.556  0.00  0.00     0.017 A 
ATOM      8  C8  DEN d   1       3.519   5.042   4.230  0.00  0.00    -0.094 A 
ATOM      9  C9  DEN d   1       3.586   5.734   5.427  0.00  0.00    -0.072 A 
ENDROOT
TORSDOF 0
ENDMDL
