MODEL 1
REMARK minimizedAffinity 16.8115902
REMARK minimizedRMSD -1
REMARK  0 active torsions:
REMARK  status: ('A' for Active; 'I' for Inactive)
ROOT
ATOM      1  C1  DEN d   1      -4.567  -3.994   1.020  0.00  0.00     0.130 A 
ATOM      2  C2  DEN d   1      -5.450  -2.861   0.759  0.00  0.00    -0.031 A 
ATOM      3  C3  DEN d   1      -4.615  -1.722   0.326  0.00  0.00     0.027 A 
ATOM      4  C4  DEN d   1      -2.055  -1.605   0.034  0.00  0.00     0.027 A 
ATOM      5  C5  DEN d   1      -0.879  -2.313   0.148  0.00  0.00    -0.003 A 
ATOM      6  C6  DEN d   1      -0.846  -3.609   0.589  0.00  0.00     0.001 A 
ATOM      7  C7  DEN d   1      -2.017  -4.253   0.890  0.00  0.00     0.017 A 
ATOM      8  C8  DEN d   1      -3.207  -3.544   0.785  0.00  0.00    -0.094 A 
ATOM      9  C9  DEN d   1      -3.220  -2.238   0.325  0.00  0.00    -0.072 A 
ENDROOT
TORSDOF 0
ENDMDL
