MODEL 1
REMARK minimizedAffinity 8.47080898
REMARK minimizedRMSD -1
REMARK  0 active torsions:
REMARK  status: ('A' for Active; 'I' for Inactive)
ROOT
ATOM      1  C1  DEN d   1      -1.244  -4.881  -0.919  0.00  0.00     0.130 A 
ATOM      2  C2  DEN d   1      -1.111  -5.485   0.403  0.00  0.00    -0.031 A 
ATOM      3  C3  DEN d   1      -1.251  -4.415   1.411  0.00  0.00     0.027 A 
ATOM      4  C4  DEN d   1      -1.665  -1.894   1.054  0.00  0.00     0.027 A 
ATOM      5  C5  DEN d   1      -1.837  -0.908   0.108  0.00  0.00    -0.003 A 
ATOM      6  C6  DEN d   1      -1.791  -1.169  -1.236  0.00  0.00     0.001 A 
ATOM      7  C7  DEN d   1      -1.611  -2.455  -1.672  0.00  0.00     0.017 A 
ATOM      8  C8  DEN d   1      -1.429  -3.454  -0.724  0.00  0.00    -0.094 A 
ATOM      9  C9  DEN d   1      -1.492  -3.172   0.630  0.00  0.00    -0.072 A 
ENDROOT
TORSDOF 0
ENDMDL
