MODEL 1
REMARK minimizedAffinity 15.4624338
REMARK minimizedRMSD -1
REMARK  0 active torsions:
REMARK  status: ('A' for Active; 'I' for Inactive)
ROOT
ATOM      1  C1  DEN d   1      -1.742  -4.657   3.568  0.00  0.00     0.130 A 
ATOM      2  C2  DEN d   1      -2.662  -3.791   4.300  0.00  0.00    -0.031 A 
ATOM      3  C3  DEN d   1      -3.115  -2.726   3.383  0.00  0.00     0.027 A 
ATOM      4  C4  DEN d   1      -2.489  -2.339   0.911  0.00  0.00     0.027 A 
ATOM      5  C5  DEN d   1      -1.733  -2.806  -0.142  0.00  0.00    -0.003 A 
ATOM      6  C6  DEN d   1      -0.908  -3.893  -0.023  0.00  0.00     0.001 A 
ATOM      7  C7  DEN d   1      -0.854  -4.578   1.162  0.00  0.00     0.017 A 
ATOM      8  C8  DEN d   1      -1.607  -4.109   2.230  0.00  0.00    -0.094 A 
ATOM      9  C9  DEN d   1      -2.444  -3.015   2.087  0.00  0.00    -0.072 A 
ENDROOT
TORSDOF 0
ENDMDL
