MODEL 1
REMARK minimizedAffinity 16.3349705
REMARK minimizedRMSD -1
REMARK  0 active torsions:
REMARK  status: ('A' for Active; 'I' for Inactive)
ROOT
ATOM      1  C1  DEN d   1      -1.264  -2.553  -3.000  0.00  0.00     0.130 A 
ATOM      2  C2  DEN d   1      -1.853  -1.500  -3.822  0.00  0.00    -0.031 A 
ATOM      3  C3  DEN d   1      -2.625  -0.607  -2.935  0.00  0.00     0.027 A 
ATOM      4  C4  DEN d   1      -2.960  -0.750  -0.382  0.00  0.00     0.027 A 
ATOM      5  C5  DEN d   1      -2.665  -1.477   0.750  0.00  0.00    -0.003 A 
ATOM      6  C6  DEN d   1      -1.916  -2.623   0.707  0.00  0.00     0.001 A 
ATOM      7  C7  DEN d   1      -1.399  -3.051  -0.487  0.00  0.00     0.017 A 
ATOM      8  C8  DEN d   1      -1.699  -2.328  -1.634  0.00  0.00    -0.094 A 
ATOM      9  C9  DEN d   1      -2.447  -1.165  -1.568  0.00  0.00    -0.072 A 
ENDROOT
TORSDOF 0
ENDMDL
