MODEL 1
REMARK minimizedAffinity 7.19989777
REMARK minimizedRMSD -1
REMARK  0 active torsions:
REMARK  status: ('A' for Active; 'I' for Inactive)
ROOT
ATOM      1  C1  DEN d   1      -2.429  -2.375   1.693  0.00  0.00     0.130 A 
ATOM      2  C2  DEN d   1      -2.013  -1.904   0.375  0.00  0.00    -0.031 A 
ATOM      3  C3  DEN d   1      -1.118  -2.921  -0.212  0.00  0.00     0.027 A 
ATOM      4  C4  DEN d   1      -0.345  -5.171   0.784  0.00  0.00     0.027 A 
ATOM      5  C5  DEN d   1      -0.426  -6.000   1.881  0.00  0.00    -0.003 A 
ATOM      6  C6  DEN d   1      -1.147  -5.666   2.997  0.00  0.00     0.001 A 
ATOM      7  C7  DEN d   1      -1.852  -4.492   3.023  0.00  0.00     0.017 A 
ATOM      8  C8  DEN d   1      -1.770  -3.648   1.924  0.00  0.00    -0.094 A 
ATOM      9  C9  DEN d   1      -1.046  -4.009   0.800  0.00  0.00    -0.072 A 
ENDROOT
TORSDOF 0
ENDMDL
