MODEL 1
REMARK minimizedAffinity 6.46712065
REMARK minimizedRMSD -1
REMARK  0 active torsions:
REMARK  status: ('A' for Active; 'I' for Inactive)
ROOT
ATOM      1  C1  DEN d   1      -2.108  -1.330  -1.064  0.00  0.00     0.130 A 
ATOM      2  C2  DEN d   1      -2.718  -0.744   0.126  0.00  0.00    -0.031 A 
ATOM      3  C3  DEN d   1      -2.447  -1.641   1.267  0.00  0.00     0.027 A 
ATOM      4  C4  DEN d   1      -1.147  -3.868   1.307  0.00  0.00     0.027 A 
ATOM      5  C5  DEN d   1      -0.455  -4.778   0.539  0.00  0.00    -0.003 A 
ATOM      6  C6  DEN d   1      -0.295  -4.621  -0.812  0.00  0.00     0.001 A 
ATOM      7  C7  DEN d   1      -0.797  -3.506  -1.430  0.00  0.00     0.017 A 
ATOM      8  C8  DEN d   1      -1.502  -2.588  -0.663  0.00  0.00    -0.094 A 
ATOM      9  C9  DEN d   1      -1.642  -2.758   0.704  0.00  0.00    -0.072 A 
ENDROOT
TORSDOF 0
ENDMDL
