MODEL 1
REMARK minimizedAffinity 14.9917278
REMARK minimizedRMSD -1
REMARK  0 active torsions:
REMARK  status: ('A' for Active; 'I' for Inactive)
ROOT
ATOM      1  C1  DEN d   1      -5.591   1.398   5.999  0.00  0.00     0.130 A 
ATOM      2  C2  DEN d   1      -4.981   2.725   6.000  0.00  0.00    -0.031 A 
ATOM      3  C3  DEN d   1      -3.516   2.555   5.925  0.00  0.00     0.027 A 
ATOM      4  C4  DEN d   1      -2.140   0.377   5.803  0.00  0.00     0.027 A 
ATOM      5  C5  DEN d   1      -2.214  -0.998   5.786  0.00  0.00    -0.003 A 
ATOM      6  C6  DEN d   1      -3.407  -1.666   5.873  0.00  0.00     0.001 A 
ATOM      7  C7  DEN d   1      -4.578  -0.959   5.935  0.00  0.00     0.017 A 
ATOM      8  C8  DEN d   1      -4.511   0.428   5.960  0.00  0.00    -0.094 A 
ATOM      9  C9  DEN d   1      -3.296   1.085   5.859  0.00  0.00    -0.072 A 
ENDROOT
TORSDOF 0
ENDMDL
