MODEL 1
REMARK minimizedAffinity 9.49401093
REMARK minimizedRMSD -1
REMARK  0 active torsions:
REMARK  status: ('A' for Active; 'I' for Inactive)
ROOT
ATOM      1  C1  DEN d   1      -3.745   2.836   5.951  0.00  0.00     0.130 A 
ATOM      2  C2  DEN d   1      -5.134   3.284   6.000  0.00  0.00    -0.031 A 
ATOM      3  C3  DEN d   1      -6.000   2.087   6.000  0.00  0.00     0.027 A 
ATOM      4  C4  DEN d   1      -5.327  -0.402   5.935  0.00  0.00     0.027 A 
ATOM      5  C5  DEN d   1      -4.265  -1.276   5.876  0.00  0.00    -0.003 A 
ATOM      6  C6  DEN d   1      -2.967  -0.845   5.805  0.00  0.00     0.001 A 
ATOM      7  C7  DEN d   1      -2.695   0.497   5.836  0.00  0.00     0.017 A 
ATOM      8  C8  DEN d   1      -3.761   1.386   5.887  0.00  0.00    -0.094 A 
ATOM      9  C9  DEN d   1      -5.066   0.929   5.972  0.00  0.00    -0.072 A 
ENDROOT
TORSDOF 0
ENDMDL
