MODEL 1
REMARK minimizedAffinity 8.14294338
REMARK minimizedRMSD -1
REMARK  0 active torsions:
REMARK  status: ('A' for Active; 'I' for Inactive)
ROOT
ATOM      1  C1  DEN d   1      -2.806   3.112  -5.720  0.00  0.00     0.130 A 
ATOM      2  C2  DEN d   1      -1.645   3.472  -4.910  0.00  0.00    -0.031 A 
ATOM      3  C3  DEN d   1      -2.008   4.644  -4.088  0.00  0.00     0.027 A 
ATOM      4  C4  DEN d   1      -4.244   5.927  -3.989  0.00  0.00     0.027 A 
ATOM      5  C5  DEN d   1      -5.520   6.000  -4.503  0.00  0.00    -0.003 A 
ATOM      6  C6  DEN d   1      -5.966   5.144  -5.475  0.00  0.00     0.001 A 
ATOM      7  C7  DEN d   1      -5.143   4.148  -5.932  0.00  0.00     0.017 A 
ATOM      8  C8  DEN d   1      -3.853   4.073  -5.424  0.00  0.00    -0.094 A 
ATOM      9  C9  DEN d   1      -3.425   4.940  -4.433  0.00  0.00    -0.072 A 
ENDROOT
TORSDOF 0
ENDMDL
