MODEL 1
REMARK minimizedAffinity 13.3134317
REMARK minimizedRMSD -1
REMARK  0 active torsions:
REMARK  status: ('A' for Active; 'I' for Inactive)
ROOT
ATOM      1  C1  DEN d   1      -4.135   3.485   0.145  0.00  0.00     0.130 A 
ATOM      2  C2  DEN d   1      -5.122   3.975   1.103  0.00  0.00    -0.031 A 
ATOM      3  C3  DEN d   1      -5.895   5.052   0.453  0.00  0.00     0.027 A 
ATOM      4  C4  DEN d   1      -5.664   6.000  -1.935  0.00  0.00     0.027 A 
ATOM      5  C5  DEN d   1      -4.959   5.911  -3.115  0.00  0.00    -0.003 A 
ATOM      6  C6  DEN d   1      -3.916   5.038  -3.278  0.00  0.00     0.001 A 
ATOM      7  C7  DEN d   1      -3.577   4.187  -2.260  0.00  0.00     0.017 A 
ATOM      8  C8  DEN d   1      -4.279   4.276  -1.064  0.00  0.00    -0.094 A 
ATOM      9  C9  DEN d   1      -5.338   5.156  -0.923  0.00  0.00    -0.072 A 
ENDROOT
TORSDOF 0
ENDMDL
