MODEL 1
REMARK minimizedAffinity 16.388773
REMARK minimizedRMSD -1
REMARK  0 active torsions:
REMARK  status: ('A' for Active; 'I' for Inactive)
ROOT
ATOM      1  C1  DEN d   1      -3.447  -0.969   5.741  0.00  0.00     0.130 A 
ATOM      2  C2  DEN d   1      -2.027  -0.656   5.615  0.00  0.00    -0.031 A 
ATOM      3  C3  DEN d   1      -1.879   0.813   5.637  0.00  0.00     0.027 A 
ATOM      4  C4  DEN d   1      -3.702   2.624   5.860  0.00  0.00     0.027 A 
ATOM      5  C5  DEN d   1      -5.056   2.844   5.983  0.00  0.00    -0.003 A 
ATOM      6  C6  DEN d   1      -5.964   1.819   5.999  0.00  0.00     0.001 A 
ATOM      7  C7  DEN d   1      -5.526   0.523   5.936  0.00  0.00     0.017 A 
ATOM      8  C8  DEN d   1      -4.163   0.293   5.805  0.00  0.00    -0.094 A 
ATOM      9  C9  DEN d   1      -3.259   1.342   5.803  0.00  0.00    -0.072 A 
ENDROOT
TORSDOF 0
ENDMDL
