MODEL 1
REMARK minimizedAffinity 11.1397696
REMARK minimizedRMSD -1
REMARK  0 active torsions:
REMARK  status: ('A' for Active; 'I' for Inactive)
ROOT
ATOM      1  C1  DEN d   1      -2.036  -2.099   1.434  0.00  0.00     0.130 A 
ATOM      2  C2  DEN d   1      -1.673  -1.529   0.139  0.00  0.00    -0.031 A 
ATOM      3  C3  DEN d   1      -1.030  -2.589  -0.663  0.00  0.00     0.027 A 
ATOM      4  C4  DEN d   1      -0.568  -5.047  -0.030  0.00  0.00     0.027 A 
ATOM      5  C5  DEN d   1      -0.686  -5.990   0.966  0.00  0.00    -0.003 A 
ATOM      6  C6  DEN d   1      -1.226  -5.697   2.190  0.00  0.00     0.001 A 
ATOM      7  C7  DEN d   1      -1.711  -4.439   2.434  0.00  0.00     0.017 A 
ATOM      8  C8  DEN d   1      -1.589  -3.480   1.437  0.00  0.00    -0.094 A 
ATOM      9  C9  DEN d   1      -1.051  -3.800   0.202  0.00  0.00    -0.072 A 
ENDROOT
TORSDOF 0
ENDMDL
