MODEL 1
REMARK minimizedAffinity 10.7954159
REMARK minimizedRMSD -1
REMARK  0 active torsions:
REMARK  status: ('A' for Active; 'I' for Inactive)
ROOT
ATOM      1  C1  DEN d   1       4.667   0.225  -3.673  0.00  0.00     0.130 A 
ATOM      2  C2  DEN d   1       5.960   0.904  -3.683  0.00  0.00    -0.031 A 
ATOM      3  C3  DEN d   1       5.999   1.828  -2.531  0.00  0.00     0.027 A 
ATOM      4  C4  DEN d   1       4.194   2.267  -0.741  0.00  0.00     0.027 A 
ATOM      5  C5  DEN d   1       2.924   1.936  -0.323  0.00  0.00    -0.003 A 
ATOM      6  C6  DEN d   1       2.140   1.044  -1.005  0.00  0.00     0.001 A 
ATOM      7  C7  DEN d   1       2.635   0.418  -2.119  0.00  0.00     0.017 A 
ATOM      8  C8  DEN d   1       3.911   0.752  -2.551  0.00  0.00    -0.094 A 
ATOM      9  C9  DEN d   1       4.693   1.647  -1.840  0.00  0.00    -0.072 A 
ENDROOT
TORSDOF 0
ENDMDL
