MODEL 1
REMARK minimizedAffinity 10.683322
REMARK minimizedRMSD -1
REMARK  0 active torsions:
REMARK  status: ('A' for Active; 'I' for Inactive)
ROOT
ATOM      1  C1  DEN d   1      -1.539  -0.845   5.131  0.00  0.00     0.130 A 
ATOM      2  C2  DEN d   1      -1.865  -2.261   5.276  0.00  0.00    -0.031 A 
ATOM      3  C3  DEN d   1      -3.291  -2.365   5.646  0.00  0.00     0.027 A 
ATOM      4  C4  DEN d   1      -5.018  -0.482   6.000  0.00  0.00     0.027 A 
ATOM      5  C5  DEN d   1      -5.206   0.882   6.000  0.00  0.00    -0.003 A 
ATOM      6  C6  DEN d   1      -4.187   1.760   5.746  0.00  0.00     0.001 A 
ATOM      7  C7  DEN d   1      -2.941   1.282   5.436  0.00  0.00     0.017 A 
ATOM      8  C8  DEN d   1      -2.741  -0.092   5.442  0.00  0.00    -0.094 A 
ATOM      9  C9  DEN d   1      -3.788  -0.964   5.689  0.00  0.00    -0.072 A 
ENDROOT
TORSDOF 0
ENDMDL
