MODEL 1
REMARK minimizedAffinity 4.06891251
REMARK minimizedRMSD -1
REMARK  0 active torsions:
REMARK  status: ('A' for Active; 'I' for Inactive)
ROOT
ATOM      1  C1  DEN d   1      -4.787   6.000  -4.529  0.00  0.00     0.130 A 
ATOM      2  C2  DEN d   1      -6.000   5.832  -5.326  0.00  0.00    -0.031 A 
ATOM      3  C3  DEN d   1      -5.928   4.518  -5.996  0.00  0.00     0.027 A 
ATOM      4  C4  DEN d   1      -4.069   2.734  -5.873  0.00  0.00     0.027 A 
ATOM      5  C5  DEN d   1      -2.838   2.430  -5.334  0.00  0.00    -0.003 A 
ATOM      6  C6  DEN d   1      -2.161   3.302  -4.524  0.00  0.00     0.001 A 
ATOM      7  C7  DEN d   1      -2.731   4.503  -4.191  0.00  0.00     0.017 A 
ATOM      8  C8  DEN d   1      -3.969   4.819  -4.737  0.00  0.00    -0.094 A 
ATOM      9  C9  DEN d   1      -4.643   3.919  -5.544  0.00  0.00    -0.072 A 
ENDROOT
TORSDOF 0
ENDMDL
