MODEL 1
REMARK minimizedAffinity 8.73865795
REMARK minimizedRMSD -1
REMARK  0 active torsions:
REMARK  status: ('A' for Active; 'I' for Inactive)
ROOT
ATOM      1  C1  DEN d   1      -2.991  -1.460   0.519  0.00  0.00     0.130 A 
ATOM      2  C2  DEN d   1      -4.323  -0.879   0.367  0.00  0.00    -0.031 A 
ATOM      3  C3  DEN d   1      -4.374  -0.190  -0.938  0.00  0.00     0.027 A 
ATOM      4  C4  DEN d   1      -2.532   0.030  -2.730  0.00  0.00     0.027 A 
ATOM      5  C5  DEN d   1      -1.229  -0.286  -3.046  0.00  0.00    -0.003 A 
ATOM      6  C6  DEN d   1      -0.418  -0.981  -2.188  0.00  0.00     0.001 A 
ATOM      7  C7  DEN d   1      -0.917  -1.422  -0.990  0.00  0.00     0.017 A 
ATOM      8  C8  DEN d   1      -2.227  -1.100  -0.662  0.00  0.00    -0.094 A 
ATOM      9  C9  DEN d   1      -3.034  -0.407  -1.548  0.00  0.00    -0.072 A 
ENDROOT
TORSDOF 0
ENDMDL
