MODEL 1
REMARK minimizedAffinity 4.91310453
REMARK minimizedRMSD -1
REMARK  0 active torsions:
REMARK  status: ('A' for Active; 'I' for Inactive)
ROOT
ATOM      1  C1  DEN d   1       0.536   1.880  -3.406  0.00  0.00     0.130 A 
ATOM      2  C2  DEN d   1       1.661   1.457  -2.576  0.00  0.00    -0.031 A 
ATOM      3  C3  DEN d   1       1.213   0.325  -1.741  0.00  0.00     0.027 A 
ATOM      4  C4  DEN d   1      -1.101  -0.813  -1.658  0.00  0.00     0.027 A 
ATOM      5  C5  DEN d   1      -2.379  -0.797  -2.170  0.00  0.00    -0.003 A 
ATOM      6  C6  DEN d   1      -2.782   0.127  -3.098  0.00  0.00     0.001 A 
ATOM      7  C7  DEN d   1      -1.884   1.045  -3.576  0.00  0.00     0.017 A 
ATOM      8  C8  DEN d   1      -0.595   1.039  -3.059  0.00  0.00    -0.094 A 
ATOM      9  C9  DEN d   1      -0.204   0.090  -2.130  0.00  0.00    -0.072 A 
ENDROOT
TORSDOF 0
ENDMDL
