MODEL 1
REMARK minimizedAffinity -3.31641912
REMARK minimizedRMSD -1
REMARK  1 active torsions:
REMARK  status: ('A' for Active; 'I' for Inactive)
REMARK    1  A    between atoms: C1_2  and  C2_3 
ROOT
ATOM      1  C2  UNL d   1       0.251  -1.089  -2.034  0.00  0.00    -0.081 A 
ATOM      2  C3  UNL d   1       0.042   0.258  -1.717  0.00  0.00     0.006 A 
ATOM      3  C4  UNL d   1      -0.034   0.669  -0.384  0.00  0.00     0.002 A 
ATOM      4  C5  UNL d   1       0.106  -0.259   0.653  0.00  0.00    -0.080 A 
ATOM      5  C6  UNL d   1       0.057   0.173   2.089  0.00  0.00     0.076 C 
ATOM      6  C7  UNL d   1       0.298  -1.608   0.337  0.00  0.00     0.002 A 
ATOM      7  C8  UNL d   1       0.373  -2.019  -0.996  0.00  0.00     0.006 A 
ENDROOT
BRANCH   1   8
ATOM      8  C1  UNL d   1       0.398  -1.525  -3.470  0.00  0.00     0.054 C 
ATOM      9  C   UNL d   1       1.550  -2.506  -3.635  0.00  0.00     0.018 C 
ENDBRANCH   1   8
TORSDOF 1
ENDMDL
