MODEL 1
REMARK minimizedAffinity -3.70169806
REMARK minimizedRMSD -1
REMARK  1 active torsions:
REMARK  status: ('A' for Active; 'I' for Inactive)
REMARK    1  A    between atoms: C1_2  and  C2_3 
ROOT
ATOM      1  C2  UNL d   1       0.372   0.084  -1.132  0.00  0.00    -0.081 A 
ATOM      2  C3  UNL d   1       1.406   0.311  -0.216  0.00  0.00     0.006 A 
ATOM      3  C4  UNL d   1       1.178   0.183   1.156  0.00  0.00     0.002 A 
ATOM      4  C5  UNL d   1      -0.086  -0.180   1.634  0.00  0.00    -0.080 A 
ATOM      5  C6  UNL d   1      -0.337  -0.350   3.103  0.00  0.00     0.076 C 
ATOM      6  C7  UNL d   1      -1.124  -0.390   0.720  0.00  0.00     0.002 A 
ATOM      7  C8  UNL d   1      -0.896  -0.262  -0.652  0.00  0.00     0.006 A 
ENDROOT
BRANCH   1   8
ATOM      8  C1  UNL d   1       0.632   0.157  -2.615  0.00  0.00     0.054 C 
ATOM      9  C   UNL d   1       1.461  -1.028  -3.091  0.00  0.00     0.018 C 
ENDBRANCH   1   8
TORSDOF 1
ENDMDL
