MODEL 1
REMARK minimizedAffinity -5.32100439
REMARK minimizedRMSD -1
REMARK  1 active torsions:
REMARK  status: ('A' for Active; 'I' for Inactive)
REMARK    1  A    between atoms: C1_2  and  C2_3 
ROOT
ATOM      1  C2  UNL d   1       0.659  -0.303  -0.825  0.00  0.00    -0.081 A 
ATOM      2  C3  UNL d   1       1.360   0.449   0.125  0.00  0.00     0.006 A 
ATOM      3  C4  UNL d   1       0.991   0.411   1.471  0.00  0.00     0.002 A 
ATOM      4  C5  UNL d   1      -0.080  -0.386   1.891  0.00  0.00    -0.080 A 
ATOM      5  C6  UNL d   1      -0.467  -0.460   3.338  0.00  0.00     0.076 C 
ATOM      6  C7  UNL d   1      -0.791  -1.124   0.940  0.00  0.00     0.002 A 
ATOM      7  C8  UNL d   1      -0.423  -1.086  -0.407  0.00  0.00     0.006 A 
ENDROOT
BRANCH   1   8
ATOM      8  C1  UNL d   1       1.095  -0.314  -2.268  0.00  0.00     0.054 C 
ATOM      9  C   UNL d   1       1.230  -1.736  -2.795  0.00  0.00     0.018 C 
ENDBRANCH   1   8
TORSDOF 1
ENDMDL
