MODEL 1
REMARK minimizedAffinity -5.00528383
REMARK minimizedRMSD -1
REMARK  1 active torsions:
REMARK  status: ('A' for Active; 'I' for Inactive)
REMARK    1  A    between atoms: C1_2  and  C2_3 
ROOT
ATOM      1  C2  UNL d   1       0.869  -0.071  -1.411  0.00  0.00    -0.081 A 
ATOM      2  C3  UNL d   1       1.651   0.653  -0.503  0.00  0.00     0.006 A 
ATOM      3  C4  UNL d   1       1.311   0.691   0.852  0.00  0.00     0.002 A 
ATOM      4  C5  UNL d   1       0.188   0.001   1.321  0.00  0.00    -0.080 A 
ATOM      5  C6  UNL d   1      -0.171   0.009   2.777  0.00  0.00     0.076 C 
ATOM      6  C7  UNL d   1      -0.604  -0.708   0.411  0.00  0.00     0.002 A 
ATOM      7  C8  UNL d   1      -0.264  -0.746  -0.943  0.00  0.00     0.006 A 
ENDROOT
BRANCH   1   8
ATOM      8  C1  UNL d   1       1.270  -0.167  -2.861  0.00  0.00     0.054 C 
ATOM      9  C   UNL d   1       1.208  -1.604  -3.358  0.00  0.00     0.018 C 
ENDBRANCH   1   8
TORSDOF 1
ENDMDL
