MODEL 1
REMARK minimizedAffinity -5.05843067
REMARK minimizedRMSD -1
REMARK  1 active torsions:
REMARK  status: ('A' for Active; 'I' for Inactive)
REMARK    1  A    between atoms: C1_2  and  C2_3 
ROOT
ATOM      1  C2  UNL d   1      -1.394   0.513   1.741  0.00  0.00    -0.081 A 
ATOM      2  C3  UNL d   1      -0.196  -0.211   1.738  0.00  0.00     0.006 A 
ATOM      3  C4  UNL d   1       0.423  -0.551   0.532  0.00  0.00     0.002 A 
ATOM      4  C5  UNL d   1      -0.141  -0.166  -0.689  0.00  0.00    -0.080 A 
ATOM      5  C6  UNL d   1       0.529  -0.498  -1.989  0.00  0.00     0.076 C 
ATOM      6  C7  UNL d   1      -1.347   0.543  -0.686  0.00  0.00     0.002 A 
ATOM      7  C8  UNL d   1      -1.967   0.882   0.518  0.00  0.00     0.006 A 
ENDROOT
BRANCH   1   8
ATOM      8  C1  UNL d   1      -2.030   0.937   3.040  0.00  0.00     0.054 C 
ATOM      9  C   UNL d   1      -2.854   2.205   2.865  0.00  0.00     0.018 C 
ENDBRANCH   1   8
TORSDOF 1
ENDMDL
