MODEL 1
REMARK minimizedAffinity -1.60250247
REMARK minimizedRMSD -1
REMARK  1 active torsions:
REMARK  status: ('A' for Active; 'I' for Inactive)
REMARK    1  A    between atoms: C1_2  and  C2_3 
ROOT
ATOM      1  C2  UNL d   1       0.107  -0.339  -1.473  0.00  0.00    -0.081 A 
ATOM      2  C3  UNL d   1       1.226  -0.153  -0.652  0.00  0.00     0.006 A 
ATOM      3  C4  UNL d   1       1.088  -0.119   0.737  0.00  0.00     0.002 A 
ATOM      4  C5  UNL d   1      -0.170  -0.278   1.329  0.00  0.00    -0.080 A 
ATOM      5  C6  UNL d   1      -0.328  -0.274   2.821  0.00  0.00     0.076 C 
ATOM      6  C7  UNL d   1      -1.291  -0.447   0.509  0.00  0.00     0.002 A 
ATOM      7  C8  UNL d   1      -1.153  -0.480  -0.880  0.00  0.00     0.006 A 
ENDROOT
BRANCH   1   8
ATOM      8  C1  UNL d   1       0.262  -0.440  -2.969  0.00  0.00     0.054 C 
ATOM      9  C   UNL d   1       1.544  -1.169  -3.344  0.00  0.00     0.018 C 
ENDBRANCH   1   8
TORSDOF 1
ENDMDL
