MODEL 1
REMARK minimizedAffinity -4.59819317
REMARK minimizedRMSD -1
REMARK  1 active torsions:
REMARK  status: ('A' for Active; 'I' for Inactive)
REMARK    1  A    between atoms: C1_2  and  C2_3 
ROOT
ATOM      1  C2  UNL d   1       0.586   0.101  -0.549  0.00  0.00    -0.081 A 
ATOM      2  C3  UNL d   1       1.341   0.335   0.607  0.00  0.00     0.006 A 
ATOM      3  C4  UNL d   1       0.791   0.105   1.871  0.00  0.00     0.002 A 
ATOM      4  C5  UNL d   1      -0.518  -0.370   1.999  0.00  0.00    -0.080 A 
ATOM      5  C6  UNL d   1      -1.110  -0.651   3.349  0.00  0.00     0.076 C 
ATOM      6  C7  UNL d   1      -1.279  -0.588   0.845  0.00  0.00     0.002 A 
ATOM      7  C8  UNL d   1      -0.730  -0.357  -0.419  0.00  0.00     0.006 A 
ENDROOT
BRANCH   1   8
ATOM      8  C1  UNL d   1       1.197   0.286  -1.914  0.00  0.00     0.054 C 
ATOM      9  C   UNL d   1       1.114  -0.992  -2.736  0.00  0.00     0.018 C 
ENDBRANCH   1   8
TORSDOF 1
ENDMDL
