MODEL 1
REMARK minimizedAffinity -5.56381035
REMARK minimizedRMSD -1
REMARK  1 active torsions:
REMARK  status: ('A' for Active; 'I' for Inactive)
REMARK    1  A    between atoms: C1_2  and  C2_3 
ROOT
ATOM      1  C2  UNL d   1       0.448  -0.231  -0.800  0.00  0.00    -0.081 A 
ATOM      2  C3  UNL d   1       1.413  -0.090   0.204  0.00  0.00     0.006 A 
ATOM      3  C4  UNL d   1       1.050  -0.165   1.551  0.00  0.00     0.002 A 
ATOM      4  C5  UNL d   1      -0.281  -0.391   1.916  0.00  0.00    -0.080 A 
ATOM      5  C6  UNL d   1      -0.679  -0.504   3.357  0.00  0.00     0.076 C 
ATOM      6  C7  UNL d   1      -1.249  -0.515   0.913  0.00  0.00     0.002 A 
ATOM      7  C8  UNL d   1      -0.887  -0.439  -0.434  0.00  0.00     0.006 A 
ENDROOT
BRANCH   1   8
ATOM      8  C1  UNL d   1       0.846  -0.215  -2.254  0.00  0.00     0.054 C 
ATOM      9  C   UNL d   1       1.101  -1.623  -2.774  0.00  0.00     0.018 C 
ENDBRANCH   1   8
TORSDOF 1
ENDMDL
