MODEL 1
REMARK minimizedAffinity -3.24164462
REMARK minimizedRMSD -1
REMARK  1 active torsions:
REMARK  status: ('A' for Active; 'I' for Inactive)
REMARK    1  A    between atoms: C1_2  and  C2_3 
ROOT
ATOM      1  C2  UNL d   1       0.138   0.337  -0.923  0.00  0.00    -0.081 A 
ATOM      2  C3  UNL d   1       1.268   0.239  -0.102  0.00  0.00     0.006 A 
ATOM      3  C4  UNL d   1       1.128   0.099   1.281  0.00  0.00     0.002 A 
ATOM      4  C5  UNL d   1      -0.142   0.046   1.864  0.00  0.00    -0.080 A 
ATOM      5  C6  UNL d   1      -0.306  -0.134   3.344  0.00  0.00     0.076 C 
ATOM      6  C7  UNL d   1      -1.271   0.161   1.045  0.00  0.00     0.002 A 
ATOM      7  C8  UNL d   1      -1.131   0.302  -0.337  0.00  0.00     0.006 A 
ENDROOT
BRANCH   1   8
ATOM      8  C1  UNL d   1       0.285   0.423  -2.421  0.00  0.00     0.054 C 
ATOM      9  C   UNL d   1       1.239  -0.641  -2.946  0.00  0.00     0.018 C 
ENDBRANCH   1   8
TORSDOF 1
ENDMDL
