MODEL 1
REMARK minimizedAffinity -4.5917964
REMARK minimizedRMSD -1
REMARK  0 active torsions:
REMARK  status: ('A' for Active; 'I' for Inactive)
ROOT
ATOM      1  C   UNL d   1      -1.416  -1.033   3.127  0.00  0.00     0.077 C 
ATOM      2  C1  UNL d   1      -0.471  -0.557   2.064  0.00  0.00    -0.074 A 
ATOM      3  C2  UNL d   1       0.778  -0.024   2.400  0.00  0.00    -0.005 A 
ATOM      4  C3  UNL d   1       1.651   0.406   1.400  0.00  0.00     0.006 A 
ATOM      5  C4  UNL d   1       1.284   0.307   0.057  0.00  0.00    -0.005 A 
ATOM      6  C5  UNL d   1       0.040  -0.225  -0.297  0.00  0.00    -0.074 A 
ATOM      7  C6  UNL d   1      -0.365  -0.347  -1.736  0.00  0.00     0.077 C 
ATOM      8  C7  UNL d   1      -0.828  -0.661   0.713  0.00  0.00    -0.001 A 
ENDROOT
TORSDOF 0
ENDMDL
