MODEL 1
REMARK minimizedAffinity -4.64820719
REMARK minimizedRMSD -1
REMARK  0 active torsions:
REMARK  status: ('A' for Active; 'I' for Inactive)
ROOT
ATOM      1  C   UNL d   1       0.426   1.877   3.263  0.00  0.00     0.077 C 
ATOM      2  C1  UNL d   1       0.288   0.600   2.488  0.00  0.00    -0.074 A 
ATOM      3  C2  UNL d   1      -0.229  -0.553   3.089  0.00  0.00    -0.005 A 
ATOM      4  C3  UNL d   1      -0.360  -1.730   2.353  0.00  0.00     0.006 A 
ATOM      5  C4  UNL d   1       0.024  -1.768   1.012  0.00  0.00    -0.005 A 
ATOM      6  C5  UNL d   1       0.542  -0.625   0.395  0.00  0.00    -0.074 A 
ATOM      7  C6  UNL d   1       0.951  -0.645  -1.048  0.00  0.00     0.077 C 
ATOM      8  C7  UNL d   1       0.664   0.557   1.139  0.00  0.00    -0.001 A 
ENDROOT
TORSDOF 0
ENDMDL
