MODEL 1
REMARK minimizedAffinity -3.44335508
REMARK minimizedRMSD -1
REMARK  0 active torsions:
REMARK  status: ('A' for Active; 'I' for Inactive)
ROOT
ATOM      1  C   UNL d   1      -0.795  -0.010  -1.290  0.00  0.00     0.077 C 
ATOM      2  C1  UNL d   1       0.015  -0.092  -0.030  0.00  0.00    -0.074 A 
ATOM      3  C2  UNL d   1       1.389   0.170  -0.040  0.00  0.00    -0.005 A 
ATOM      4  C3  UNL d   1       2.127   0.099   1.141  0.00  0.00     0.006 A 
ATOM      5  C4  UNL d   1       1.500  -0.234   2.342  0.00  0.00    -0.005 A 
ATOM      6  C5  UNL d   1       0.127  -0.498   2.372  0.00  0.00    -0.074 A 
ATOM      7  C6  UNL d   1      -0.564  -0.848   3.657  0.00  0.00     0.077 C 
ATOM      8  C7  UNL d   1      -0.609  -0.418   1.182  0.00  0.00    -0.001 A 
ENDROOT
TORSDOF 0
ENDMDL
