MODEL 1
REMARK minimizedAffinity -4.86164379
REMARK minimizedRMSD -1
REMARK  0 active torsions:
REMARK  status: ('A' for Active; 'I' for Inactive)
ROOT
ATOM      1  C   UNL d   1       1.038  -0.152  -2.232  0.00  0.00     0.077 C 
ATOM      2  C1  UNL d   1       0.209  -0.035  -0.988  0.00  0.00    -0.074 A 
ATOM      3  C2  UNL d   1      -1.127   0.375  -1.051  0.00  0.00    -0.005 A 
ATOM      4  C3  UNL d   1      -1.889   0.470   0.114  0.00  0.00     0.006 A 
ATOM      5  C4  UNL d   1      -1.324   0.157   1.351  0.00  0.00    -0.005 A 
ATOM      6  C5  UNL d   1       0.010  -0.256   1.433  0.00  0.00    -0.074 A 
ATOM      7  C6  UNL d   1       0.629  -0.607   2.753  0.00  0.00     0.077 C 
ATOM      8  C7  UNL d   1       0.767  -0.356   0.257  0.00  0.00    -0.001 A 
ENDROOT
TORSDOF 0
ENDMDL
