MODEL 1
REMARK minimizedAffinity -5.01939201
REMARK minimizedRMSD -1
REMARK  0 active torsions:
REMARK  status: ('A' for Active; 'I' for Inactive)
ROOT
ATOM      1  C   UNL d   1       1.590   0.370   1.064  0.00  0.00     0.077 C 
ATOM      2  C1  UNL d   1       0.271   0.200   1.756  0.00  0.00    -0.074 A 
ATOM      3  C2  UNL d   1       0.204   0.021   3.142  0.00  0.00    -0.005 A 
ATOM      4  C3  UNL d   1      -1.031  -0.126   3.773  0.00  0.00     0.006 A 
ATOM      5  C4  UNL d   1      -2.209  -0.096   3.027  0.00  0.00    -0.005 A 
ATOM      6  C5  UNL d   1      -2.162   0.083   1.641  0.00  0.00    -0.074 A 
ATOM      7  C6  UNL d   1      -3.420   0.128   0.825  0.00  0.00     0.077 C 
ATOM      8  C7  UNL d   1      -0.918   0.237   1.015  0.00  0.00    -0.001 A 
ENDROOT
TORSDOF 0
ENDMDL
