MODEL 1
REMARK minimizedAffinity -1.64620054
REMARK minimizedRMSD -1
REMARK  0 active torsions:
REMARK  status: ('A' for Active; 'I' for Inactive)
ROOT
ATOM      1  C   UNL d   1       0.975   0.367  -2.847  0.00  0.00     0.077 C 
ATOM      2  C1  UNL d   1      -0.018   0.361  -1.723  0.00  0.00    -0.074 A 
ATOM      3  C2  UNL d   1      -1.334   0.790  -1.925  0.00  0.00    -0.005 A 
ATOM      4  C3  UNL d   1      -2.249   0.771  -0.873  0.00  0.00     0.006 A 
ATOM      5  C4  UNL d   1      -1.859   0.323   0.390  0.00  0.00    -0.005 A 
ATOM      6  C5  UNL d   1      -0.548  -0.111   0.610  0.00  0.00    -0.074 A 
ATOM      7  C6  UNL d   1      -0.114  -0.605   1.958  0.00  0.00     0.077 C 
ATOM      8  C7  UNL d   1       0.364  -0.095  -0.454  0.00  0.00    -0.001 A 
ENDROOT
TORSDOF 0
ENDMDL
