MODEL 1
REMARK minimizedAffinity -1.16478491
REMARK minimizedRMSD -1
REMARK  0 active torsions:
REMARK  status: ('A' for Active; 'I' for Inactive)
ROOT
ATOM      1  C   UNL d   1      -1.494  -1.015   3.017  0.00  0.00     0.077 C 
ATOM      2  C1  UNL d   1      -0.473  -0.392   2.113  0.00  0.00    -0.074 A 
ATOM      3  C2  UNL d   1       0.564   0.391   2.631  0.00  0.00    -0.005 A 
ATOM      4  C3  UNL d   1       1.512   0.956   1.779  0.00  0.00     0.006 A 
ATOM      5  C4  UNL d   1       1.435   0.745   0.402  0.00  0.00    -0.005 A 
ATOM      6  C5  UNL d   1       0.406  -0.036  -0.134  0.00  0.00    -0.074 A 
ATOM      7  C6  UNL d   1       0.314  -0.282  -1.611  0.00  0.00     0.077 C 
ATOM      8  C7  UNL d   1      -0.539  -0.606   0.729  0.00  0.00    -0.001 A 
ENDROOT
TORSDOF 0
ENDMDL
