MODEL 1
REMARK minimizedAffinity -2.82374477
REMARK minimizedRMSD -1
REMARK  0 active torsions:
REMARK  status: ('A' for Active; 'I' for Inactive)
ROOT
ATOM      1  C   UNL d   1      -2.082  -0.853   1.720  0.00  0.00     0.077 C 
ATOM      2  C1  UNL d   1      -1.091  -0.258   0.764  0.00  0.00    -0.074 A 
ATOM      3  C2  UNL d   1      -1.438  -0.008  -0.568  0.00  0.00    -0.005 A 
ATOM      4  C3  UNL d   1      -0.509   0.554  -1.443  0.00  0.00     0.006 A 
ATOM      5  C4  UNL d   1       0.774   0.872  -0.997  0.00  0.00    -0.005 A 
ATOM      6  C5  UNL d   1       1.139   0.630   0.332  0.00  0.00    -0.074 A 
ATOM      7  C6  UNL d   1       2.511   0.975   0.830  0.00  0.00     0.077 C 
ATOM      8  C7  UNL d   1       0.198   0.071   1.207  0.00  0.00    -0.001 A 
ENDROOT
TORSDOF 0
ENDMDL
