MODEL 1
REMARK minimizedAffinity -2.73819327
REMARK minimizedRMSD -1
REMARK  0 active torsions:
REMARK  status: ('A' for Active; 'I' for Inactive)
ROOT
ATOM      1  C   UNL d   1       1.145  -0.269  -2.181  0.00  0.00     0.077 C 
ATOM      2  C1  UNL d   1       0.289  -0.151  -0.956  0.00  0.00    -0.074 A 
ATOM      3  C2  UNL d   1      -1.078   0.127  -1.058  0.00  0.00    -0.005 A 
ATOM      4  C3  UNL d   1      -1.864   0.224   0.090  0.00  0.00     0.006 A 
ATOM      5  C4  UNL d   1      -1.292   0.044   1.350  0.00  0.00    -0.005 A 
ATOM      6  C5  UNL d   1       0.073  -0.235   1.472  0.00  0.00    -0.074 A 
ATOM      7  C6  UNL d   1       0.701  -0.441   2.818  0.00  0.00     0.077 C 
ATOM      8  C7  UNL d   1       0.854  -0.338   0.313  0.00  0.00    -0.001 A 
ENDROOT
TORSDOF 0
ENDMDL
