MODEL 1
REMARK minimizedAffinity -4.62678814
REMARK minimizedRMSD -1
REMARK  0 active torsions:
REMARK  status: ('A' for Active; 'I' for Inactive)
ROOT
ATOM      1  C   UNL d   1       1.338   1.177  -1.429  0.00  0.00     0.077 C 
ATOM      2  C1  UNL d   1       0.606   0.751  -0.191  0.00  0.00    -0.074 A 
ATOM      3  C2  UNL d   1       1.227   0.789   1.061  0.00  0.00    -0.005 A 
ATOM      4  C3  UNL d   1       0.530   0.399   2.204  0.00  0.00     0.006 A 
ATOM      5  C4  UNL d   1      -0.793  -0.032   2.107  0.00  0.00    -0.005 A 
ATOM      6  C5  UNL d   1      -1.432  -0.076   0.864  0.00  0.00    -0.074 A 
ATOM      7  C6  UNL d   1      -2.857  -0.527   0.743  0.00  0.00     0.077 C 
ATOM      8  C7  UNL d   1      -0.727   0.324  -0.280  0.00  0.00    -0.001 A 
ENDROOT
TORSDOF 0
ENDMDL
