MODEL 1
REMARK minimizedAffinity -5.36574984
REMARK minimizedRMSD -1
REMARK  0 active torsions:
REMARK  status: ('A' for Active; 'I' for Inactive)
ROOT
ATOM      1  C   UNL d   1      -1.838  -0.603   3.367  0.00  0.00     0.077 C 
ATOM      2  C1  UNL d   1      -0.921  -0.226   2.241  0.00  0.00    -0.074 A 
ATOM      3  C2  UNL d   1       0.456  -0.096   2.449  0.00  0.00    -0.005 A 
ATOM      4  C3  UNL d   1       1.297   0.246   1.390  0.00  0.00     0.006 A 
ATOM      5  C4  UNL d   1       0.771   0.460   0.116  0.00  0.00    -0.005 A 
ATOM      6  C5  UNL d   1      -0.603   0.334  -0.111  0.00  0.00    -0.074 A 
ATOM      7  C6  UNL d   1      -1.183   0.551  -1.477  0.00  0.00     0.077 C 
ATOM      8  C7  UNL d   1      -1.441  -0.017   0.956  0.00  0.00    -0.001 A 
ENDROOT
TORSDOF 0
ENDMDL
