MODEL 1
REMARK minimizedAffinity -2.89873624
REMARK minimizedRMSD -1
REMARK  0 active torsions:
REMARK  status: ('A' for Active; 'I' for Inactive)
ROOT
ATOM      1  C   UNL d   1      -1.017  -0.872   3.263  0.00  0.00     0.077 C 
ATOM      2  C1  UNL d   1      -0.575  -0.418   1.903  0.00  0.00    -0.074 A 
ATOM      3  C2  UNL d   1      -1.438  -0.493   0.805  0.00  0.00    -0.005 A 
ATOM      4  C3  UNL d   1      -1.017  -0.058  -0.452  0.00  0.00     0.006 A 
ATOM      5  C4  UNL d   1       0.270   0.454  -0.623  0.00  0.00    -0.005 A 
ATOM      6  C5  UNL d   1       1.146   0.537   0.464  0.00  0.00    -0.074 A 
ATOM      7  C6  UNL d   1       2.529   1.094   0.300  0.00  0.00     0.077 C 
ATOM      8  C7  UNL d   1       0.713   0.105   1.725  0.00  0.00    -0.001 A 
ENDROOT
TORSDOF 0
ENDMDL
