MODEL 1
REMARK minimizedAffinity -3.53514647
REMARK minimizedRMSD -1
REMARK  0 active torsions:
REMARK  status: ('A' for Active; 'I' for Inactive)
ROOT
ATOM      1  C   UNL d   1       0.766   0.692  -1.487  0.00  0.00     0.077 C 
ATOM      2  C1  UNL d   1      -0.263   0.241  -0.494  0.00  0.00    -0.074 A 
ATOM      3  C2  UNL d   1      -1.615   0.166  -0.844  0.00  0.00    -0.005 A 
ATOM      4  C3  UNL d   1      -2.560  -0.265   0.088  0.00  0.00     0.006 A 
ATOM      5  C4  UNL d   1      -2.163  -0.624   1.376  0.00  0.00    -0.005 A 
ATOM      6  C5  UNL d   1      -0.815  -0.557   1.744  0.00  0.00    -0.074 A 
ATOM      7  C6  UNL d   1      -0.370  -0.949   3.122  0.00  0.00     0.077 C 
ATOM      8  C7  UNL d   1       0.129  -0.130   0.800  0.00  0.00    -0.001 A 
ENDROOT
TORSDOF 0
ENDMDL
