MODEL 1
REMARK minimizedAffinity 5.51922607
REMARK minimizedRMSD -1
REMARK  0 active torsions:
REMARK  status: ('A' for Active; 'I' for Inactive)
ROOT
ATOM      1  C1  DEN d   1       2.666  -0.196  -0.798  0.00  0.00     0.130 A 
ATOM      2  C2  DEN d   1       2.614  -0.462  -2.233  0.00  0.00    -0.031 A 
ATOM      3  C3  DEN d   1       3.738   0.252  -2.871  0.00  0.00     0.027 A 
ATOM      4  C4  DEN d   1       5.549   1.731  -1.782  0.00  0.00     0.027 A 
ATOM      5  C5  DEN d   1       6.000   2.260  -0.593  0.00  0.00    -0.003 A 
ATOM      6  C6  DEN d   1       5.357   2.038   0.596  0.00  0.00     0.001 A 
ATOM      7  C7  DEN d   1       4.253   1.228   0.629  0.00  0.00     0.017 A 
ATOM      8  C8  DEN d   1       3.787   0.697  -0.566  0.00  0.00    -0.094 A 
ATOM      9  C9  DEN d   1       4.458   0.924  -1.756  0.00  0.00    -0.072 A 
ENDROOT
TORSDOF 0
ENDMDL
