MODEL 1
REMARK minimizedAffinity 9.60126209
REMARK minimizedRMSD -1
REMARK  0 active torsions:
REMARK  status: ('A' for Active; 'I' for Inactive)
ROOT
ATOM      1  C1  DEN d   1       3.819   3.842   2.426  0.00  0.00     0.130 A 
ATOM      2  C2  DEN d   1       2.653   3.089   2.880  0.00  0.00    -0.031 A 
ATOM      3  C3  DEN d   1       2.517   3.293   4.336  0.00  0.00     0.027 A 
ATOM      4  C4  DEN d   1       3.988   4.697   5.922  0.00  0.00     0.027 A 
ATOM      5  C5  DEN d   1       5.099   5.507   6.000  0.00  0.00    -0.003 A 
ATOM      6  C6  DEN d   1       5.875   5.789   4.907  0.00  0.00     0.001 A 
ATOM      7  C7  DEN d   1       5.524   5.293   3.679  0.00  0.00     0.017 A 
ATOM      8  C8  DEN d   1       4.409   4.469   3.594  0.00  0.00    -0.094 A 
ATOM      9  C9  DEN d   1       3.630   4.206   4.709  0.00  0.00    -0.072 A 
ENDROOT
TORSDOF 0
ENDMDL
