MODEL 1
REMARK minimizedAffinity 10.1150246
REMARK minimizedRMSD -1
REMARK  0 active torsions:
REMARK  status: ('A' for Active; 'I' for Inactive)
ROOT
ATOM      1  C1  DEN d   1       3.616   4.653   5.999  0.00  0.00     0.130 A 
ATOM      2  C2  DEN d   1       4.855   5.425   5.993  0.00  0.00    -0.031 A 
ATOM      3  C3  DEN d   1       5.375   5.446   4.611  0.00  0.00     0.027 A 
ATOM      4  C4  DEN d   1       4.383   4.365   2.489  0.00  0.00     0.027 A 
ATOM      5  C5  DEN d   1       3.350   3.598   1.998  0.00  0.00    -0.003 A 
ATOM      6  C6  DEN d   1       2.359   3.105   2.805  0.00  0.00     0.001 A 
ATOM      7  C7  DEN d   1       2.356   3.410   4.140  0.00  0.00     0.017 A 
ATOM      8  C8  DEN d   1       3.399   4.177   4.644  0.00  0.00    -0.094 A 
ATOM      9  C9  DEN d   1       4.384   4.677   3.810  0.00  0.00    -0.072 A 
ENDROOT
TORSDOF 0
ENDMDL
