MODEL 1
REMARK minimizedAffinity 13.380497
REMARK minimizedRMSD -1
REMARK  0 active torsions:
REMARK  status: ('A' for Active; 'I' for Inactive)
ROOT
ATOM      1  C1  DEN d   1       2.874   3.564   4.614  0.00  0.00     0.130 A 
ATOM      2  C2  DEN d   1       3.107   3.981   5.994  0.00  0.00    -0.031 A 
ATOM      3  C3  DEN d   1       4.216   4.957   5.995  0.00  0.00     0.027 A 
ATOM      4  C4  DEN d   1       5.583   5.861   4.003  0.00  0.00     0.027 A 
ATOM      5  C5  DEN d   1       5.760   5.791   2.639  0.00  0.00    -0.003 A 
ATOM      6  C6  DEN d   1       5.016   4.956   1.848  0.00  0.00     0.001 A 
ATOM      7  C7  DEN d   1       4.029   4.189   2.410  0.00  0.00     0.017 A 
ATOM      8  C8  DEN d   1       3.850   4.249   3.786  0.00  0.00    -0.094 A 
ATOM      9  C9  DEN d   1       4.604   5.108   4.566  0.00  0.00    -0.072 A 
ENDROOT
TORSDOF 0
ENDMDL
