MODEL 1
REMARK minimizedAffinity 9.93201733
REMARK minimizedRMSD -1
REMARK  0 active torsions:
REMARK  status: ('A' for Active; 'I' for Inactive)
ROOT
ATOM      1  C1  DEN d   1       4.987   0.979  -3.312  0.00  0.00     0.130 A 
ATOM      2  C2  DEN d   1       6.000   1.783  -2.633  0.00  0.00    -0.031 A 
ATOM      3  C3  DEN d   1       5.703   1.766  -1.187  0.00  0.00     0.027 A 
ATOM      4  C4  DEN d   1       3.786   0.574   0.061  0.00  0.00     0.027 A 
ATOM      5  C5  DEN d   1       2.670  -0.219  -0.090  0.00  0.00    -0.003 A 
ATOM      6  C6  DEN d   1       2.232  -0.637  -1.319  0.00  0.00     0.001 A 
ATOM      7  C7  DEN d   1       2.941  -0.301  -2.442  0.00  0.00     0.017 A 
ATOM      8  C8  DEN d   1       4.063   0.505  -2.298  0.00  0.00    -0.094 A 
ATOM      9  C9  DEN d   1       4.496   0.907  -1.046  0.00  0.00    -0.072 A 
ENDROOT
TORSDOF 0
ENDMDL
