MODEL 1
REMARK minimizedAffinity 1.19260418
REMARK minimizedRMSD -1
REMARK  0 active torsions:
REMARK  status: ('A' for Active; 'I' for Inactive)
ROOT
ATOM      1  C1  DEN d   1      -1.914   1.499  -0.941  0.00  0.00     0.130 A 
ATOM      2  C2  DEN d   1      -0.782   2.410  -0.792  0.00  0.00    -0.031 A 
ATOM      3  C3  DEN d   1      -1.049   3.281   0.370  0.00  0.00     0.027 A 
ATOM      4  C4  DEN d   1      -3.090   3.305   1.947  0.00  0.00     0.027 A 
ATOM      5  C5  DEN d   1      -4.311   2.724   2.211  0.00  0.00    -0.003 A 
ATOM      6  C6  DEN d   1      -4.829   1.726   1.430  0.00  0.00     0.001 A 
ATOM      7  C7  DEN d   1      -4.104   1.247   0.371  0.00  0.00     0.017 A 
ATOM      8  C8  DEN d   1      -2.875   1.832   0.094  0.00  0.00    -0.094 A 
ATOM      9  C9  DEN d   1      -2.363   2.831   0.903  0.00  0.00    -0.072 A 
ENDROOT
TORSDOF 0
ENDMDL
