MODEL 1
REMARK minimizedAffinity 15.1084747
REMARK minimizedRMSD -1
REMARK  0 active torsions:
REMARK  status: ('A' for Active; 'I' for Inactive)
ROOT
ATOM      1  C1  DEN d   1       4.898   3.665   2.258  0.00  0.00     0.130 A 
ATOM      2  C2  DEN d   1       4.561   4.798   1.400  0.00  0.00    -0.031 A 
ATOM      3  C3  DEN d   1       4.132   5.915   2.266  0.00  0.00     0.027 A 
ATOM      4  C4  DEN d   1       3.961   6.000   4.839  0.00  0.00     0.027 A 
ATOM      5  C5  DEN d   1       4.130   5.278   5.999  0.00  0.00    -0.003 A 
ATOM      6  C6  DEN d   1       4.530   3.968   5.993  0.00  0.00     0.001 A 
ATOM      7  C7  DEN d   1       4.819   3.352   4.803  0.00  0.00     0.017 A 
ATOM      8  C8  DEN d   1       4.645   4.072   3.628  0.00  0.00    -0.094 A 
ATOM      9  C9  DEN d   1       4.251   5.399   3.657  0.00  0.00    -0.072 A 
ENDROOT
TORSDOF 0
ENDMDL
