MODEL 1
REMARK minimizedAffinity 16.7994175
REMARK minimizedRMSD -1
REMARK  0 active torsions:
REMARK  status: ('A' for Active; 'I' for Inactive)
ROOT
ATOM      1  C1  DEN d   1      -5.977   1.138  -1.932  0.00  0.00     0.130 A 
ATOM      2  C2  DEN d   1      -6.000   2.534  -1.502  0.00  0.00    -0.031 A 
ATOM      3  C3  DEN d   1      -5.365   3.348  -2.559  0.00  0.00     0.027 A 
ATOM      4  C4  DEN d   1      -4.359   2.587  -4.808  0.00  0.00     0.027 A 
ATOM      5  C5  DEN d   1      -4.097   1.498  -5.610  0.00  0.00    -0.003 A 
ATOM      6  C6  DEN d   1      -4.411   0.219  -5.230  0.00  0.00     0.001 A 
ATOM      7  C7  DEN d   1      -5.045   0.003  -4.036  0.00  0.00     0.017 A 
ATOM      8  C8  DEN d   1      -5.305   1.095  -3.219  0.00  0.00    -0.094 A 
ATOM      9  C9  DEN d   1      -4.992   2.381  -3.626  0.00  0.00    -0.072 A 
ENDROOT
TORSDOF 0
ENDMDL
