MODEL 1
REMARK minimizedAffinity 7.09645939
REMARK minimizedRMSD -1
REMARK  0 active torsions:
REMARK  status: ('A' for Active; 'I' for Inactive)
ROOT
ATOM      1  C1  DEN d   1       4.468  -0.808  -3.881  0.00  0.00     0.130 A 
ATOM      2  C2  DEN d   1       3.312  -1.684  -4.049  0.00  0.00    -0.031 A 
ATOM      3  C3  DEN d   1       2.493  -1.598  -2.823  0.00  0.00     0.027 A 
ATOM      4  C4  DEN d   1       2.898  -0.198  -0.696  0.00  0.00     0.027 A 
ATOM      5  C5  DEN d   1       3.753   0.692  -0.083  0.00  0.00    -0.003 A 
ATOM      6  C6  DEN d   1       4.914   1.114  -0.675  0.00  0.00     0.001 A 
ATOM      7  C7  DEN d   1       5.229   0.682  -1.936  0.00  0.00     0.017 A 
ATOM      8  C8  DEN d   1       4.376  -0.221  -2.557  0.00  0.00    -0.094 A 
ATOM      9  C9  DEN d   1       3.201  -0.627  -1.947  0.00  0.00    -0.072 A 
ENDROOT
TORSDOF 0
ENDMDL
