MODEL 1
REMARK minimizedAffinity 4.23173285
REMARK minimizedRMSD -1
REMARK  0 active torsions:
REMARK  status: ('A' for Active; 'I' for Inactive)
ROOT
ATOM      1  C1  DEN d   1       2.385   0.708  -0.165  0.00  0.00     0.130 A 
ATOM      2  C2  DEN d   1       1.398   1.784  -0.159  0.00  0.00    -0.031 A 
ATOM      3  C3  DEN d   1       0.066   1.182  -0.368  0.00  0.00     0.027 A 
ATOM      4  C4  DEN d   1      -0.561  -1.298  -0.696  0.00  0.00     0.027 A 
ATOM      5  C5  DEN d   1      -0.063  -2.579  -0.789  0.00  0.00    -0.003 A 
ATOM      6  C6  DEN d   1       1.278  -2.848  -0.715  0.00  0.00     0.001 A 
ATOM      7  C7  DEN d   1       2.164  -1.826  -0.498  0.00  0.00     0.017 A 
ATOM      8  C8  DEN d   1       1.670  -0.531  -0.411  0.00  0.00    -0.094 A 
ATOM      9  C9  DEN d   1       0.310  -0.281  -0.475  0.00  0.00    -0.072 A 
ENDROOT
TORSDOF 0
ENDMDL
