MODEL 1
REMARK minimizedAffinity 3.82348919
REMARK minimizedRMSD -1
REMARK  0 active torsions:
REMARK  status: ('A' for Active; 'I' for Inactive)
ROOT
ATOM      1  C1  DEN d   1      -0.859  -0.918   0.645  0.00  0.00     0.130 A 
ATOM      2  C2  DEN d   1      -0.515  -1.349  -0.708  0.00  0.00    -0.031 A 
ATOM      3  C3  DEN d   1       0.286  -0.280  -1.338  0.00  0.00     0.027 A 
ATOM      4  C4  DEN d   1       1.028   1.986  -0.354  0.00  0.00     0.027 A 
ATOM      5  C5  DEN d   1       0.968   2.802   0.754  0.00  0.00    -0.003 A 
ATOM      6  C6  DEN d   1       0.272   2.454   1.881  0.00  0.00     0.001 A 
ATOM      7  C7  DEN d   1      -0.355   1.237   1.943  0.00  0.00     0.017 A 
ATOM      8  C8  DEN d   1      -0.305   0.412   0.827  0.00  0.00    -0.094 A 
ATOM      9  C9  DEN d   1       0.414   0.777  -0.298  0.00  0.00    -0.072 A 
ENDROOT
TORSDOF 0
ENDMDL
