MODEL 1
REMARK minimizedAffinity 7.44163513
REMARK minimizedRMSD -1
REMARK  0 active torsions:
REMARK  status: ('A' for Active; 'I' for Inactive)
ROOT
ATOM      1  C1  DEN d   1       0.390  -1.836   0.656  0.00  0.00     0.130 A 
ATOM      2  C2  DEN d   1       0.336  -0.462   1.147  0.00  0.00    -0.031 A 
ATOM      3  C3  DEN d   1      -0.144   0.398   0.047  0.00  0.00     0.027 A 
ATOM      4  C4  DEN d   1      -0.809  -0.261  -2.356  0.00  0.00     0.027 A 
ATOM      5  C5  DEN d   1      -0.918  -1.310  -3.243  0.00  0.00    -0.003 A 
ATOM      6  C6  DEN d   1      -0.569  -2.591  -2.906  0.00  0.00     0.001 A 
ATOM      7  C7  DEN d   1      -0.137  -2.864  -1.635  0.00  0.00     0.017 A 
ATOM      8  C8  DEN d   1      -0.017  -1.811  -0.738  0.00  0.00    -0.094 A 
ATOM      9  C9  DEN d   1      -0.387  -0.525  -1.094  0.00  0.00    -0.072 A 
ENDROOT
TORSDOF 0
ENDMDL
