MODEL 1
REMARK minimizedAffinity 0.170983344
REMARK minimizedRMSD -1
REMARK  0 active torsions:
REMARK  status: ('A' for Active; 'I' for Inactive)
ROOT
ATOM      1  C4' PXY d   1      -0.755   3.367  -3.397  0.00  0.00     0.077 C 
ATOM      2  C1' PXY d   1      -4.758  -0.455  -5.064  0.00  0.00     0.077 C 
ATOM      3  C1  PXY d   1      -3.717   0.554  -4.619  0.00  0.00    -0.082 A 
ATOM      4  C2  PXY d   1      -2.659   0.780  -5.381  0.00  0.00     0.003 A 
ATOM      5  C3  PXY d   1      -1.692   1.665  -4.979  0.00  0.00     0.003 A 
ATOM      6  C4  PXY d   1      -1.836   2.365  -3.811  0.00  0.00    -0.082 A 
ATOM      7  C5  PXY d   1      -2.918   2.147  -3.033  0.00  0.00     0.003 A 
ATOM      8  C6  PXY d   1      -3.868   1.214  -3.439  0.00  0.00     0.003 A 
ENDROOT
TORSDOF 0
ENDMDL
