MODEL 1
REMARK minimizedAffinity -2.57527351
REMARK minimizedRMSD -1
REMARK  0 active torsions:
REMARK  status: ('A' for Active; 'I' for Inactive)
ROOT
ATOM      1  C4' PXY d   1       5.994   3.757   1.183  0.00  0.00     0.077 C 
ATOM      2  C1' PXY d   1       2.419   6.000   5.133  0.00  0.00     0.077 C 
ATOM      3  C1  PXY d   1       3.362   5.423   4.096  0.00  0.00    -0.082 A 
ATOM      4  C2  PXY d   1       2.996   4.361   3.397  0.00  0.00     0.003 A 
ATOM      5  C3  PXY d   1       3.849   3.807   2.478  0.00  0.00     0.003 A 
ATOM      6  C4  PXY d   1       5.070   4.379   2.233  0.00  0.00    -0.082 A 
ATOM      7  C5  PXY d   1       5.446   5.469   2.935  0.00  0.00     0.003 A 
ATOM      8  C6  PXY d   1       4.582   5.991   3.893  0.00  0.00     0.003 A 
ENDROOT
TORSDOF 0
ENDMDL
