MODEL 1
REMARK minimizedAffinity 6.83084249
REMARK minimizedRMSD -1
REMARK  0 active torsions:
REMARK  status: ('A' for Active; 'I' for Inactive)
ROOT
ATOM      1  C4' PXY d   1       6.000  -0.341   0.012  0.00  0.00     0.077 C 
ATOM      2  C1' PXY d   1       3.666   4.934   0.387  0.00  0.00     0.077 C 
ATOM      3  C1  PXY d   1       4.268   3.547   0.281  0.00  0.00    -0.082 A 
ATOM      4  C2  PXY d   1       5.037   3.092   1.256  0.00  0.00     0.003 A 
ATOM      5  C3  PXY d   1       5.616   1.852   1.162  0.00  0.00     0.003 A 
ATOM      6  C4  PXY d   1       5.363   1.050   0.082  0.00  0.00    -0.082 A 
ATOM      7  C5  PXY d   1       4.570   1.503  -0.913  0.00  0.00     0.003 A 
ATOM      8  C6  PXY d   1       4.025   2.781  -0.817  0.00  0.00     0.003 A 
ENDROOT
TORSDOF 0
ENDMDL
