MODEL 1
REMARK minimizedAffinity -3.251683
REMARK minimizedRMSD -1
REMARK  0 active torsions:
REMARK  status: ('A' for Active; 'I' for Inactive)
ROOT
ATOM      1  C4' PXY d   1       2.208  -3.491   1.867  0.00  0.00     0.077 C 
ATOM      2  C1' PXY d   1      -2.253   0.184   1.962  0.00  0.00     0.077 C 
ATOM      3  C1  PXY d   1      -1.083  -0.780   1.950  0.00  0.00    -0.082 A 
ATOM      4  C2  PXY d   1      -0.266  -0.805   0.909  0.00  0.00     0.003 A 
ATOM      5  C3  PXY d   1       0.778  -1.693   0.868  0.00  0.00     0.003 A 
ATOM      6  C4  PXY d   1       1.020  -2.527   1.926  0.00  0.00    -0.082 A 
ATOM      7  C5  PXY d   1       0.198  -2.500   2.997  0.00  0.00     0.003 A 
ATOM      8  C6  PXY d   1      -0.880  -1.620   3.001  0.00  0.00     0.003 A 
ENDROOT
TORSDOF 0
ENDMDL
