MODEL 1
REMARK minimizedAffinity -0.454307526
REMARK minimizedRMSD -1
REMARK  0 active torsions:
REMARK  status: ('A' for Active; 'I' for Inactive)
ROOT
ATOM      1  C4' PXY d   1       5.948   3.233   2.243  0.00  0.00     0.077 C 
ATOM      2  C1' PXY d   1       1.223   6.000   4.097  0.00  0.00     0.077 C 
ATOM      3  C1  PXY d   1       2.466   5.285   3.604  0.00  0.00    -0.082 A 
ATOM      4  C2  PXY d   1       2.471   3.965   3.520  0.00  0.00     0.003 A 
ATOM      5  C3  PXY d   1       3.597   3.300   3.107  0.00  0.00     0.003 A 
ATOM      6  C4  PXY d   1       4.712   3.998   2.726  0.00  0.00    -0.082 A 
ATOM      7  C5  PXY d   1       4.711   5.346   2.799  0.00  0.00     0.003 A 
ATOM      8  C6  PXY d   1       3.572   5.999   3.260  0.00  0.00     0.003 A 
ENDROOT
TORSDOF 0
ENDMDL
