MODEL 1
REMARK minimizedAffinity -1.556054
REMARK minimizedRMSD -1
REMARK  0 active torsions:
REMARK  status: ('A' for Active; 'I' for Inactive)
ROOT
ATOM      1  C4' PXY d   1      -1.919   0.062   0.326  0.00  0.00     0.077 C 
ATOM      2  C1' PXY d   1       2.456  -2.976   2.571  0.00  0.00     0.077 C 
ATOM      3  C1  PXY d   1       1.317  -2.174   1.974  0.00  0.00    -0.082 A 
ATOM      4  C2  PXY d   1       0.267  -1.873   2.720  0.00  0.00     0.003 A 
ATOM      5  C3  PXY d   1      -0.787  -1.176   2.186  0.00  0.00     0.003 A 
ATOM      6  C4  PXY d   1      -0.741  -0.738   0.890  0.00  0.00    -0.082 A 
ATOM      7  C5  PXY d   1       0.331  -1.032   0.125  0.00  0.00     0.003 A 
ATOM      8  C6  PXY d   1       1.372  -1.775   0.674  0.00  0.00     0.003 A 
ENDROOT
TORSDOF 0
ENDMDL
