MODEL 1
REMARK minimizedAffinity 1.00886714
REMARK minimizedRMSD -1
REMARK  0 active torsions:
REMARK  status: ('A' for Active; 'I' for Inactive)
ROOT
ATOM      1  C4' PXY d   1      -0.024  -0.899  -0.401  0.00  0.00     0.077 C 
ATOM      2  C1' PXY d   1       3.088   2.675  -3.711  0.00  0.00     0.077 C 
ATOM      3  C1  PXY d   1       2.266   1.748  -2.838  0.00  0.00    -0.082 A 
ATOM      4  C2  PXY d   1       2.731   0.546  -2.540  0.00  0.00     0.003 A 
ATOM      5  C3  PXY d   1       1.986  -0.317  -1.778  0.00  0.00     0.003 A 
ATOM      6  C4  PXY d   1       0.776   0.074  -1.272  0.00  0.00    -0.082 A 
ATOM      7  C5  PXY d   1       0.299   1.303  -1.562  0.00  0.00     0.003 A 
ATOM      8  C6  PXY d   1       1.052   2.149  -2.371  0.00  0.00     0.003 A 
ENDROOT
TORSDOF 0
ENDMDL
