MODEL 1
REMARK minimizedAffinity 0.64031744
REMARK minimizedRMSD -1
REMARK  0 active torsions:
REMARK  status: ('A' for Active; 'I' for Inactive)
ROOT
ATOM      1  C4' PXY d   1       1.618  -4.154   2.222  0.00  0.00     0.077 C 
ATOM      2  C1' PXY d   1      -1.877   0.444   1.979  0.00  0.00     0.077 C 
ATOM      3  C1  PXY d   1      -0.960  -0.760   2.055  0.00  0.00    -0.082 A 
ATOM      4  C2  PXY d   1      -0.275  -1.130   0.985  0.00  0.00     0.003 A 
ATOM      5  C3  PXY d   1       0.535  -2.236   1.028  0.00  0.00     0.003 A 
ATOM      6  C4  PXY d   1       0.687  -2.939   2.193  0.00  0.00    -0.082 A 
ATOM      7  C5  PXY d   1      -0.000  -2.561   3.292  0.00  0.00     0.003 A 
ATOM      8  C6  PXY d   1      -0.849  -1.461   3.217  0.00  0.00     0.003 A 
ENDROOT
TORSDOF 0
ENDMDL
