MODEL 1
REMARK minimizedAffinity 5.1859026
REMARK minimizedRMSD -1
REMARK  0 active torsions:
REMARK  status: ('A' for Active; 'I' for Inactive)
ROOT
ATOM      1  C   UNL d   1       3.685  -5.968  -1.476  0.00  0.00     0.078 C 
ATOM      2  C1  UNL d   1       4.500  -4.726  -1.680  0.00  0.00    -0.077 A 
ATOM      3  C2  UNL d   1       5.242  -4.170  -0.631  0.00  0.00    -0.001 A 
ATOM      4  C3  UNL d   1       5.988  -3.008  -0.832  0.00  0.00     0.003 A 
ATOM      5  C4  UNL d   1       6.000  -2.392  -2.082  0.00  0.00    -0.005 A 
ATOM      6  C5  UNL d   1       5.263  -2.937  -3.132  0.00  0.00     0.003 A 
ATOM      7  C6  UNL d   1       4.516  -4.099  -2.932  0.00  0.00    -0.001 A 
ENDROOT
TORSDOF 0
ENDMDL
