MODEL 1
REMARK minimizedAffinity 10.9014578
REMARK minimizedRMSD -1
REMARK  0 active torsions:
REMARK  status: ('A' for Active; 'I' for Inactive)
ROOT
ATOM      1  C   UNL d   1      -4.174   5.996   1.539  0.00  0.00     0.078 C 
ATOM      2  C1  UNL d   1      -4.469   5.646   0.111  0.00  0.00    -0.077 A 
ATOM      3  C2  UNL d   1      -3.509   5.015  -0.690  0.00  0.00    -0.001 A 
ATOM      4  C3  UNL d   1      -3.793   4.704  -2.021  0.00  0.00     0.003 A 
ATOM      5  C4  UNL d   1      -5.037   5.021  -2.563  0.00  0.00    -0.005 A 
ATOM      6  C5  UNL d   1      -5.998   5.651  -1.774  0.00  0.00     0.003 A 
ATOM      7  C6  UNL d   1      -5.715   5.963  -0.444  0.00  0.00    -0.001 A 
ENDROOT
TORSDOF 0
ENDMDL
