MODEL 1
REMARK minimizedAffinity 2.43458056
REMARK minimizedRMSD -1
REMARK  0 active torsions:
REMARK  status: ('A' for Active; 'I' for Inactive)
ROOT
ATOM      1  C   UNL d   1       1.369  -0.644   3.923  0.00  0.00     0.078 C 
ATOM      2  C1  UNL d   1       0.848   0.419   3.002  0.00  0.00    -0.077 A 
ATOM      3  C2  UNL d   1       1.483   0.692   1.784  0.00  0.00    -0.001 A 
ATOM      4  C3  UNL d   1       0.993   1.690   0.941  0.00  0.00     0.003 A 
ATOM      5  C4  UNL d   1      -0.133   2.425   1.307  0.00  0.00    -0.005 A 
ATOM      6  C5  UNL d   1      -0.770   2.162   2.518  0.00  0.00     0.003 A 
ATOM      7  C6  UNL d   1      -0.281   1.164   3.362  0.00  0.00    -0.001 A 
ENDROOT
TORSDOF 0
ENDMDL
