MODEL 1
REMARK minimizedAffinity 0.597797453
REMARK minimizedRMSD -1
REMARK  0 active torsions:
REMARK  status: ('A' for Active; 'I' for Inactive)
ROOT
ATOM      1  C   UNL d   1      -1.192   4.235   0.133  0.00  0.00     0.078 C 
ATOM      2  C1  UNL d   1      -1.880   3.030   0.700  0.00  0.00    -0.077 A 
ATOM      3  C2  UNL d   1      -2.577   2.141  -0.128  0.00  0.00    -0.001 A 
ATOM      4  C3  UNL d   1      -3.222   1.028   0.415  0.00  0.00     0.003 A 
ATOM      5  C4  UNL d   1      -3.177   0.794   1.787  0.00  0.00    -0.005 A 
ATOM      6  C5  UNL d   1      -2.487   1.674   2.620  0.00  0.00     0.003 A 
ATOM      7  C6  UNL d   1      -1.842   2.787   2.079  0.00  0.00    -0.001 A 
ENDROOT
TORSDOF 0
ENDMDL
