MODEL 1
REMARK minimizedAffinity 6.72751522
REMARK minimizedRMSD -1
REMARK  0 active torsions:
REMARK  status: ('A' for Active; 'I' for Inactive)
ROOT
ATOM      1  C   UNL d   1      -3.061   1.516  -4.862  0.00  0.00     0.078 C 
ATOM      2  C1  UNL d   1      -2.434   0.655  -3.807  0.00  0.00    -0.077 A 
ATOM      3  C2  UNL d   1      -2.676   0.889  -2.448  0.00  0.00    -0.001 A 
ATOM      4  C3  UNL d   1      -2.078   0.085  -1.476  0.00  0.00     0.003 A 
ATOM      5  C4  UNL d   1      -1.232  -0.956  -1.853  0.00  0.00    -0.005 A 
ATOM      6  C5  UNL d   1      -0.983  -1.194  -3.203  0.00  0.00     0.003 A 
ATOM      7  C6  UNL d   1      -1.580  -0.392  -4.176  0.00  0.00    -0.001 A 
ENDROOT
TORSDOF 0
ENDMDL
