MODEL 1
REMARK minimizedAffinity 5.96321249
REMARK minimizedRMSD -1
REMARK  0 active torsions:
REMARK  status: ('A' for Active; 'I' for Inactive)
ROOT
ATOM      1  C   UNL d   1       2.676   5.770   0.886  0.00  0.00     0.078 C 
ATOM      2  C1  UNL d   1       1.452   4.980   0.533  0.00  0.00    -0.077 A 
ATOM      3  C2  UNL d   1       0.321   5.605  -0.007  0.00  0.00    -0.001 A 
ATOM      4  C3  UNL d   1      -0.815   4.858  -0.322  0.00  0.00     0.003 A 
ATOM      5  C4  UNL d   1      -0.832   3.483  -0.099  0.00  0.00    -0.005 A 
ATOM      6  C5  UNL d   1       0.287   2.852   0.439  0.00  0.00     0.003 A 
ATOM      7  C6  UNL d   1       1.425   3.598   0.755  0.00  0.00    -0.001 A 
ENDROOT
TORSDOF 0
ENDMDL
