MODEL 1
REMARK minimizedAffinity 8.67651749
REMARK minimizedRMSD -1
REMARK  0 active torsions:
REMARK  status: ('A' for Active; 'I' for Inactive)
ROOT
ATOM      1  C   UNL d   1       2.985   5.259   1.847  0.00  0.00     0.078 C 
ATOM      2  C1  UNL d   1       1.812   4.902   0.984  0.00  0.00    -0.077 A 
ATOM      3  C2  UNL d   1       1.301   5.810   0.049  0.00  0.00    -0.001 A 
ATOM      4  C3  UNL d   1       0.203   5.468  -0.741  0.00  0.00     0.003 A 
ATOM      5  C4  UNL d   1      -0.396   4.217  -0.602  0.00  0.00    -0.005 A 
ATOM      6  C5  UNL d   1       0.104   3.307   0.327  0.00  0.00     0.003 A 
ATOM      7  C6  UNL d   1       1.203   3.648   1.118  0.00  0.00    -0.001 A 
ENDROOT
TORSDOF 0
ENDMDL
