MODEL 1
REMARK minimizedAffinity 7.75356007
REMARK minimizedRMSD -1
REMARK  0 active torsions:
REMARK  status: ('A' for Active; 'I' for Inactive)
ROOT
ATOM      1  C   UNL d   1       2.543  -3.002   1.069  0.00  0.00     0.078 C 
ATOM      2  C1  UNL d   1       3.641  -2.820   0.065  0.00  0.00    -0.077 A 
ATOM      3  C2  UNL d   1       3.856  -1.581  -0.552  0.00  0.00    -0.001 A 
ATOM      4  C3  UNL d   1       4.876  -1.428  -1.492  0.00  0.00     0.003 A 
ATOM      5  C4  UNL d   1       5.688  -2.510  -1.826  0.00  0.00    -0.005 A 
ATOM      6  C5  UNL d   1       5.480  -3.747  -1.219  0.00  0.00     0.003 A 
ATOM      7  C6  UNL d   1       4.461  -3.902  -0.279  0.00  0.00    -0.001 A 
ENDROOT
TORSDOF 0
ENDMDL
