MODEL 1
REMARK minimizedAffinity 3.92696762
REMARK minimizedRMSD -1
REMARK  0 active torsions:
REMARK  status: ('A' for Active; 'I' for Inactive)
ROOT
ATOM      1  C   UNL d   1       4.904  -4.830  -4.977  0.00  0.00     0.078 C 
ATOM      2  C1  UNL d   1       3.984  -5.243  -3.867  0.00  0.00    -0.077 A 
ATOM      3  C2  UNL d   1       2.595  -5.248  -4.047  0.00  0.00    -0.001 A 
ATOM      4  C3  UNL d   1       1.750  -5.626  -3.002  0.00  0.00     0.003 A 
ATOM      5  C4  UNL d   1       2.284  -6.000  -1.770  0.00  0.00    -0.005 A 
ATOM      6  C5  UNL d   1       3.664  -5.995  -1.582  0.00  0.00     0.003 A 
ATOM      7  C6  UNL d   1       4.511  -5.618  -2.625  0.00  0.00    -0.001 A 
ENDROOT
TORSDOF 0
ENDMDL
