MODEL 1
REMARK minimizedAffinity 6.28004789
REMARK minimizedRMSD -1
REMARK  2 active torsions:
REMARK  status: ('A' for Active; 'I' for Inactive)
REMARK    1  A    between atoms: C2'_3  and  C1'_4 
REMARK    2  A    between atoms: C1'_4  and  C1_5 
ROOT
ATOM      1  C1  I4B d   1       3.594   3.628  -5.922  0.00  0.00    -0.075 A 
ATOM      2  C2  I4B d   1       3.207   4.942  -5.993  0.00  0.00     0.003 A 
ATOM      3  C3  I4B d   1       4.174   5.975  -5.929  0.00  0.00     0.002 A 
ATOM      4  C4  I4B d   1       5.502   5.651  -5.745  0.00  0.00    -0.004 A 
ATOM      5  C5  I4B d   1       5.896   4.317  -5.696  0.00  0.00     0.002 A 
ATOM      6  C6  I4B d   1       4.938   3.298  -5.797  0.00  0.00     0.003 A 
ENDROOT
BRANCH   1   7
ATOM      7  C1' I4B d   1       2.543   2.563  -5.959  0.00  0.00     0.060 C 
BRANCH   7   8
ATOM      8  C2' I4B d   1       1.247   3.170  -5.463  0.00  0.00    -0.013 C 
ATOM      9  C4' I4B d   1       1.057   4.565  -5.998  0.00  0.00     0.013 C 
ATOM     10  C3' I4B d   1       0.123   2.271  -5.885  0.00  0.00     0.013 C 
ENDBRANCH   7   8
ENDBRANCH   1   7
TORSDOF 2
ENDMDL
