MODEL 1
REMARK minimizedAffinity 5.82136536
REMARK minimizedRMSD -1
REMARK  2 active torsions:
REMARK  status: ('A' for Active; 'I' for Inactive)
REMARK    1  A    between atoms: C2'_3  and  C1'_4 
REMARK    2  A    between atoms: C1'_4  and  C1_5 
ROOT
ATOM      1  C1  I4B d   1       0.254   3.472  -5.949  0.00  0.00    -0.075 A 
ATOM      2  C2  I4B d   1       1.105   2.395  -5.957  0.00  0.00     0.003 A 
ATOM      3  C3  I4B d   1       2.507   2.595  -5.957  0.00  0.00     0.002 A 
ATOM      4  C4  I4B d   1       3.011   3.879  -5.999  0.00  0.00    -0.004 A 
ATOM      5  C5  I4B d   1       2.147   4.969  -5.968  0.00  0.00     0.002 A 
ATOM      6  C6  I4B d   1       0.760   4.766  -5.931  0.00  0.00     0.003 A 
ENDROOT
BRANCH   1   7
ATOM      7  C1' I4B d   1      -1.221   3.226  -5.983  0.00  0.00     0.060 C 
BRANCH   7   8
ATOM      8  C2' I4B d   1      -1.920   4.538  -5.694  0.00  0.00    -0.013 C 
ATOM      9  C4' I4B d   1      -3.394   4.448  -5.993  0.00  0.00     0.013 C 
ATOM     10  C3' I4B d   1      -1.679   4.885  -4.256  0.00  0.00     0.013 C 
ENDBRANCH   7   8
ENDBRANCH   1   7
TORSDOF 2
ENDMDL
