MODEL 1
REMARK minimizedAffinity 5.5694828
REMARK minimizedRMSD -1
REMARK  2 active torsions:
REMARK  status: ('A' for Active; 'I' for Inactive)
REMARK    1  A    between atoms: C2'_3  and  C1'_4 
REMARK    2  A    between atoms: C1'_4  and  C1_5 
ROOT
ATOM      1  C1  I4B d   1      -1.732   3.562  -5.987  0.00  0.00    -0.075 A 
ATOM      2  C2  I4B d   1      -3.102   3.491  -5.944  0.00  0.00     0.003 A 
ATOM      3  C3  I4B d   1      -3.876   4.676  -5.901  0.00  0.00     0.002 A 
ATOM      4  C4  I4B d   1      -3.242   5.900  -5.852  0.00  0.00    -0.004 A 
ATOM      5  C5  I4B d   1      -1.854   5.971  -5.919  0.00  0.00     0.002 A 
ATOM      6  C6  I4B d   1      -1.094   4.795  -5.999  0.00  0.00     0.003 A 
ENDROOT
BRANCH   1   7
ATOM      7  C1' I4B d   1      -0.944   2.290  -5.998  0.00  0.00     0.060 C 
BRANCH   7   8
ATOM      8  C2' I4B d   1       0.450   2.600  -5.491  0.00  0.00    -0.013 C 
ATOM      9  C4' I4B d   1       0.479   2.675  -3.987  0.00  0.00     0.013 C 
ATOM     10  C3' I4B d   1       1.374   1.534  -5.998  0.00  0.00     0.013 C 
ENDBRANCH   7   8
ENDBRANCH   1   7
TORSDOF 2
ENDMDL
