MODEL 1
REMARK minimizedAffinity 1.38283455
REMARK minimizedRMSD -1
REMARK  2 active torsions:
REMARK  status: ('A' for Active; 'I' for Inactive)
REMARK    1  A    between atoms: C2'_3  and  C1'_4 
REMARK    2  A    between atoms: C1'_4  and  C1_5 
ROOT
ATOM      1  C1  I4B d   1      -1.245   3.639  -5.036  0.00  0.00    -0.075 A 
ATOM      2  C2  I4B d   1      -1.260   4.949  -4.628  0.00  0.00     0.003 A 
ATOM      3  C3  I4B d   1      -2.388   5.764  -4.889  0.00  0.00     0.002 A 
ATOM      4  C4  I4B d   1      -3.450   5.246  -5.601  0.00  0.00    -0.004 A 
ATOM      5  C5  I4B d   1      -3.443   3.911  -5.994  0.00  0.00     0.002 A 
ATOM      6  C6  I4B d   1      -2.339   3.099  -5.699  0.00  0.00     0.003 A 
ENDROOT
BRANCH   1   7
ATOM      7  C1' I4B d   1      -0.024   2.816  -4.773  0.00  0.00     0.060 C 
BRANCH   7   8
ATOM      8  C2' I4B d   1       0.869   2.902  -5.994  0.00  0.00    -0.013 C 
ATOM      9  C4' I4B d   1       1.663   4.181  -6.000  0.00  0.00     0.013 C 
ATOM     10  C3' I4B d   1       1.772   1.704  -5.992  0.00  0.00     0.013 C 
ENDBRANCH   7   8
ENDBRANCH   1   7
TORSDOF 2
ENDMDL
