MODEL 1
REMARK minimizedAffinity -2.03785205
REMARK minimizedRMSD -1
REMARK  2 active torsions:
REMARK  status: ('A' for Active; 'I' for Inactive)
REMARK    1  A    between atoms: C2'_3  and  C1'_4 
REMARK    2  A    between atoms: C1'_4  and  C1_5 
ROOT
ATOM      1  C1  I4B d   1      -0.998   4.012  -5.943  0.00  0.00    -0.075 A 
ATOM      2  C2  I4B d   1      -0.077   2.995  -5.908  0.00  0.00     0.003 A 
ATOM      3  C3  I4B d   1       1.308   3.288  -5.905  0.00  0.00     0.002 A 
ATOM      4  C4  I4B d   1       1.725   4.601  -5.988  0.00  0.00    -0.004 A 
ATOM      5  C5  I4B d   1       0.790   5.632  -6.000  0.00  0.00     0.002 A 
ATOM      6  C6  I4B d   1      -0.581   5.337  -5.965  0.00  0.00     0.003 A 
ENDROOT
BRANCH   1   7
ATOM      7  C1' I4B d   1      -2.453   3.666  -5.979  0.00  0.00     0.060 C 
BRANCH   7   8
ATOM      8  C2' I4B d   1      -3.202   4.713  -5.180  0.00  0.00    -0.013 C 
ATOM      9  C4' I4B d   1      -3.437   5.957  -5.997  0.00  0.00     0.013 C 
ATOM     10  C3' I4B d   1      -4.498   4.110  -4.727  0.00  0.00     0.013 C 
ENDBRANCH   7   8
ENDBRANCH   1   7
TORSDOF 2
ENDMDL
