MODEL 1
REMARK minimizedAffinity 4.41370249
REMARK minimizedRMSD -1
REMARK  2 active torsions:
REMARK  status: ('A' for Active; 'I' for Inactive)
REMARK    1  A    between atoms: C2'_3  and  C1'_4 
REMARK    2  A    between atoms: C1'_4  and  C1_5 
ROOT
ATOM      1  C1  I4B d   1       1.652   4.741  -5.973  0.00  0.00    -0.075 A 
ATOM      2  C2  I4B d   1       2.555   5.774  -5.987  0.00  0.00     0.003 A 
ATOM      3  C3  I4B d   1       3.945   5.506  -5.985  0.00  0.00     0.002 A 
ATOM      4  C4  I4B d   1       4.385   4.200  -5.920  0.00  0.00    -0.004 A 
ATOM      5  C5  I4B d   1       3.468   3.153  -5.930  0.00  0.00     0.002 A 
ATOM      6  C6  I4B d   1       2.093   3.424  -5.969  0.00  0.00     0.003 A 
ENDROOT
BRANCH   1   7
ATOM      7  C1' I4B d   1       0.191   5.061  -5.942  0.00  0.00     0.060 C 
BRANCH   7   8
ATOM      8  C2' I4B d   1      -0.548   3.825  -5.469  0.00  0.00    -0.013 C 
ATOM      9  C4' I4B d   1       0.395   2.835  -4.837  0.00  0.00     0.013 C 
ATOM     10  C3' I4B d   1      -1.606   4.260  -4.500  0.00  0.00     0.013 C 
ENDBRANCH   7   8
ENDBRANCH   1   7
TORSDOF 2
ENDMDL
