MODEL 1
REMARK minimizedAffinity -0.767939389
REMARK minimizedRMSD -1
REMARK  2 active torsions:
REMARK  status: ('A' for Active; 'I' for Inactive)
REMARK    1  A    between atoms: C2'_3  and  C1'_4 
REMARK    2  A    between atoms: C1'_4  and  C1_5 
ROOT
ATOM      1  C1  I4B d   1      -2.273   4.128  -5.287  0.00  0.00    -0.075 A 
ATOM      2  C2  I4B d   1      -2.879   5.133  -6.000  0.00  0.00     0.003 A 
ATOM      3  C3  I4B d   1      -3.803   5.999  -5.366  0.00  0.00     0.002 A 
ATOM      4  C4  I4B d   1      -4.127   5.795  -4.041  0.00  0.00    -0.004 A 
ATOM      5  C5  I4B d   1      -3.495   4.790  -3.314  0.00  0.00     0.002 A 
ATOM      6  C6  I4B d   1      -2.553   3.959  -3.937  0.00  0.00     0.003 A 
ENDROOT
BRANCH   1   7
ATOM      7  C1' I4B d   1      -1.328   3.211  -5.996  0.00  0.00     0.060 C 
BRANCH   7   8
ATOM      8  C2' I4B d   1       0.039   3.368  -5.360  0.00  0.00    -0.013 C 
ATOM      9  C4' I4B d   1       0.811   4.493  -5.997  0.00  0.00     0.013 C 
ATOM     10  C3' I4B d   1      -0.158   3.608  -3.893  0.00  0.00     0.013 C 
ENDBRANCH   7   8
ENDBRANCH   1   7
TORSDOF 2
ENDMDL
