MODEL 1
REMARK minimizedAffinity 0.43463859
REMARK minimizedRMSD -1
REMARK  2 active torsions:
REMARK  status: ('A' for Active; 'I' for Inactive)
REMARK    1  A    between atoms: C2'_3  and  C1'_4 
REMARK    2  A    between atoms: C1'_4  and  C1_5 
ROOT
ATOM      1  C1  I4B d   1      -1.430   4.485  -5.842  0.00  0.00    -0.075 A 
ATOM      2  C2  I4B d   1      -1.640   3.130  -5.894  0.00  0.00     0.003 A 
ATOM      3  C3  I4B d   1      -0.540   2.240  -5.948  0.00  0.00     0.002 A 
ATOM      4  C4  I4B d   1       0.742   2.747  -5.999  0.00  0.00    -0.004 A 
ATOM      5  C5  I4B d   1       0.954   4.120  -5.924  0.00  0.00     0.002 A 
ATOM      6  C6  I4B d   1      -0.138   4.995  -5.832  0.00  0.00     0.003 A 
ENDROOT
BRANCH   1   7
ATOM      7  C1' I4B d   1      -2.615   5.398  -5.820  0.00  0.00     0.060 C 
BRANCH   7   8
ATOM      8  C2' I4B d   1      -3.865   4.541  -5.835  0.00  0.00    -0.013 C 
ATOM      9  C4' I4B d   1      -3.965   3.700  -4.590  0.00  0.00     0.013 C 
ATOM     10  C3' I4B d   1      -5.049   5.451  -5.971  0.00  0.00     0.013 C 
ENDBRANCH   7   8
ENDBRANCH   1   7
TORSDOF 2
ENDMDL
