MODEL 1
REMARK minimizedAffinity 2.74843979
REMARK minimizedRMSD -1
REMARK  2 active torsions:
REMARK  status: ('A' for Active; 'I' for Inactive)
REMARK    1  A    between atoms: C2'_3  and  C1'_4 
REMARK    2  A    between atoms: C1'_4  and  C1_5 
ROOT
ATOM      1  C1  I4B d   1      -1.018   4.790  -5.892  0.00  0.00    -0.075 A 
ATOM      2  C2  I4B d   1      -1.704   3.602  -5.922  0.00  0.00     0.003 A 
ATOM      3  C3  I4B d   1      -3.118   3.597  -5.998  0.00  0.00     0.002 A 
ATOM      4  C4  I4B d   1      -3.803   4.794  -5.992  0.00  0.00    -0.004 A 
ATOM      5  C5  I4B d   1      -3.105   5.998  -5.984  0.00  0.00     0.002 A 
ATOM      6  C6  I4B d   1      -1.703   5.997  -5.947  0.00  0.00     0.003 A 
ENDROOT
BRANCH   1   7
ATOM      7  C1' I4B d   1       0.473   4.759  -5.777  0.00  0.00     0.060 C 
BRANCH   7   8
ATOM      8  C2' I4B d   1       0.888   3.335  -5.470  0.00  0.00    -0.013 C 
ATOM      9  C4' I4B d   1       2.267   3.042  -6.000  0.00  0.00     0.013 C 
ATOM     10  C3' I4B d   1       0.827   3.145  -3.984  0.00  0.00     0.013 C 
ENDBRANCH   7   8
ENDBRANCH   1   7
TORSDOF 2
ENDMDL
