MODEL 1
REMARK minimizedAffinity 9.15903854
REMARK minimizedRMSD -1
REMARK  2 active torsions:
REMARK  status: ('A' for Active; 'I' for Inactive)
REMARK    1  A    between atoms: C2'_3  and  C1'_4 
REMARK    2  A    between atoms: C1'_4  and  C1_5 
ROOT
ATOM      1  C1  I4B d   1       2.805   3.054  -1.192  0.00  0.00    -0.075 A 
ATOM      2  C2  I4B d   1       3.977   2.525  -1.672  0.00  0.00     0.003 A 
ATOM      3  C3  I4B d   1       3.950   1.524  -2.673  0.00  0.00     0.002 A 
ATOM      4  C4  I4B d   1       2.736   1.049  -3.127  0.00  0.00    -0.004 A 
ATOM      5  C5  I4B d   1       1.550   1.603  -2.655  0.00  0.00     0.002 A 
ATOM      6  C6  I4B d   1       1.584   2.620  -1.691  0.00  0.00     0.003 A 
ENDROOT
BRANCH   1   7
ATOM      7  C1' I4B d   1       2.870   4.086  -0.111  0.00  0.00     0.060 C 
BRANCH   7   8
ATOM      8  C2' I4B d   1       4.305   4.560  -0.004  0.00  0.00    -0.013 C 
ATOM      9  C4' I4B d   1       4.440   5.995  -0.439  0.00  0.00     0.013 C 
ATOM     10  C3' I4B d   1       4.746   4.382   1.419  0.00  0.00     0.013 C 
ENDBRANCH   7   8
ENDBRANCH   1   7
TORSDOF 2
ENDMDL
