MODEL 1
REMARK minimizedAffinity 6.37787104
REMARK minimizedRMSD -1
REMARK  2 active torsions:
REMARK  status: ('A' for Active; 'I' for Inactive)
REMARK    1  A    between atoms: C2'_3  and  C1'_4 
REMARK    2  A    between atoms: C1'_4  and  C1_5 
ROOT
ATOM      1  C1  I4B d   1       2.140   3.194   1.322  0.00  0.00    -0.075 A 
ATOM      2  C2  I4B d   1       3.017   3.879   0.520  0.00  0.00     0.003 A 
ATOM      3  C3  I4B d   1       4.356   4.080   0.935  0.00  0.00     0.002 A 
ATOM      4  C4  I4B d   1       4.758   3.626   2.174  0.00  0.00    -0.004 A 
ATOM      5  C5  I4B d   1       3.874   2.911   2.977  0.00  0.00     0.002 A 
ATOM      6  C6  I4B d   1       2.560   2.682   2.543  0.00  0.00     0.003 A 
ENDROOT
BRANCH   1   7
ATOM      7  C1' I4B d   1       0.725   3.028   0.867  0.00  0.00     0.060 C 
BRANCH   7   8
ATOM      8  C2' I4B d   1       0.117   1.876   1.641  0.00  0.00    -0.013 C 
ATOM      9  C4' I4B d   1      -1.125   2.309   2.375  0.00  0.00     0.013 C 
ATOM     10  C3' I4B d   1      -0.184   0.773   0.671  0.00  0.00     0.013 C 
ENDBRANCH   7   8
ENDBRANCH   1   7
TORSDOF 2
ENDMDL
