MODEL 1
REMARK minimizedAffinity -4.7099309
REMARK minimizedRMSD -1
REMARK  2 active torsions:
REMARK  status: ('A' for Active; 'I' for Inactive)
REMARK    1  A    between atoms: C2'_3  and  C1'_4 
REMARK    2  A    between atoms: C1'_4  and  C1_5 
ROOT
ATOM      1  C1  I4B d   1       0.242  -0.950   0.330  0.00  0.00    -0.075 A 
ATOM      2  C2  I4B d   1       1.511  -1.369   0.014  0.00  0.00     0.003 A 
ATOM      3  C3  I4B d   1       2.207  -2.246   0.880  0.00  0.00     0.002 A 
ATOM      4  C4  I4B d   1       1.622  -2.636   2.068  0.00  0.00    -0.004 A 
ATOM      5  C5  I4B d   1       0.327  -2.228   2.375  0.00  0.00     0.002 A 
ATOM      6  C6  I4B d   1      -0.372  -1.390   1.495  0.00  0.00     0.003 A 
ENDROOT
BRANCH   1   7
ATOM      7  C1' I4B d   1      -0.452   0.003  -0.591  0.00  0.00     0.060 C 
BRANCH   7   8
ATOM      8  C2' I4B d   1      -0.151   1.411  -0.120  0.00  0.00    -0.013 C 
ATOM      9  C4' I4B d   1      -0.959   1.762   1.101  0.00  0.00     0.013 C 
ATOM     10  C3' I4B d   1       1.320   1.501   0.159  0.00  0.00     0.013 C 
ENDBRANCH   7   8
ENDBRANCH   1   7
TORSDOF 2
ENDMDL
