MODEL 1
REMARK minimizedAffinity -4.19039965
REMARK minimizedRMSD -1
REMARK  2 active torsions:
REMARK  status: ('A' for Active; 'I' for Inactive)
REMARK    1  A    between atoms: C2'_3  and  C1'_4 
REMARK    2  A    between atoms: C1'_4  and  C1_5 
ROOT
ATOM      1  C1  I4B d   1       0.091  -1.026  -0.007  0.00  0.00    -0.075 A 
ATOM      2  C2  I4B d   1      -1.082  -0.313  -0.027  0.00  0.00     0.003 A 
ATOM      3  C3  I4B d   1      -1.055   1.102  -0.077  0.00  0.00     0.002 A 
ATOM      4  C4  I4B d   1       0.158   1.760  -0.054  0.00  0.00    -0.004 A 
ATOM      5  C5  I4B d   1       1.346   1.035  -0.057  0.00  0.00     0.002 A 
ATOM      6  C6  I4B d   1       1.313  -0.367  -0.045  0.00  0.00     0.003 A 
ENDROOT
BRANCH   1   7
ATOM      7  C1' I4B d   1       0.025  -2.518   0.080  0.00  0.00     0.060 C 
BRANCH   7   8
ATOM      8  C2' I4B d   1       0.119  -2.905   1.541  0.00  0.00    -0.013 C 
ATOM      9  C4' I4B d   1       1.544  -2.864   2.026  0.00  0.00     0.013 C 
ATOM     10  C3' I4B d   1      -0.747  -1.966   2.326  0.00  0.00     0.013 C 
ENDBRANCH   7   8
ENDBRANCH   1   7
TORSDOF 2
ENDMDL
