MODEL 1
REMARK minimizedAffinity -2.08583903
REMARK minimizedRMSD -1
REMARK  2 active torsions:
REMARK  status: ('A' for Active; 'I' for Inactive)
REMARK    1  A    between atoms: C2'_3  and  C1'_4 
REMARK    2  A    between atoms: C1'_4  and  C1_5 
ROOT
ATOM      1  C1  I4B d   1       0.291  -1.337   0.509  0.00  0.00    -0.075 A 
ATOM      2  C2  I4B d   1       1.148  -0.564  -0.234  0.00  0.00     0.003 A 
ATOM      3  C3  I4B d   1       0.848   0.798  -0.480  0.00  0.00     0.002 A 
ATOM      4  C4  I4B d   1      -0.336   1.329  -0.010  0.00  0.00    -0.004 A 
ATOM      5  C5  I4B d   1      -1.192   0.550   0.763  0.00  0.00     0.002 A 
ATOM      6  C6  I4B d   1      -0.872  -0.787   1.035  0.00  0.00     0.003 A 
ENDROOT
BRANCH   1   7
ATOM      7  C1' I4B d   1       0.622  -2.780   0.722  0.00  0.00     0.060 C 
BRANCH   7   8
ATOM      8  C2' I4B d   1       1.972  -2.853   1.405  0.00  0.00    -0.013 C 
ATOM      9  C4' I4B d   1       2.213  -1.642   2.269  0.00  0.00     0.013 C 
ATOM     10  C3' I4B d   1       2.013  -4.113   2.217  0.00  0.00     0.013 C 
ENDBRANCH   7   8
ENDBRANCH   1   7
TORSDOF 2
ENDMDL
