MODEL 1
REMARK minimizedAffinity -4.92167711
REMARK minimizedRMSD -1
REMARK  2 active torsions:
REMARK  status: ('A' for Active; 'I' for Inactive)
REMARK    1  A    between atoms: C2'_3  and  C1'_4 
REMARK    2  A    between atoms: C1'_4  and  C1_5 
ROOT
ATOM      1  C1  I4B d   1      -0.331  -1.439   0.807  0.00  0.00    -0.075 A 
ATOM      2  C2  I4B d   1      -0.726  -1.559   2.115  0.00  0.00     0.003 A 
ATOM      3  C3  I4B d   1       0.027  -2.346   3.019  0.00  0.00     0.002 A 
ATOM      4  C4  I4B d   1       1.134  -3.033   2.562  0.00  0.00    -0.004 A 
ATOM      5  C5  I4B d   1       1.546  -2.893   1.240  0.00  0.00     0.002 A 
ATOM      6  C6  I4B d   1       0.817  -2.081   0.360  0.00  0.00     0.003 A 
ENDROOT
BRANCH   1   7
ATOM      7  C1' I4B d   1      -1.168  -0.626  -0.128  0.00  0.00     0.060 C 
BRANCH   7   8
ATOM      8  C2' I4B d   1      -0.546   0.752  -0.234  0.00  0.00    -0.013 C 
ATOM      9  C4' I4B d   1       0.928   0.663  -0.528  0.00  0.00     0.013 C 
ATOM     10  C3' I4B d   1      -1.269   1.505  -1.310  0.00  0.00     0.013 C 
ENDBRANCH   7   8
ENDBRANCH   1   7
TORSDOF 2
ENDMDL
