MODEL 1
REMARK minimizedAffinity -4.3022933
REMARK minimizedRMSD -1
REMARK  2 active torsions:
REMARK  status: ('A' for Active; 'I' for Inactive)
REMARK    1  A    between atoms: C2'_3  and  C1'_4 
REMARK    2  A    between atoms: C1'_4  and  C1_5 
ROOT
ATOM      1  C1  I4B d   1      -0.437   0.311   0.183  0.00  0.00    -0.075 A 
ATOM      2  C2  I4B d   1      -1.086  -0.587   0.993  0.00  0.00     0.003 A 
ATOM      3  C3  I4B d   1      -0.437  -1.777   1.403  0.00  0.00     0.002 A 
ATOM      4  C4  I4B d   1       0.834  -2.051   0.940  0.00  0.00    -0.004 A 
ATOM      5  C5  I4B d   1       1.499  -1.129   0.137  0.00  0.00     0.002 A 
ATOM      6  C6  I4B d   1       0.865   0.065  -0.234  0.00  0.00     0.003 A 
ENDROOT
BRANCH   1   7
ATOM      7  C1' I4B d   1      -1.165   1.542  -0.257  0.00  0.00     0.060 C 
BRANCH   7   8
ATOM      8  C2' I4B d   1      -1.309   1.485  -1.764  0.00  0.00    -0.013 C 
ATOM      9  C4' I4B d   1      -2.711   1.110  -2.164  0.00  0.00     0.013 C 
ATOM     10  C3' I4B d   1      -0.929   2.827  -2.316  0.00  0.00     0.013 C 
ENDBRANCH   7   8
ENDBRANCH   1   7
TORSDOF 2
ENDMDL
