MODEL 1
REMARK minimizedAffinity -6.4007287
REMARK minimizedRMSD -1
REMARK  2 active torsions:
REMARK  status: ('A' for Active; 'I' for Inactive)
REMARK    1  A    between atoms: C2'_3  and  C1'_4 
REMARK    2  A    between atoms: C1'_4  and  C1_5 
ROOT
ATOM      1  C1  I4B d   1      -0.299  -0.147   0.194  0.00  0.00    -0.075 A 
ATOM      2  C2  I4B d   1      -0.692  -0.809   1.331  0.00  0.00     0.003 A 
ATOM      3  C3  I4B d   1       0.045  -1.924   1.798  0.00  0.00     0.002 A 
ATOM      4  C4  I4B d   1       1.132  -2.371   1.074  0.00  0.00    -0.004 A 
ATOM      5  C5  I4B d   1       1.542  -1.685  -0.065  0.00  0.00     0.002 A 
ATOM      6  C6  I4B d   1       0.830  -0.559  -0.502  0.00  0.00     0.003 A 
ENDROOT
BRANCH   1   7
ATOM      7  C1' I4B d   1      -1.120   1.006  -0.288  0.00  0.00     0.060 C 
BRANCH   7   8
ATOM      8  C2' I4B d   1      -1.110   0.984  -1.803  0.00  0.00    -0.013 C 
ATOM      9  C4' I4B d   1      -2.132   0.018  -2.342  0.00  0.00     0.013 C 
ATOM     10  C3' I4B d   1      -1.375   2.379  -2.288  0.00  0.00     0.013 C 
ENDBRANCH   7   8
ENDBRANCH   1   7
TORSDOF 2
ENDMDL
