MODEL 1
REMARK minimizedAffinity -4.46794987
REMARK minimizedRMSD -1
REMARK  2 active torsions:
REMARK  status: ('A' for Active; 'I' for Inactive)
REMARK    1  A    between atoms: C2'_3  and  C1'_4 
REMARK    2  A    between atoms: C1'_4  and  C1_5 
ROOT
ATOM      1  C1  I4B d   1       0.644  -0.620   0.249  0.00  0.00    -0.075 A 
ATOM      2  C2  I4B d   1       1.661  -1.475  -0.094  0.00  0.00     0.003 A 
ATOM      3  C3  I4B d   1       1.878  -2.660   0.650  0.00  0.00     0.002 A 
ATOM      4  C4  I4B d   1       1.091  -2.923   1.753  0.00  0.00    -0.004 A 
ATOM      5  C5  I4B d   1       0.046  -2.066   2.086  0.00  0.00     0.002 A 
ATOM      6  C6  I4B d   1      -0.187  -0.914   1.322  0.00  0.00     0.003 A 
ENDROOT
BRANCH   1   7
ATOM      7  C1' I4B d   1       0.465   0.639  -0.538  0.00  0.00     0.060 C 
BRANCH   7   8
ATOM      8  C2' I4B d   1      -0.984   1.065  -0.414  0.00  0.00    -0.013 C 
ATOM      9  C4' I4B d   1      -1.164   2.072   0.691  0.00  0.00     0.013 C 
ATOM     10  C3' I4B d   1      -1.416   1.628  -1.735  0.00  0.00     0.013 C 
ENDBRANCH   7   8
ENDBRANCH   1   7
TORSDOF 2
ENDMDL
