MODEL 1
REMARK minimizedAffinity -5.05391407
REMARK minimizedRMSD -1
REMARK  2 active torsions:
REMARK  status: ('A' for Active; 'I' for Inactive)
REMARK    1  A    between atoms: C2'_3  and  C1'_4 
REMARK    2  A    between atoms: C1'_4  and  C1_5 
ROOT
ATOM      1  C1  I4B d   1       0.258  -1.058   0.262  0.00  0.00    -0.075 A 
ATOM      2  C2  I4B d   1       1.187  -2.054   0.091  0.00  0.00     0.003 A 
ATOM      3  C3  I4B d   1       1.353  -3.052   1.082  0.00  0.00     0.002 A 
ATOM      4  C4  I4B d   1       0.611  -2.987   2.243  0.00  0.00    -0.004 A 
ATOM      5  C5  I4B d   1      -0.346  -1.989   2.405  0.00  0.00     0.002 A 
ATOM      6  C6  I4B d   1      -0.533  -1.026   1.403  0.00  0.00     0.003 A 
ENDROOT
BRANCH   1   7
ATOM      7  C1' I4B d   1       0.132  -0.002  -0.789  0.00  0.00     0.060 C 
BRANCH   7   8
ATOM      8  C2' I4B d   1      -1.135   0.782  -0.513  0.00  0.00    -0.013 C 
ATOM      9  C4' I4B d   1      -0.825   2.112   0.123  0.00  0.00     0.013 C 
ATOM     10  C3' I4B d   1      -1.862   0.961  -1.813  0.00  0.00     0.013 C 
ENDBRANCH   7   8
ENDBRANCH   1   7
TORSDOF 2
ENDMDL
