MODEL 1
REMARK minimizedAffinity -5.15989256
REMARK minimizedRMSD -1
REMARK  2 active torsions:
REMARK  status: ('A' for Active; 'I' for Inactive)
REMARK    1  A    between atoms: C2'_3  and  C1'_4 
REMARK    2  A    between atoms: C1'_4  and  C1_5 
ROOT
ATOM      1  C1  I4B d   1       0.282  -0.602   0.622  0.00  0.00    -0.075 A 
ATOM      2  C2  I4B d   1       1.289  -1.533   0.552  0.00  0.00     0.003 A 
ATOM      3  C3  I4B d   1       1.385  -2.554   1.529  0.00  0.00     0.002 A 
ATOM      4  C4  I4B d   1       0.490  -2.576   2.579  0.00  0.00    -0.004 A 
ATOM      5  C5  I4B d   1      -0.543  -1.645   2.636  0.00  0.00     0.002 A 
ATOM      6  C6  I4B d   1      -0.655  -0.659   1.645  0.00  0.00     0.003 A 
ENDROOT
BRANCH   1   7
ATOM      7  C1' I4B d   1       0.230   0.481  -0.408  0.00  0.00     0.060 C 
BRANCH   7   8
ATOM      8  C2' I4B d   1      -1.193   0.999  -0.469  0.00  0.00    -0.013 C 
ATOM      9  C4' I4B d   1      -1.480   1.939   0.671  0.00  0.00     0.013 C 
ATOM     10  C3' I4B d   1      -1.382   1.679  -1.792  0.00  0.00     0.013 C 
ENDBRANCH   7   8
ENDBRANCH   1   7
TORSDOF 2
ENDMDL
