MODEL 1
REMARK minimizedAffinity -2.81351042
REMARK minimizedRMSD -1
REMARK  2 active torsions:
REMARK  status: ('A' for Active; 'I' for Inactive)
REMARK    1  A    between atoms: C2'_3  and  C1'_4 
REMARK    2  A    between atoms: C1'_4  and  C1_5 
ROOT
ATOM      1  C1  I4B d   1      -0.004  -0.328   0.491  0.00  0.00    -0.075 A 
ATOM      2  C2  I4B d   1       1.146  -1.055   0.312  0.00  0.00     0.003 A 
ATOM      3  C3  I4B d   1       1.486  -2.086   1.221  0.00  0.00     0.002 A 
ATOM      4  C4  I4B d   1       0.680  -2.320   2.316  0.00  0.00    -0.004 A 
ATOM      5  C5  I4B d   1      -0.497  -1.597   2.484  0.00  0.00     0.002 A 
ATOM      6  C6  I4B d   1      -0.849  -0.603   1.559  0.00  0.00     0.003 A 
ENDROOT
BRANCH   1   7
ATOM      7  C1' I4B d   1      -0.317   0.776  -0.469  0.00  0.00     0.060 C 
BRANCH   7   8
ATOM      8  C2' I4B d   1      -0.936   0.157  -1.706  0.00  0.00    -0.013 C 
ATOM      9  C4' I4B d   1      -1.698   1.181  -2.505  0.00  0.00     0.013 C 
ATOM     10  C3' I4B d   1       0.166  -0.454  -2.519  0.00  0.00     0.013 C 
ENDBRANCH   7   8
ENDBRANCH   1   7
TORSDOF 2
ENDMDL
