MODEL 1
REMARK minimizedAffinity -6.00651836
REMARK minimizedRMSD -1
REMARK  2 active torsions:
REMARK  status: ('A' for Active; 'I' for Inactive)
REMARK    1  A    between atoms: C2'_3  and  C1'_4 
REMARK    2  A    between atoms: C1'_4  and  C1_5 
ROOT
ATOM      1  C1  I4B d   1      -0.218  -0.630   1.271  0.00  0.00    -0.075 A 
ATOM      2  C2  I4B d   1       0.638  -1.374   0.497  0.00  0.00     0.003 A 
ATOM      3  C3  I4B d   1       1.294  -2.503   1.044  0.00  0.00     0.002 A 
ATOM      4  C4  I4B d   1       1.106  -2.821   2.374  0.00  0.00    -0.004 A 
ATOM      5  C5  I4B d   1       0.220  -2.079   3.150  0.00  0.00     0.002 A 
ATOM      6  C6  I4B d   1      -0.455  -0.984   2.592  0.00  0.00     0.003 A 
ENDROOT
BRANCH   1   7
ATOM      7  C1' I4B d   1      -0.868   0.575   0.670  0.00  0.00     0.060 C 
BRANCH   7   8
ATOM      8  C2' I4B d   1      -0.090   0.956  -0.573  0.00  0.00    -0.013 C 
ATOM      9  C4' I4B d   1      -0.879   1.898  -1.444  0.00  0.00     0.013 C 
ATOM     10  C3' I4B d   1       1.204   1.576  -0.137  0.00  0.00     0.013 C 
ENDBRANCH   7   8
ENDBRANCH   1   7
TORSDOF 2
ENDMDL
