MODEL 1
REMARK minimizedAffinity -5.14295483
REMARK minimizedRMSD -1
REMARK  2 active torsions:
REMARK  status: ('A' for Active; 'I' for Inactive)
REMARK    1  A    between atoms: C2'_3  and  C1'_4 
REMARK    2  A    between atoms: C1'_4  and  C1_5 
ROOT
ATOM      1  C1  I4B d   1       0.620  -0.527   0.488  0.00  0.00    -0.075 A 
ATOM      2  C2  I4B d   1       1.849  -1.138   0.534  0.00  0.00     0.003 A 
ATOM      3  C3  I4B d   1       2.042  -2.290   1.335  0.00  0.00     0.002 A 
ATOM      4  C4  I4B d   1       1.000  -2.764   2.106  0.00  0.00    -0.004 A 
ATOM      5  C5  I4B d   1      -0.250  -2.157   2.040  0.00  0.00     0.002 A 
ATOM      6  C6  I4B d   1      -0.445  -1.039   1.216  0.00  0.00     0.003 A 
ENDROOT
BRANCH   1   7
ATOM      7  C1' I4B d   1       0.460   0.706  -0.343  0.00  0.00     0.060 C 
BRANCH   7   8
ATOM      8  C2' I4B d   1      -0.996   1.120  -0.288  0.00  0.00    -0.013 C 
ATOM      9  C4' I4B d   1      -1.282   1.949   0.937  0.00  0.00     0.013 C 
ATOM     10  C3' I4B d   1      -1.309   1.881  -1.542  0.00  0.00     0.013 C 
ENDBRANCH   7   8
ENDBRANCH   1   7
TORSDOF 2
ENDMDL
