MODEL 1
REMARK minimizedAffinity -5.09791422
REMARK minimizedRMSD -1
REMARK  2 active torsions:
REMARK  status: ('A' for Active; 'I' for Inactive)
REMARK    1  A    between atoms: C2'_3  and  C1'_4 
REMARK    2  A    between atoms: C1'_4  and  C1_5 
ROOT
ATOM      1  C1  I4B d   1      -0.353   0.221   0.393  0.00  0.00    -0.075 A 
ATOM      2  C2  I4B d   1      -0.917  -0.500   1.415  0.00  0.00     0.003 A 
ATOM      3  C3  I4B d   1      -0.302  -1.691   1.872  0.00  0.00     0.002 A 
ATOM      4  C4  I4B d   1       0.841  -2.148   1.248  0.00  0.00    -0.004 A 
ATOM      5  C5  I4B d   1       1.424  -1.404   0.226  0.00  0.00     0.002 A 
ATOM      6  C6  I4B d   1       0.831  -0.206  -0.196  0.00  0.00     0.003 A 
ENDROOT
BRANCH   1   7
ATOM      7  C1' I4B d   1      -1.047   1.456  -0.087  0.00  0.00     0.060 C 
BRANCH   7   8
ATOM      8  C2' I4B d   1      -1.060   1.426  -1.601  0.00  0.00    -0.013 C 
ATOM      9  C4' I4B d   1      -2.282   0.717  -2.122  0.00  0.00     0.013 C 
ATOM     10  C3' I4B d   1      -1.004   2.842  -2.093  0.00  0.00     0.013 C 
ENDBRANCH   7   8
ENDBRANCH   1   7
TORSDOF 2
ENDMDL
