MODEL 1
REMARK minimizedAffinity -4.27210855
REMARK minimizedRMSD -1
REMARK  2 active torsions:
REMARK  status: ('A' for Active; 'I' for Inactive)
REMARK    1  A    between atoms: C2'_3  and  C1'_4 
REMARK    2  A    between atoms: C1'_4  and  C1_5 
ROOT
ATOM      1  C1  I4B d   1       0.529  -0.593   0.504  0.00  0.00    -0.075 A 
ATOM      2  C2  I4B d   1      -0.523  -0.491   1.380  0.00  0.00     0.003 A 
ATOM      3  C3  I4B d   1      -1.430   0.593   1.281  0.00  0.00     0.002 A 
ATOM      4  C4  I4B d   1      -1.219   1.571   0.331  0.00  0.00    -0.004 A 
ATOM      5  C5  I4B d   1      -0.165   1.454  -0.570  0.00  0.00     0.002 A 
ATOM      6  C6  I4B d   1       0.708   0.359  -0.491  0.00  0.00     0.003 A 
ENDROOT
BRANCH   1   7
ATOM      7  C1' I4B d   1       1.486  -1.732   0.658  0.00  0.00     0.060 C 
BRANCH   7   8
ATOM      8  C2' I4B d   1       1.854  -1.838   2.124  0.00  0.00    -0.013 C 
ATOM      9  C4' I4B d   1       1.683  -3.247   2.628  0.00  0.00     0.013 C 
ATOM     10  C3' I4B d   1       3.271  -1.375   2.281  0.00  0.00     0.013 C 
ENDBRANCH   7   8
ENDBRANCH   1   7
TORSDOF 2
ENDMDL
