MODEL 1
REMARK minimizedAffinity -6.36850548
REMARK minimizedRMSD -1
REMARK  2 active torsions:
REMARK  status: ('A' for Active; 'I' for Inactive)
REMARK    1  A    between atoms: C2'_3  and  C1'_4 
REMARK    2  A    between atoms: C1'_4  and  C1_5 
ROOT
ATOM      1  C1  I4B d   1      -0.411   0.020   0.060  0.00  0.00    -0.075 A 
ATOM      2  C2  I4B d   1       0.911   0.166  -0.281  0.00  0.00     0.003 A 
ATOM      3  C3  I4B d   1       1.848  -0.842   0.052  0.00  0.00     0.002 A 
ATOM      4  C4  I4B d   1       1.432  -1.948   0.765  0.00  0.00    -0.004 A 
ATOM      5  C5  I4B d   1       0.087  -2.105   1.089  0.00  0.00     0.002 A 
ATOM      6  C6  I4B d   1      -0.842  -1.121   0.724  0.00  0.00     0.003 A 
ENDROOT
BRANCH   1   7
ATOM      7  C1' I4B d   1      -1.367   1.120  -0.278  0.00  0.00     0.060 C 
BRANCH   7   8
ATOM      8  C2' I4B d   1      -1.396   1.267  -1.786  0.00  0.00    -0.013 C 
ATOM      9  C4' I4B d   1      -2.733   0.863  -2.348  0.00  0.00     0.013 C 
ATOM     10  C3' I4B d   1      -1.077   2.694  -2.118  0.00  0.00     0.013 C 
ENDBRANCH   7   8
ENDBRANCH   1   7
TORSDOF 2
ENDMDL
