MODEL 1
REMARK minimizedAffinity 7.69035482
REMARK minimizedRMSD -1
REMARK  1 active torsions:
REMARK  status: ('A' for Active; 'I' for Inactive)
REMARK    1  A    between atoms: C1_2  and  C2_3 
ROOT
ATOM      1  C2  UNL d   1      -0.670  -0.685  -1.932  0.00  0.00    -0.077 A 
ATOM      2  C3  UNL d   1      -0.648  -1.454  -0.760  0.00  0.00     0.002 A 
ATOM      3  C4  UNL d   1      -1.841  -1.886  -0.177  0.00  0.00     0.002 A 
ATOM      4  C5  UNL d   1      -3.063  -1.557  -0.760  0.00  0.00    -0.004 A 
ATOM      5  C6  UNL d   1      -3.095  -0.791  -1.924  0.00  0.00     0.002 A 
ATOM      6  C7  UNL d   1      -1.904  -0.357  -2.508  0.00  0.00     0.002 A 
ENDROOT
BRANCH   1   7
ATOM      7  C1  UNL d   1       0.617  -0.259  -2.589  0.00  0.00     0.055 C 
ATOM      8  C   UNL d   1       1.494   0.533  -1.630  0.00  0.00     0.019 C 
ENDBRANCH   1   7
TORSDOF 1
ENDMDL
