MODEL 1
REMARK minimizedAffinity 16.8563747
REMARK minimizedRMSD -1
REMARK  1 active torsions:
REMARK  status: ('A' for Active; 'I' for Inactive)
REMARK    1  A    between atoms: C1_2  and  C2_3 
ROOT
ATOM      1  C2  UNL d   1      -1.558  -3.755   4.058  0.00  0.00    -0.077 A 
ATOM      2  C3  UNL d   1      -0.700  -3.902   5.158  0.00  0.00     0.002 A 
ATOM      3  C4  UNL d   1      -0.802  -5.019   5.989  0.00  0.00     0.002 A 
ATOM      4  C5  UNL d   1      -1.757  -6.000   5.727  0.00  0.00    -0.004 A 
ATOM      5  C6  UNL d   1      -2.616  -5.862   4.638  0.00  0.00     0.002 A 
ATOM      6  C7  UNL d   1      -2.516  -4.745   3.807  0.00  0.00     0.002 A 
ENDROOT
BRANCH   1   7
ATOM      7  C1  UNL d   1      -1.417  -2.576   3.132  0.00  0.00     0.055 C 
ATOM      8  C   UNL d   1      -2.154  -1.358   3.670  0.00  0.00     0.019 C 
ENDBRANCH   1   7
TORSDOF 1
ENDMDL
