MODEL 1
REMARK minimizedAffinity 1.9431957
REMARK minimizedRMSD -1
REMARK  1 active torsions:
REMARK  status: ('A' for Active; 'I' for Inactive)
REMARK    1  A    between atoms: C1_2  and  C2_3 
ROOT
ATOM      1  C2  UNL d   1      -4.328   4.890  -0.758  0.00  0.00    -0.077 A 
ATOM      2  C3  UNL d   1      -4.404   3.707  -0.010  0.00  0.00     0.002 A 
ATOM      3  C4  UNL d   1      -5.220   3.638   1.121  0.00  0.00     0.002 A 
ATOM      4  C5  UNL d   1      -5.969   4.747   1.510  0.00  0.00    -0.004 A 
ATOM      5  C6  UNL d   1      -5.898   5.928   0.773  0.00  0.00     0.002 A 
ATOM      6  C7  UNL d   1      -5.082   5.999  -0.356  0.00  0.00     0.002 A 
ENDROOT
BRANCH   1   7
ATOM      7  C1  UNL d   1      -3.486   4.950  -2.006  0.00  0.00     0.055 C 
ATOM      8  C   UNL d   1      -4.009   6.000  -2.976  0.00  0.00     0.019 C 
ENDBRANCH   1   7
TORSDOF 1
ENDMDL
