MODEL 1
REMARK minimizedAffinity 11.551918
REMARK minimizedRMSD -1
REMARK  1 active torsions:
REMARK  status: ('A' for Active; 'I' for Inactive)
REMARK    1  A    between atoms: C1_2  and  C2_3 
ROOT
ATOM      1  C2  UNL d   1      -4.071   3.781  -4.572  0.00  0.00    -0.077 A 
ATOM      2  C3  UNL d   1      -4.056   4.881  -3.703  0.00  0.00     0.002 A 
ATOM      3  C4  UNL d   1      -5.002   5.899  -3.836  0.00  0.00     0.002 A 
ATOM      4  C5  UNL d   1      -5.972   5.825  -4.833  0.00  0.00    -0.004 A 
ATOM      5  C6  UNL d   1      -5.994   4.736  -5.704  0.00  0.00     0.002 A 
ATOM      6  C7  UNL d   1      -5.048   3.718  -5.574  0.00  0.00     0.002 A 
ENDROOT
BRANCH   1   7
ATOM      7  C1  UNL d   1      -3.082   2.658  -4.400  0.00  0.00     0.055 C 
ATOM      8  C   UNL d   1      -1.667   3.111  -4.730  0.00  0.00     0.019 C 
ENDBRANCH   1   7
TORSDOF 1
ENDMDL
