MODEL 1
REMARK minimizedAffinity 12.8532429
REMARK minimizedRMSD -1
REMARK  1 active torsions:
REMARK  status: ('A' for Active; 'I' for Inactive)
REMARK    1  A    between atoms: C1_2  and  C2_3 
ROOT
ATOM      1  C2  UNL d   1      -4.033   3.694   0.491  0.00  0.00    -0.077 A 
ATOM      2  C3  UNL d   1      -5.208   3.813   1.246  0.00  0.00     0.002 A 
ATOM      3  C4  UNL d   1      -5.995   4.962   1.151  0.00  0.00     0.002 A 
ATOM      4  C5  UNL d   1      -5.618   5.998   0.299  0.00  0.00    -0.004 A 
ATOM      5  C6  UNL d   1      -4.450   5.890  -0.455  0.00  0.00     0.002 A 
ATOM      6  C7  UNL d   1      -3.662   4.743  -0.360  0.00  0.00     0.002 A 
ENDROOT
BRANCH   1   7
ATOM      7  C1  UNL d   1      -3.208   2.435   0.555  0.00  0.00     0.055 C 
ATOM      8  C   UNL d   1      -2.526   2.289   1.908  0.00  0.00     0.019 C 
ENDBRANCH   1   7
TORSDOF 1
ENDMDL
