MODEL 1
REMARK minimizedAffinity 11.9126577
REMARK minimizedRMSD -1
REMARK  1 active torsions:
REMARK  status: ('A' for Active; 'I' for Inactive)
REMARK    1  A    between atoms: C1_2  and  C2_3 
ROOT
ATOM      1  C2  UNL d   1      -2.834  -1.800  -0.945  0.00  0.00    -0.077 A 
ATOM      2  C3  UNL d   1      -3.334  -0.935  -1.928  0.00  0.00     0.002 A 
ATOM      3  C4  UNL d   1      -2.892  -1.036  -3.249  0.00  0.00     0.002 A 
ATOM      4  C5  UNL d   1      -1.951  -2.002  -3.598  0.00  0.00    -0.004 A 
ATOM      5  C6  UNL d   1      -1.446  -2.866  -2.627  0.00  0.00     0.002 A 
ATOM      6  C7  UNL d   1      -1.886  -2.766  -1.307  0.00  0.00     0.002 A 
ENDROOT
BRANCH   1   7
ATOM      7  C1  UNL d   1      -3.346  -1.725   0.470  0.00  0.00     0.055 C 
ATOM      8  C   UNL d   1      -4.867  -1.749   0.510  0.00  0.00     0.019 C 
ENDBRANCH   1   7
TORSDOF 1
ENDMDL
