MODEL 1
REMARK minimizedAffinity 6.24365282
REMARK minimizedRMSD -1
REMARK  1 active torsions:
REMARK  status: ('A' for Active; 'I' for Inactive)
REMARK    1  A    between atoms: C1_2  and  C2_3 
ROOT
ATOM      1  C2  UNL d   1      -0.958  -0.871  -1.729  0.00  0.00    -0.077 A 
ATOM      2  C3  UNL d   1      -2.139  -0.292  -2.213  0.00  0.00     0.002 A 
ATOM      3  C4  UNL d   1      -3.328  -0.401  -1.490  0.00  0.00     0.002 A 
ATOM      4  C5  UNL d   1      -3.347  -1.084  -0.276  0.00  0.00    -0.004 A 
ATOM      5  C6  UNL d   1      -2.178  -1.666   0.214  0.00  0.00     0.002 A 
ATOM      6  C7  UNL d   1      -0.989  -1.559  -0.509  0.00  0.00     0.002 A 
ENDROOT
BRANCH   1   7
ATOM      7  C1  UNL d   1       0.336  -0.713  -2.484  0.00  0.00     0.055 C 
ATOM      8  C   UNL d   1       1.343   0.107  -1.691  0.00  0.00     0.019 C 
ENDBRANCH   1   7
TORSDOF 1
ENDMDL
