MODEL 1
REMARK minimizedAffinity 16.0313683
REMARK minimizedRMSD -1
REMARK  1 active torsions:
REMARK  status: ('A' for Active; 'I' for Inactive)
REMARK    1  A    between atoms: C1_2  and  C2_3 
ROOT
ATOM      1  C2  UNL d   1       3.631   0.172  -2.275  0.00  0.00    -0.077 A 
ATOM      2  C3  UNL d   1       3.736  -1.142  -2.751  0.00  0.00     0.002 A 
ATOM      3  C4  UNL d   1       4.916  -1.582  -3.355  0.00  0.00     0.002 A 
ATOM      4  C5  UNL d   1       5.999  -0.716  -3.484  0.00  0.00    -0.004 A 
ATOM      5  C6  UNL d   1       5.904   0.594  -3.015  0.00  0.00     0.002 A 
ATOM      6  C7  UNL d   1       4.725   1.036  -2.412  0.00  0.00     0.002 A 
ENDROOT
BRANCH   1   7
ATOM      7  C1  UNL d   1       2.377   0.634  -1.579  0.00  0.00     0.055 C 
ATOM      8  C   UNL d   1       2.612   1.930  -0.817  0.00  0.00     0.019 C 
ENDBRANCH   1   7
TORSDOF 1
ENDMDL
