MODEL 1
REMARK minimizedAffinity 6.95293665
REMARK minimizedRMSD -1
REMARK  1 active torsions:
REMARK  status: ('A' for Active; 'I' for Inactive)
REMARK    1  A    between atoms: C1_2  and  C2_3 
ROOT
ATOM      1  C2  UNL d   1       4.780   4.585  -0.194  0.00  0.00    -0.077 A 
ATOM      2  C3  UNL d   1       3.962   3.536   0.250  0.00  0.00     0.002 A 
ATOM      3  C4  UNL d   1       4.139   2.243  -0.248  0.00  0.00     0.002 A 
ATOM      4  C5  UNL d   1       5.135   1.987  -1.188  0.00  0.00    -0.004 A 
ATOM      5  C6  UNL d   1       5.953   3.024  -1.637  0.00  0.00     0.002 A 
ATOM      6  C7  UNL d   1       5.776   4.317  -1.141  0.00  0.00     0.002 A 
ENDROOT
BRANCH   1   7
ATOM      7  C1  UNL d   1       4.623   5.969   0.378  0.00  0.00     0.055 C 
ATOM      8  C   UNL d   1       4.945   5.994   1.865  0.00  0.00     0.019 C 
ENDBRANCH   1   7
TORSDOF 1
ENDMDL
