MODEL 1
REMARK minimizedAffinity 5.13747501
REMARK minimizedRMSD -1
REMARK  1 active torsions:
REMARK  status: ('A' for Active; 'I' for Inactive)
REMARK    1  A    between atoms: C1_2  and  C2_3 
ROOT
ATOM      1  C2  UNL d   1      -1.812  -1.848   2.771  0.00  0.00    -0.077 A 
ATOM      2  C3  UNL d   1      -2.611  -1.389   1.714  0.00  0.00     0.002 A 
ATOM      3  C4  UNL d   1      -2.308  -1.736   0.397  0.00  0.00     0.002 A 
ATOM      4  C5  UNL d   1      -1.208  -2.546   0.123  0.00  0.00    -0.004 A 
ATOM      5  C6  UNL d   1      -0.405  -3.006   1.167  0.00  0.00     0.002 A 
ATOM      6  C7  UNL d   1      -0.706  -2.659   2.485  0.00  0.00     0.002 A 
ENDROOT
BRANCH   1   7
ATOM      7  C1  UNL d   1      -2.166  -1.515   4.197  0.00  0.00     0.055 C 
ATOM      8  C   UNL d   1      -1.432  -2.421   5.175  0.00  0.00     0.019 C 
ENDBRANCH   1   7
TORSDOF 1
ENDMDL
