MODEL 1
REMARK minimizedAffinity 10.5378656
REMARK minimizedRMSD -1
REMARK  1 active torsions:
REMARK  status: ('A' for Active; 'I' for Inactive)
REMARK    1  A    between atoms: C1_2  and  C2_3 
ROOT
ATOM      1  C2  UNL d   1      -2.077  -1.404   5.598  0.00  0.00    -0.077 A 
ATOM      2  C3  UNL d   1      -1.657  -0.066   5.598  0.00  0.00     0.002 A 
ATOM      3  C4  UNL d   1      -2.579   0.964   5.796  0.00  0.00     0.002 A 
ATOM      4  C5  UNL d   1      -3.924   0.667   6.000  0.00  0.00    -0.004 A 
ATOM      5  C6  UNL d   1      -4.353  -0.660   6.000  0.00  0.00     0.002 A 
ATOM      6  C7  UNL d   1      -3.433  -1.691   5.800  0.00  0.00     0.002 A 
ENDROOT
BRANCH   1   7
ATOM      7  C1  UNL d   1      -1.077  -2.518   5.433  0.00  0.00     0.055 C 
ATOM      8  C   UNL d   1      -1.679  -3.863   5.815  0.00  0.00     0.019 C 
ENDBRANCH   1   7
TORSDOF 1
ENDMDL
