MODEL 1
REMARK minimizedAffinity 7.2731595
REMARK minimizedRMSD -1
REMARK  1 active torsions:
REMARK  status: ('A' for Active; 'I' for Inactive)
REMARK    1  A    between atoms: C1_2  and  C2_3 
ROOT
ATOM      1  C2  UNL d   1      -1.541  -2.449   3.178  0.00  0.00    -0.077 A 
ATOM      2  C3  UNL d   1      -2.675  -2.011   2.480  0.00  0.00     0.002 A 
ATOM      3  C4  UNL d   1      -2.735  -2.117   1.090  0.00  0.00     0.002 A 
ATOM      4  C5  UNL d   1      -1.665  -2.666   0.385  0.00  0.00    -0.004 A 
ATOM      5  C6  UNL d   1      -0.532  -3.104   1.069  0.00  0.00     0.002 A 
ATOM      6  C7  UNL d   1      -0.470  -2.997   2.459  0.00  0.00     0.002 A 
ENDROOT
BRANCH   1   7
ATOM      7  C1  UNL d   1      -1.495  -2.380   4.682  0.00  0.00     0.055 C 
ATOM      8  C   UNL d   1      -2.409  -1.287   5.214  0.00  0.00     0.019 C 
ENDBRANCH   1   7
TORSDOF 1
ENDMDL
