MODEL 1
REMARK minimizedAffinity 5.52807808
REMARK minimizedRMSD -1
REMARK  1 active torsions:
REMARK  status: ('A' for Active; 'I' for Inactive)
REMARK    1  A    between atoms: C1_2  and  C2_3 
ROOT
ATOM      1  C2  UNL d   1      -1.971  -2.371   4.260  0.00  0.00    -0.077 A 
ATOM      2  C3  UNL d   1      -3.139  -2.641   4.987  0.00  0.00     0.002 A 
ATOM      3  C4  UNL d   1      -3.668  -1.683   5.854  0.00  0.00     0.002 A 
ATOM      4  C5  UNL d   1      -3.039  -0.448   5.999  0.00  0.00    -0.004 A 
ATOM      5  C6  UNL d   1      -1.876  -0.171   5.282  0.00  0.00     0.002 A 
ATOM      6  C7  UNL d   1      -1.344  -1.128   4.416  0.00  0.00     0.002 A 
ENDROOT
BRANCH   1   7
ATOM      7  C1  UNL d   1      -1.425  -3.384   3.288  0.00  0.00     0.055 C 
ATOM      8  C   UNL d   1      -1.324  -2.804   1.884  0.00  0.00     0.019 C 
ENDBRANCH   1   7
TORSDOF 1
ENDMDL
