MODEL 1
REMARK minimizedAffinity -1.48169684
REMARK minimizedRMSD -1
REMARK  0 active torsions:
REMARK  status: ('A' for Active; 'I' for Inactive)
ROOT
ATOM      1  C   UNL d   1      -1.466   0.971   2.614  0.00  0.00    -0.002 A 
ATOM      2  C1  UNL d   1      -2.202   0.717   1.465  0.00  0.00     0.010 A 
ATOM      3  C2  UNL d   1      -1.593   0.152   0.343  0.00  0.00     0.041 A 
ATOM      4  C3  UNL d   1      -0.220  -0.158   0.395  0.00  0.00    -0.075 A 
ATOM      5  S   UNL d   1       0.737  -0.855  -0.858  0.00  0.00     0.015 SA
ATOM      6  C4  UNL d   1       2.145  -0.833   0.103  0.00  0.00     0.022 A 
ATOM      7  C5  UNL d   1       1.909  -0.309   1.352  0.00  0.00     0.026 A 
ATOM      8  C6  UNL d   1       0.542   0.089   1.541  0.00  0.00    -0.082 A 
ATOM      9  C7  UNL d   1      -0.104   0.663   2.662  0.00  0.00     0.045 A 
ENDROOT
TORSDOF 0
ENDMDL
