MODEL 1
REMARK minimizedAffinity -1.32102561
REMARK minimizedRMSD -1
REMARK  0 active torsions:
REMARK  status: ('A' for Active; 'I' for Inactive)
ROOT
ATOM      1  C   UNL d   1       2.283  -1.539   0.138  0.00  0.00    -0.002 A 
ATOM      2  C1  UNL d   1       1.382  -1.589  -0.916  0.00  0.00     0.010 A 
ATOM      3  C2  UNL d   1       0.237  -0.789  -0.911  0.00  0.00     0.041 A 
ATOM      4  C3  UNL d   1       0.013   0.073   0.180  0.00  0.00    -0.075 A 
ATOM      5  S   UNL d   1      -1.319   1.145   0.401  0.00  0.00     0.015 SA
ATOM      6  C4  UNL d   1      -0.722   1.696   1.900  0.00  0.00     0.022 A 
ATOM      7  C5  UNL d   1       0.463   1.087   2.239  0.00  0.00     0.026 A 
ATOM      8  C6  UNL d   1       0.906   0.142   1.253  0.00  0.00    -0.082 A 
ATOM      9  C7  UNL d   1       2.057  -0.683   1.219  0.00  0.00     0.045 A 
ENDROOT
TORSDOF 0
ENDMDL
