MODEL 1
REMARK minimizedAffinity -2.58449531
REMARK minimizedRMSD -1
REMARK  0 active torsions:
REMARK  status: ('A' for Active; 'I' for Inactive)
ROOT
ATOM      1  C   UNL d   1      -1.669   1.228   2.792  0.00  0.00    -0.002 A 
ATOM      2  C1  UNL d   1      -0.324   1.549   2.912  0.00  0.00     0.010 A 
ATOM      3  C2  UNL d   1       0.590   1.158   1.932  0.00  0.00     0.041 A 
ATOM      4  C3  UNL d   1       0.125   0.434   0.816  0.00  0.00    -0.075 A 
ATOM      5  S   UNL d   1       1.061  -0.148  -0.509  0.00  0.00     0.015 SA
ATOM      6  C4  UNL d   1      -0.302  -0.836  -1.266  0.00  0.00     0.022 A 
ATOM      7  C5  UNL d   1      -1.451  -0.636  -0.540  0.00  0.00     0.026 A 
ATOM      8  C6  UNL d   1      -1.225   0.100   0.672  0.00  0.00    -0.082 A 
ATOM      9  C7  UNL d   1      -2.126   0.509   1.684  0.00  0.00     0.045 A 
ENDROOT
TORSDOF 0
ENDMDL
