MODEL 1
REMARK minimizedAffinity -5.62085438
REMARK minimizedRMSD -1
REMARK  0 active torsions:
REMARK  status: ('A' for Active; 'I' for Inactive)
ROOT
ATOM      1  C   UNL d   1       0.401   0.700   3.643  0.00  0.00    -0.002 A 
ATOM      2  C1  UNL d   1       1.532   0.043   3.180  0.00  0.00     0.010 A 
ATOM      3  C2  UNL d   1       1.593  -0.425   1.866  0.00  0.00     0.041 A 
ATOM      4  C3  UNL d   1       0.489  -0.217   1.016  0.00  0.00    -0.075 A 
ATOM      5  S   UNL d   1       0.339  -0.702  -0.632  0.00  0.00     0.015 SA
ATOM      6  C4  UNL d   1      -1.229  -0.046  -0.760  0.00  0.00     0.022 A 
ATOM      7  C5  UNL d   1      -1.644   0.531   0.416  0.00  0.00     0.026 A 
ATOM      8  C6  UNL d   1      -0.661   0.443   1.459  0.00  0.00    -0.082 A 
ATOM      9  C7  UNL d   1      -0.692   0.904   2.797  0.00  0.00     0.045 A 
ENDROOT
TORSDOF 0
ENDMDL
