MODEL 1
REMARK minimizedAffinity -1.45993507
REMARK minimizedRMSD -1
REMARK  0 active torsions:
REMARK  status: ('A' for Active; 'I' for Inactive)
ROOT
ATOM      1  C   UNL d   1       0.426   0.018  -1.315  0.00  0.00    -0.002 A 
ATOM      2  C1  UNL d   1      -0.612  -0.890  -1.166  0.00  0.00     0.010 A 
ATOM      3  C2  UNL d   1      -1.353  -0.935   0.016  0.00  0.00     0.041 A 
ATOM      4  C3  UNL d   1      -1.031  -0.041   1.057  0.00  0.00    -0.075 A 
ATOM      5  S   UNL d   1      -1.802   0.086   2.594  0.00  0.00     0.015 SA
ATOM      6  C4  UNL d   1      -0.771   1.350   3.089  0.00  0.00     0.022 A 
ATOM      7  C5  UNL d   1       0.144   1.680   2.118  0.00  0.00     0.026 A 
ATOM      8  C6  UNL d   1       0.009   0.884   0.930  0.00  0.00    -0.082 A 
ATOM      9  C7  UNL d   1       0.742   0.903  -0.281  0.00  0.00     0.045 A 
ENDROOT
TORSDOF 0
ENDMDL
