MODEL 1
REMARK minimizedAffinity -5.98008108
REMARK minimizedRMSD -1
REMARK  2 active torsions:
REMARK  status: ('A' for Active; 'I' for Inactive)
REMARK    1  A    between atoms: C1_2  and  C2_3 
REMARK    2  A    between atoms: C2_3  and  C3_4 
ROOT
ATOM      1  C3  UNL d   1      -0.599  -0.827   0.307  0.00  0.00    -0.075 A 
ATOM      2  C4  UNL d   1      -1.650  -0.713   1.228  0.00  0.00     0.002 A 
ATOM      3  C5  UNL d   1      -2.101   0.542   1.637  0.00  0.00     0.002 A 
ATOM      4  C6  UNL d   1      -1.502   1.697   1.138  0.00  0.00    -0.004 A 
ATOM      5  C7  UNL d   1      -0.446   1.596   0.235  0.00  0.00     0.002 A 
ATOM      6  C8  UNL d   1       0.005   0.341  -0.178  0.00  0.00     0.002 A 
ENDROOT
BRANCH   1   7
ATOM      7  C2  UNL d   1      -0.125  -2.182  -0.161  0.00  0.00     0.056 C 
BRANCH   7   8
ATOM      8  C1  UNL d   1       0.807  -2.132  -1.377  0.00  0.00     0.007 C 
ATOM      9  C   UNL d   1       0.077  -2.316  -2.701  0.00  0.00     0.009 C 
ENDBRANCH   7   8
ENDBRANCH   1   7
TORSDOF 2
ENDMDL
