MODEL 1
REMARK minimizedAffinity -6.03638029
REMARK minimizedRMSD -1
REMARK  2 active torsions:
REMARK  status: ('A' for Active; 'I' for Inactive)
REMARK    1  A    between atoms: C1_2  and  C2_3 
REMARK    2  A    between atoms: C2_3  and  C3_4 
ROOT
ATOM      1  C3  UNL d   1      -0.169  -0.009  -0.015  0.00  0.00    -0.075 A 
ATOM      2  C4  UNL d   1      -0.942  -0.041   1.155  0.00  0.00     0.002 A 
ATOM      3  C5  UNL d   1      -1.603   1.105   1.598  0.00  0.00     0.002 A 
ATOM      4  C6  UNL d   1      -1.491   2.297   0.886  0.00  0.00    -0.004 A 
ATOM      5  C7  UNL d   1      -0.712   2.344  -0.268  0.00  0.00     0.002 A 
ATOM      6  C8  UNL d   1      -0.054   1.198  -0.717  0.00  0.00     0.002 A 
ENDROOT
BRANCH   1   7
ATOM      7  C2  UNL d   1       0.525  -1.253  -0.517  0.00  0.00     0.056 C 
BRANCH   7   8
ATOM      8  C1  UNL d   1      -0.022  -1.778  -1.848  0.00  0.00     0.007 C 
ATOM      9  C   UNL d   1       0.026  -3.296  -1.960  0.00  0.00     0.009 C 
ENDBRANCH   7   8
ENDBRANCH   1   7
TORSDOF 2
ENDMDL
