MODEL 1
REMARK minimizedAffinity -3.178406
REMARK minimizedRMSD -1
REMARK  2 active torsions:
REMARK  status: ('A' for Active; 'I' for Inactive)
REMARK    1  A    between atoms: C1_2  and  C2_3 
REMARK    2  A    between atoms: C2_3  and  C3_4 
ROOT
ATOM      1  C3  UNL d   1       0.278  -1.125  -1.142  0.00  0.00    -0.075 A 
ATOM      2  C4  UNL d   1      -0.506  -1.128  -2.305  0.00  0.00     0.002 A 
ATOM      3  C5  UNL d   1      -0.645  -2.291  -3.062  0.00  0.00     0.002 A 
ATOM      4  C6  UNL d   1       0.004  -3.461  -2.674  0.00  0.00    -0.004 A 
ATOM      5  C7  UNL d   1       0.799  -3.465  -1.529  0.00  0.00     0.002 A 
ATOM      6  C8  UNL d   1       0.936  -2.304  -0.767  0.00  0.00     0.002 A 
ENDROOT
BRANCH   1   7
ATOM      7  C2  UNL d   1       0.409   0.123  -0.302  0.00  0.00     0.056 C 
BRANCH   7   8
ATOM      8  C1  UNL d   1      -0.199  -0.002   1.100  0.00  0.00     0.007 C 
ATOM      9  C   UNL d   1      -1.501   0.771   1.260  0.00  0.00     0.009 C 
ENDBRANCH   7   8
ENDBRANCH   1   7
TORSDOF 2
ENDMDL
