MODEL 1
REMARK minimizedAffinity -6.18214989
REMARK minimizedRMSD -1
REMARK  2 active torsions:
REMARK  status: ('A' for Active; 'I' for Inactive)
REMARK    1  A    between atoms: C1_2  and  C2_3 
REMARK    2  A    between atoms: C2_3  and  C3_4 
ROOT
ATOM      1  C3  UNL d   1       0.091  -0.439   0.188  0.00  0.00    -0.075 A 
ATOM      2  C4  UNL d   1       0.003  -0.854   1.525  0.00  0.00     0.002 A 
ATOM      3  C5  UNL d   1      -0.838  -0.191   2.419  0.00  0.00     0.002 A 
ATOM      4  C6  UNL d   1      -1.594   0.898   1.991  0.00  0.00    -0.004 A 
ATOM      5  C7  UNL d   1      -1.502   1.330   0.670  0.00  0.00     0.002 A 
ATOM      6  C8  UNL d   1      -0.664   0.666  -0.228  0.00  0.00     0.002 A 
ENDROOT
BRANCH   1   7
ATOM      7  C2  UNL d   1       0.978  -1.170  -0.791  0.00  0.00     0.056 C 
BRANCH   7   8
ATOM      8  C1  UNL d   1       0.211  -1.936  -1.875  0.00  0.00     0.007 C 
ATOM      9  C   UNL d   1       1.075  -2.941  -2.625  0.00  0.00     0.009 C 
ENDBRANCH   7   8
ENDBRANCH   1   7
TORSDOF 2
ENDMDL
