MODEL 1
REMARK minimizedAffinity -5.57402945
REMARK minimizedRMSD -1
REMARK  2 active torsions:
REMARK  status: ('A' for Active; 'I' for Inactive)
REMARK    1  A    between atoms: C1_2  and  C2_3 
REMARK    2  A    between atoms: C2_3  and  C3_4 
ROOT
ATOM      1  C3  UNL d   1      -0.272   0.003  -0.063  0.00  0.00    -0.075 A 
ATOM      2  C4  UNL d   1      -1.145   0.850  -0.760  0.00  0.00     0.002 A 
ATOM      3  C5  UNL d   1      -1.939   1.770  -0.074  0.00  0.00     0.002 A 
ATOM      4  C6  UNL d   1      -1.877   1.847   1.316  0.00  0.00    -0.004 A 
ATOM      5  C7  UNL d   1      -1.026   0.998   2.020  0.00  0.00     0.002 A 
ATOM      6  C8  UNL d   1      -0.227   0.081   1.335  0.00  0.00     0.002 A 
ENDROOT
BRANCH   1   7
ATOM      7  C2  UNL d   1       0.611  -0.974  -0.802  0.00  0.00     0.056 C 
BRANCH   7   8
ATOM      8  C1  UNL d   1       0.027  -1.459  -2.133  0.00  0.00     0.007 C 
ATOM      9  C   UNL d   1       0.143  -2.965  -2.327  0.00  0.00     0.009 C 
ENDBRANCH   7   8
ENDBRANCH   1   7
TORSDOF 2
ENDMDL
