MODEL 1
REMARK minimizedAffinity -4.91696405
REMARK minimizedRMSD -1
REMARK  2 active torsions:
REMARK  status: ('A' for Active; 'I' for Inactive)
REMARK    1  A    between atoms: C1_2  and  C2_3 
REMARK    2  A    between atoms: C2_3  and  C3_4 
ROOT
ATOM      1  C3  UNL d   1      -0.275   0.329   0.390  0.00  0.00    -0.075 A 
ATOM      2  C4  UNL d   1      -1.206   1.141  -0.274  0.00  0.00     0.002 A 
ATOM      3  C5  UNL d   1      -2.090   1.943   0.449  0.00  0.00     0.002 A 
ATOM      4  C6  UNL d   1      -2.062   1.935   1.841  0.00  0.00    -0.004 A 
ATOM      5  C7  UNL d   1      -1.153   1.120   2.512  0.00  0.00     0.002 A 
ATOM      6  C8  UNL d   1      -0.264   0.320   1.791  0.00  0.00     0.002 A 
ENDROOT
BRANCH   1   7
ATOM      7  C2  UNL d   1       0.704  -0.519  -0.386  0.00  0.00     0.056 C 
BRANCH   7   8
ATOM      8  C1  UNL d   1       0.082  -1.259  -1.575  0.00  0.00     0.007 C 
ATOM      9  C   UNL d   1       0.538  -2.708  -1.686  0.00  0.00     0.009 C 
ENDBRANCH   7   8
ENDBRANCH   1   7
TORSDOF 2
ENDMDL
