MODEL 1
REMARK minimizedAffinity -3.40382314
REMARK minimizedRMSD -1
REMARK  2 active torsions:
REMARK  status: ('A' for Active; 'I' for Inactive)
REMARK    1  A    between atoms: C1_2  and  C2_3 
REMARK    2  A    between atoms: C2_3  and  C3_4 
ROOT
ATOM      1  C3  UNL d   1       0.140  -0.710  -0.357  0.00  0.00    -0.075 A 
ATOM      2  C4  UNL d   1      -0.040  -0.643   1.032  0.00  0.00     0.002 A 
ATOM      3  C5  UNL d   1      -0.738   0.421   1.605  0.00  0.00     0.002 A 
ATOM      4  C6  UNL d   1      -1.255   1.433   0.800  0.00  0.00    -0.004 A 
ATOM      5  C7  UNL d   1      -1.068   1.385  -0.580  0.00  0.00     0.002 A 
ATOM      6  C8  UNL d   1      -0.374   0.320  -1.156  0.00  0.00     0.002 A 
ENDROOT
BRANCH   1   7
ATOM      7  C2  UNL d   1       0.869  -1.874  -0.986  0.00  0.00     0.056 C 
BRANCH   7   8
ATOM      8  C1  UNL d   1       0.101  -2.547  -2.128  0.00  0.00     0.007 C 
ATOM      9  C   UNL d   1       0.190  -4.067  -2.098  0.00  0.00     0.009 C 
ENDBRANCH   7   8
ENDBRANCH   1   7
TORSDOF 2
ENDMDL
