MODEL 1
REMARK minimizedAffinity -4.38137579
REMARK minimizedRMSD -1
REMARK  2 active torsions:
REMARK  status: ('A' for Active; 'I' for Inactive)
REMARK    1  A    between atoms: C1_2  and  C2_3 
REMARK    2  A    between atoms: C2_3  and  C3_4 
ROOT
ATOM      1  C3  UNL d   1       0.470   0.032  -0.361  0.00  0.00    -0.075 A 
ATOM      2  C4  UNL d   1       0.540   1.432  -0.397  0.00  0.00     0.002 A 
ATOM      3  C5  UNL d   1      -0.093   2.198   0.583  0.00  0.00     0.002 A 
ATOM      4  C6  UNL d   1      -0.809   1.576   1.603  0.00  0.00    -0.004 A 
ATOM      5  C7  UNL d   1      -0.898   0.186   1.640  0.00  0.00     0.002 A 
ATOM      6  C8  UNL d   1      -0.263  -0.583   0.663  0.00  0.00     0.002 A 
ENDROOT
BRANCH   1   7
ATOM      7  C2  UNL d   1       1.177  -0.804  -1.401  0.00  0.00     0.056 C 
BRANCH   7   8
ATOM      8  C1  UNL d   1       0.559  -2.190  -1.612  0.00  0.00     0.007 C 
ATOM      9  C   UNL d   1       0.230  -2.485  -3.070  0.00  0.00     0.009 C 
ENDBRANCH   7   8
ENDBRANCH   1   7
TORSDOF 2
ENDMDL
