MODEL 1
REMARK minimizedAffinity -4.52242184
REMARK minimizedRMSD -1
REMARK  2 active torsions:
REMARK  status: ('A' for Active; 'I' for Inactive)
REMARK    1  A    between atoms: C1_2  and  C2_3 
REMARK    2  A    between atoms: C2_3  and  C3_4 
ROOT
ATOM      1  C3  UNL d   1      -0.013  -0.338  -0.063  0.00  0.00    -0.075 A 
ATOM      2  C4  UNL d   1       0.099  -1.588  -0.688  0.00  0.00     0.002 A 
ATOM      3  C5  UNL d   1       1.043  -1.796  -1.694  0.00  0.00     0.002 A 
ATOM      4  C6  UNL d   1       1.879  -0.755  -2.094  0.00  0.00    -0.004 A 
ATOM      5  C7  UNL d   1       1.765   0.496  -1.491  0.00  0.00     0.002 A 
ATOM      6  C8  UNL d   1       0.824   0.705  -0.481  0.00  0.00     0.002 A 
ENDROOT
BRANCH   1   7
ATOM      7  C2  UNL d   1      -1.013  -0.116   1.046  0.00  0.00     0.056 C 
BRANCH   7   8
ATOM      8  C1  UNL d   1      -0.733   1.126   1.899  0.00  0.00     0.007 C 
ATOM      9  C   UNL d   1      -1.829   2.179   1.805  0.00  0.00     0.009 C 
ENDBRANCH   7   8
ENDBRANCH   1   7
TORSDOF 2
ENDMDL
