MODEL 1
REMARK minimizedAffinity -3.05143833
REMARK minimizedRMSD -1
REMARK  2 active torsions:
REMARK  status: ('A' for Active; 'I' for Inactive)
REMARK    1  A    between atoms: C2'_3  and  C1'_4 
REMARK    2  A    between atoms: C1'_4  and  C1_5 
ROOT
ATOM      1  C1  I4B d   1       0.272   0.411   0.216  0.00  0.00    -0.075 A 
ATOM      2  C2  I4B d   1       1.083  -0.681   0.031  0.00  0.00     0.003 A 
ATOM      3  C3  I4B d   1       0.740  -1.929   0.603  0.00  0.00     0.002 A 
ATOM      4  C4  I4B d   1      -0.390  -2.028   1.390  0.00  0.00    -0.004 A 
ATOM      5  C5  I4B d   1      -1.223  -0.926   1.557  0.00  0.00     0.002 A 
ATOM      6  C6  I4B d   1      -0.897   0.299   0.957  0.00  0.00     0.003 A 
ENDROOT
BRANCH   1   7
ATOM      7  C1' I4B d   1       0.683   1.722  -0.375  0.00  0.00     0.060 C 
BRANCH   7   8
ATOM      8  C2' I4B d   1       0.890   1.520  -1.862  0.00  0.00    -0.013 C 
ATOM      9  C4' I4B d   1      -0.195   2.194  -2.661  0.00  0.00     0.013 C 
ATOM     10  C3' I4B d   1       2.242   2.061  -2.220  0.00  0.00     0.013 C 
ENDBRANCH   7   8
ENDBRANCH   1   7
TORSDOF 2
ENDMDL
