MODEL 1
REMARK minimizedAffinity -4.38187122
REMARK minimizedRMSD -1
REMARK  2 active torsions:
REMARK  status: ('A' for Active; 'I' for Inactive)
REMARK    1  A    between atoms: C2'_3  and  C1'_4 
REMARK    2  A    between atoms: C1'_4  and  C1_5 
ROOT
ATOM      1  C1  I4B d   1       0.175   0.335   0.144  0.00  0.00    -0.075 A 
ATOM      2  C2  I4B d   1      -1.001   0.088   0.808  0.00  0.00     0.003 A 
ATOM      3  C3  I4B d   1      -1.264  -1.200   1.335  0.00  0.00     0.002 A 
ATOM      4  C4  I4B d   1      -0.353  -2.216   1.134  0.00  0.00    -0.004 A 
ATOM      5  C5  I4B d   1       0.849  -1.958   0.481  0.00  0.00     0.002 A 
ATOM      6  C6  I4B d   1       1.120  -0.671  -0.006  0.00  0.00     0.003 A 
ENDROOT
BRANCH   1   7
ATOM      7  C1' I4B d   1       0.406   1.697  -0.429  0.00  0.00     0.060 C 
BRANCH   7   8
ATOM      8  C2' I4B d   1       1.087   1.529  -1.772  0.00  0.00    -0.013 C 
ATOM      9  C4' I4B d   1       0.215   2.032  -2.892  0.00  0.00     0.013 C 
ATOM     10  C3' I4B d   1       2.390   2.270  -1.726  0.00  0.00     0.013 C 
ENDBRANCH   7   8
ENDBRANCH   1   7
TORSDOF 2
ENDMDL
