MODEL 1
REMARK minimizedAffinity -4.75969124
REMARK minimizedRMSD -1
REMARK  2 active torsions:
REMARK  status: ('A' for Active; 'I' for Inactive)
REMARK    1  A    between atoms: C2'_3  and  C1'_4 
REMARK    2  A    between atoms: C1'_4  and  C1_5 
ROOT
ATOM      1  C1  I4B d   1       0.478  -0.081  -1.095  0.00  0.00    -0.075 A 
ATOM      2  C2  I4B d   1      -0.190   0.565  -0.085  0.00  0.00     0.003 A 
ATOM      3  C3  I4B d   1      -0.387  -0.075   1.163  0.00  0.00     0.002 A 
ATOM      4  C4  I4B d   1       0.054  -1.371   1.339  0.00  0.00    -0.004 A 
ATOM      5  C5  I4B d   1       0.751  -2.016   0.321  0.00  0.00     0.002 A 
ATOM      6  C6  I4B d   1       0.975  -1.363  -0.900  0.00  0.00     0.003 A 
ENDROOT
BRANCH   1   7
ATOM      7  C1' I4B d   1       0.639   0.612  -2.411  0.00  0.00     0.060 C 
BRANCH   7   8
ATOM      8  C2' I4B d   1       0.832   2.090  -2.140  0.00  0.00    -0.013 C 
ATOM      9  C4' I4B d   1       2.275   2.406  -1.845  0.00  0.00     0.013 C 
ATOM     10  C3' I4B d   1       0.346   2.849  -3.338  0.00  0.00     0.013 C 
ENDBRANCH   7   8
ENDBRANCH   1   7
TORSDOF 2
ENDMDL
