MODEL 1
REMARK minimizedAffinity -2.56665516
REMARK minimizedRMSD -1
REMARK  2 active torsions:
REMARK  status: ('A' for Active; 'I' for Inactive)
REMARK    1  A    between atoms: C2'_3  and  C1'_4 
REMARK    2  A    between atoms: C1'_4  and  C1_5 
ROOT
ATOM      1  C1  I4B d   1       0.552   1.257  -0.829  0.00  0.00    -0.075 A 
ATOM      2  C2  I4B d   1       1.867   1.636  -0.722  0.00  0.00     0.003 A 
ATOM      3  C3  I4B d   1       2.470   2.411  -1.742  0.00  0.00     0.002 A 
ATOM      4  C4  I4B d   1       1.742   2.740  -2.867  0.00  0.00    -0.004 A 
ATOM      5  C5  I4B d   1       0.402   2.375  -2.963  0.00  0.00     0.002 A 
ATOM      6  C6  I4B d   1      -0.201   1.639  -1.932  0.00  0.00     0.003 A 
ENDROOT
BRANCH   1   7
ATOM      7  C1' I4B d   1      -0.045   0.411   0.251  0.00  0.00     0.060 C 
BRANCH   7   8
ATOM      8  C2' I4B d   1       0.682  -0.919   0.257  0.00  0.00    -0.013 C 
ATOM      9  C4' I4B d   1       0.189  -1.804   1.371  0.00  0.00     0.013 C 
ATOM     10  C3' I4B d   1       0.475  -1.565  -1.081  0.00  0.00     0.013 C 
ENDBRANCH   7   8
ENDBRANCH   1   7
TORSDOF 2
ENDMDL
