MODEL 1
REMARK minimizedAffinity 7.33276796
REMARK minimizedRMSD -1
REMARK  2 active torsions:
REMARK  status: ('A' for Active; 'I' for Inactive)
REMARK    1  A    between atoms: C2'_3  and  C1'_4 
REMARK    2  A    between atoms: C1'_4  and  C1_5 
ROOT
ATOM      1  C1  I4B d   1       4.749   3.971  -1.248  0.00  0.00    -0.075 A 
ATOM      2  C2  I4B d   1       4.476   5.316  -1.208  0.00  0.00     0.003 A 
ATOM      3  C3  I4B d   1       4.439   5.999   0.031  0.00  0.00     0.002 A 
ATOM      4  C4  I4B d   1       4.629   5.294   1.202  0.00  0.00    -0.004 A 
ATOM      5  C5  I4B d   1       4.928   3.936   1.158  0.00  0.00     0.002 A 
ATOM      6  C6  I4B d   1       5.000   3.272  -0.075  0.00  0.00     0.003 A 
ENDROOT
BRANCH   1   7
ATOM      7  C1' I4B d   1       4.748   3.274  -2.571  0.00  0.00     0.060 C 
BRANCH   7   8
ATOM      8  C2' I4B d   1       3.447   2.507  -2.694  0.00  0.00    -0.013 C 
ATOM      9  C4' I4B d   1       3.140   2.179  -4.131  0.00  0.00     0.013 C 
ATOM     10  C3' I4B d   1       3.565   1.261  -1.868  0.00  0.00     0.013 C 
ENDBRANCH   7   8
ENDBRANCH   1   7
TORSDOF 2
ENDMDL
