MODEL 1
REMARK minimizedAffinity -1.73729503
REMARK minimizedRMSD -1
REMARK  2 active torsions:
REMARK  status: ('A' for Active; 'I' for Inactive)
REMARK    1  A    between atoms: C2'_3  and  C1'_4 
REMARK    2  A    between atoms: C1'_4  and  C1_5 
ROOT
ATOM      1  C1  I4B d   1      -0.936  -0.862   0.861  0.00  0.00    -0.075 A 
ATOM      2  C2  I4B d   1      -1.233  -1.746   1.869  0.00  0.00     0.003 A 
ATOM      3  C3  I4B d   1      -2.261  -1.451   2.796  0.00  0.00     0.002 A 
ATOM      4  C4  I4B d   1      -2.929  -0.246   2.709  0.00  0.00    -0.004 A 
ATOM      5  C5  I4B d   1      -2.643   0.638   1.673  0.00  0.00     0.002 A 
ATOM      6  C6  I4B d   1      -1.648   0.323   0.736  0.00  0.00     0.003 A 
ENDROOT
BRANCH   1   7
ATOM      7  C1' I4B d   1       0.179  -1.191  -0.080  0.00  0.00     0.060 C 
BRANCH   7   8
ATOM      8  C2' I4B d   1       1.457  -0.610   0.488  0.00  0.00    -0.013 C 
ATOM      9  C4' I4B d   1       2.669  -1.317  -0.060  0.00  0.00     0.013 C 
ATOM     10  C3' I4B d   1       1.488   0.852   0.159  0.00  0.00     0.013 C 
ENDBRANCH   7   8
ENDBRANCH   1   7
TORSDOF 2
ENDMDL
