MODEL 1
REMARK minimizedAffinity -3.32993555
REMARK minimizedRMSD -1
REMARK  2 active torsions:
REMARK  status: ('A' for Active; 'I' for Inactive)
REMARK    1  A    between atoms: C2'_3  and  C1'_4 
REMARK    2  A    between atoms: C1'_4  and  C1_5 
ROOT
ATOM      1  C1  I4B d   1       0.062   0.941  -0.002  0.00  0.00    -0.075 A 
ATOM      2  C2  I4B d   1      -1.059   1.011   0.787  0.00  0.00     0.003 A 
ATOM      3  C3  I4B d   1      -1.550  -0.149   1.434  0.00  0.00     0.002 A 
ATOM      4  C4  I4B d   1      -0.923  -1.360   1.225  0.00  0.00    -0.004 A 
ATOM      5  C5  I4B d   1       0.227  -1.426   0.443  0.00  0.00     0.002 A 
ATOM      6  C6  I4B d   1       0.730  -0.266  -0.165  0.00  0.00     0.003 A 
ENDROOT
BRANCH   1   7
ATOM      7  C1' I4B d   1       0.533   2.179  -0.697  0.00  0.00     0.060 C 
BRANCH   7   8
ATOM      8  C2' I4B d   1       0.972   1.791  -2.094  0.00  0.00    -0.013 C 
ATOM      9  C4' I4B d   1       0.170   2.520  -3.139  0.00  0.00     0.013 C 
ATOM     10  C3' I4B d   1       2.434   2.099  -2.222  0.00  0.00     0.013 C 
ENDBRANCH   7   8
ENDBRANCH   1   7
TORSDOF 2
ENDMDL
