MODEL 1
REMARK minimizedAffinity -2.24136472
REMARK minimizedRMSD -1
REMARK  2 active torsions:
REMARK  status: ('A' for Active; 'I' for Inactive)
REMARK    1  A    between atoms: C2'_3  and  C1'_4 
REMARK    2  A    between atoms: C1'_4  and  C1_5 
ROOT
ATOM      1  C1  I4B d   1       1.116   1.417  -1.491  0.00  0.00    -0.075 A 
ATOM      2  C2  I4B d   1       2.323   2.056  -1.627  0.00  0.00     0.003 A 
ATOM      3  C3  I4B d   1       2.622   2.769  -2.813  0.00  0.00     0.002 A 
ATOM      4  C4  I4B d   1       1.713   2.774  -3.851  0.00  0.00    -0.004 A 
ATOM      5  C5  I4B d   1       0.480   2.144  -3.703  0.00  0.00     0.002 A 
ATOM      6  C6  I4B d   1       0.175   1.471  -2.511  0.00  0.00     0.003 A 
ENDROOT
BRANCH   1   7
ATOM      7  C1' I4B d   1       0.846   0.646  -0.238  0.00  0.00     0.060 C 
BRANCH   7   8
ATOM      8  C2' I4B d   1      -0.653   0.612  -0.024  0.00  0.00    -0.013 C 
ATOM      9  C4' I4B d   1      -1.068  -0.619   0.738  0.00  0.00     0.013 C 
ATOM     10  C3' I4B d   1      -1.044   1.861   0.709  0.00  0.00     0.013 C 
ENDBRANCH   7   8
ENDBRANCH   1   7
TORSDOF 2
ENDMDL
