MODEL 1
REMARK minimizedAffinity 3.50016212
REMARK minimizedRMSD -1
REMARK  2 active torsions:
REMARK  status: ('A' for Active; 'I' for Inactive)
REMARK    1  A    between atoms: C2'_3  and  C1'_4 
REMARK    2  A    between atoms: C1'_4  and  C1_5 
ROOT
ATOM      1  C1  I4B d   1      -2.721  -3.443  -5.308  0.00  0.00    -0.075 A 
ATOM      2  C2  I4B d   1      -3.922  -3.173  -5.917  0.00  0.00     0.003 A 
ATOM      3  C3  I4B d   1      -4.875  -2.346  -5.275  0.00  0.00     0.002 A 
ATOM      4  C4  I4B d   1      -4.610  -1.855  -4.014  0.00  0.00    -0.004 A 
ATOM      5  C5  I4B d   1      -3.383  -2.110  -3.408  0.00  0.00     0.002 A 
ATOM      6  C6  I4B d   1      -2.427  -2.899  -4.065  0.00  0.00     0.003 A 
ENDROOT
BRANCH   1   7
ATOM      7  C1' I4B d   1      -1.750  -4.347  -5.999  0.00  0.00     0.060 C 
BRANCH   7   8
ATOM      8  C2' I4B d   1      -1.025  -5.151  -4.939  0.00  0.00    -0.013 C 
ATOM      9  C4' I4B d   1      -1.985  -5.999  -4.147  0.00  0.00     0.013 C 
ATOM     10  C3' I4B d   1       0.006  -5.997  -5.624  0.00  0.00     0.013 C 
ENDBRANCH   7   8
ENDBRANCH   1   7
TORSDOF 2
ENDMDL
