MODEL 1
REMARK minimizedAffinity -2.00096583
REMARK minimizedRMSD -1
REMARK  2 active torsions:
REMARK  status: ('A' for Active; 'I' for Inactive)
REMARK    1  A    between atoms: C2'_3  and  C1'_4 
REMARK    2  A    between atoms: C1'_4  and  C1_5 
ROOT
ATOM      1  C1  I4B d   1       0.677   0.345  -0.324  0.00  0.00    -0.075 A 
ATOM      2  C2  I4B d   1       1.210   1.606  -0.231  0.00  0.00     0.003 A 
ATOM      3  C3  I4B d   1       1.361   2.404  -1.391  0.00  0.00     0.002 A 
ATOM      4  C4  I4B d   1       1.017   1.885  -2.622  0.00  0.00    -0.004 A 
ATOM      5  C5  I4B d   1       0.455   0.614  -2.712  0.00  0.00     0.002 A 
ATOM      6  C6  I4B d   1       0.273  -0.156  -1.555  0.00  0.00     0.003 A 
ENDROOT
BRANCH   1   7
ATOM      7  C1' I4B d   1       0.561  -0.483   0.917  0.00  0.00     0.060 C 
BRANCH   7   8
ATOM      8  C2' I4B d   1      -0.878  -0.939   1.041  0.00  0.00    -0.013 C 
ATOM      9  C4' I4B d   1      -0.996  -2.131   1.953  0.00  0.00     0.013 C 
ATOM     10  C3' I4B d   1      -1.687   0.216   1.552  0.00  0.00     0.013 C 
ENDBRANCH   7   8
ENDBRANCH   1   7
TORSDOF 2
ENDMDL
