MODEL 1
REMARK minimizedAffinity 6.79718351
REMARK minimizedRMSD -1
REMARK  0 active torsions:
REMARK  status: ('A' for Active; 'I' for Inactive)
ROOT
ATOM      1  C   UNL d   1       0.354   4.588  -1.829  0.00  0.00     0.077 C 
ATOM      2  C1  UNL d   1       0.209   3.223  -1.224  0.00  0.00    -0.074 A 
ATOM      3  C2  UNL d   1       0.838   2.112  -1.796  0.00  0.00    -0.005 A 
ATOM      4  C3  UNL d   1       0.702   0.851  -1.216  0.00  0.00     0.006 A 
ATOM      5  C4  UNL d   1      -0.062   0.688  -0.061  0.00  0.00    -0.005 A 
ATOM      6  C5  UNL d   1      -0.698   1.787   0.526  0.00  0.00    -0.074 A 
ATOM      7  C6  UNL d   1      -1.515   1.630   1.774  0.00  0.00     0.077 C 
ATOM      8  C7  UNL d   1      -0.551   3.052  -0.059  0.00  0.00    -0.001 A 
ENDROOT
TORSDOF 0
ENDMDL
