MODEL 1
REMARK minimizedAffinity -2.67977023
REMARK minimizedRMSD -1
REMARK  0 active torsions:
REMARK  status: ('A' for Active; 'I' for Inactive)
ROOT
ATOM      1  C   UNL d   1      -1.864   1.413   2.619  0.00  0.00     0.077 C 
ATOM      2  C1  UNL d   1      -1.609   2.245   1.397  0.00  0.00    -0.074 A 
ATOM      3  C2  UNL d   1      -2.395   3.368   1.115  0.00  0.00    -0.005 A 
ATOM      4  C3  UNL d   1      -2.140   4.137  -0.020  0.00  0.00     0.006 A 
ATOM      5  C4  UNL d   1      -1.099   3.793  -0.883  0.00  0.00    -0.005 A 
ATOM      6  C5  UNL d   1      -0.302   2.675  -0.617  0.00  0.00    -0.074 A 
ATOM      7  C6  UNL d   1       0.827   2.297  -1.529  0.00  0.00     0.077 C 
ATOM      8  C7  UNL d   1      -0.560   1.911   0.529  0.00  0.00    -0.001 A 
ENDROOT
TORSDOF 0
ENDMDL
