MODEL 1
REMARK minimizedAffinity 3.93753362
REMARK minimizedRMSD -1
REMARK  0 active torsions:
REMARK  status: ('A' for Active; 'I' for Inactive)
ROOT
ATOM      1  C   UNL d   1      -1.038   1.618   1.510  0.00  0.00     0.077 C 
ATOM      2  C1  UNL d   1      -0.399   1.877   0.178  0.00  0.00    -0.074 A 
ATOM      3  C2  UNL d   1       0.349   0.886  -0.466  0.00  0.00    -0.005 A 
ATOM      4  C3  UNL d   1       0.929   1.139  -1.709  0.00  0.00     0.006 A 
ATOM      5  C4  UNL d   1       0.767   2.384  -2.320  0.00  0.00    -0.005 A 
ATOM      6  C5  UNL d   1       0.022   3.386  -1.692  0.00  0.00    -0.074 A 
ATOM      7  C6  UNL d   1      -0.170   4.726  -2.339  0.00  0.00     0.077 C 
ATOM      8  C7  UNL d   1      -0.563   3.122  -0.446  0.00  0.00    -0.001 A 
ENDROOT
TORSDOF 0
ENDMDL
