MODEL 1
REMARK minimizedAffinity 2.95438743
REMARK minimizedRMSD -1
REMARK  0 active torsions:
REMARK  status: ('A' for Active; 'I' for Inactive)
ROOT
ATOM      1  C   UNL d   1      -1.065   2.013   2.538  0.00  0.00     0.077 C 
ATOM      2  C1  UNL d   1      -0.646   2.255   1.118  0.00  0.00    -0.074 A 
ATOM      3  C2  UNL d   1      -0.429   3.553   0.644  0.00  0.00    -0.005 A 
ATOM      4  C3  UNL d   1      -0.030   3.762  -0.676  0.00  0.00     0.006 A 
ATOM      5  C4  UNL d   1       0.155   2.677  -1.534  0.00  0.00    -0.005 A 
ATOM      6  C5  UNL d   1      -0.056   1.372  -1.077  0.00  0.00    -0.074 A 
ATOM      7  C6  UNL d   1       0.149   0.195  -1.984  0.00  0.00     0.077 C 
ATOM      8  C7  UNL d   1      -0.450   1.170   0.253  0.00  0.00    -0.001 A 
ENDROOT
TORSDOF 0
ENDMDL
