MODEL 1
REMARK minimizedAffinity 0.460376859
REMARK minimizedRMSD -1
REMARK  0 active torsions:
REMARK  status: ('A' for Active; 'I' for Inactive)
ROOT
ATOM      1  C   UNL d   1       0.724   0.677  -1.680  0.00  0.00     0.077 C 
ATOM      2  C1  UNL d   1       0.250   1.770  -0.768  0.00  0.00    -0.074 A 
ATOM      3  C2  UNL d   1       0.533   3.111  -1.045  0.00  0.00    -0.005 A 
ATOM      4  C3  UNL d   1       0.078   4.117  -0.193  0.00  0.00     0.006 A 
ATOM      5  C4  UNL d   1      -0.665   3.792   0.943  0.00  0.00    -0.005 A 
ATOM      6  C5  UNL d   1      -0.959   2.457   1.236  0.00  0.00    -0.074 A 
ATOM      7  C6  UNL d   1      -1.765   2.091   2.447  0.00  0.00     0.077 C 
ATOM      8  C7  UNL d   1      -0.504   1.452   0.371  0.00  0.00    -0.001 A 
ENDROOT
TORSDOF 0
ENDMDL
