MODEL 1
REMARK minimizedAffinity -0.982584417
REMARK minimizedRMSD -1
REMARK  0 active torsions:
REMARK  status: ('A' for Active; 'I' for Inactive)
ROOT
ATOM      1  C   UNL d   1      -1.534   2.056   1.751  0.00  0.00     0.077 C 
ATOM      2  C1  UNL d   1      -0.842   2.274   0.439  0.00  0.00    -0.074 A 
ATOM      3  C2  UNL d   1      -0.524   3.563  -0.001  0.00  0.00    -0.005 A 
ATOM      4  C3  UNL d   1       0.128   3.749  -1.220  0.00  0.00     0.006 A 
ATOM      5  C4  UNL d   1       0.469   2.650  -2.010  0.00  0.00    -0.005 A 
ATOM      6  C5  UNL d   1       0.160   1.354  -1.586  0.00  0.00    -0.074 A 
ATOM      7  C6  UNL d   1       0.527   0.162  -2.418  0.00  0.00     0.077 C 
ATOM      8  C7  UNL d   1      -0.490   1.175  -0.357  0.00  0.00    -0.001 A 
ENDROOT
TORSDOF 0
ENDMDL
