MODEL 1
REMARK minimizedAffinity 3.07088757
REMARK minimizedRMSD -1
REMARK  0 active torsions:
REMARK  status: ('A' for Active; 'I' for Inactive)
ROOT
ATOM      1  C   UNL d   1      -1.320   1.693   2.287  0.00  0.00     0.077 C 
ATOM      2  C1  UNL d   1      -0.431   1.481   1.098  0.00  0.00    -0.074 A 
ATOM      3  C2  UNL d   1      -0.556   2.277  -0.045  0.00  0.00    -0.005 A 
ATOM      4  C3  UNL d   1       0.285   2.073  -1.139  0.00  0.00     0.006 A 
ATOM      5  C4  UNL d   1       1.258   1.074  -1.101  0.00  0.00    -0.005 A 
ATOM      6  C5  UNL d   1       1.398   0.269   0.034  0.00  0.00    -0.074 A 
ATOM      7  C6  UNL d   1       2.446  -0.804   0.095  0.00  0.00     0.077 C 
ATOM      8  C7  UNL d   1       0.554   0.484   1.132  0.00  0.00    -0.001 A 
ENDROOT
TORSDOF 0
ENDMDL
