MODEL 1
REMARK minimizedAffinity -0.418708414
REMARK minimizedRMSD -1
REMARK  0 active torsions:
REMARK  status: ('A' for Active; 'I' for Inactive)
ROOT
ATOM      1  C   UNL d   1      -1.507   0.352   2.407  0.00  0.00     0.077 C 
ATOM      2  C1  UNL d   1      -1.099   1.411   1.425  0.00  0.00    -0.074 A 
ATOM      3  C2  UNL d   1      -1.470   2.746   1.613  0.00  0.00    -0.005 A 
ATOM      4  C3  UNL d   1      -1.075   3.721   0.696  0.00  0.00     0.006 A 
ATOM      5  C4  UNL d   1      -0.307   3.371  -0.415  0.00  0.00    -0.005 A 
ATOM      6  C5  UNL d   1       0.073   2.040  -0.619  0.00  0.00    -0.074 A 
ATOM      7  C6  UNL d   1       0.906   1.648  -1.803  0.00  0.00     0.077 C 
ATOM      8  C7  UNL d   1      -0.322   1.068   0.310  0.00  0.00    -0.001 A 
ENDROOT
TORSDOF 0
ENDMDL
