MODEL 1
REMARK minimizedAffinity 5.86670017
REMARK minimizedRMSD -1
REMARK  0 active torsions:
REMARK  status: ('A' for Active; 'I' for Inactive)
ROOT
ATOM      1  C   UNL d   1       5.020  -5.619   0.751  0.00  0.00     0.077 C 
ATOM      2  C1  UNL d   1       4.451  -4.978  -0.479  0.00  0.00    -0.074 A 
ATOM      3  C2  UNL d   1       3.071  -4.810  -0.630  0.00  0.00    -0.005 A 
ATOM      4  C3  UNL d   1       2.557  -4.202  -1.776  0.00  0.00     0.006 A 
ATOM      5  C4  UNL d   1       3.417  -3.758  -2.781  0.00  0.00    -0.005 A 
ATOM      6  C5  UNL d   1       4.800  -3.917  -2.648  0.00  0.00    -0.074 A 
ATOM      7  C6  UNL d   1       5.739  -3.436  -3.714  0.00  0.00     0.077 C 
ATOM      8  C7  UNL d   1       5.309  -4.521  -1.490  0.00  0.00    -0.001 A 
ENDROOT
TORSDOF 0
ENDMDL
