MODEL 1
REMARK minimizedAffinity 0.527199864
REMARK minimizedRMSD -1
REMARK  0 active torsions:
REMARK  status: ('A' for Active; 'I' for Inactive)
ROOT
ATOM      1  C   UNL d   1       0.820   0.325  -1.681  0.00  0.00     0.077 C 
ATOM      2  C1  UNL d   1       0.409   1.530  -0.889  0.00  0.00    -0.074 A 
ATOM      3  C2  UNL d   1       0.737   2.820  -1.318  0.00  0.00    -0.005 A 
ATOM      4  C3  UNL d   1       0.340   3.931  -0.575  0.00  0.00     0.006 A 
ATOM      5  C4  UNL d   1      -0.389   3.765   0.603  0.00  0.00    -0.005 A 
ATOM      6  C5  UNL d   1      -0.727   2.483   1.048  0.00  0.00    -0.074 A 
ATOM      7  C6  UNL d   1      -1.519   2.287   2.307  0.00  0.00     0.077 C 
ATOM      8  C7  UNL d   1      -0.330   1.371   0.292  0.00  0.00    -0.001 A 
ENDROOT
TORSDOF 0
ENDMDL
