MODEL 1
REMARK minimizedAffinity 3.44253016
REMARK minimizedRMSD -1
REMARK  0 active torsions:
REMARK  status: ('A' for Active; 'I' for Inactive)
ROOT
ATOM      1  C   UNL d   1       2.354  -1.443  -0.563  0.00  0.00     0.077 C 
ATOM      2  C1  UNL d   1       1.126  -0.705  -1.008  0.00  0.00    -0.074 A 
ATOM      3  C2  UNL d   1       0.299  -1.223  -2.010  0.00  0.00    -0.005 A 
ATOM      4  C3  UNL d   1      -0.844  -0.529  -2.406  0.00  0.00     0.006 A 
ATOM      5  C4  UNL d   1      -1.172   0.687  -1.806  0.00  0.00    -0.005 A 
ATOM      6  C5  UNL d   1      -0.358   1.219  -0.801  0.00  0.00    -0.074 A 
ATOM      7  C6  UNL d   1      -0.702   2.520  -0.138  0.00  0.00     0.077 C 
ATOM      8  C7  UNL d   1       0.785   0.514  -0.403  0.00  0.00    -0.001 A 
ENDROOT
TORSDOF 0
ENDMDL
