MODEL 1
REMARK minimizedAffinity -2.65881276
REMARK minimizedRMSD -1
REMARK  0 active torsions:
REMARK  status: ('A' for Active; 'I' for Inactive)
ROOT
ATOM      1  C   UNL d   1      -1.381   3.124   2.001  0.00  0.00     0.077 C 
ATOM      2  C1  UNL d   1      -0.543   3.005   0.763  0.00  0.00    -0.074 A 
ATOM      3  C2  UNL d   1      -0.083   4.144   0.094  0.00  0.00    -0.005 A 
ATOM      4  C3  UNL d   1       0.704   4.017  -1.051  0.00  0.00     0.006 A 
ATOM      5  C4  UNL d   1       1.039   2.753  -1.537  0.00  0.00    -0.005 A 
ATOM      6  C5  UNL d   1       0.589   1.603  -0.880  0.00  0.00    -0.074 A 
ATOM      7  C6  UNL d   1       0.949   0.236  -1.383  0.00  0.00     0.077 C 
ATOM      8  C7  UNL d   1      -0.195   1.738   0.274  0.00  0.00    -0.001 A 
ENDROOT
TORSDOF 0
ENDMDL
