MODEL 1
REMARK minimizedAffinity 8.3414669
REMARK minimizedRMSD -1
REMARK  0 active torsions:
REMARK  status: ('A' for Active; 'I' for Inactive)
ROOT
ATOM      1  C   UNL d   1      -1.589   1.497   2.190  0.00  0.00     0.077 C 
ATOM      2  C1  UNL d   1      -0.938   2.022   0.945  0.00  0.00    -0.074 A 
ATOM      3  C2  UNL d   1      -0.981   3.384   0.630  0.00  0.00    -0.005 A 
ATOM      4  C3  UNL d   1      -0.363   3.859  -0.526  0.00  0.00     0.006 A 
ATOM      5  C4  UNL d   1       0.304   2.978  -1.379  0.00  0.00    -0.005 A 
ATOM      6  C5  UNL d   1       0.358   1.613  -1.080  0.00  0.00    -0.074 A 
ATOM      7  C6  UNL d   1       1.079   0.655  -1.981  0.00  0.00     0.077 C 
ATOM      8  C7  UNL d   1      -0.259   1.145   0.087  0.00  0.00    -0.001 A 
ENDROOT
TORSDOF 0
ENDMDL
