MODEL 1
REMARK minimizedAffinity 2.83881521
REMARK minimizedRMSD -1
REMARK  0 active torsions:
REMARK  status: ('A' for Active; 'I' for Inactive)
ROOT
ATOM      1  C   UNL d   1       1.129   0.746  -1.867  0.00  0.00     0.077 C 
ATOM      2  C1  UNL d   1       0.343   1.674  -0.989  0.00  0.00    -0.074 A 
ATOM      3  C2  UNL d   1       0.249   3.038  -1.288  0.00  0.00    -0.005 A 
ATOM      4  C3  UNL d   1      -0.494   3.887  -0.468  0.00  0.00     0.006 A 
ATOM      5  C4  UNL d   1      -1.148   3.383   0.657  0.00  0.00    -0.005 A 
ATOM      6  C5  UNL d   1      -1.066   2.023   0.971  0.00  0.00    -0.074 A 
ATOM      7  C6  UNL d   1      -1.771   1.463   2.170  0.00  0.00     0.077 C 
ATOM      8  C7  UNL d   1      -0.324   1.174   0.138  0.00  0.00    -0.001 A 
ENDROOT
TORSDOF 0
ENDMDL
