MODEL 1
REMARK minimizedAffinity 7.61880827
REMARK minimizedRMSD -1
REMARK  0 active torsions:
REMARK  status: ('A' for Active; 'I' for Inactive)
ROOT
ATOM      1  C   UNL d   1       2.175  -0.296   1.912  0.00  0.00     0.077 C 
ATOM      2  C1  UNL d   1       0.708  -0.085   2.143  0.00  0.00    -0.074 A 
ATOM      3  C2  UNL d   1       0.060   1.055   1.656  0.00  0.00    -0.005 A 
ATOM      4  C3  UNL d   1      -1.307   1.232   1.871  0.00  0.00     0.006 A 
ATOM      5  C4  UNL d   1      -2.038   0.274   2.574  0.00  0.00    -0.005 A 
ATOM      6  C5  UNL d   1      -1.407  -0.871   3.069  0.00  0.00    -0.074 A 
ATOM      7  C6  UNL d   1      -2.180  -1.915   3.819  0.00  0.00     0.077 C 
ATOM      8  C7  UNL d   1      -0.035  -1.046   2.843  0.00  0.00    -0.001 A 
ENDROOT
TORSDOF 0
ENDMDL
