MODEL 1
REMARK minimizedAffinity 0.842998028
REMARK minimizedRMSD -1
REMARK  0 active torsions:
REMARK  status: ('A' for Active; 'I' for Inactive)
ROOT
ATOM      1  C   UNL d   1       1.347   0.825  -1.603  0.00  0.00     0.077 C 
ATOM      2  C1  UNL d   1       0.436   1.726  -0.824  0.00  0.00    -0.074 A 
ATOM      3  C2  UNL d   1       0.255   3.062  -1.196  0.00  0.00    -0.005 A 
ATOM      4  C3  UNL d   1      -0.603   3.885  -0.467  0.00  0.00     0.006 A 
ATOM      5  C4  UNL d   1      -1.288   3.382   0.640  0.00  0.00    -0.005 A 
ATOM      6  C5  UNL d   1      -1.121   2.049   1.026  0.00  0.00    -0.074 A 
ATOM      7  C6  UNL d   1      -1.857   1.490   2.208  0.00  0.00     0.077 C 
ATOM      8  C7  UNL d   1      -0.262   1.226   0.285  0.00  0.00    -0.001 A 
ENDROOT
TORSDOF 0
ENDMDL
