MODEL 1
REMARK minimizedAffinity 8.42718315
REMARK minimizedRMSD -1
REMARK  0 active torsions:
REMARK  status: ('A' for Active; 'I' for Inactive)
ROOT
ATOM      1  C   UNL d   1       0.053   2.539  -1.097  0.00  0.00     0.077 C 
ATOM      2  C1  UNL d   1      -0.377   1.294  -1.814  0.00  0.00    -0.074 A 
ATOM      3  C2  UNL d   1      -1.671   0.787  -1.660  0.00  0.00    -0.005 A 
ATOM      4  C3  UNL d   1      -2.060  -0.367  -2.341  0.00  0.00     0.006 A 
ATOM      5  C4  UNL d   1      -1.160  -1.023  -3.182  0.00  0.00    -0.005 A 
ATOM      6  C5  UNL d   1       0.138  -0.530  -3.349  0.00  0.00    -0.074 A 
ATOM      7  C6  UNL d   1       1.114  -1.218  -4.256  0.00  0.00     0.077 C 
ATOM      8  C7  UNL d   1       0.519   0.633  -2.666  0.00  0.00    -0.001 A 
ENDROOT
TORSDOF 0
ENDMDL
