MODEL 1
REMARK minimizedAffinity -1.80985892
REMARK minimizedRMSD -1
REMARK  0 active torsions:
REMARK  status: ('A' for Active; 'I' for Inactive)
ROOT
ATOM      1  C   UNL d   1       2.459  -0.753   0.432  0.00  0.00     0.124 A 
ATOM      2  C1  UNL d   1       2.170   0.346  -0.365  0.00  0.00     0.062 A 
ATOM      3  C2  UNL d   1       0.847   0.688  -0.633  0.00  0.00     0.162 A 
ATOM      4  C3  UNL d   1      -0.197  -0.069  -0.102  0.00  0.00    -0.034 A 
ATOM      5  C4  UNL d   1       0.101  -1.174   0.697  0.00  0.00     0.162 A 
ATOM      6  C5  UNL d   1       1.425  -1.512   0.962  0.00  0.00     0.062 A 
ATOM      7  F   UNL d   1       1.702  -2.574   1.732  0.00  0.00    -0.097 F 
ATOM      8  F1  UNL d   1      -0.878  -1.924   1.224  0.00  0.00    -0.096 F 
ATOM      9  I   UNL d   1      -2.176   0.439  -0.500  0.00  0.00    -0.060 I 
ATOM     10  F2  UNL d   1       0.597   1.755  -1.406  0.00  0.00    -0.096 F 
ATOM     11  F3  UNL d   1       3.167   1.080  -0.880  0.00  0.00    -0.097 F 
ATOM     12  F4  UNL d   1       3.732  -1.081   0.687  0.00  0.00    -0.092 F 
ENDROOT
TORSDOF 0
ENDMDL
