MODEL 1
REMARK minimizedAffinity 5.62182951
REMARK minimizedRMSD -1
REMARK  0 active torsions:
REMARK  status: ('A' for Active; 'I' for Inactive)
ROOT
ATOM      1  C   UNL d   1       2.085  -1.559   3.199  0.00  0.00     0.124 A 
ATOM      2  C1  UNL d   1       2.987  -1.314   2.173  0.00  0.00     0.062 A 
ATOM      3  C2  UNL d   1       2.529  -0.967   0.906  0.00  0.00     0.162 A 
ATOM      4  C3  UNL d   1       1.160  -0.863   0.656  0.00  0.00    -0.034 A 
ATOM      5  C4  UNL d   1       0.259  -1.112   1.693  0.00  0.00     0.162 A 
ATOM      6  C5  UNL d   1       0.722  -1.458   2.958  0.00  0.00     0.062 A 
ATOM      7  F   UNL d   1      -0.151  -1.695   3.948  0.00  0.00    -0.097 F 
ATOM      8  F1  UNL d   1      -1.064  -1.021   1.488  0.00  0.00    -0.096 F 
ATOM      9  I   UNL d   1       0.470  -0.346  -1.238  0.00  0.00    -0.060 I 
ATOM     10  F2  UNL d   1       3.423  -0.736  -0.067  0.00  0.00    -0.096 F 
ATOM     11  F3  UNL d   1       4.305  -1.411   2.403  0.00  0.00    -0.097 F 
ATOM     12  F4  UNL d   1       2.529  -1.893   4.418  0.00  0.00    -0.092 F 
ENDROOT
TORSDOF 0
ENDMDL
