MODEL 1
REMARK minimizedAffinity 0.229776204
REMARK minimizedRMSD -1
REMARK  0 active torsions:
REMARK  status: ('A' for Active; 'I' for Inactive)
ROOT
ATOM      1  C   UNL d   1       0.484  -1.170   1.422  0.00  0.00     0.124 A 
ATOM      2  C1  UNL d   1      -0.852  -0.805   1.335  0.00  0.00     0.062 A 
ATOM      3  C2  UNL d   1      -1.299  -0.034   0.266  0.00  0.00     0.162 A 
ATOM      4  C3  UNL d   1      -0.409   0.376  -0.727  0.00  0.00    -0.034 A 
ATOM      5  C4  UNL d   1       0.934   0.005  -0.632  0.00  0.00     0.162 A 
ATOM      6  C5  UNL d   1       1.375  -0.765   0.438  0.00  0.00     0.062 A 
ATOM      7  F   UNL d   1       2.667  -1.117   0.520  0.00  0.00    -0.097 F 
ATOM      8  F1  UNL d   1       1.816   0.382  -1.569  0.00  0.00    -0.096 F 
ATOM      9  I   UNL d   1      -1.074   1.528  -2.327  0.00  0.00    -0.060 I 
ATOM     10  F2  UNL d   1      -2.596   0.304   0.208  0.00  0.00    -0.096 F 
ATOM     11  F3  UNL d   1      -1.715  -1.195   2.285  0.00  0.00    -0.097 F 
ATOM     12  F4  UNL d   1       0.912  -1.911   2.452  0.00  0.00    -0.092 F 
ENDROOT
TORSDOF 0
ENDMDL
