MODEL 1
REMARK minimizedAffinity 1.449687
REMARK minimizedRMSD -1
REMARK  0 active torsions:
REMARK  status: ('A' for Active; 'I' for Inactive)
ROOT
ATOM      1  C   UNL d   1       1.228  -1.898   1.169  0.00  0.00     0.124 A 
ATOM      2  C1  UNL d   1      -0.142  -1.713   1.045  0.00  0.00     0.062 A 
ATOM      3  C2  UNL d   1      -0.640  -0.623   0.336  0.00  0.00     0.162 A 
ATOM      4  C3  UNL d   1       0.233   0.290  -0.256  0.00  0.00    -0.034 A 
ATOM      5  C4  UNL d   1       1.610   0.098  -0.126  0.00  0.00     0.162 A 
ATOM      6  C5  UNL d   1       2.102  -0.993   0.584  0.00  0.00     0.062 A 
ATOM      7  F   UNL d   1       3.426  -1.170   0.703  0.00  0.00    -0.097 F 
ATOM      8  F1  UNL d   1       2.477   0.956  -0.682  0.00  0.00    -0.096 F 
ATOM      9  I   UNL d   1      -0.507   1.920  -1.316  0.00  0.00    -0.060 I 
ATOM     10  F2  UNL d   1      -1.968  -0.470   0.232  0.00  0.00    -0.096 F 
ATOM     11  F3  UNL d   1      -0.989  -2.585   1.610  0.00  0.00    -0.097 F 
ATOM     12  F4  UNL d   1       1.705  -2.946   1.853  0.00  0.00    -0.092 F 
ENDROOT
TORSDOF 0
ENDMDL
