MODEL 1
REMARK minimizedAffinity -2.31719184
REMARK minimizedRMSD -1
REMARK  0 active torsions:
REMARK  status: ('A' for Active; 'I' for Inactive)
ROOT
ATOM      1  C   UNL d   1       0.557  -1.810   1.795  0.00  0.00     0.124 A 
ATOM      2  C1  UNL d   1       1.368  -1.423   0.737  0.00  0.00     0.062 A 
ATOM      3  C2  UNL d   1       0.974  -0.387  -0.104  0.00  0.00     0.162 A 
ATOM      4  C3  UNL d   1      -0.238   0.271   0.109  0.00  0.00    -0.034 A 
ATOM      5  C4  UNL d   1      -1.049  -0.125   1.174  0.00  0.00     0.162 A 
ATOM      6  C5  UNL d   1      -0.650  -1.161   2.012  0.00  0.00     0.062 A 
ATOM      7  F   UNL d   1      -1.435  -1.534   3.034  0.00  0.00    -0.097 F 
ATOM      8  F1  UNL d   1      -2.220   0.486   1.408  0.00  0.00    -0.096 F 
ATOM      9  I   UNL d   1      -0.831   1.821  -1.147  0.00  0.00    -0.060 I 
ATOM     10  F2  UNL d   1       1.777  -0.034  -1.119  0.00  0.00    -0.096 F 
ATOM     11  F3  UNL d   1       2.534  -2.050   0.524  0.00  0.00    -0.097 F 
ATOM     12  F4  UNL d   1       0.938  -2.808   2.603  0.00  0.00    -0.092 F 
ENDROOT
TORSDOF 0
ENDMDL
