MODEL 1
REMARK minimizedAffinity -3.21508956
REMARK minimizedRMSD -1
REMARK  0 active torsions:
REMARK  status: ('A' for Active; 'I' for Inactive)
ROOT
ATOM      1  C   UNL d   1       0.607  -1.895   1.424  0.00  0.00     0.124 A 
ATOM      2  C1  UNL d   1       1.293  -1.641   0.244  0.00  0.00     0.062 A 
ATOM      3  C2  UNL d   1       0.869  -0.625  -0.607  0.00  0.00     0.162 A 
ATOM      4  C3  UNL d   1      -0.246   0.147  -0.281  0.00  0.00    -0.034 A 
ATOM      5  C4  UNL d   1      -0.931  -0.115   0.907  0.00  0.00     0.162 A 
ATOM      6  C5  UNL d   1      -0.504  -1.132   1.754  0.00  0.00     0.062 A 
ATOM      7  F   UNL d   1      -1.168  -1.376   2.894  0.00  0.00    -0.097 F 
ATOM      8  F1  UNL d   1      -2.007   0.608   1.251  0.00  0.00    -0.096 F 
ATOM      9  I   UNL d   1      -0.883   1.668  -1.551  0.00  0.00    -0.060 I 
ATOM     10  F2  UNL d   1       1.551  -0.402  -1.740  0.00  0.00    -0.096 F 
ATOM     11  F3  UNL d   1       2.366  -2.378  -0.078  0.00  0.00    -0.097 F 
ATOM     12  F4  UNL d   1       1.016  -2.875   2.240  0.00  0.00    -0.092 F 
ENDROOT
TORSDOF 0
ENDMDL
