MODEL 1
REMARK minimizedAffinity -1.8671279
REMARK minimizedRMSD -1
REMARK  0 active torsions:
REMARK  status: ('A' for Active; 'I' for Inactive)
ROOT
ATOM      1  C   UNL d   1       0.396  -1.943   1.285  0.00  0.00     0.124 A 
ATOM      2  C1  UNL d   1       1.331  -1.360   0.440  0.00  0.00     0.062 A 
ATOM      3  C2  UNL d   1       1.000  -0.223  -0.291  0.00  0.00     0.162 A 
ATOM      4  C3  UNL d   1      -0.271   0.340  -0.182  0.00  0.00    -0.034 A 
ATOM      5  C4  UNL d   1      -1.206  -0.253   0.669  0.00  0.00     0.162 A 
ATOM      6  C5  UNL d   1      -0.871  -1.389   1.398  0.00  0.00     0.062 A 
ATOM      7  F   UNL d   1      -1.775  -1.951   2.213  0.00  0.00    -0.097 F 
ATOM      8  F1  UNL d   1      -2.438   0.262   0.798  0.00  0.00    -0.096 F 
ATOM      9  I   UNL d   1      -0.770   2.039  -1.274  0.00  0.00    -0.060 I 
ATOM     10  F2  UNL d   1       1.924   0.320  -1.099  0.00  0.00    -0.096 F 
ATOM     11  F3  UNL d   1       2.556  -1.893   0.328  0.00  0.00    -0.097 F 
ATOM     12  F4  UNL d   1       0.717  -3.037   1.987  0.00  0.00    -0.092 F 
ENDROOT
TORSDOF 0
ENDMDL
