MODEL 1
REMARK minimizedAffinity 1.20038521
REMARK minimizedRMSD -1
REMARK  0 active torsions:
REMARK  status: ('A' for Active; 'I' for Inactive)
ROOT
ATOM      1  C   UNL d   1       0.924  -1.928   0.841  0.00  0.00     0.124 A 
ATOM      2  C1  UNL d   1       1.813  -1.024   0.277  0.00  0.00     0.062 A 
ATOM      3  C2  UNL d   1       1.339   0.042  -0.482  0.00  0.00     0.162 A 
ATOM      4  C3  UNL d   1      -0.031   0.211  -0.681  0.00  0.00    -0.034 A 
ATOM      5  C4  UNL d   1      -0.919  -0.703  -0.111  0.00  0.00     0.162 A 
ATOM      6  C5  UNL d   1      -0.441  -1.766   0.647  0.00  0.00     0.062 A 
ATOM      7  F   UNL d   1      -1.301  -2.639   1.192  0.00  0.00    -0.097 F 
ATOM      8  F1  UNL d   1      -2.243  -0.570  -0.282  0.00  0.00    -0.096 F 
ATOM      9  I   UNL d   1      -0.743   1.804  -1.816  0.00  0.00    -0.060 I 
ATOM     10  F2  UNL d   1       2.221   0.901  -1.016  0.00  0.00    -0.096 F 
ATOM     11  F3  UNL d   1       3.132  -1.178   0.462  0.00  0.00    -0.097 F 
ATOM     12  F4  UNL d   1       1.382  -2.953   1.571  0.00  0.00    -0.092 F 
ENDROOT
TORSDOF 0
ENDMDL
