MODEL 1
REMARK minimizedAffinity -1.73750246
REMARK minimizedRMSD -1
REMARK  0 active torsions:
REMARK  status: ('A' for Active; 'I' for Inactive)
ROOT
ATOM      1  C   UNL d   1      -0.293   1.363  -0.042  0.00  0.00     0.124 A 
ATOM      2  C1  UNL d   1      -1.141   0.483   0.617  0.00  0.00     0.062 A 
ATOM      3  C2  UNL d   1      -0.721  -0.813   0.901  0.00  0.00     0.162 A 
ATOM      4  C3  UNL d   1       0.554  -1.238   0.527  0.00  0.00    -0.034 A 
ATOM      5  C4  UNL d   1       1.401  -0.347  -0.137  0.00  0.00     0.162 A 
ATOM      6  C5  UNL d   1       0.976   0.947  -0.418  0.00  0.00     0.062 A 
ATOM      7  F   UNL d   1       1.797   1.796  -1.055  0.00  0.00    -0.097 F 
ATOM      8  F1  UNL d   1       2.633  -0.723  -0.511  0.00  0.00    -0.096 F 
ATOM      9  I   UNL d   1       1.186  -3.175   0.949  0.00  0.00    -0.060 I 
ATOM     10  F2  UNL d   1      -1.561  -1.642   1.539  0.00  0.00    -0.096 F 
ATOM     11  F3  UNL d   1      -2.368   0.883   0.981  0.00  0.00    -0.097 F 
ATOM     12  F4  UNL d   1      -0.700   2.610  -0.315  0.00  0.00    -0.092 F 
ENDROOT
TORSDOF 0
ENDMDL
