MODEL 1
REMARK minimizedAffinity -3.3966012
REMARK minimizedRMSD -1
REMARK  0 active torsions:
REMARK  status: ('A' for Active; 'I' for Inactive)
ROOT
ATOM      1  C   UNL d   1       0.847  -1.365   0.783  0.00  0.00     0.124 A 
ATOM      2  C1  UNL d   1      -0.496  -1.019   0.727  0.00  0.00     0.062 A 
ATOM      3  C2  UNL d   1      -0.910   0.062  -0.045  0.00  0.00     0.162 A 
ATOM      4  C3  UNL d   1       0.022   0.805  -0.770  0.00  0.00    -0.034 A 
ATOM      5  C4  UNL d   1       1.371   0.453  -0.709  0.00  0.00     0.162 A 
ATOM      6  C5  UNL d   1       1.779  -0.629   0.065  0.00  0.00     0.062 A 
ATOM      7  F   UNL d   1       3.077  -0.961   0.118  0.00  0.00    -0.097 F 
ATOM      8  F1  UNL d   1       2.293   1.146  -1.393  0.00  0.00    -0.096 F 
ATOM      9  I   UNL d   1      -0.592   2.423  -1.927  0.00  0.00    -0.060 I 
ATOM     10  F2  UNL d   1      -2.214   0.373  -0.081  0.00  0.00    -0.096 F 
ATOM     11  F3  UNL d   1      -1.399  -1.728   1.421  0.00  0.00    -0.097 F 
ATOM     12  F4  UNL d   1       1.242  -2.405   1.528  0.00  0.00    -0.092 F 
ENDROOT
TORSDOF 0
ENDMDL
