MODEL 1
REMARK minimizedAffinity -1.51248741
REMARK minimizedRMSD -1
REMARK  0 active torsions:
REMARK  status: ('A' for Active; 'I' for Inactive)
ROOT
ATOM      1  C   UNL d   1       0.393  -2.234   1.902  0.00  0.00     0.124 A 
ATOM      2  C1  UNL d   1      -0.788  -1.548   2.151  0.00  0.00     0.062 A 
ATOM      3  C2  UNL d   1      -1.159  -0.478   1.342  0.00  0.00     0.162 A 
ATOM      4  C3  UNL d   1      -0.349  -0.087   0.276  0.00  0.00    -0.034 A 
ATOM      5  C4  UNL d   1       0.838  -0.782   0.033  0.00  0.00     0.162 A 
ATOM      6  C5  UNL d   1       1.204  -1.851   0.844  0.00  0.00     0.062 A 
ATOM      7  F   UNL d   1       2.345  -2.512   0.602  0.00  0.00    -0.097 F 
ATOM      8  F1  UNL d   1       1.640  -0.433  -0.984  0.00  0.00    -0.096 F 
ATOM      9  I   UNL d   1      -0.900   1.512  -0.936  0.00  0.00    -0.060 I 
ATOM     10  F2  UNL d   1      -2.305   0.167   1.606  0.00  0.00    -0.096 F 
ATOM     11  F3  UNL d   1      -1.573  -1.916   3.174  0.00  0.00    -0.097 F 
ATOM     12  F4  UNL d   1       0.748  -3.263   2.683  0.00  0.00    -0.092 F 
ENDROOT
TORSDOF 0
ENDMDL
