MODEL 1
REMARK minimizedAffinity -3.29222751
REMARK minimizedRMSD -1
REMARK  0 active torsions:
REMARK  status: ('A' for Active; 'I' for Inactive)
ROOT
ATOM      1  C   UNL d   1       1.474  -2.574   1.445  0.00  0.00     0.124 A 
ATOM      2  C1  UNL d   1       2.065  -1.894   0.390  0.00  0.00     0.062 A 
ATOM      3  C2  UNL d   1       1.408  -0.822  -0.207  0.00  0.00     0.162 A 
ATOM      4  C3  UNL d   1       0.152  -0.423   0.251  0.00  0.00    -0.034 A 
ATOM      5  C4  UNL d   1      -0.436  -1.113   1.312  0.00  0.00     0.162 A 
ATOM      6  C5  UNL d   1       0.225  -2.183   1.906  0.00  0.00     0.062 A 
ATOM      7  F   UNL d   1      -0.347  -2.839   2.926  0.00  0.00    -0.097 F 
ATOM      8  F1  UNL d   1      -1.642  -0.755   1.778  0.00  0.00    -0.096 F 
ATOM      9  I   UNL d   1      -0.834   1.179  -0.639  0.00  0.00    -0.060 I 
ATOM     10  F2  UNL d   1       2.002  -0.183  -1.226  0.00  0.00    -0.096 F 
ATOM     11  F3  UNL d   1       3.272  -2.270  -0.057  0.00  0.00    -0.097 F 
ATOM     12  F4  UNL d   1       2.109  -3.606   2.017  0.00  0.00    -0.092 F 
ENDROOT
TORSDOF 0
ENDMDL
