MODEL 1
REMARK minimizedAffinity -1.92445862
REMARK minimizedRMSD -1
REMARK  0 active torsions:
REMARK  status: ('A' for Active; 'I' for Inactive)
ROOT
ATOM      1  C   UNL d   1       1.089  -1.747   0.796  0.00  0.00     0.124 A 
ATOM      2  C1  UNL d   1      -0.280  -1.598   0.622  0.00  0.00     0.062 A 
ATOM      3  C2  UNL d   1      -0.778  -0.543  -0.138  0.00  0.00     0.162 A 
ATOM      4  C3  UNL d   1       0.094   0.370  -0.731  0.00  0.00    -0.034 A 
ATOM      5  C4  UNL d   1       1.469   0.214  -0.550  0.00  0.00     0.162 A 
ATOM      6  C5  UNL d   1       1.962  -0.842   0.210  0.00  0.00     0.062 A 
ATOM      7  F   UNL d   1       3.285  -0.985   0.378  0.00  0.00    -0.097 F 
ATOM      8  F1  UNL d   1       2.336   1.074  -1.106  0.00  0.00    -0.096 F 
ATOM      9  I   UNL d   1      -0.646   1.949  -1.868  0.00  0.00    -0.060 I 
ATOM     10  F2  UNL d   1      -2.105  -0.423  -0.290  0.00  0.00    -0.096 F 
ATOM     11  F3  UNL d   1      -1.126  -2.471   1.187  0.00  0.00    -0.097 F 
ATOM     12  F4  UNL d   1       1.565  -2.762   1.529  0.00  0.00    -0.092 F 
ENDROOT
TORSDOF 0
ENDMDL
