MODEL 1
REMARK minimizedAffinity -2.60792112
REMARK minimizedRMSD -1
REMARK  0 active torsions:
REMARK  status: ('A' for Active; 'I' for Inactive)
ROOT
ATOM      1  C   UNL d   1       1.515  -2.447   1.705  0.00  0.00     0.124 A 
ATOM      2  C1  UNL d   1       2.095  -1.505   0.866  0.00  0.00     0.062 A 
ATOM      3  C2  UNL d   1       1.325  -0.476   0.332  0.00  0.00     0.162 A 
ATOM      4  C3  UNL d   1      -0.033  -0.382   0.635  0.00  0.00    -0.034 A 
ATOM      5  C4  UNL d   1      -0.609  -1.334   1.478  0.00  0.00     0.162 A 
ATOM      6  C5  UNL d   1       0.164  -2.361   2.010  0.00  0.00     0.062 A 
ATOM      7  F   UNL d   1      -0.398  -3.270   2.820  0.00  0.00    -0.097 F 
ATOM      8  F1  UNL d   1      -1.913  -1.274   1.790  0.00  0.00    -0.096 F 
ATOM      9  I   UNL d   1      -1.187   1.155  -0.163  0.00  0.00    -0.060 I 
ATOM     10  F2  UNL d   1       1.912   0.420  -0.476  0.00  0.00    -0.096 F 
ATOM     11  F3  UNL d   1       3.400  -1.587   0.570  0.00  0.00    -0.097 F 
ATOM     12  F4  UNL d   1       2.258  -3.437   2.217  0.00  0.00    -0.092 F 
ENDROOT
TORSDOF 0
ENDMDL
