MODEL 1
REMARK minimizedAffinity -3.85207915
REMARK minimizedRMSD -1
REMARK  0 active torsions:
REMARK  status: ('A' for Active; 'I' for Inactive)
ROOT
ATOM      1  C   UNL d   1       0.431  -2.374   1.765  0.00  0.00     0.124 A 
ATOM      2  C1  UNL d   1      -0.568  -1.568   2.294  0.00  0.00     0.062 A 
ATOM      3  C2  UNL d   1      -0.848  -0.332   1.720  0.00  0.00     0.162 A 
ATOM      4  C3  UNL d   1      -0.127   0.108   0.609  0.00  0.00    -0.034 A 
ATOM      5  C4  UNL d   1       0.878  -0.707   0.084  0.00  0.00     0.162 A 
ATOM      6  C5  UNL d   1       1.153  -1.942   0.661  0.00  0.00     0.062 A 
ATOM      7  F   UNL d   1       2.119  -2.719   0.149  0.00  0.00    -0.097 F 
ATOM      8  F1  UNL d   1       1.590  -0.316  -0.983  0.00  0.00    -0.096 F 
ATOM      9  I   UNL d   1      -0.542   1.956  -0.253  0.00  0.00    -0.060 I 
ATOM     10  F2  UNL d   1      -1.819   0.425   2.251  0.00  0.00    -0.096 F 
ATOM     11  F3  UNL d   1      -1.266  -1.982   3.361  0.00  0.00    -0.097 F 
ATOM     12  F4  UNL d   1       0.699  -3.563   2.321  0.00  0.00    -0.092 F 
ENDROOT
TORSDOF 0
ENDMDL
