MODEL 1
REMARK minimizedAffinity -3.54542398
REMARK minimizedRMSD -1
REMARK  0 active torsions:
REMARK  status: ('A' for Active; 'I' for Inactive)
ROOT
ATOM      1  C   UNL d   1       0.223  -2.700   2.030  0.00  0.00     0.124 A 
ATOM      2  C1  UNL d   1      -0.784  -1.805   2.361  0.00  0.00     0.062 A 
ATOM      3  C2  UNL d   1      -0.989  -0.664   1.590  0.00  0.00     0.162 A 
ATOM      4  C3  UNL d   1      -0.185  -0.412   0.479  0.00  0.00    -0.034 A 
ATOM      5  C4  UNL d   1       0.827  -1.316   0.152  0.00  0.00     0.162 A 
ATOM      6  C5  UNL d   1       1.028  -2.455   0.926  0.00  0.00     0.062 A 
ATOM      7  F   UNL d   1       2.002  -3.318   0.604  0.00  0.00    -0.097 F 
ATOM      8  F1  UNL d   1       1.619  -1.105  -0.910  0.00  0.00    -0.096 F 
ATOM      9  I   UNL d   1      -0.488   1.292  -0.677  0.00  0.00    -0.060 I 
ATOM     10  F2  UNL d   1      -1.971   0.183   1.934  0.00  0.00    -0.096 F 
ATOM     11  F3  UNL d   1      -1.562  -2.039   3.428  0.00  0.00    -0.097 F 
ATOM     12  F4  UNL d   1       0.419  -3.796   2.774  0.00  0.00    -0.092 F 
ENDROOT
TORSDOF 0
ENDMDL
