MODEL 1
REMARK minimizedAffinity -1.31057012
REMARK minimizedRMSD -1
REMARK  0 active torsions:
REMARK  status: ('A' for Active; 'I' for Inactive)
ROOT
ATOM      1  C   UNL d   1       0.267  -2.167   1.786  0.00  0.00     0.124 A 
ATOM      2  C1  UNL d   1       1.049  -1.811   0.696  0.00  0.00     0.062 A 
ATOM      3  C2  UNL d   1       0.676  -0.743  -0.114  0.00  0.00     0.162 A 
ATOM      4  C3  UNL d   1      -0.485  -0.021   0.163  0.00  0.00    -0.034 A 
ATOM      5  C4  UNL d   1      -1.267  -0.386   1.261  0.00  0.00     0.162 A 
ATOM      6  C5  UNL d   1      -0.890  -1.454   2.067  0.00  0.00     0.062 A 
ATOM      7  F   UNL d   1      -1.647  -1.796   3.120  0.00  0.00    -0.097 F 
ATOM      8  F1  UNL d   1      -2.390   0.287   1.556  0.00  0.00    -0.096 F 
ATOM      9  I   UNL d   1      -1.046   1.577  -1.046  0.00  0.00    -0.060 I 
ATOM     10  F2  UNL d   1       1.451  -0.421  -1.160  0.00  0.00    -0.096 F 
ATOM     11  F3  UNL d   1       2.167  -2.499   0.422  0.00  0.00    -0.097 F 
ATOM     12  F4  UNL d   1       0.628  -3.196   2.564  0.00  0.00    -0.092 F 
ENDROOT
TORSDOF 0
ENDMDL
