MODEL 1
REMARK minimizedAffinity -4.62311029
REMARK minimizedRMSD -1
REMARK  0 active torsions:
REMARK  status: ('A' for Active; 'I' for Inactive)
ROOT
ATOM      1  C1  BNZ d   1       2.959  -1.383   0.453  0.00  0.00     0.000 A 
ATOM      2  C2  BNZ d   1       1.641  -1.047   0.606  0.00  0.00     0.000 A 
ATOM      3  C3  BNZ d   1       1.280   0.214   0.992  0.00  0.00     0.000 A 
ATOM      4  C4  BNZ d   1       2.238   1.123   1.264  0.00  0.00     0.000 A 
ATOM      5  C5  BNZ d   1       3.572   0.797   1.124  0.00  0.00     0.000 A 
ATOM      6  C6  BNZ d   1       3.930  -0.461   0.697  0.00  0.00     0.000 A 
ENDROOT
TORSDOF 0
ENDMDL
