MODEL 1
REMARK minimizedAffinity -4.55763197
REMARK minimizedRMSD -1
REMARK  0 active torsions:
REMARK  status: ('A' for Active; 'I' for Inactive)
ROOT
ATOM      1  C1  BNZ d   1       2.345   0.691   0.738  0.00  0.00     0.000 A 
ATOM      2  C2  BNZ d   1       1.026   0.972   0.505  0.00  0.00     0.000 A 
ATOM      3  C3  BNZ d   1       0.180   0.012   0.025  0.00  0.00     0.000 A 
ATOM      4  C4  BNZ d   1       0.662  -1.215  -0.259  0.00  0.00     0.000 A 
ATOM      5  C5  BNZ d   1       1.993  -1.511  -0.039  0.00  0.00     0.000 A 
ATOM      6  C6  BNZ d   1       2.833  -0.553   0.482  0.00  0.00     0.000 A 
ENDROOT
TORSDOF 0
ENDMDL
