MODEL 1
REMARK minimizedAffinity -4.84743118
REMARK minimizedRMSD -1
REMARK  0 active torsions:
REMARK  status: ('A' for Active; 'I' for Inactive)
ROOT
ATOM      1  C1  BNZ d   1       1.822  -1.701   0.188  0.00  0.00     0.000 A 
ATOM      2  C2  BNZ d   1       0.481  -1.532  -0.028  0.00  0.00     0.000 A 
ATOM      3  C3  BNZ d   1      -0.085  -0.288   0.023  0.00  0.00     0.000 A 
ATOM      4  C4  BNZ d   1       0.684   0.778   0.328  0.00  0.00     0.000 A 
ATOM      5  C5  BNZ d   1       2.036   0.622   0.557  0.00  0.00     0.000 A 
ATOM      6  C6  BNZ d   1       2.609  -0.626   0.467  0.00  0.00     0.000 A 
ENDROOT
TORSDOF 0
ENDMDL
