MODEL 1
REMARK minimizedAffinity -5.1948843
REMARK minimizedRMSD -1
REMARK  0 active torsions:
REMARK  status: ('A' for Active; 'I' for Inactive)
ROOT
ATOM      1  C1  BNZ d   1       0.676   0.324  -0.121  0.00  0.00     0.000 A 
ATOM      2  C2  BNZ d   1       1.724   0.969   0.479  0.00  0.00     0.000 A 
ATOM      3  C3  BNZ d   1       2.811   0.273   0.926  0.00  0.00     0.000 A 
ATOM      4  C4  BNZ d   1       2.832  -1.071   0.810  0.00  0.00     0.000 A 
ATOM      5  C5  BNZ d   1       1.779  -1.737   0.216  0.00  0.00     0.000 A 
ATOM      6  C6  BNZ d   1       0.703  -1.029  -0.269  0.00  0.00     0.000 A 
ENDROOT
TORSDOF 0
ENDMDL
