MODEL 1
REMARK minimizedAffinity -4.46011782
REMARK minimizedRMSD -1
REMARK  0 active torsions:
REMARK  status: ('A' for Active; 'I' for Inactive)
ROOT
ATOM      1  C1  BNZ d   1       0.327  -1.253  -0.957  0.00  0.00     0.000 A 
ATOM      2  C2  BNZ d   1       1.617  -1.627  -0.692  0.00  0.00     0.000 A 
ATOM      3  C3  BNZ d   1       2.472  -0.780  -0.044  0.00  0.00     0.000 A 
ATOM      4  C4  BNZ d   1       2.049   0.453   0.302  0.00  0.00     0.000 A 
ATOM      5  C5  BNZ d   1       0.754   0.848   0.033  0.00  0.00     0.000 A 
ATOM      6  C6  BNZ d   1      -0.116  -0.021  -0.585  0.00  0.00     0.000 A 
ENDROOT
TORSDOF 0
ENDMDL
