MODEL 1
REMARK minimizedAffinity -3.80739212
REMARK minimizedRMSD -1
REMARK  0 active torsions:
REMARK  status: ('A' for Active; 'I' for Inactive)
ROOT
ATOM      1  C1  BNZ d   1       1.768  -1.223  -0.218  0.00  0.00     0.000 A 
ATOM      2  C2  BNZ d   1       1.237   0.035  -0.121  0.00  0.00     0.000 A 
ATOM      3  C3  BNZ d   1      -0.114   0.219  -0.023  0.00  0.00     0.000 A 
ATOM      4  C4  BNZ d   1      -0.933  -0.852  -0.064  0.00  0.00     0.000 A 
ATOM      5  C5  BNZ d   1      -0.413  -2.126  -0.171  0.00  0.00     0.000 A 
ATOM      6  C6  BNZ d   1       0.949  -2.310  -0.230  0.00  0.00     0.000 A 
ENDROOT
TORSDOF 0
ENDMDL
