MODEL 1
REMARK minimizedAffinity -3.09541702
REMARK minimizedRMSD -1
REMARK  0 active torsions:
REMARK  status: ('A' for Active; 'I' for Inactive)
ROOT
ATOM      1  C1  BNZ d   1      -0.122  -1.201  -0.758  0.00  0.00     0.000 A 
ATOM      2  C2  BNZ d   1       0.935  -2.070  -0.807  0.00  0.00     0.000 A 
ATOM      3  C3  BNZ d   1       2.057  -1.850  -0.058  0.00  0.00     0.000 A 
ATOM      4  C4  BNZ d   1       2.137  -0.742   0.707  0.00  0.00     0.000 A 
ATOM      5  C5  BNZ d   1       1.083   0.148   0.759  0.00  0.00     0.000 A 
ATOM      6  C6  BNZ d   1      -0.060  -0.096   0.034  0.00  0.00     0.000 A 
ENDROOT
TORSDOF 0
ENDMDL
