MODEL 1
REMARK minimizedAffinity -3.45897865
REMARK minimizedRMSD -1
REMARK  0 active torsions:
REMARK  status: ('A' for Active; 'I' for Inactive)
ROOT
ATOM      1  O1  BZF d   1       3.022   0.316   0.830  0.00  0.00    -0.204 OA
ATOM      2  C2  BZF d   1       3.158  -1.056   0.914  0.00  0.00     0.174 A 
ATOM      3  C3  BZF d   1       1.976  -1.668   0.695  0.00  0.00    -0.012 A 
ATOM      4  C3A BZF d   1       1.062  -0.616   0.369  0.00  0.00    -0.107 A 
ATOM      5  C4  BZF d   1      -0.262  -0.592   0.036  0.00  0.00     0.055 A 
ATOM      6  C5  BZF d   1      -0.875   0.606  -0.151  0.00  0.00    -0.016 A 
ATOM      7  C6  BZF d   1      -0.196   1.799  -0.008  0.00  0.00     0.022 A 
ATOM      8  C7  BZF d   1       1.120   1.825   0.316  0.00  0.00     0.029 A 
ATOM      9  C7A BZF d   1       1.750   0.615   0.474  0.00  0.00     0.058 A 
ENDROOT
TORSDOF 0
ENDMDL
