MODEL 1
REMARK minimizedAffinity -2.76053214
REMARK minimizedRMSD -1
REMARK  0 active torsions:
REMARK  status: ('A' for Active; 'I' for Inactive)
ROOT
ATOM      1  O1  BZF d   1       1.816  -0.165   0.890  0.00  0.00    -0.204 OA
ATOM      2  C2  BZF d   1       2.174   1.053   0.344  0.00  0.00     0.174 A 
ATOM      3  C3  BZF d   1       1.108   1.654  -0.223  0.00  0.00    -0.012 A 
ATOM      4  C3A BZF d   1      -0.003   0.799   0.063  0.00  0.00    -0.107 A 
ATOM      5  C4  BZF d   1      -1.337   0.866  -0.223  0.00  0.00     0.055 A 
ATOM      6  C5  BZF d   1      -2.141  -0.169   0.135  0.00  0.00    -0.016 A 
ATOM      7  C6  BZF d   1      -1.646  -1.286   0.775  0.00  0.00     0.022 A 
ATOM      8  C7  BZF d   1      -0.331  -1.395   1.085  0.00  0.00     0.029 A 
ATOM      9  C7A BZF d   1       0.479  -0.337   0.753  0.00  0.00     0.058 A 
ENDROOT
TORSDOF 0
ENDMDL
