MODEL 1
REMARK minimizedAffinity 1.094239
REMARK minimizedRMSD -1
REMARK  0 active torsions:
REMARK  status: ('A' for Active; 'I' for Inactive)
ROOT
ATOM      1  O1  BZF d   1       2.758   1.045   1.390  0.00  0.00    -0.204 OA
ATOM      2  C2  BZF d   1       3.521  -0.090   1.198  0.00  0.00     0.174 A 
ATOM      3  C3  BZF d   1       2.779  -1.081   0.663  0.00  0.00    -0.012 A 
ATOM      4  C3A BZF d   1       1.493  -0.501   0.425  0.00  0.00    -0.107 A 
ATOM      5  C4  BZF d   1       0.330  -0.981  -0.107  0.00  0.00     0.055 A 
ATOM      6  C5  BZF d   1      -0.766  -0.179  -0.130  0.00  0.00    -0.016 A 
ATOM      7  C6  BZF d   1      -0.738   1.105   0.374  0.00  0.00     0.022 A 
ATOM      8  C7  BZF d   1       0.394   1.627   0.907  0.00  0.00     0.029 A 
ATOM      9  C7A BZF d   1       1.512   0.830   0.902  0.00  0.00     0.058 A 
ENDROOT
TORSDOF 0
ENDMDL
