MODEL 1
REMARK minimizedAffinity -3.29257703
REMARK minimizedRMSD -1
REMARK  0 active torsions:
REMARK  status: ('A' for Active; 'I' for Inactive)
ROOT
ATOM      1  O1  BZF d   1      -0.346   1.215   1.176  0.00  0.00    -0.204 OA
ATOM      2  C2  BZF d   1      -1.297   0.222   1.307  0.00  0.00     0.174 A 
ATOM      3  C3  BZF d   1      -0.761  -0.990   1.055  0.00  0.00    -0.012 A 
ATOM      4  C3A BZF d   1       0.632  -0.747   0.838  0.00  0.00    -0.107 A 
ATOM      5  C4  BZF d   1       1.695  -1.558   0.559  0.00  0.00     0.055 A 
ATOM      6  C5  BZF d   1       2.912  -0.998   0.333  0.00  0.00    -0.016 A 
ATOM      7  C6  BZF d   1       3.102   0.368   0.373  0.00  0.00     0.022 A 
ATOM      8  C7  BZF d   1       2.079   1.213   0.650  0.00  0.00     0.029 A 
ATOM      9  C7A BZF d   1       0.855   0.648   0.912  0.00  0.00     0.058 A 
ENDROOT
TORSDOF 0
ENDMDL
