MODEL 1
REMARK minimizedAffinity -4.35694456
REMARK minimizedRMSD -1
REMARK  0 active torsions:
REMARK  status: ('A' for Active; 'I' for Inactive)
ROOT
ATOM      1  O1  BZF d   1       2.172  -1.332   0.662  0.00  0.00    -0.204 OA
ATOM      2  C2  BZF d   1       3.230  -0.473   0.889  0.00  0.00     0.174 A 
ATOM      3  C3  BZF d   1       2.873   0.803   0.635  0.00  0.00    -0.012 A 
ATOM      4  C3A BZF d   1       1.480   0.748   0.313  0.00  0.00    -0.107 A 
ATOM      5  C4  BZF d   1       0.554   1.696  -0.016  0.00  0.00     0.055 A 
ATOM      6  C5  BZF d   1      -0.705   1.303  -0.344  0.00  0.00    -0.016 A 
ATOM      7  C6  BZF d   1      -1.070  -0.027  -0.358  0.00  0.00     0.022 A 
ATOM      8  C7  BZF d   1      -0.188  -1.003  -0.034  0.00  0.00     0.029 A 
ATOM      9  C7A BZF d   1       1.076  -0.607   0.330  0.00  0.00     0.058 A 
ENDROOT
TORSDOF 0
ENDMDL
