MODEL 1
REMARK minimizedAffinity -4.1363554
REMARK minimizedRMSD -1
REMARK  0 active torsions:
REMARK  status: ('A' for Active; 'I' for Inactive)
ROOT
ATOM      1  O1  BZF d   1      -0.865  -0.570   0.138  0.00  0.00    -0.204 OA
ATOM      2  C2  BZF d   1      -1.105   0.734  -0.250  0.00  0.00     0.174 A 
ATOM      3  C3  BZF d   1      -0.015   1.502  -0.046  0.00  0.00    -0.012 A 
ATOM      4  C3A BZF d   1       0.997   0.603   0.418  0.00  0.00    -0.107 A 
ATOM      5  C4  BZF d   1       2.305   0.766   0.777  0.00  0.00     0.055 A 
ATOM      6  C5  BZF d   1       2.996  -0.302   1.256  0.00  0.00    -0.016 A 
ATOM      7  C6  BZF d   1       2.410  -1.544   1.393  0.00  0.00     0.022 A 
ATOM      8  C7  BZF d   1       1.117  -1.755   1.046  0.00  0.00     0.029 A 
ATOM      9  C7A BZF d   1       0.426  -0.686   0.531  0.00  0.00     0.058 A 
ENDROOT
TORSDOF 0
ENDMDL
