MODEL 1
REMARK minimizedAffinity -5.67830801
REMARK minimizedRMSD -1
REMARK  0 active torsions:
REMARK  status: ('A' for Active; 'I' for Inactive)
ROOT
ATOM      1  O1  BZF d   1       0.122  -0.417  -0.679  0.00  0.00    -0.204 OA
ATOM      2  C2  BZF d   1      -0.913   0.485  -0.527  0.00  0.00     0.174 A 
ATOM      3  C3  BZF d   1      -0.605   1.415   0.400  0.00  0.00    -0.012 A 
ATOM      4  C3A BZF d   1       0.741   1.127   0.789  0.00  0.00    -0.107 A 
ATOM      5  C4  BZF d   1       1.610   1.710   1.667  0.00  0.00     0.055 A 
ATOM      6  C5  BZF d   1       2.827   1.139   1.868  0.00  0.00    -0.016 A 
ATOM      7  C6  BZF d   1       3.205  -0.015   1.215  0.00  0.00     0.022 A 
ATOM      8  C7  BZF d   1       2.379  -0.627   0.331  0.00  0.00     0.029 A 
ATOM      9  C7A BZF d   1       1.162  -0.034   0.100  0.00  0.00     0.058 A 
ENDROOT
TORSDOF 0
ENDMDL
