MODEL 1
REMARK minimizedAffinity -5.13015604
REMARK minimizedRMSD -1
REMARK  0 active torsions:
REMARK  status: ('A' for Active; 'I' for Inactive)
ROOT
ATOM      1  O1  BZF d   1      -0.765  -0.346   0.406  0.00  0.00    -0.204 OA
ATOM      2  C2  BZF d   1      -1.022   0.983   0.130  0.00  0.00     0.174 A 
ATOM      3  C3  BZF d   1       0.118   1.704   0.142  0.00  0.00    -0.012 A 
ATOM      4  C3A BZF d   1       1.164   0.750   0.353  0.00  0.00    -0.107 A 
ATOM      5  C4  BZF d   1       2.522   0.852   0.446  0.00  0.00     0.055 A 
ATOM      6  C5  BZF d   1       3.250  -0.260   0.729  0.00  0.00    -0.016 A 
ATOM      7  C6  BZF d   1       2.652  -1.487   0.930  0.00  0.00     0.022 A 
ATOM      8  C7  BZF d   1       1.308  -1.639   0.843  0.00  0.00     0.029 A 
ATOM      9  C7A BZF d   1       0.573  -0.523   0.524  0.00  0.00     0.058 A 
ENDROOT
TORSDOF 0
ENDMDL
