MODEL 1
REMARK minimizedAffinity -1.64586294
REMARK minimizedRMSD -1
REMARK  0 active torsions:
REMARK  status: ('A' for Active; 'I' for Inactive)
ROOT
ATOM      1  O1  BZF d   1      -0.553  -0.763   0.971  0.00  0.00    -0.204 OA
ATOM      2  C2  BZF d   1      -0.179  -2.003   1.451  0.00  0.00     0.174 A 
ATOM      3  C3  BZF d   1       1.147  -2.195   1.298  0.00  0.00    -0.012 A 
ATOM      4  C3A BZF d   1       1.647  -0.964   0.768  0.00  0.00    -0.107 A 
ATOM      5  C4  BZF d   1       2.894  -0.530   0.417  0.00  0.00     0.055 A 
ATOM      6  C5  BZF d   1       3.032   0.703  -0.138  0.00  0.00    -0.016 A 
ATOM      7  C6  BZF d   1       1.946   1.524  -0.361  0.00  0.00     0.022 A 
ATOM      8  C7  BZF d   1       0.691   1.140  -0.025  0.00  0.00     0.029 A 
ATOM      9  C7A BZF d   1       0.552  -0.092   0.566  0.00  0.00     0.058 A 
ENDROOT
TORSDOF 0
ENDMDL
