MODEL 1
REMARK minimizedAffinity 8.97238159
REMARK minimizedRMSD -1
REMARK  0 active torsions:
REMARK  status: ('A' for Active; 'I' for Inactive)
ROOT
ATOM      1  O1  BZF d   1      -4.157   3.198  -2.779  0.00  0.00    -0.204 OA
ATOM      2  C2  BZF d   1      -4.125   1.875  -3.175  0.00  0.00     0.174 A 
ATOM      3  C3  BZF d   1      -4.648   1.077  -2.221  0.00  0.00    -0.012 A 
ATOM      4  C3A BZF d   1      -5.115   1.966  -1.202  0.00  0.00    -0.107 A 
ATOM      5  C4  BZF d   1      -5.746   1.775  -0.006  0.00  0.00     0.055 A 
ATOM      6  C5  BZF d   1      -6.000   2.849   0.786  0.00  0.00    -0.016 A 
ATOM      7  C6  BZF d   1      -5.634   4.127   0.416  0.00  0.00     0.022 A 
ATOM      8  C7  BZF d   1      -5.011   4.367  -0.763  0.00  0.00     0.029 A 
ATOM      9  C7A BZF d   1      -4.782   3.287  -1.581  0.00  0.00     0.058 A 
ENDROOT
TORSDOF 0
ENDMDL
