MODEL 1
REMARK minimizedAffinity -3.13604498
REMARK minimizedRMSD -1
REMARK  0 active torsions:
REMARK  status: ('A' for Active; 'I' for Inactive)
ROOT
ATOM      1  C   UNL d   1      -0.395   0.947   3.308  0.00  0.00     0.020 A 
ATOM      2  C1  UNL d   1      -1.389   1.076   2.339  0.00  0.00     0.020 A 
ATOM      3  C2  UNL d   1      -1.152   0.641   1.034  0.00  0.00     0.034 A 
ATOM      4  C3  UNL d   1       0.082   0.076   0.693  0.00  0.00     0.017 A 
ATOM      5  C4  UNL d   1       1.080  -0.053   1.667  0.00  0.00     0.017 A 
ATOM      6  C5  UNL d   1       0.837   0.384   2.973  0.00  0.00     0.034 A 
ATOM      7 Cl   UNL d   1       2.628  -0.740   1.322  0.00  0.00    -0.070 Cl
ATOM      8 Cl1  UNL d   1       0.306  -0.440  -0.940  0.00  0.00    -0.070 Cl
ENDROOT
TORSDOF 0
ENDMDL
