MODEL 1
REMARK minimizedAffinity -4.23286581
REMARK minimizedRMSD -1
REMARK  0 active torsions:
REMARK  status: ('A' for Active; 'I' for Inactive)
ROOT
ATOM      1  C   UNL d   1      -0.469  -0.851  -1.044  0.00  0.00     0.020 A 
ATOM      2  C1  UNL d   1      -1.663  -0.246  -0.656  0.00  0.00     0.020 A 
ATOM      3  C2  UNL d   1      -1.725   0.473   0.540  0.00  0.00     0.034 A 
ATOM      4  C3  UNL d   1      -0.590   0.589   1.351  0.00  0.00     0.017 A 
ATOM      5  C4  UNL d   1       0.609  -0.019   0.960  0.00  0.00     0.017 A 
ATOM      6  C5  UNL d   1       0.665  -0.738  -0.238  0.00  0.00     0.034 A 
ATOM      7 Cl   UNL d   1       2.050   0.081   1.907  0.00  0.00    -0.070 Cl
ATOM      8 Cl1  UNL d   1      -0.738   1.494   2.815  0.00  0.00    -0.070 Cl
ENDROOT
TORSDOF 0
ENDMDL
