MODEL 1
REMARK minimizedAffinity -4.5301404
REMARK minimizedRMSD -1
REMARK  0 active torsions:
REMARK  status: ('A' for Active; 'I' for Inactive)
ROOT
ATOM      1  C   UNL d   1      -0.700   1.790   2.329  0.00  0.00     0.020 A 
ATOM      2  C1  UNL d   1       0.632   1.492   2.045  0.00  0.00     0.020 A 
ATOM      3  C2  UNL d   1       0.948   0.681   0.953  0.00  0.00     0.034 A 
ATOM      4  C3  UNL d   1      -0.069   0.165   0.142  0.00  0.00     0.017 A 
ATOM      5  C4  UNL d   1      -1.406   0.464   0.428  0.00  0.00     0.017 A 
ATOM      6  C5  UNL d   1      -1.717   1.277   1.522  0.00  0.00     0.034 A 
ATOM      7 Cl   UNL d   1      -2.715  -0.136  -0.527  0.00  0.00    -0.070 Cl
ATOM      8 Cl1  UNL d   1       0.395  -0.831  -1.192  0.00  0.00    -0.070 Cl
ENDROOT
TORSDOF 0
ENDMDL
