MODEL 1
REMARK minimizedAffinity -3.97119474
REMARK minimizedRMSD -1
REMARK  0 active torsions:
REMARK  status: ('A' for Active; 'I' for Inactive)
ROOT
ATOM      1  C   UNL d   1      -0.634   1.251   2.849  0.00  0.00     0.020 A 
ATOM      2  C1  UNL d   1       0.605   1.332   2.214  0.00  0.00     0.020 A 
ATOM      3  C2  UNL d   1       0.755   0.850   0.912  0.00  0.00     0.034 A 
ATOM      4  C3  UNL d   1      -0.336   0.285   0.240  0.00  0.00     0.017 A 
ATOM      5  C4  UNL d   1      -1.579   0.204   0.879  0.00  0.00     0.017 A 
ATOM      6  C5  UNL d   1      -1.723   0.688   2.183  0.00  0.00     0.034 A 
ATOM      7 Cl   UNL d   1      -2.970  -0.480   0.115  0.00  0.00    -0.070 Cl
ATOM      8 Cl1  UNL d   1      -0.078  -0.290  -1.368  0.00  0.00    -0.070 Cl
ENDROOT
TORSDOF 0
ENDMDL
