MODEL 1
REMARK minimizedAffinity -2.92179489
REMARK minimizedRMSD -1
REMARK  0 active torsions:
REMARK  status: ('A' for Active; 'I' for Inactive)
ROOT
ATOM      1  C   UNL d   1      -0.660  -0.263  -0.404  0.00  0.00     0.020 A 
ATOM      2  C1  UNL d   1       0.595  -0.809  -0.674  0.00  0.00     0.020 A 
ATOM      3  C2  UNL d   1       1.649  -0.613   0.220  0.00  0.00     0.034 A 
ATOM      4  C3  UNL d   1       1.451   0.130   1.390  0.00  0.00     0.017 A 
ATOM      5  C4  UNL d   1       0.192   0.678   1.660  0.00  0.00     0.017 A 
ATOM      6  C5  UNL d   1      -0.860   0.479   0.761  0.00  0.00     0.034 A 
ATOM      7 Cl   UNL d   1      -0.129   1.606   3.083  0.00  0.00    -0.070 Cl
ATOM      8 Cl1  UNL d   1       2.799   0.332   2.452  0.00  0.00    -0.070 Cl
ENDROOT
TORSDOF 0
ENDMDL
