MODEL 1
REMARK minimizedAffinity -2.33156252
REMARK minimizedRMSD -1
REMARK  0 active torsions:
REMARK  status: ('A' for Active; 'I' for Inactive)
ROOT
ATOM      1  C   UNL d   1       0.415   1.904   1.714  0.00  0.00     0.020 A 
ATOM      2  C1  UNL d   1      -0.679   1.443   2.446  0.00  0.00     0.020 A 
ATOM      3  C2  UNL d   1      -1.479   0.418   1.936  0.00  0.00     0.034 A 
ATOM      4  C3  UNL d   1      -1.185  -0.149   0.690  0.00  0.00     0.017 A 
ATOM      5  C4  UNL d   1      -0.087   0.314  -0.043  0.00  0.00     0.017 A 
ATOM      6  C5  UNL d   1       0.710   1.340   0.473  0.00  0.00     0.034 A 
ATOM      7 Cl   UNL d   1       0.338  -0.337  -1.587  0.00  0.00    -0.070 Cl
ATOM      8 Cl1  UNL d   1      -2.216  -1.414   0.121  0.00  0.00    -0.070 Cl
ENDROOT
TORSDOF 0
ENDMDL
