MODEL 1
REMARK minimizedAffinity -3.57236552
REMARK minimizedRMSD -1
REMARK  0 active torsions:
REMARK  status: ('A' for Active; 'I' for Inactive)
ROOT
ATOM      1  C   UNL d   1       0.035  -0.955  -1.893  0.00  0.00     0.020 A 
ATOM      2  C1  UNL d   1       0.454   0.167  -1.179  0.00  0.00     0.020 A 
ATOM      3  C2  UNL d   1       0.811   1.333  -1.859  0.00  0.00     0.034 A 
ATOM      4  C3  UNL d   1       0.749   1.381  -3.256  0.00  0.00     0.017 A 
ATOM      5  C4  UNL d   1       0.328   0.255  -3.972  0.00  0.00     0.017 A 
ATOM      6  C5  UNL d   1      -0.028  -0.911  -3.287  0.00  0.00     0.034 A 
ATOM      7 Cl   UNL d   1       0.225   0.237  -5.697  0.00  0.00    -0.070 Cl
ATOM      8 Cl1  UNL d   1       1.204   2.857  -4.031  0.00  0.00    -0.070 Cl
ENDROOT
TORSDOF 0
ENDMDL
