MODEL 1
REMARK minimizedAffinity -4.06235743
REMARK minimizedRMSD -1
REMARK  0 active torsions:
REMARK  status: ('A' for Active; 'I' for Inactive)
ROOT
ATOM      1  C   UNL d   1      -0.091   1.542   1.568  0.00  0.00     0.020 A 
ATOM      2  C1  UNL d   1      -1.169   0.986   2.256  0.00  0.00     0.020 A 
ATOM      3  C2  UNL d   1      -1.780  -0.175   1.776  0.00  0.00     0.034 A 
ATOM      4  C3  UNL d   1      -1.313  -0.783   0.605  0.00  0.00     0.017 A 
ATOM      5  C4  UNL d   1      -0.232  -0.224  -0.085  0.00  0.00     0.017 A 
ATOM      6  C5  UNL d   1       0.376   0.938   0.400  0.00  0.00     0.034 A 
ATOM      7 Cl   UNL d   1       0.400  -0.917  -1.537  0.00  0.00    -0.070 Cl
ATOM      8 Cl1  UNL d   1      -2.116  -2.216   0.070  0.00  0.00    -0.070 Cl
ENDROOT
TORSDOF 0
ENDMDL
