MODEL 1
REMARK minimizedAffinity -3.03633618
REMARK minimizedRMSD -1
REMARK  0 active torsions:
REMARK  status: ('A' for Active; 'I' for Inactive)
ROOT
ATOM      1  C   UNL d   1       1.681   0.508   1.168  0.00  0.00     0.020 A 
ATOM      2  C1  UNL d   1       1.496  -0.191  -0.025  0.00  0.00     0.020 A 
ATOM      3  C2  UNL d   1       0.282  -0.833  -0.277  0.00  0.00     0.034 A 
ATOM      4  C3  UNL d   1      -0.752  -0.779   0.665  0.00  0.00     0.017 A 
ATOM      5  C4  UNL d   1      -0.566  -0.078   1.862  0.00  0.00     0.017 A 
ATOM      6  C5  UNL d   1       0.652   0.564   2.109  0.00  0.00     0.034 A 
ATOM      7 Cl   UNL d   1      -1.795   0.034   3.072  0.00  0.00    -0.070 Cl
ATOM      8 Cl1  UNL d   1      -2.227  -1.596   0.288  0.00  0.00    -0.070 Cl
ENDROOT
TORSDOF 0
ENDMDL
