MODEL 1
REMARK minimizedAffinity -2.48064375
REMARK minimizedRMSD -1
REMARK  0 active torsions:
REMARK  status: ('A' for Active; 'I' for Inactive)
ROOT
ATOM      1  C4' PXY d   1      -1.095  -1.358  -0.773  0.00  0.00     0.077 C 
ATOM      2  C1' PXY d   1       1.860   2.923   1.747  0.00  0.00     0.077 C 
ATOM      3  C1  PXY d   1       1.079   1.799   1.097  0.00  0.00    -0.082 A 
ATOM      4  C2  PXY d   1       1.596   1.154   0.064  0.00  0.00     0.003 A 
ATOM      5  C3  PXY d   1       0.890   0.156  -0.556  0.00  0.00     0.003 A 
ATOM      6  C4  PXY d   1      -0.337  -0.222  -0.080  0.00  0.00    -0.082 A 
ATOM      7  C5  PXY d   1      -0.868   0.423   0.980  0.00  0.00     0.003 A 
ATOM      8  C6  PXY d   1      -0.152   1.461   1.570  0.00  0.00     0.003 A 
ENDROOT
TORSDOF 0
ENDMDL
