MODEL 1
REMARK minimizedAffinity -5.0025897
REMARK minimizedRMSD -1
REMARK  0 active torsions:
REMARK  status: ('A' for Active; 'I' for Inactive)
ROOT
ATOM      1  C4' PXY d   1      -2.235   0.372   2.213  0.00  0.00     0.077 C 
ATOM      2  C1' PXY d   1       2.711   1.083  -0.694  0.00  0.00     0.077 C 
ATOM      3  C1  PXY d   1       1.409   0.890   0.059  0.00  0.00    -0.082 A 
ATOM      4  C2  PXY d   1       1.034   1.784   0.959  0.00  0.00     0.003 A 
ATOM      5  C3  PXY d   1      -0.124   1.608   1.671  0.00  0.00     0.003 A 
ATOM      6  C4  PXY d   1      -0.934   0.532   1.422  0.00  0.00    -0.082 A 
ATOM      7  C5  PXY d   1      -0.563  -0.380   0.498  0.00  0.00     0.003 A 
ATOM      8  C6  PXY d   1       0.636  -0.204  -0.185  0.00  0.00     0.003 A 
ENDROOT
TORSDOF 0
ENDMDL
