MODEL 1
REMARK minimizedAffinity -5.30651999
REMARK minimizedRMSD -1
REMARK  0 active torsions:
REMARK  status: ('A' for Active; 'I' for Inactive)
ROOT
ATOM      1  C4' PXY d   1      -1.186  -1.187  -0.784  0.00  0.00     0.077 C 
ATOM      2  C1' PXY d   1       1.542   3.270   1.686  0.00  0.00     0.077 C 
ATOM      3  C1  PXY d   1       0.820   2.099   1.049  0.00  0.00    -0.082 A 
ATOM      4  C2  PXY d   1       1.344   1.507  -0.012  0.00  0.00     0.003 A 
ATOM      5  C3  PXY d   1       0.689   0.467  -0.619  0.00  0.00     0.003 A 
ATOM      6  C4  PXY d   1      -0.488  -0.007  -0.103  0.00  0.00    -0.082 A 
ATOM      7  C5  PXY d   1      -1.023   0.585   0.986  0.00  0.00     0.003 A 
ATOM      8  C6  PXY d   1      -0.363   1.666   1.563  0.00  0.00     0.003 A 
ENDROOT
TORSDOF 0
ENDMDL
