MODEL 1
REMARK minimizedAffinity -4.75626326
REMARK minimizedRMSD -1
REMARK  0 active torsions:
REMARK  status: ('A' for Active; 'I' for Inactive)
ROOT
ATOM      1  C4' PXY d   1      -2.599  -1.654  -3.324  0.00  0.00     0.077 C 
ATOM      2  C1' PXY d   1       2.224   0.209  -0.738  0.00  0.00     0.077 C 
ATOM      3  C1  PXY d   1       0.958  -0.289  -1.407  0.00  0.00    -0.082 A 
ATOM      4  C2  PXY d   1       0.746  -0.023  -2.686  0.00  0.00     0.003 A 
ATOM      5  C3  PXY d   1      -0.408  -0.438  -3.298  0.00  0.00     0.003 A 
ATOM      6  C4  PXY d   1      -1.330  -1.179  -2.609  0.00  0.00    -0.082 A 
ATOM      7  C5  PXY d   1      -1.116  -1.465  -1.307  0.00  0.00     0.003 A 
ATOM      8  C6  PXY d   1       0.043  -0.999  -0.693  0.00  0.00     0.003 A 
ENDROOT
TORSDOF 0
ENDMDL
