MODEL 1
REMARK minimizedAffinity -3.63007259
REMARK minimizedRMSD -1
REMARK  0 active torsions:
REMARK  status: ('A' for Active; 'I' for Inactive)
ROOT
ATOM      1  C4' PXY d   1       2.700   1.404  -0.912  0.00  0.00     0.077 C 
ATOM      2  C1' PXY d   1      -2.251   0.382   1.892  0.00  0.00     0.077 C 
ATOM      3  C1  PXY d   1      -0.955   0.663   1.158  0.00  0.00    -0.082 A 
ATOM      4  C2  PXY d   1      -0.460  -0.246   0.334  0.00  0.00     0.003 A 
ATOM      5  C3  PXY d   1       0.728  -0.022  -0.314  0.00  0.00     0.003 A 
ATOM      6  C4  PXY d   1       1.389   1.167  -0.157  0.00  0.00    -0.082 A 
ATOM      7  C5  PXY d   1       0.885   2.104   0.674  0.00  0.00     0.003 A 
ATOM      8  C6  PXY d   1      -0.301   1.840   1.353  0.00  0.00     0.003 A 
ENDROOT
TORSDOF 0
ENDMDL
