MODEL 1
REMARK minimizedAffinity -5.18431759
REMARK minimizedRMSD -1
REMARK  0 active torsions:
REMARK  status: ('A' for Active; 'I' for Inactive)
ROOT
ATOM      1  C4' PXY d   1      -1.213  -1.323  -0.975  0.00  0.00     0.077 C 
ATOM      2  C1' PXY d   1       1.659   3.028   1.523  0.00  0.00     0.077 C 
ATOM      3  C1  PXY d   1       0.900   1.884   0.879  0.00  0.00    -0.082 A 
ATOM      4  C2  PXY d   1       1.397   1.291  -0.193  0.00  0.00     0.003 A 
ATOM      5  C3  PXY d   1       0.708   0.276  -0.807  0.00  0.00     0.003 A 
ATOM      6  C4  PXY d   1      -0.477  -0.170  -0.286  0.00  0.00    -0.082 A 
ATOM      7  C5  PXY d   1      -0.986   0.423   0.814  0.00  0.00     0.003 A 
ATOM      8  C6  PXY d   1      -0.291   1.478   1.398  0.00  0.00     0.003 A 
ENDROOT
TORSDOF 0
ENDMDL
