MODEL 1
REMARK minimizedAffinity -2.88612986
REMARK minimizedRMSD -1
REMARK  0 active torsions:
REMARK  status: ('A' for Active; 'I' for Inactive)
ROOT
ATOM      1  C4' PXY d   1      -1.442  -1.480  -2.244  0.00  0.00     0.077 C 
ATOM      2  C1' PXY d   1       0.412   1.843   2.107  0.00  0.00     0.077 C 
ATOM      3  C1  PXY d   1      -0.062   0.969   0.963  0.00  0.00    -0.082 A 
ATOM      4  C2  PXY d   1      -1.255   1.177   0.431  0.00  0.00     0.003 A 
ATOM      5  C3  PXY d   1      -1.713   0.376  -0.583  0.00  0.00     0.003 A 
ATOM      6  C4  PXY d   1      -0.919  -0.616  -1.094  0.00  0.00    -0.082 A 
ATOM      7  C5  PXY d   1       0.304  -0.828  -0.564  0.00  0.00     0.003 A 
ATOM      8  C6  PXY d   1       0.734  -0.030   0.492  0.00  0.00     0.003 A 
ENDROOT
TORSDOF 0
ENDMDL
