MODEL 1
REMARK minimizedAffinity -4.40276194
REMARK minimizedRMSD -1
REMARK  0 active torsions:
REMARK  status: ('A' for Active; 'I' for Inactive)
ROOT
ATOM      1  C4' PXY d   1      -1.482  -1.667  -1.575  0.00  0.00     0.077 C 
ATOM      2  C1' PXY d   1       1.273   2.223   1.696  0.00  0.00     0.077 C 
ATOM      3  C1  PXY d   1       0.558   1.206   0.828  0.00  0.00    -0.082 A 
ATOM      4  C2  PXY d   1      -0.683   0.853   1.121  0.00  0.00     0.003 A 
ATOM      5  C3  PXY d   1      -1.333  -0.089   0.366  0.00  0.00     0.003 A 
ATOM      6  C4  PXY d   1      -0.725  -0.637  -0.732  0.00  0.00    -0.082 A 
ATOM      7  C5  PXY d   1       0.538  -0.274  -1.044  0.00  0.00     0.003 A 
ATOM      8  C6  PXY d   1       1.195   0.653  -0.240  0.00  0.00     0.003 A 
ENDROOT
TORSDOF 0
ENDMDL
