MODEL 1
REMARK minimizedAffinity -5.41506052
REMARK minimizedRMSD -1
REMARK  0 active torsions:
REMARK  status: ('A' for Active; 'I' for Inactive)
ROOT
ATOM      1  C4' PXY d   1      -1.293  -0.872  -2.204  0.00  0.00     0.077 C 
ATOM      2  C1' PXY d   1       0.789   2.235   2.203  0.00  0.00     0.077 C 
ATOM      3  C1  PXY d   1       0.231   1.419   1.054  0.00  0.00    -0.082 A 
ATOM      4  C2  PXY d   1       1.060   0.797   0.231  0.00  0.00     0.003 A 
ATOM      5  C3  PXY d   1       0.575   0.080  -0.832  0.00  0.00     0.003 A 
ATOM      6  C4  PXY d   1      -0.775  -0.045  -1.025  0.00  0.00    -0.082 A 
ATOM      7  C5  PXY d   1      -1.628   0.578  -0.184  0.00  0.00     0.003 A 
ATOM      8  C6  PXY d   1      -1.113   1.334   0.866  0.00  0.00     0.003 A 
ENDROOT
TORSDOF 0
ENDMDL
