MODEL 1
REMARK minimizedAffinity -2.68401575
REMARK minimizedRMSD -1
REMARK  0 active torsions:
REMARK  status: ('A' for Active; 'I' for Inactive)
ROOT
ATOM      1  C4' PXY d   1       1.198   2.589   1.857  0.00  0.00     0.077 C 
ATOM      2  C1' PXY d   1      -1.324  -1.853  -0.850  0.00  0.00     0.077 C 
ATOM      3  C1  PXY d   1      -0.652  -0.690  -0.147  0.00  0.00    -0.082 A 
ATOM      4  C2  PXY d   1      -1.087  -0.304   1.042  0.00  0.00     0.003 A 
ATOM      5  C3  PXY d   1      -0.511   0.766   1.677  0.00  0.00     0.003 A 
ATOM      6  C4  PXY d   1       0.555   1.414   1.115  0.00  0.00    -0.082 A 
ATOM      7  C5  PXY d   1       1.012   1.020  -0.093  0.00  0.00     0.003 A 
ATOM      8  C6  PXY d   1       0.387  -0.042  -0.740  0.00  0.00     0.003 A 
ENDROOT
TORSDOF 0
ENDMDL
