MODEL 1
REMARK minimizedAffinity -2.0660367
REMARK minimizedRMSD -1
REMARK  0 active torsions:
REMARK  status: ('A' for Active; 'I' for Inactive)
ROOT
ATOM      1  C4' PXY d   1       0.918   2.550   1.664  0.00  0.00     0.077 C 
ATOM      2  C1' PXY d   1      -0.692  -2.263  -1.102  0.00  0.00     0.077 C 
ATOM      3  C1  PXY d   1      -0.258  -1.002  -0.381  0.00  0.00    -0.082 A 
ATOM      4  C2  PXY d   1      -0.925  -0.596   0.687  0.00  0.00     0.003 A 
ATOM      5  C3  PXY d   1      -0.566   0.559   1.332  0.00  0.00     0.003 A 
ATOM      6  C4  PXY d   1       0.521   1.278   0.911  0.00  0.00    -0.082 A 
ATOM      7  C5  PXY d   1       1.214   0.865  -0.172  0.00  0.00     0.003 A 
ATOM      8  C6  PXY d   1       0.807  -0.289  -0.837  0.00  0.00     0.003 A 
ENDROOT
TORSDOF 0
ENDMDL
