MODEL 1
REMARK minimizedAffinity -3.71152925
REMARK minimizedRMSD -1
REMARK  0 active torsions:
REMARK  status: ('A' for Active; 'I' for Inactive)
ROOT
ATOM      1  C4' PXY d   1      -0.921  -1.361  -0.975  0.00  0.00     0.077 C 
ATOM      2  C1' PXY d   1       2.100   3.011   1.300  0.00  0.00     0.077 C 
ATOM      3  C1  PXY d   1       1.301   1.863   0.715  0.00  0.00    -0.082 A 
ATOM      4  C2  PXY d   1       1.781   1.194  -0.321  0.00  0.00     0.003 A 
ATOM      5  C3  PXY d   1       1.057   0.174  -0.883  0.00  0.00     0.003 A 
ATOM      6  C4  PXY d   1      -0.145  -0.201  -0.345  0.00  0.00    -0.082 A 
ATOM      7  C5  PXY d   1      -0.636   0.470   0.718  0.00  0.00     0.003 A 
ATOM      8  C6  PXY d   1       0.095   1.529   1.248  0.00  0.00     0.003 A 
ENDROOT
TORSDOF 0
ENDMDL
