MODEL 1
REMARK minimizedAffinity -0.803521335
REMARK minimizedRMSD -1
REMARK  0 active torsions:
REMARK  status: ('A' for Active; 'I' for Inactive)
ROOT
ATOM      1  C4' PXY d   1      -1.771  -1.868  -4.175  0.00  0.00     0.077 C 
ATOM      2  C1' PXY d   1      -0.475  -0.482   1.285  0.00  0.00     0.077 C 
ATOM      3  C1  PXY d   1      -0.818  -0.858  -0.143  0.00  0.00    -0.082 A 
ATOM      4  C2  PXY d   1      -0.302  -0.163  -1.144  0.00  0.00     0.003 A 
ATOM      5  C3  PXY d   1      -0.626  -0.469  -2.441  0.00  0.00     0.003 A 
ATOM      6  C4  PXY d   1      -1.446  -1.531  -2.718  0.00  0.00    -0.082 A 
ATOM      7  C5  PXY d   1      -1.968  -2.251  -1.703  0.00  0.00     0.003 A 
ATOM      8  C6  PXY d   1      -1.659  -1.899  -0.392  0.00  0.00     0.003 A 
ENDROOT
TORSDOF 0
ENDMDL
