MODEL 1
REMARK minimizedAffinity -1.23087096
REMARK minimizedRMSD -1
REMARK  0 active torsions:
REMARK  status: ('A' for Active; 'I' for Inactive)
ROOT
ATOM      1  C4' PXY d   1       3.536   1.907   1.598  0.00  0.00     0.077 C 
ATOM      2  C1' PXY d   1      -0.848  -1.139  -0.619  0.00  0.00     0.077 C 
ATOM      3  C1  PXY d   1       0.293  -0.331  -0.033  0.00  0.00    -0.082 A 
ATOM      4  C2  PXY d   1       1.497  -0.412  -0.574  0.00  0.00     0.003 A 
ATOM      5  C3  PXY d   1       2.548   0.286  -0.037  0.00  0.00     0.003 A 
ATOM      6  C4  PXY d   1       2.352   1.117   1.033  0.00  0.00    -0.082 A 
ATOM      7  C5  PXY d   1       1.124   1.214   1.585  0.00  0.00     0.003 A 
ATOM      8  C6  PXY d   1       0.080   0.465   1.050  0.00  0.00     0.003 A 
ENDROOT
TORSDOF 0
ENDMDL
