MODEL 1
REMARK minimizedAffinity -4.96698523
REMARK minimizedRMSD -1
REMARK  0 active torsions:
REMARK  status: ('A' for Active; 'I' for Inactive)
ROOT
ATOM      1  C4' PXY d   1      -1.343  -1.778  -1.252  0.00  0.00     0.077 C 
ATOM      2  C1' PXY d   1       1.077   2.693   1.499  0.00  0.00     0.077 C 
ATOM      3  C1  PXY d   1       0.438   1.516   0.789  0.00  0.00    -0.082 A 
ATOM      4  C2  PXY d   1       0.902   1.132  -0.389  0.00  0.00     0.003 A 
ATOM      5  C3  PXY d   1       0.316   0.090  -1.059  0.00  0.00     0.003 A 
ATOM      6  C4  PXY d   1      -0.723  -0.601  -0.494  0.00  0.00    -0.082 A 
ATOM      7  C5  PXY d   1      -1.196  -0.222   0.712  0.00  0.00     0.003 A 
ATOM      8  C6  PXY d   1      -0.613   0.865   1.358  0.00  0.00     0.003 A 
ENDROOT
TORSDOF 0
ENDMDL
