MODEL 1
REMARK minimizedAffinity -1.09736276
REMARK minimizedRMSD -1
REMARK  0 active torsions:
REMARK  status: ('A' for Active; 'I' for Inactive)
ROOT
ATOM      1  C4' PXY d   1       1.486   2.188   1.635  0.00  0.00     0.077 C 
ATOM      2  C1' PXY d   1      -1.135  -2.053  -1.290  0.00  0.00     0.077 C 
ATOM      3  C1  PXY d   1      -0.437  -0.944  -0.528  0.00  0.00    -0.082 A 
ATOM      4  C2  PXY d   1      -0.951  -0.508   0.610  0.00  0.00     0.003 A 
ATOM      5  C3  PXY d   1      -0.349   0.516   1.295  0.00  0.00     0.003 A 
ATOM      6  C4  PXY d   1       0.819   1.064   0.838  0.00  0.00    -0.082 A 
ATOM      7  C5  PXY d   1       1.356   0.617  -0.318  0.00  0.00     0.003 A 
ATOM      8  C6  PXY d   1       0.707  -0.395  -1.019  0.00  0.00     0.003 A 
ENDROOT
TORSDOF 0
ENDMDL
