MODEL 1
REMARK minimizedAffinity -2.42312956
REMARK minimizedRMSD -1
REMARK  0 active torsions:
REMARK  status: ('A' for Active; 'I' for Inactive)
ROOT
ATOM      1  C4' PXY d   1      -1.516  -1.710  -1.690  0.00  0.00     0.077 C 
ATOM      2  C1' PXY d   1       0.307   2.405   1.938  0.00  0.00     0.077 C 
ATOM      3  C1  PXY d   1      -0.179   1.321   0.996  0.00  0.00    -0.082 A 
ATOM      4  C2  PXY d   1       0.592   0.931  -0.006  0.00  0.00     0.003 A 
ATOM      5  C3  PXY d   1       0.155  -0.025  -0.887  0.00  0.00     0.003 A 
ATOM      6  C4  PXY d   1      -1.062  -0.626  -0.708  0.00  0.00    -0.082 A 
ATOM      7  C5  PXY d   1      -1.850  -0.241   0.318  0.00  0.00     0.003 A 
ATOM      8  C6  PXY d   1      -1.405   0.760   1.176  0.00  0.00     0.003 A 
ENDROOT
TORSDOF 0
ENDMDL
