MODEL 1
REMARK minimizedAffinity 0.572330117
REMARK minimizedRMSD -1
REMARK  0 active torsions:
REMARK  status: ('A' for Active; 'I' for Inactive)
ROOT
ATOM      1  C4' PXY d   1       0.800   1.342   5.640  0.00  0.00     0.077 C 
ATOM      2  C1' PXY d   1       0.645   0.486  -0.075  0.00  0.00     0.077 C 
ATOM      3  C1  PXY d   1       0.698   0.705   1.424  0.00  0.00    -0.082 A 
ATOM      4  C2  PXY d   1      -0.428   0.768   2.116  0.00  0.00     0.003 A 
ATOM      5  C3  PXY d   1      -0.400   0.998   3.468  0.00  0.00     0.003 A 
ATOM      6  C4  PXY d   1       0.795   1.112   4.126  0.00  0.00    -0.082 A 
ATOM      7  C5  PXY d   1       1.949   1.039   3.429  0.00  0.00     0.003 A 
ATOM      8  C6  PXY d   1       1.897   0.846   2.052  0.00  0.00     0.003 A 
ENDROOT
TORSDOF 0
ENDMDL
