MODEL 1
REMARK minimizedAffinity 4.48273134
REMARK minimizedRMSD -1
REMARK  0 active torsions:
REMARK  status: ('A' for Active; 'I' for Inactive)
ROOT
ATOM      1  C4' PXY d   1      -2.609  -1.502  -1.842  0.00  0.00     0.077 C 
ATOM      2  C1' PXY d   1       0.090   1.424   2.350  0.00  0.00     0.077 C 
ATOM      3  C1  PXY d   1      -0.606   0.654   1.245  0.00  0.00    -0.082 A 
ATOM      4  C2  PXY d   1      -1.853   0.957   0.922  0.00  0.00     0.003 A 
ATOM      5  C3  PXY d   1      -2.509   0.249  -0.052  0.00  0.00     0.003 A 
ATOM      6  C4  PXY d   1      -1.864  -0.744  -0.740  0.00  0.00    -0.082 A 
ATOM      7  C5  PXY d   1      -0.588  -1.052  -0.423  0.00  0.00     0.003 A 
ATOM      8  C6  PXY d   1       0.046  -0.349   0.597  0.00  0.00     0.003 A 
ENDROOT
TORSDOF 0
ENDMDL
