MODEL 1
REMARK minimizedAffinity 7.66896057
REMARK minimizedRMSD -1
REMARK  1 active torsions:
REMARK  status: ('A' for Active; 'I' for Inactive)
REMARK    1  A    between atoms: N_2  and  C1_3 
ROOT
ATOM      1  C1  UNL d   1       0.303  -5.968   3.654  0.00  0.00     0.143 A 
ATOM      2  C2  UNL d   1      -0.808  -5.946   2.804  0.00  0.00    -0.057 A 
ATOM      3  C3  UNL d   1      -0.657  -5.976   1.412  0.00  0.00     0.033 A 
ATOM      4  C4  UNL d   1       0.612  -5.998   0.844  0.00  0.00    -0.042 A 
ATOM      5  C5  UNL d   1       1.731  -5.994   1.670  0.00  0.00     0.033 A 
ATOM      6  C6  UNL d   1       1.574  -5.971   3.059  0.00  0.00    -0.057 A 
ENDROOT
BRANCH   1   7
ATOM      7  N   UNL d   1       0.221  -5.841   5.043  0.00  0.00    -0.732 N 
ATOM      8  C   UNL d   1       1.419  -5.842   5.855  0.00  0.00     0.284 C 
ATOM      9  H3  UNL d   1      -0.475  -5.157   5.330  0.00  0.00     0.395 HD
ENDBRANCH   1   7
TORSDOF 1
ENDMDL
