MODEL 1
REMARK minimizedAffinity 4.03817034
REMARK minimizedRMSD -1
REMARK  1 active torsions:
REMARK  status: ('A' for Active; 'I' for Inactive)
REMARK    1  A    between atoms: N_2  and  C1_3 
ROOT
ATOM      1  C1  UNL d   1      -1.594  -5.998   3.395  0.00  0.00     0.143 A 
ATOM      2  C2  UNL d   1      -2.985  -5.985   3.537  0.00  0.00    -0.057 A 
ATOM      3  C3  UNL d   1      -3.829  -5.999   2.420  0.00  0.00     0.033 A 
ATOM      4  C4  UNL d   1      -3.294  -5.999   1.136  0.00  0.00    -0.042 A 
ATOM      5  C5  UNL d   1      -1.913  -5.987   0.971  0.00  0.00     0.033 A 
ATOM      6  C6  UNL d   1      -1.076  -5.979   2.090  0.00  0.00    -0.057 A 
ENDROOT
BRANCH   1   7
ATOM      7  N   UNL d   1      -0.701  -5.885   4.464  0.00  0.00    -0.732 N 
ATOM      8  C   UNL d   1       0.726  -5.975   4.246  0.00  0.00     0.284 C 
ATOM      9  H3  UNL d   1      -0.977  -5.162   5.125  0.00  0.00     0.395 HD
ENDBRANCH   1   7
TORSDOF 1
ENDMDL
