MODEL 1
REMARK minimizedAffinity 2.11801887
REMARK minimizedRMSD -1
REMARK  1 active torsions:
REMARK  status: ('A' for Active; 'I' for Inactive)
REMARK    1  A    between atoms: N_2  and  C1_3 
ROOT
ATOM      1  C1  UNL d   1       1.449  -5.983   3.669  0.00  0.00     0.143 A 
ATOM      2  C2  UNL d   1       0.060  -5.951   3.826  0.00  0.00    -0.057 A 
ATOM      3  C3  UNL d   1      -0.797  -5.970   2.719  0.00  0.00     0.033 A 
ATOM      4  C4  UNL d   1      -0.276  -5.991   1.429  0.00  0.00    -0.042 A 
ATOM      5  C5  UNL d   1       1.102  -5.999   1.249  0.00  0.00     0.033 A 
ATOM      6  C6  UNL d   1       1.952  -5.987   2.358  0.00  0.00    -0.057 A 
ENDROOT
BRANCH   1   7
ATOM      7  N   UNL d   1       2.355  -5.868   4.726  0.00  0.00    -0.732 N 
ATOM      8  C   UNL d   1       1.935  -5.323   6.000  0.00  0.00     0.284 C 
ATOM      9  H3  UNL d   1       2.969  -6.675   4.802  0.00  0.00     0.395 HD
ENDBRANCH   1   7
TORSDOF 1
ENDMDL
