MODEL 1
REMARK minimizedAffinity 5.89286995
REMARK minimizedRMSD -1
REMARK  1 active torsions:
REMARK  status: ('A' for Active; 'I' for Inactive)
REMARK    1  A    between atoms: N_2  and  C1_3 
ROOT
ATOM      1  C1  UNL d   1      -1.853  -1.071  -3.292  0.00  0.00     0.143 A 
ATOM      2  C2  UNL d   1      -0.810  -1.079  -4.224  0.00  0.00    -0.057 A 
ATOM      3  C3  UNL d   1      -0.581  -2.188  -5.048  0.00  0.00     0.033 A 
ATOM      4  C4  UNL d   1      -1.376  -3.323  -4.934  0.00  0.00    -0.042 A 
ATOM      5  C5  UNL d   1      -2.403  -3.347  -3.997  0.00  0.00     0.033 A 
ATOM      6  C6  UNL d   1      -2.631  -2.234  -3.181  0.00  0.00    -0.057 A 
ENDROOT
BRANCH   1   7
ATOM      7  N   UNL d   1      -2.070  -0.038  -2.377  0.00  0.00    -0.732 N 
ATOM      8  C   UNL d   1      -1.025   0.367  -1.461  0.00  0.00     0.284 C 
ATOM      9  H3  UNL d   1      -2.592   0.736  -2.781  0.00  0.00     0.395 HD
ENDBRANCH   1   7
TORSDOF 1
ENDMDL
