MODEL 1
REMARK minimizedAffinity 1.02460575
REMARK minimizedRMSD -1
REMARK  1 active torsions:
REMARK  status: ('A' for Active; 'I' for Inactive)
REMARK    1  A    between atoms: N_2  and  C1_3 
ROOT
ATOM      1  C1  UNL d   1      -0.621  -5.999   2.090  0.00  0.00     0.143 A 
ATOM      2  C2  UNL d   1       0.714  -5.985   1.673  0.00  0.00    -0.057 A 
ATOM      3  C3  UNL d   1       1.764  -6.000   2.598  0.00  0.00     0.033 A 
ATOM      4  C4  UNL d   1       1.497  -5.999   3.963  0.00  0.00    -0.042 A 
ATOM      5  C5  UNL d   1       0.177  -5.987   4.401  0.00  0.00     0.033 A 
ATOM      6  C6  UNL d   1      -0.868  -5.979   3.472  0.00  0.00    -0.057 A 
ENDROOT
BRANCH   1   7
ATOM      7  N   UNL d   1      -1.709  -5.885   1.221  0.00  0.00    -0.732 N 
ATOM      8  C   UNL d   1      -3.064  -5.987   1.719  0.00  0.00     0.284 C 
ATOM      9  H3  UNL d   1      -1.576  -5.155   0.525  0.00  0.00     0.395 HD
ENDBRANCH   1   7
TORSDOF 1
ENDMDL
