MODEL 1
REMARK minimizedAffinity 0.372425526
REMARK minimizedRMSD -1
REMARK  1 active torsions:
REMARK  status: ('A' for Active; 'I' for Inactive)
REMARK    1  A    between atoms: N_2  and  C1_3 
ROOT
ATOM      1  C1  UNL d   1      -2.353  -5.999   2.371  0.00  0.00     0.143 A 
ATOM      2  C2  UNL d   1      -3.654  -5.988   2.886  0.00  0.00    -0.057 A 
ATOM      3  C3  UNL d   1      -4.770  -6.000   2.040  0.00  0.00     0.033 A 
ATOM      4  C4  UNL d   1      -4.603  -5.994   0.659  0.00  0.00    -0.042 A 
ATOM      5  C5  UNL d   1      -3.319  -5.980   0.125  0.00  0.00     0.033 A 
ATOM      6  C6  UNL d   1      -2.209  -5.974   0.975  0.00  0.00    -0.057 A 
ENDROOT
BRANCH   1   7
ATOM      7  N   UNL d   1      -1.204  -5.888   3.158  0.00  0.00    -0.732 N 
ATOM      8  C   UNL d   1       0.110  -5.973   2.560  0.00  0.00     0.284 C 
ATOM      9  H3  UNL d   1      -1.291  -5.168   3.872  0.00  0.00     0.395 HD
ENDBRANCH   1   7
TORSDOF 1
ENDMDL
