MODEL 1
REMARK minimizedAffinity 1.92456007
REMARK minimizedRMSD -1
REMARK  1 active torsions:
REMARK  status: ('A' for Active; 'I' for Inactive)
REMARK    1  A    between atoms: N_2  and  C1_3 
ROOT
ATOM      1  C1  UNL d   1      -0.510  -3.952   2.403  0.00  0.00     0.143 A 
ATOM      2  C2  UNL d   1       0.877  -3.960   2.587  0.00  0.00    -0.057 A 
ATOM      3  C3  UNL d   1       1.508  -4.980   3.310  0.00  0.00     0.033 A 
ATOM      4  C4  UNL d   1       0.756  -5.997   3.889  0.00  0.00    -0.042 A 
ATOM      5  C5  UNL d   1      -0.626  -5.995   3.740  0.00  0.00     0.033 A 
ATOM      6  C6  UNL d   1      -1.249  -4.978   3.011  0.00  0.00    -0.057 A 
ENDROOT
BRANCH   1   7
ATOM      7  N   UNL d   1      -1.205  -2.914   1.778  0.00  0.00    -0.732 N 
ATOM      8  C   UNL d   1      -2.633  -3.008   1.564  0.00  0.00     0.284 C 
ATOM      9  H3  UNL d   1      -0.890  -1.996   2.083  0.00  0.00     0.395 HD
ENDBRANCH   1   7
TORSDOF 1
ENDMDL
