MODEL 1
REMARK minimizedAffinity 10.2024231
REMARK minimizedRMSD -1
REMARK  1 active torsions:
REMARK  status: ('A' for Active; 'I' for Inactive)
REMARK    1  A    between atoms: N_2  and  C1_3 
ROOT
ATOM      1  C1  UNL d   1       0.500  -2.886  -3.884  0.00  0.00     0.143 A 
ATOM      2  C2  UNL d   1      -0.139  -3.947  -3.234  0.00  0.00    -0.057 A 
ATOM      3  C3  UNL d   1      -1.402  -4.393  -3.641  0.00  0.00     0.033 A 
ATOM      4  C4  UNL d   1      -2.063  -3.765  -4.691  0.00  0.00    -0.042 A 
ATOM      5  C5  UNL d   1      -1.457  -2.692  -5.336  0.00  0.00     0.033 A 
ATOM      6  C6  UNL d   1      -0.193  -2.256  -4.929  0.00  0.00    -0.057 A 
ENDROOT
BRANCH   1   7
ATOM      7  N   UNL d   1       1.712  -2.333  -3.464  0.00  0.00    -0.732 N 
ATOM      8  C   UNL d   1       2.058  -0.969  -3.804  0.00  0.00     0.284 C 
ATOM      9  H3  UNL d   1       1.949  -2.596  -2.510  0.00  0.00     0.395 HD
ENDBRANCH   1   7
TORSDOF 1
ENDMDL
