MODEL 1
REMARK minimizedAffinity 4.78692484
REMARK minimizedRMSD -1
REMARK  1 active torsions:
REMARK  status: ('A' for Active; 'I' for Inactive)
REMARK    1  A    between atoms: N_2  and  C1_3 
ROOT
ATOM      1  C1  UNL d   1       0.135  -5.956   2.237  0.00  0.00     0.143 A 
ATOM      2  C2  UNL d   1       1.488  -5.891   1.887  0.00  0.00    -0.057 A 
ATOM      3  C3  UNL d   1       2.492  -5.906   2.863  0.00  0.00     0.033 A 
ATOM      4  C4  UNL d   1       2.158  -5.956   4.212  0.00  0.00    -0.042 A 
ATOM      5  C5  UNL d   1       0.819  -5.996   4.584  0.00  0.00     0.033 A 
ATOM      6  C6  UNL d   1      -0.179  -5.988   3.604  0.00  0.00    -0.057 A 
ENDROOT
BRANCH   1   7
ATOM      7  N   UNL d   1      -0.912  -5.846   1.318  0.00  0.00    -0.732 N 
ATOM      8  C   UNL d   1      -2.289  -5.896   1.761  0.00  0.00     0.284 C 
ATOM      9  H3  UNL d   1      -0.730  -5.144   0.604  0.00  0.00     0.395 HD
ENDBRANCH   1   7
TORSDOF 1
ENDMDL
