MODEL 1
REMARK minimizedAffinity 4.29894161
REMARK minimizedRMSD -1
REMARK  1 active torsions:
REMARK  status: ('A' for Active; 'I' for Inactive)
REMARK    1  A    between atoms: N_2  and  C1_3 
ROOT
ATOM      1  C1  UNL d   1      -0.738  -5.976   2.581  0.00  0.00     0.143 A 
ATOM      2  C2  UNL d   1       0.434  -5.967   1.817  0.00  0.00    -0.057 A 
ATOM      3  C3  UNL d   1       1.696  -5.992   2.424  0.00  0.00     0.033 A 
ATOM      4  C4  UNL d   1       1.808  -5.997   3.810  0.00  0.00    -0.042 A 
ATOM      5  C5  UNL d   1       0.657  -5.981   4.589  0.00  0.00     0.033 A 
ATOM      6  C6  UNL d   1      -0.600  -5.963   3.978  0.00  0.00    -0.057 A 
ENDROOT
BRANCH   1   7
ATOM      7  N   UNL d   1      -2.020  -5.853   2.039  0.00  0.00    -0.732 N 
ATOM      8  C   UNL d   1      -2.236  -6.000   0.616  0.00  0.00     0.284 C 
ATOM      9  H3  UNL d   1      -2.729  -6.300   2.615  0.00  0.00     0.395 HD
ENDBRANCH   1   7
TORSDOF 1
ENDMDL
