MODEL 1
REMARK minimizedAffinity 4.26301956
REMARK minimizedRMSD -1
REMARK  1 active torsions:
REMARK  status: ('A' for Active; 'I' for Inactive)
REMARK    1  A    between atoms: N_2  and  C1_3 
ROOT
ATOM      1  C1  UNL d   1      -4.038  -0.473   4.021  0.00  0.00     0.143 A 
ATOM      2  C2  UNL d   1      -4.485   0.702   3.407  0.00  0.00    -0.057 A 
ATOM      3  C3  UNL d   1      -5.356   1.579   4.065  0.00  0.00     0.033 A 
ATOM      4  C4  UNL d   1      -5.820   1.280   5.342  0.00  0.00    -0.042 A 
ATOM      5  C5  UNL d   1      -5.409   0.105   5.961  0.00  0.00     0.033 A 
ATOM      6  C6  UNL d   1      -4.534  -0.763   5.302  0.00  0.00    -0.057 A 
ENDROOT
BRANCH   1   7
ATOM      7  N   UNL d   1      -3.251  -1.433   3.381  0.00  0.00    -0.732 N 
ATOM      8  C   UNL d   1      -1.868  -1.156   3.058  0.00  0.00     0.284 C 
ATOM      9  H3  UNL d   1      -3.413  -2.371   3.741  0.00  0.00     0.395 HD
ENDBRANCH   1   7
TORSDOF 1
ENDMDL
