MODEL 1
REMARK minimizedAffinity 10.735116
REMARK minimizedRMSD -1
REMARK  1 active torsions:
REMARK  status: ('A' for Active; 'I' for Inactive)
REMARK    1  A    between atoms: N_2  and  C1_3 
ROOT
ATOM      1  C1  UNL d   1       0.057  -0.880   0.220  0.00  0.00     0.143 A 
ATOM      2  C2  UNL d   1       0.507   0.379   0.629  0.00  0.00    -0.057 A 
ATOM      3  C3  UNL d   1       0.143   0.912   1.872  0.00  0.00     0.033 A 
ATOM      4  C4  UNL d   1      -0.704   0.203   2.718  0.00  0.00    -0.042 A 
ATOM      5  C5  UNL d   1      -1.184  -1.040   2.321  0.00  0.00     0.033 A 
ATOM      6  C6  UNL d   1      -0.811  -1.569   1.081  0.00  0.00    -0.057 A 
ENDROOT
BRANCH   1   7
ATOM      7  N   UNL d   1       0.304  -1.421  -1.044  0.00  0.00    -0.732 N 
ATOM      8  C   UNL d   1       1.551  -1.156  -1.729  0.00  0.00     0.284 C 
ATOM      9  H3  UNL d   1      -0.018  -2.383  -1.125  0.00  0.00     0.395 HD
ENDBRANCH   1   7
TORSDOF 1
ENDMDL
