MODEL 1
REMARK minimizedAffinity 6.1879282
REMARK minimizedRMSD -1
REMARK  1 active torsions:
REMARK  status: ('A' for Active; 'I' for Inactive)
REMARK    1  A    between atoms: N_2  and  C1_3 
ROOT
ATOM      1  C1  UNL d   1       0.144  -1.498  -3.750  0.00  0.00     0.143 A 
ATOM      2  C2  UNL d   1      -0.217  -2.624  -4.498  0.00  0.00    -0.057 A 
ATOM      3  C3  UNL d   1      -1.523  -3.126  -4.469  0.00  0.00     0.033 A 
ATOM      4  C4  UNL d   1      -2.488  -2.526  -3.667  0.00  0.00    -0.042 A 
ATOM      5  C5  UNL d   1      -2.146  -1.422  -2.895  0.00  0.00     0.033 A 
ATOM      6  C6  UNL d   1      -0.841  -0.920  -2.933  0.00  0.00    -0.057 A 
ENDROOT
BRANCH   1   7
ATOM      7  N   UNL d   1       1.450  -1.010  -3.659  0.00  0.00    -0.732 N 
ATOM      8  C   UNL d   1       2.162  -1.038  -2.400  0.00  0.00     0.284 C 
ATOM      9  H3  UNL d   1       2.017  -1.268  -4.464  0.00  0.00     0.395 HD
ENDBRANCH   1   7
TORSDOF 1
ENDMDL
