MODEL 1
REMARK minimizedAffinity -2.68931603
REMARK minimizedRMSD -1
REMARK  1 active torsions:
REMARK  status: ('A' for Active; 'I' for Inactive)
REMARK    1  A    between atoms: C3_4  and  O_7 
ROOT
ATOM      1  C   UNL d   1       5.023  -4.624  -4.723  0.00  0.00    -0.033 A 
ATOM      2  C1  UNL d   1       4.059  -4.163  -5.622  0.00  0.00     0.039 A 
ATOM      3  C2  UNL d   1       4.025  -2.814  -5.981  0.00  0.00    -0.080 A 
ATOM      4  C3  UNL d   1       4.960  -1.938  -5.435  0.00  0.00     0.150 A 
ATOM      5  C4  UNL d   1       5.925  -2.391  -4.542  0.00  0.00    -0.007 A 
ATOM      6  C5  UNL d   1       5.957  -3.739  -4.184  0.00  0.00     0.039 A 
ENDROOT
BRANCH   4   7
ATOM      7  O   UNL d   1       4.963  -0.612  -5.751  0.00  0.00    -0.526 OA
ATOM      8  H5  UNL d   1       4.223  -0.438  -6.356  0.00  0.00     0.418 HD
ENDBRANCH   4   7
TORSDOF 1
ENDMDL
