MODEL 1
REMARK minimizedAffinity -2.54496408
REMARK minimizedRMSD -1
REMARK  1 active torsions:
REMARK  status: ('A' for Active; 'I' for Inactive)
REMARK    1  A    between atoms: C3_4  and  O_7 
ROOT
ATOM      1  C   UNL d   1       3.790  -5.985  -5.026  0.00  0.00    -0.033 A 
ATOM      2  C1  UNL d   1       3.632  -4.997  -6.000  0.00  0.00     0.039 A 
ATOM      3  C2  UNL d   1       4.370  -3.814  -5.923  0.00  0.00    -0.080 A 
ATOM      4  C3  UNL d   1       5.262  -3.632  -4.870  0.00  0.00     0.150 A 
ATOM      5  C4  UNL d   1       5.427  -4.613  -3.899  0.00  0.00    -0.007 A 
ATOM      6  C5  UNL d   1       4.689  -5.794  -3.976  0.00  0.00     0.039 A 
ENDROOT
BRANCH   4   7
ATOM      7  O   UNL d   1       6.000  -2.492  -4.751  0.00  0.00    -0.526 OA
ATOM      8  H5  UNL d   1       5.760  -1.892  -5.477  0.00  0.00     0.418 HD
ENDBRANCH   4   7
TORSDOF 1
ENDMDL
