MODEL 1
REMARK minimizedAffinity -3.17106247
REMARK minimizedRMSD -1
REMARK  1 active torsions:
REMARK  status: ('A' for Active; 'I' for Inactive)
REMARK    1  A    between atoms: C3_4  and  O_7 
ROOT
ATOM      1  C   UNL d   1       4.998  -4.879  -5.010  0.00  0.00    -0.033 A 
ATOM      2  C1  UNL d   1       4.309  -4.071  -4.103  0.00  0.00     0.039 A 
ATOM      3  C2  UNL d   1       4.467  -2.684  -4.142  0.00  0.00    -0.080 A 
ATOM      4  C3  UNL d   1       5.314  -2.118  -5.091  0.00  0.00     0.150 A 
ATOM      5  C4  UNL d   1       6.000  -2.917  -6.000  0.00  0.00    -0.007 A 
ATOM      6  C5  UNL d   1       5.842  -4.302  -5.959  0.00  0.00     0.039 A 
ENDROOT
BRANCH   4   7
ATOM      7  O   UNL d   1       5.503  -0.770  -5.164  0.00  0.00    -0.526 OA
ATOM      8  H5  UNL d   1       4.988  -0.348  -4.456  0.00  0.00     0.418 HD
ENDBRANCH   4   7
TORSDOF 1
ENDMDL
