MODEL 1
REMARK minimizedAffinity -3.04844666
REMARK minimizedRMSD -1
REMARK  1 active torsions:
REMARK  status: ('A' for Active; 'I' for Inactive)
REMARK    1  A    between atoms: C3_4  and  O_7 
ROOT
ATOM      1  C   UNL d   1       6.000  -4.976  -3.516  0.00  0.00    -0.033 A 
ATOM      2  C1  UNL d   1       5.646  -3.921  -4.360  0.00  0.00     0.039 A 
ATOM      3  C2  UNL d   1       4.380  -3.891  -4.950  0.00  0.00    -0.080 A 
ATOM      4  C3  UNL d   1       3.480  -4.920  -4.687  0.00  0.00     0.150 A 
ATOM      5  C4  UNL d   1       3.825  -5.971  -3.844  0.00  0.00    -0.007 A 
ATOM      6  C5  UNL d   1       5.089  -6.000  -3.257  0.00  0.00     0.039 A 
ENDROOT
BRANCH   4   7
ATOM      7  O   UNL d   1       2.235  -4.936  -5.243  0.00  0.00    -0.526 OA
ATOM      8  H5  UNL d   1       2.148  -4.163  -5.825  0.00  0.00     0.418 HD
ENDBRANCH   4   7
TORSDOF 1
ENDMDL
