MODEL 1
REMARK minimizedAffinity -3.11115813
REMARK minimizedRMSD -1
REMARK  1 active torsions:
REMARK  status: ('A' for Active; 'I' for Inactive)
REMARK    1  A    between atoms: C3_4  and  O_7 
ROOT
ATOM      1  C   UNL d   1       5.994  -3.951  -4.092  0.00  0.00    -0.033 A 
ATOM      2  C1  UNL d   1       5.994  -5.341  -4.221  0.00  0.00     0.039 A 
ATOM      3  C2  UNL d   1       4.884  -5.994  -4.759  0.00  0.00    -0.080 A 
ATOM      4  C3  UNL d   1       3.782  -5.246  -5.165  0.00  0.00     0.150 A 
ATOM      5  C4  UNL d   1       3.776  -3.860  -5.042  0.00  0.00    -0.007 A 
ATOM      6  C5  UNL d   1       4.886  -3.210  -4.504  0.00  0.00     0.039 A 
ENDROOT
BRANCH   4   7
ATOM      7  O   UNL d   1       2.673  -5.839  -5.691  0.00  0.00    -0.526 OA
ATOM      8  H5  UNL d   1       2.808  -6.801  -5.688  0.00  0.00     0.418 HD
ENDBRANCH   4   7
TORSDOF 1
ENDMDL
