MODEL 1
REMARK minimizedAffinity -3.3845737
REMARK minimizedRMSD -1
REMARK  1 active torsions:
REMARK  status: ('A' for Active; 'I' for Inactive)
REMARK    1  A    between atoms: C3_4  and  O_7 
ROOT
ATOM      1  C   UNL d   1       4.803  -5.113  -4.491  0.00  0.00    -0.033 A 
ATOM      2  C1  UNL d   1       5.974  -4.358  -4.402  0.00  0.00     0.039 A 
ATOM      3  C2  UNL d   1       5.949  -2.990  -4.679  0.00  0.00    -0.080 A 
ATOM      4  C3  UNL d   1       4.747  -2.389  -5.042  0.00  0.00     0.150 A 
ATOM      5  C4  UNL d   1       3.575  -3.134  -5.129  0.00  0.00    -0.007 A 
ATOM      6  C5  UNL d   1       3.603  -4.500  -4.853  0.00  0.00     0.039 A 
ENDROOT
BRANCH   4   7
ATOM      7  O   UNL d   1       4.673  -1.058  -5.327  0.00  0.00    -0.526 OA
ATOM      8  H5  UNL d   1       5.564  -0.678  -5.253  0.00  0.00     0.418 HD
ENDBRANCH   4   7
TORSDOF 1
ENDMDL
