MODEL 1
REMARK minimizedAffinity -2.2621913
REMARK minimizedRMSD -1
REMARK  1 active torsions:
REMARK  status: ('A' for Active; 'I' for Inactive)
REMARK    1  A    between atoms: C3_4  and  O_7 
ROOT
ATOM      1  C   UNL d   1       4.014  -5.592  -4.875  0.00  0.00    -0.033 A 
ATOM      2  C1  UNL d   1       5.315  -5.579  -5.382  0.00  0.00     0.039 A 
ATOM      3  C2  UNL d   1       6.000  -4.370  -5.522  0.00  0.00    -0.080 A 
ATOM      4  C3  UNL d   1       5.373  -3.184  -5.150  0.00  0.00     0.150 A 
ATOM      5  C4  UNL d   1       4.079  -3.190  -4.640  0.00  0.00    -0.007 A 
ATOM      6  C5  UNL d   1       3.397  -4.398  -4.502  0.00  0.00     0.039 A 
ENDROOT
BRANCH   4   7
ATOM      7  O   UNL d   1       6.000  -1.979  -5.272  0.00  0.00    -0.526 OA
ATOM      8  H5  UNL d   1       6.876  -2.126  -5.665  0.00  0.00     0.418 HD
ENDBRANCH   4   7
TORSDOF 1
ENDMDL
