MODEL 1
REMARK minimizedAffinity -2.32663631
REMARK minimizedRMSD -1
REMARK  1 active torsions:
REMARK  status: ('A' for Active; 'I' for Inactive)
REMARK    1  A    between atoms: C3_4  and  O_7 
ROOT
ATOM      1  C   UNL d   1       4.655  -5.987  -4.965  0.00  0.00    -0.033 A 
ATOM      2  C1  UNL d   1       4.194  -5.065  -4.023  0.00  0.00     0.039 A 
ATOM      3  C2  UNL d   1       4.636  -3.741  -4.064  0.00  0.00    -0.080 A 
ATOM      4  C3  UNL d   1       5.537  -3.352  -5.052  0.00  0.00     0.150 A 
ATOM      5  C4  UNL d   1       5.997  -4.264  -5.996  0.00  0.00    -0.007 A 
ATOM      6  C5  UNL d   1       5.556  -5.586  -5.952  0.00  0.00     0.039 A 
ENDROOT
BRANCH   4   7
ATOM      7  O   UNL d   1       6.000  -2.072  -5.129  0.00  0.00    -0.526 OA
ATOM      8  H5  UNL d   1       5.618  -1.562  -4.396  0.00  0.00     0.418 HD
ENDBRANCH   4   7
TORSDOF 1
ENDMDL
