MODEL 1
REMARK minimizedAffinity 2.27728271
REMARK minimizedRMSD -1
REMARK  0 active torsions:
REMARK  status: ('A' for Active; 'I' for Inactive)
ROOT
ATOM      1  C   UNL d   1       3.126   0.479  -1.455  0.00  0.00     0.078 C 
ATOM      2  C1  UNL d   1       2.353  -0.381  -0.501  0.00  0.00    -0.077 A 
ATOM      3  C2  UNL d   1       2.753  -1.695  -0.228  0.00  0.00    -0.001 A 
ATOM      4  C3  UNL d   1       2.018  -2.487   0.655  0.00  0.00     0.003 A 
ATOM      5  C4  UNL d   1       0.878  -1.976   1.271  0.00  0.00    -0.005 A 
ATOM      6  C5  UNL d   1       0.470  -0.670   1.004  0.00  0.00     0.003 A 
ATOM      7  C6  UNL d   1       1.204   0.124   0.121  0.00  0.00    -0.001 A 
ENDROOT
TORSDOF 0
ENDMDL
