MODEL 1
REMARK minimizedAffinity -1.60109293
REMARK minimizedRMSD -1
REMARK  0 active torsions:
REMARK  status: ('A' for Active; 'I' for Inactive)
ROOT
ATOM      1  C   UNL d   1       1.592   2.213   0.029  0.00  0.00     0.078 C 
ATOM      2  C1  UNL d   1       2.057   0.797  -0.140  0.00  0.00    -0.077 A 
ATOM      3  C2  UNL d   1       2.868   0.429  -1.220  0.00  0.00    -0.001 A 
ATOM      4  C3  UNL d   1       3.286  -0.895  -1.370  0.00  0.00     0.003 A 
ATOM      5  C4  UNL d   1       2.896  -1.860  -0.444  0.00  0.00    -0.005 A 
ATOM      6  C5  UNL d   1       2.087  -1.503   0.633  0.00  0.00     0.003 A 
ATOM      7  C6  UNL d   1       1.669  -0.180   0.785  0.00  0.00    -0.001 A 
ENDROOT
TORSDOF 0
ENDMDL
