MODEL 1
REMARK minimizedAffinity 0.249066055
REMARK minimizedRMSD -1
REMARK  0 active torsions:
REMARK  status: ('A' for Active; 'I' for Inactive)
ROOT
ATOM      1  C   UNL d   1      -2.614  -3.034   1.044  0.00  0.00     0.078 C 
ATOM      2  C1  UNL d   1      -3.402  -4.073   1.784  0.00  0.00    -0.077 A 
ATOM      3  C2  UNL d   1      -4.141  -5.043   1.096  0.00  0.00    -0.001 A 
ATOM      4  C3  UNL d   1      -4.877  -5.999   1.797  0.00  0.00     0.003 A 
ATOM      5  C4  UNL d   1      -4.883  -5.994   3.190  0.00  0.00    -0.005 A 
ATOM      6  C5  UNL d   1      -4.152  -5.032   3.884  0.00  0.00     0.003 A 
ATOM      7  C6  UNL d   1      -3.415  -4.075   3.184  0.00  0.00    -0.001 A 
ENDROOT
TORSDOF 0
ENDMDL
