MODEL 1
REMARK minimizedAffinity 0.679692209
REMARK minimizedRMSD -1
REMARK  0 active torsions:
REMARK  status: ('A' for Active; 'I' for Inactive)
ROOT
ATOM      1  C   UNL d   1       3.067   0.317  -1.852  0.00  0.00     0.078 C 
ATOM      2  C1  UNL d   1       2.593  -0.471  -0.668  0.00  0.00    -0.077 A 
ATOM      3  C2  UNL d   1       1.663   0.066   0.231  0.00  0.00    -0.001 A 
ATOM      4  C3  UNL d   1       1.239  -0.676   1.334  0.00  0.00     0.003 A 
ATOM      5  C4  UNL d   1       1.740  -1.958   1.551  0.00  0.00    -0.005 A 
ATOM      6  C5  UNL d   1       2.668  -2.499   0.663  0.00  0.00     0.003 A 
ATOM      7  C6  UNL d   1       3.093  -1.759  -0.441  0.00  0.00    -0.001 A 
ENDROOT
TORSDOF 0
ENDMDL
