MODEL 1
REMARK minimizedAffinity 3.23158669
REMARK minimizedRMSD -1
REMARK  0 active torsions:
REMARK  status: ('A' for Active; 'I' for Inactive)
ROOT
ATOM      1  C   UNL d   1       3.931  -0.174  -2.459  0.00  0.00     0.078 C 
ATOM      2  C1  UNL d   1       3.177  -0.720  -1.283  0.00  0.00    -0.077 A 
ATOM      3  C2  UNL d   1       2.928  -2.092  -1.160  0.00  0.00    -0.001 A 
ATOM      4  C3  UNL d   1       2.217  -2.585  -0.065  0.00  0.00     0.003 A 
ATOM      5  C4  UNL d   1       1.747  -1.712   0.915  0.00  0.00    -0.005 A 
ATOM      6  C5  UNL d   1       1.988  -0.345   0.799  0.00  0.00     0.003 A 
ATOM      7  C6  UNL d   1       2.699   0.150  -0.295  0.00  0.00    -0.001 A 
ENDROOT
TORSDOF 0
ENDMDL
