MODEL 1
REMARK minimizedAffinity 2.36646533
REMARK minimizedRMSD -1
REMARK  0 active torsions:
REMARK  status: ('A' for Active; 'I' for Inactive)
ROOT
ATOM      1  C   UNL d   1      -1.887   3.172  -3.919  0.00  0.00     0.078 C 
ATOM      2  C1  UNL d   1      -2.725   2.383  -2.958  0.00  0.00    -0.077 A 
ATOM      3  C2  UNL d   1      -3.988   2.838  -2.560  0.00  0.00    -0.001 A 
ATOM      4  C3  UNL d   1      -4.753   2.098  -1.657  0.00  0.00     0.003 A 
ATOM      5  C4  UNL d   1      -4.263   0.899  -1.143  0.00  0.00    -0.005 A 
ATOM      6  C5  UNL d   1      -3.006   0.439  -1.531  0.00  0.00     0.003 A 
ATOM      7  C6  UNL d   1      -2.240   1.178  -2.434  0.00  0.00    -0.001 A 
ENDROOT
TORSDOF 0
ENDMDL
