MODEL 1
REMARK minimizedAffinity -1.17288375
REMARK minimizedRMSD -1
REMARK  0 active torsions:
REMARK  status: ('A' for Active; 'I' for Inactive)
ROOT
ATOM      1  C   UNL d   1       1.054   2.200  -0.039  0.00  0.00     0.078 C 
ATOM      2  C1  UNL d   1       1.442   0.752  -0.099  0.00  0.00    -0.077 A 
ATOM      3  C2  UNL d   1       0.855  -0.187   0.758  0.00  0.00    -0.001 A 
ATOM      4  C3  UNL d   1       1.233  -1.530   0.698  0.00  0.00     0.003 A 
ATOM      5  C4  UNL d   1       2.200  -1.944  -0.216  0.00  0.00    -0.005 A 
ATOM      6  C5  UNL d   1       2.790  -1.016  -1.071  0.00  0.00     0.003 A 
ATOM      7  C6  UNL d   1       2.414   0.327  -1.013  0.00  0.00    -0.001 A 
ENDROOT
TORSDOF 0
ENDMDL
