MODEL 1
REMARK minimizedAffinity 6.29126596
REMARK minimizedRMSD -1
REMARK  0 active torsions:
REMARK  status: ('A' for Active; 'I' for Inactive)
ROOT
ATOM      1  C   UNL d   1      -0.233   0.358   1.196  0.00  0.00     0.078 C 
ATOM      2  C1  UNL d   1       1.100   0.380   0.510  0.00  0.00    -0.077 A 
ATOM      3  C2  UNL d   1       1.713  -0.805   0.086  0.00  0.00    -0.001 A 
ATOM      4  C3  UNL d   1       2.959  -0.770  -0.543  0.00  0.00     0.003 A 
ATOM      5  C4  UNL d   1       3.603   0.448  -0.751  0.00  0.00    -0.005 A 
ATOM      6  C5  UNL d   1       3.003   1.632  -0.330  0.00  0.00     0.003 A 
ATOM      7  C6  UNL d   1       1.757   1.599   0.299  0.00  0.00    -0.001 A 
ENDROOT
TORSDOF 0
ENDMDL
