MODEL 1
REMARK minimizedAffinity -3.95975709
REMARK minimizedRMSD -1
REMARK  0 active torsions:
REMARK  status: ('A' for Active; 'I' for Inactive)
ROOT
ATOM      1  C   UNL d   1       3.013  -6.000   5.068  0.00  0.00     0.078 C 
ATOM      2  C1  UNL d   1       2.051  -4.973   4.548  0.00  0.00    -0.077 A 
ATOM      3  C2  UNL d   1       0.668  -5.154   4.671  0.00  0.00    -0.001 A 
ATOM      4  C3  UNL d   1      -0.215  -4.194   4.174  0.00  0.00     0.003 A 
ATOM      5  C4  UNL d   1       0.274  -3.049   3.550  0.00  0.00    -0.005 A 
ATOM      6  C5  UNL d   1       1.649  -2.862   3.421  0.00  0.00     0.003 A 
ATOM      7  C6  UNL d   1       2.534  -3.820   3.918  0.00  0.00    -0.001 A 
ENDROOT
TORSDOF 0
ENDMDL
