MODEL 1
REMARK minimizedAffinity -0.55077821
REMARK minimizedRMSD -1
REMARK  0 active torsions:
REMARK  status: ('A' for Active; 'I' for Inactive)
ROOT
ATOM      1  C   UNL d   1      -4.704  -5.997  -2.196  0.00  0.00     0.078 C 
ATOM      2  C1  UNL d   1      -4.501  -5.635  -0.755  0.00  0.00    -0.077 A 
ATOM      3  C2  UNL d   1      -5.438  -6.000   0.219  0.00  0.00    -0.001 A 
ATOM      4  C3  UNL d   1      -5.241  -5.648   1.555  0.00  0.00     0.003 A 
ATOM      5  C4  UNL d   1      -4.108  -4.929   1.929  0.00  0.00    -0.005 A 
ATOM      6  C5  UNL d   1      -3.170  -4.560   0.967  0.00  0.00     0.003 A 
ATOM      7  C6  UNL d   1      -3.366  -4.911  -0.370  0.00  0.00    -0.001 A 
ENDROOT
TORSDOF 0
ENDMDL
