MODEL 1
REMARK minimizedAffinity 1.14652216
REMARK minimizedRMSD -1
REMARK  0 active torsions:
REMARK  status: ('A' for Active; 'I' for Inactive)
ROOT
ATOM      1  C   UNL d   1      -2.488  -3.951   0.118  0.00  0.00     0.078 C 
ATOM      2  C1  UNL d   1      -2.979  -4.484   1.431  0.00  0.00    -0.077 A 
ATOM      3  C2  UNL d   1      -4.288  -4.962   1.572  0.00  0.00    -0.001 A 
ATOM      4  C3  UNL d   1      -4.734  -5.446   2.802  0.00  0.00     0.003 A 
ATOM      5  C4  UNL d   1      -3.879  -5.457   3.902  0.00  0.00    -0.005 A 
ATOM      6  C5  UNL d   1      -2.575  -4.982   3.772  0.00  0.00     0.003 A 
ATOM      7  C6  UNL d   1      -2.127  -4.497   2.543  0.00  0.00    -0.001 A 
ENDROOT
TORSDOF 0
ENDMDL
