MODEL 1
REMARK minimizedAffinity -3.3634057
REMARK minimizedRMSD -1
REMARK  0 active torsions:
REMARK  status: ('A' for Active; 'I' for Inactive)
ROOT
ATOM      1  C   UNL d   1      -3.495  -5.989   2.731  0.00  0.00     0.078 C 
ATOM      2  C1  UNL d   1      -3.760  -5.998   1.255  0.00  0.00    -0.077 A 
ATOM      3  C2  UNL d   1      -2.705  -5.999   0.333  0.00  0.00    -0.001 A 
ATOM      4  C3  UNL d   1      -2.966  -5.999  -1.038  0.00  0.00     0.003 A 
ATOM      5  C4  UNL d   1      -4.281  -5.996  -1.500  0.00  0.00    -0.005 A 
ATOM      6  C5  UNL d   1      -5.336  -5.993  -0.591  0.00  0.00     0.003 A 
ATOM      7  C6  UNL d   1      -5.078  -5.993   0.781  0.00  0.00    -0.001 A 
ENDROOT
TORSDOF 0
ENDMDL
