MODEL 1
REMARK minimizedAffinity 4.19814682
REMARK minimizedRMSD -1
REMARK  0 active torsions:
REMARK  status: ('A' for Active; 'I' for Inactive)
ROOT
ATOM      1  C   UNL d   1       1.305  -4.999  -2.068  0.00  0.00     0.078 C 
ATOM      2  C1  UNL d   1       0.793  -5.340  -3.436  0.00  0.00    -0.077 A 
ATOM      3  C2  UNL d   1      -0.551  -5.675  -3.640  0.00  0.00    -0.001 A 
ATOM      4  C3  UNL d   1      -1.011  -6.000  -4.917  0.00  0.00     0.003 A 
ATOM      5  C4  UNL d   1      -0.134  -5.993  -6.000  0.00  0.00    -0.005 A 
ATOM      6  C5  UNL d   1       1.205  -5.662  -5.806  0.00  0.00     0.003 A 
ATOM      7  C6  UNL d   1       1.668  -5.337  -4.530  0.00  0.00    -0.001 A 
ENDROOT
TORSDOF 0
ENDMDL
