MODEL 1
REMARK minimizedAffinity 5.89705658
REMARK minimizedRMSD -1
REMARK  0 active torsions:
REMARK  status: ('A' for Active; 'I' for Inactive)
ROOT
ATOM      1  C   UNL d   1       5.292  -0.268   1.383  0.00  0.00     0.078 C 
ATOM      2  C1  UNL d   1       4.824   0.898   0.564  0.00  0.00    -0.077 A 
ATOM      3  C2  UNL d   1       3.580   0.875  -0.079  0.00  0.00    -0.001 A 
ATOM      4  C3  UNL d   1       3.161   1.964  -0.845  0.00  0.00     0.003 A 
ATOM      5  C4  UNL d   1       3.981   3.083  -0.977  0.00  0.00    -0.005 A 
ATOM      6  C5  UNL d   1       5.221   3.114  -0.342  0.00  0.00     0.003 A 
ATOM      7  C6  UNL d   1       5.641   2.027   0.425  0.00  0.00    -0.001 A 
ENDROOT
TORSDOF 0
ENDMDL
