MODEL 1
REMARK minimizedAffinity 5.43212175
REMARK minimizedRMSD -1
REMARK  0 active torsions:
REMARK  status: ('A' for Active; 'I' for Inactive)
ROOT
ATOM      1  C   UNL d   1      -2.055  -3.964   0.470  0.00  0.00     0.078 C 
ATOM      2  C1  UNL d   1      -1.036  -2.888   0.237  0.00  0.00    -0.077 A 
ATOM      3  C2  UNL d   1      -1.328  -1.547   0.513  0.00  0.00    -0.001 A 
ATOM      4  C3  UNL d   1      -0.373  -0.555   0.283  0.00  0.00     0.003 A 
ATOM      5  C4  UNL d   1       0.879  -0.894  -0.226  0.00  0.00    -0.005 A 
ATOM      6  C5  UNL d   1       1.178  -2.226  -0.506  0.00  0.00     0.003 A 
ATOM      7  C6  UNL d   1       0.224  -3.219  -0.276  0.00  0.00    -0.001 A 
ENDROOT
TORSDOF 0
ENDMDL
