MODEL 1
REMARK minimizedAffinity -3.21043134
REMARK minimizedRMSD -1
REMARK  0 active torsions:
REMARK  status: ('A' for Active; 'I' for Inactive)
ROOT
ATOM      1  C   UNL d   1       1.124  -5.873  -1.552  0.00  0.00     0.078 C 
ATOM      2  C1  UNL d   1       1.107  -5.833  -3.051  0.00  0.00    -0.077 A 
ATOM      3  C2  UNL d   1       2.282  -5.617  -3.780  0.00  0.00    -0.001 A 
ATOM      4  C3  UNL d   1       2.249  -5.573  -5.175  0.00  0.00     0.003 A 
ATOM      5  C4  UNL d   1       1.043  -5.742  -5.852  0.00  0.00    -0.005 A 
ATOM      6  C5  UNL d   1      -0.132  -5.955  -5.135  0.00  0.00     0.003 A 
ATOM      7  C6  UNL d   1      -0.101  -6.000  -3.740  0.00  0.00    -0.001 A 
ENDROOT
TORSDOF 0
ENDMDL
