MODEL 1
REMARK minimizedAffinity -0.094038479
REMARK minimizedRMSD -1
REMARK  0 active torsions:
REMARK  status: ('A' for Active; 'I' for Inactive)
ROOT
ATOM      1  C   UNL d   1      -2.203  -5.997  -3.050  0.00  0.00     0.078 C 
ATOM      2  C1  UNL d   1      -0.924  -5.681  -3.765  0.00  0.00    -0.077 A 
ATOM      3  C2  UNL d   1       0.151  -5.086  -3.092  0.00  0.00    -0.001 A 
ATOM      4  C3  UNL d   1       1.332  -4.788  -3.773  0.00  0.00     0.003 A 
ATOM      5  C4  UNL d   1       1.450  -5.080  -5.130  0.00  0.00    -0.005 A 
ATOM      6  C5  UNL d   1       0.386  -5.670  -5.809  0.00  0.00     0.003 A 
ATOM      7  C6  UNL d   1      -0.796  -5.969  -5.129  0.00  0.00    -0.001 A 
ENDROOT
TORSDOF 0
ENDMDL
