MODEL 1
REMARK minimizedAffinity 3.6611743
REMARK minimizedRMSD -1
REMARK  0 active torsions:
REMARK  status: ('A' for Active; 'I' for Inactive)
ROOT
ATOM      1  C   UNL d   1      -0.106   0.307   1.273  0.00  0.00     0.078 C 
ATOM      2  C1  UNL d   1       0.435   0.347  -0.125  0.00  0.00    -0.077 A 
ATOM      3  C2  UNL d   1      -0.327   0.866  -1.179  0.00  0.00    -0.001 A 
ATOM      4  C3  UNL d   1       0.186   0.887  -2.477  0.00  0.00     0.003 A 
ATOM      5  C4  UNL d   1       1.462   0.391  -2.734  0.00  0.00    -0.005 A 
ATOM      6  C5  UNL d   1       2.227  -0.129  -1.692  0.00  0.00     0.003 A 
ATOM      7  C6  UNL d   1       1.716  -0.152  -0.393  0.00  0.00    -0.001 A 
ENDROOT
TORSDOF 0
ENDMDL
