MODEL 1
REMARK minimizedAffinity 0.0248714276
REMARK minimizedRMSD -1
REMARK  0 active torsions:
REMARK  status: ('A' for Active; 'I' for Inactive)
ROOT
ATOM      1  C   UNL d   1      -2.139   2.142  -2.221  0.00  0.00     0.078 C 
ATOM      2  C1  UNL d   1      -2.100   1.204  -1.052  0.00  0.00    -0.077 A 
ATOM      3  C2  UNL d   1      -1.713   1.651   0.218  0.00  0.00    -0.001 A 
ATOM      4  C3  UNL d   1      -1.672   0.765   1.296  0.00  0.00     0.003 A 
ATOM      5  C4  UNL d   1      -2.015  -0.574   1.115  0.00  0.00    -0.005 A 
ATOM      6  C5  UNL d   1      -2.399  -1.028  -0.145  0.00  0.00     0.003 A 
ATOM      7  C6  UNL d   1      -2.441  -0.143  -1.224  0.00  0.00    -0.001 A 
ENDROOT
TORSDOF 0
ENDMDL
