MODEL 1
REMARK minimizedAffinity -4.99823952
REMARK minimizedRMSD -1
REMARK  2 active torsions:
REMARK  status: ('A' for Active; 'I' for Inactive)
REMARK    1  A    between atoms: C2'_3  and  C1'_4 
REMARK    2  A    between atoms: C1'_4  and  C1_5 
ROOT
ATOM      1  C1  I4B d   1      -0.406   0.249  -0.057  0.00  0.00    -0.075 A 
ATOM      2  C2  I4B d   1      -0.723  -1.021  -0.471  0.00  0.00     0.003 A 
ATOM      3  C3  I4B d   1       0.245  -2.053  -0.409  0.00  0.00     0.002 A 
ATOM      4  C4  I4B d   1       1.522  -1.762   0.024  0.00  0.00    -0.004 A 
ATOM      5  C5  I4B d   1       1.835  -0.479   0.465  0.00  0.00     0.002 A 
ATOM      6  C6  I4B d   1       0.862   0.530   0.437  0.00  0.00     0.003 A 
ENDROOT
BRANCH   1   7
ATOM      7  C1' I4B d   1      -1.442   1.323  -0.167  0.00  0.00     0.060 C 
BRANCH   7   8
ATOM      8  C2' I4B d   1      -2.777   0.725   0.226  0.00  0.00    -0.013 C 
ATOM      9  C4' I4B d   1      -3.072   0.959   1.684  0.00  0.00     0.013 C 
ATOM     10  C3' I4B d   1      -3.833   1.338  -0.646  0.00  0.00     0.013 C 
ENDBRANCH   7   8
ENDBRANCH   1   7
TORSDOF 2
ENDMDL
