MODEL 1
REMARK minimizedAffinity -5.2773819
REMARK minimizedRMSD -1
REMARK  2 active torsions:
REMARK  status: ('A' for Active; 'I' for Inactive)
REMARK    1  A    between atoms: C2'_3  and  C1'_4 
REMARK    2  A    between atoms: C1'_4  and  C1_5 
ROOT
ATOM      1  C1  I4B d   1       1.234  -0.444  -0.067  0.00  0.00    -0.075 A 
ATOM      2  C2  I4B d   1       1.867  -1.636   0.181  0.00  0.00     0.003 A 
ATOM      3  C3  I4B d   1       3.232  -1.653   0.557  0.00  0.00     0.002 A 
ATOM      4  C4  I4B d   1       3.934  -0.467   0.623  0.00  0.00    -0.004 A 
ATOM      5  C5  I4B d   1       3.284   0.743   0.393  0.00  0.00     0.002 A 
ATOM      6  C6  I4B d   1       1.923   0.756   0.058  0.00  0.00     0.003 A 
ENDROOT
BRANCH   1   7
ATOM      7  C1' I4B d   1      -0.200  -0.464  -0.493  0.00  0.00     0.060 C 
BRANCH   7   8
ATOM      8  C2' I4B d   1      -0.747   0.942  -0.359  0.00  0.00    -0.013 C 
ATOM      9  C4' I4B d   1      -0.881   1.606  -1.704  0.00  0.00     0.013 C 
ATOM     10  C3' I4B d   1      -2.073   0.859   0.338  0.00  0.00     0.013 C 
ENDBRANCH   7   8
ENDBRANCH   1   7
TORSDOF 2
ENDMDL
