MODEL 1
REMARK minimizedAffinity -4.77824163
REMARK minimizedRMSD -1
REMARK  2 active torsions:
REMARK  status: ('A' for Active; 'I' for Inactive)
REMARK    1  A    between atoms: C2'_3  and  C1'_4 
REMARK    2  A    between atoms: C1'_4  and  C1_5 
ROOT
ATOM      1  C1  I4B d   1      -0.820   0.220  -0.081  0.00  0.00    -0.075 A 
ATOM      2  C2  I4B d   1       0.349   0.747   0.408  0.00  0.00     0.003 A 
ATOM      3  C3  I4B d   1       1.511  -0.057   0.497  0.00  0.00     0.002 A 
ATOM      4  C4  I4B d   1       1.446  -1.387   0.136  0.00  0.00    -0.004 A 
ATOM      5  C5  I4B d   1       0.265  -1.914  -0.382  0.00  0.00     0.002 A 
ATOM      6  C6  I4B d   1      -0.872  -1.102  -0.502  0.00  0.00     0.003 A 
ENDROOT
BRANCH   1   7
ATOM      7  C1' I4B d   1      -2.037   1.089  -0.130  0.00  0.00     0.060 C 
BRANCH   7   8
ATOM      8  C2' I4B d   1      -2.920   0.724   1.046  0.00  0.00    -0.013 C 
ATOM      9  C4' I4B d   1      -2.744   1.696   2.182  0.00  0.00     0.013 C 
ATOM     10  C3' I4B d   1      -4.341   0.700   0.568  0.00  0.00     0.013 C 
ENDBRANCH   7   8
ENDBRANCH   1   7
TORSDOF 2
ENDMDL
