MODEL 1
REMARK minimizedAffinity -3.94244218
REMARK minimizedRMSD -1
REMARK  0 active torsions:
REMARK  status: ('A' for Active; 'I' for Inactive)
ROOT
ATOM      1  C4' PXY d   1       0.287   1.779   0.233  0.00  0.00     0.077 C 
ATOM      2  C1' PXY d   1      -0.626  -3.920  -0.104  0.00  0.00     0.077 C 
ATOM      3  C1  PXY d   1      -0.395  -2.424  -0.005  0.00  0.00    -0.082 A 
ATOM      4  C2  PXY d   1       0.058  -1.762  -1.057  0.00  0.00     0.003 A 
ATOM      5  C3  PXY d   1       0.303  -0.415  -0.976  0.00  0.00     0.003 A 
ATOM      6  C4  PXY d   1       0.030   0.270   0.177  0.00  0.00    -0.082 A 
ATOM      7  C5  PXY d   1      -0.442  -0.397   1.251  0.00  0.00     0.003 A 
ATOM      8  C6  PXY d   1      -0.645  -1.771   1.161  0.00  0.00     0.003 A 
ENDROOT
TORSDOF 0
ENDMDL
