MODEL 1
REMARK minimizedAffinity -3.497473
REMARK minimizedRMSD -1
REMARK  0 active torsions:
REMARK  status: ('A' for Active; 'I' for Inactive)
ROOT
ATOM      1  C4' PXY d   1      -0.472  -3.486   0.453  0.00  0.00     0.077 C 
ATOM      2  C1' PXY d   1       0.285   2.176  -0.434  0.00  0.00     0.077 C 
ATOM      3  C1  PXY d   1       0.085   0.693  -0.189  0.00  0.00    -0.082 A 
ATOM      4  C2  PXY d   1       0.534  -0.182  -1.074  0.00  0.00     0.003 A 
ATOM      5  C3  PXY d   1       0.334  -1.525  -0.883  0.00  0.00     0.003 A 
ATOM      6  C4  PXY d   1      -0.285  -1.979   0.251  0.00  0.00    -0.082 A 
ATOM      7  C5  PXY d   1      -0.736  -1.093   1.163  0.00  0.00     0.003 A 
ATOM      8  C6  PXY d   1      -0.560   0.268   0.931  0.00  0.00     0.003 A 
ENDROOT
TORSDOF 0
ENDMDL
