MODEL 1
REMARK minimizedAffinity -4.66927958
REMARK minimizedRMSD -1
REMARK  0 active torsions:
REMARK  status: ('A' for Active; 'I' for Inactive)
ROOT
ATOM      1  C4' PXY d   1       0.641  -2.198  -3.356  0.00  0.00     0.077 C 
ATOM      2  C1' PXY d   1      -0.418  -1.754   2.309  0.00  0.00     0.077 C 
ATOM      3  C1  PXY d   1      -0.136  -1.883   0.826  0.00  0.00    -0.082 A 
ATOM      4  C2  PXY d   1       0.079  -0.795   0.104  0.00  0.00     0.003 A 
ATOM      5  C3  PXY d   1       0.303  -0.891  -1.245  0.00  0.00     0.003 A 
ATOM      6  C4  PXY d   1       0.361  -2.117  -1.853  0.00  0.00    -0.082 A 
ATOM      7  C5  PXY d   1       0.154  -3.232  -1.121  0.00  0.00     0.003 A 
ATOM      8  C6  PXY d   1      -0.114  -3.110   0.239  0.00  0.00     0.003 A 
ENDROOT
TORSDOF 0
ENDMDL
