MODEL 1
REMARK minimizedAffinity -3.22179389
REMARK minimizedRMSD -1
REMARK  0 active torsions:
REMARK  status: ('A' for Active; 'I' for Inactive)
ROOT
ATOM      1  C4' PXY d   1       1.428  -2.654  -2.443  0.00  0.00     0.077 C 
ATOM      2  C1' PXY d   1      -1.829  -0.779   1.949  0.00  0.00     0.077 C 
ATOM      3  C1  PXY d   1      -0.976  -1.283   0.802  0.00  0.00    -0.082 A 
ATOM      4  C2  PXY d   1      -0.158  -0.449   0.180  0.00  0.00     0.003 A 
ATOM      5  C3  PXY d   1       0.597  -0.880  -0.881  0.00  0.00     0.003 A 
ATOM      6  C4  PXY d   1       0.555  -2.191  -1.274  0.00  0.00    -0.082 A 
ATOM      7  C5  PXY d   1      -0.269  -3.050  -0.637  0.00  0.00     0.003 A 
ATOM      8  C6  PXY d   1      -1.058  -2.583   0.410  0.00  0.00     0.003 A 
ENDROOT
TORSDOF 0
ENDMDL
