MODEL 1
REMARK minimizedAffinity -5.55634499
REMARK minimizedRMSD -1
REMARK  0 active torsions:
REMARK  status: ('A' for Active; 'I' for Inactive)
ROOT
ATOM      1  C4' PXY d   1      -0.400  -3.354  -0.100  0.00  0.00     0.077 C 
ATOM      2  C1' PXY d   1       0.292   2.361   0.418  0.00  0.00     0.077 C 
ATOM      3  C1  PXY d   1       0.110   0.864   0.269  0.00  0.00    -0.082 A 
ATOM      4  C2  PXY d   1      -0.393   0.163   1.272  0.00  0.00     0.003 A 
ATOM      5  C3  PXY d   1      -0.534  -1.197   1.167  0.00  0.00     0.003 A 
ATOM      6  C4  PXY d   1      -0.207  -1.839   0.002  0.00  0.00    -0.082 A 
ATOM      7  C5  PXY d   1       0.296  -1.129  -1.030  0.00  0.00     0.003 A 
ATOM      8  C6  PXY d   1       0.470   0.244  -0.888  0.00  0.00     0.003 A 
ENDROOT
TORSDOF 0
ENDMDL
