MODEL 1
REMARK minimizedAffinity -4.37441683
REMARK minimizedRMSD -1
REMARK  0 active torsions:
REMARK  status: ('A' for Active; 'I' for Inactive)
ROOT
ATOM      1  C4' PXY d   1       0.635   1.596  -0.717  0.00  0.00     0.077 C 
ATOM      2  C1' PXY d   1      -0.506  -4.070  -0.615  0.00  0.00     0.077 C 
ATOM      3  C1  PXY d   1      -0.199  -2.586  -0.652  0.00  0.00    -0.082 A 
ATOM      4  C2  PXY d   1      -0.363  -1.857   0.440  0.00  0.00     0.003 A 
ATOM      5  C3  PXY d   1      -0.120  -0.507   0.415  0.00  0.00     0.003 A 
ATOM      6  C4  PXY d   1       0.346   0.092  -0.724  0.00  0.00    -0.082 A 
ATOM      7  C5  PXY d   1       0.526  -0.647  -1.839  0.00  0.00     0.003 A 
ATOM      8  C6  PXY d   1       0.235  -2.007  -1.805  0.00  0.00     0.003 A 
ENDROOT
TORSDOF 0
ENDMDL
