MODEL 1
REMARK minimizedAffinity -5.36426067
REMARK minimizedRMSD -1
REMARK  0 active torsions:
REMARK  status: ('A' for Active; 'I' for Inactive)
ROOT
ATOM      1  C4' PXY d   1       0.344   1.596  -0.427  0.00  0.00     0.077 C 
ATOM      2  C1' PXY d   1       0.105  -4.176  -0.622  0.00  0.00     0.077 C 
ATOM      3  C1  PXY d   1       0.176  -2.663  -0.581  0.00  0.00    -0.082 A 
ATOM      4  C2  PXY d   1      -0.105  -2.025   0.544  0.00  0.00     0.003 A 
ATOM      5  C3  PXY d   1      -0.077  -0.655   0.590  0.00  0.00     0.003 A 
ATOM      6  C4  PXY d   1       0.295   0.068  -0.512  0.00  0.00    -0.082 A 
ATOM      7  C5  PXY d   1       0.593  -0.576  -1.661  0.00  0.00     0.003 A 
ATOM      8  C6  PXY d   1       0.518  -1.965  -1.698  0.00  0.00     0.003 A 
ENDROOT
TORSDOF 0
ENDMDL
