MODEL 1
REMARK minimizedAffinity -4.4493475
REMARK minimizedRMSD -1
REMARK  0 active torsions:
REMARK  status: ('A' for Active; 'I' for Inactive)
ROOT
ATOM      1  C4' PXY d   1       0.855  -0.341  -3.896  0.00  0.00     0.077 C 
ATOM      2  C1' PXY d   1      -0.795  -2.859   1.039  0.00  0.00     0.077 C 
ATOM      3  C1  PXY d   1      -0.367  -2.188  -0.251  0.00  0.00    -0.082 A 
ATOM      4  C2  PXY d   1      -0.202  -2.915  -1.344  0.00  0.00     0.003 A 
ATOM      5  C3  PXY d   1       0.215  -2.329  -2.511  0.00  0.00     0.003 A 
ATOM      6  C4  PXY d   1       0.415  -0.975  -2.574  0.00  0.00    -0.082 A 
ATOM      7  C5  PXY d   1       0.238  -0.225  -1.466  0.00  0.00     0.003 A 
ATOM      8  C6  PXY d   1      -0.146  -0.845  -0.280  0.00  0.00     0.003 A 
ENDROOT
TORSDOF 0
ENDMDL
