MODEL 1
REMARK minimizedAffinity -5.49719334
REMARK minimizedRMSD -1
REMARK  0 active torsions:
REMARK  status: ('A' for Active; 'I' for Inactive)
ROOT
ATOM      1  C4' PXY d   1       0.035   1.763  -0.158  0.00  0.00     0.077 C 
ATOM      2  C1' PXY d   1       0.058  -4.017  -0.110  0.00  0.00     0.077 C 
ATOM      3  C1  PXY d   1       0.041  -2.501  -0.116  0.00  0.00    -0.082 A 
ATOM      4  C2  PXY d   1       0.652  -1.844  -1.088  0.00  0.00     0.003 A 
ATOM      5  C3  PXY d   1       0.674  -0.473  -1.091  0.00  0.00     0.003 A 
ATOM      6  C4  PXY d   1       0.018   0.233  -0.117  0.00  0.00    -0.082 A 
ATOM      7  C5  PXY d   1      -0.617  -0.431   0.872  0.00  0.00     0.003 A 
ATOM      8  C6  PXY d   1      -0.592  -1.823   0.879  0.00  0.00     0.003 A 
ENDROOT
TORSDOF 0
ENDMDL
