MODEL 1
REMARK minimizedAffinity -3.02557945
REMARK minimizedRMSD -1
REMARK  0 active torsions:
REMARK  status: ('A' for Active; 'I' for Inactive)
ROOT
ATOM      1  C4' PXY d   1       0.880   2.600   0.074  0.00  0.00     0.077 C 
ATOM      2  C1' PXY d   1      -0.911  -2.847   0.806  0.00  0.00     0.077 C 
ATOM      3  C1  PXY d   1      -0.451  -1.414   0.621  0.00  0.00    -0.082 A 
ATOM      4  C2  PXY d   1       0.297  -1.097  -0.423  0.00  0.00     0.003 A 
ATOM      5  C3  PXY d   1       0.748   0.188  -0.588  0.00  0.00     0.003 A 
ATOM      6  C4  PXY d   1       0.385   1.168   0.296  0.00  0.00    -0.082 A 
ATOM      7  C5  PXY d   1      -0.387   0.854   1.358  0.00  0.00     0.003 A 
ATOM      8  C6  PXY d   1      -0.800  -0.463   1.530  0.00  0.00     0.003 A 
ENDROOT
TORSDOF 0
ENDMDL
