MODEL 1
REMARK minimizedAffinity -5.74635887
REMARK minimizedRMSD -1
REMARK  0 active torsions:
REMARK  status: ('A' for Active; 'I' for Inactive)
ROOT
ATOM      1  C4' PXY d   1       0.570  -2.335  -3.033  0.00  0.00     0.077 C 
ATOM      2  C1' PXY d   1      -0.510  -0.731   2.414  0.00  0.00     0.077 C 
ATOM      3  C1  PXY d   1      -0.222  -1.163   0.990  0.00  0.00    -0.082 A 
ATOM      4  C2  PXY d   1      -0.083  -0.248   0.044  0.00  0.00     0.003 A 
ATOM      5  C3  PXY d   1       0.147  -0.622  -1.255  0.00  0.00     0.003 A 
ATOM      6  C4  PXY d   1       0.288  -1.945  -1.580  0.00  0.00    -0.082 A 
ATOM      7  C5  PXY d   1       0.158  -2.884  -0.619  0.00  0.00     0.003 A 
ATOM      8  C6  PXY d   1      -0.116  -2.485   0.686  0.00  0.00     0.003 A 
ENDROOT
TORSDOF 0
ENDMDL
