MODEL 1
REMARK minimizedAffinity -3.63033867
REMARK minimizedRMSD -1
REMARK  0 active torsions:
REMARK  status: ('A' for Active; 'I' for Inactive)
ROOT
ATOM      1  C4' PXY d   1      -0.734  -2.323   1.499  0.00  0.00     0.077 C 
ATOM      2  C1' PXY d   1       0.590   3.015  -0.281  0.00  0.00     0.077 C 
ATOM      3  C1  PXY d   1       0.255   1.612   0.185  0.00  0.00    -0.082 A 
ATOM      4  C2  PXY d   1      -0.975   1.149   0.034  0.00  0.00     0.003 A 
ATOM      5  C3  PXY d   1      -1.303  -0.106   0.479  0.00  0.00     0.003 A 
ATOM      6  C4  PXY d   1      -0.349  -0.915   1.035  0.00  0.00    -0.082 A 
ATOM      7  C5  PXY d   1       0.911  -0.454   1.182  0.00  0.00     0.003 A 
ATOM      8  C6  PXY d   1       1.214   0.838   0.762  0.00  0.00     0.003 A 
ENDROOT
TORSDOF 0
ENDMDL
