MODEL 1
REMARK minimizedAffinity -5.58111429
REMARK minimizedRMSD -1
REMARK  0 active torsions:
REMARK  status: ('A' for Active; 'I' for Inactive)
ROOT
ATOM      1  C4' PXY d   1       0.968   1.226   0.134  0.00  0.00     0.077 C 
ATOM      2  C1' PXY d   1      -0.685  -4.307  -0.132  0.00  0.00     0.077 C 
ATOM      3  C1  PXY d   1      -0.245  -2.858  -0.073  0.00  0.00    -0.082 A 
ATOM      4  C2  PXY d   1      -0.228  -2.226   1.089  0.00  0.00     0.003 A 
ATOM      5  C3  PXY d   1       0.137  -0.905   1.155  0.00  0.00     0.003 A 
ATOM      6  C4  PXY d   1       0.540  -0.240   0.029  0.00  0.00    -0.082 A 
ATOM      7  C5  PXY d   1       0.536  -0.881  -1.159  0.00  0.00     0.003 A 
ATOM      8  C6  PXY d   1       0.123  -2.209  -1.212  0.00  0.00     0.003 A 
ENDROOT
TORSDOF 0
ENDMDL
