MODEL 1
REMARK minimizedAffinity -2.73542714
REMARK minimizedRMSD -1
REMARK  0 active torsions:
REMARK  status: ('A' for Active; 'I' for Inactive)
ROOT
ATOM      1  C4' PXY d   1      -0.273  -2.690   0.660  0.00  0.00     0.077 C 
ATOM      2  C1' PXY d   1       0.804   2.989   0.592  0.00  0.00     0.077 C 
ATOM      3  C1  PXY d   1       0.516   1.501   0.622  0.00  0.00    -0.082 A 
ATOM      4  C2  PXY d   1       1.237   0.680  -0.125  0.00  0.00     0.003 A 
ATOM      5  C3  PXY d   1       0.969  -0.664  -0.135  0.00  0.00     0.003 A 
ATOM      6  C4  PXY d   1      -0.012  -1.181   0.669  0.00  0.00    -0.082 A 
ATOM      7  C5  PXY d   1      -0.744  -0.352   1.442  0.00  0.00     0.003 A 
ATOM      8  C6  PXY d   1      -0.483   1.015   1.407  0.00  0.00     0.003 A 
ENDROOT
TORSDOF 0
ENDMDL
