MODEL 1
REMARK minimizedAffinity -3.91158962
REMARK minimizedRMSD -1
REMARK  0 active torsions:
REMARK  status: ('A' for Active; 'I' for Inactive)
ROOT
ATOM      1  C4' PXY d   1      -0.591  -0.934   2.461  0.00  0.00     0.077 C 
ATOM      2  C1' PXY d   1       0.501  -2.840  -2.886  0.00  0.00     0.077 C 
ATOM      3  C1  PXY d   1       0.221  -2.329  -1.486  0.00  0.00    -0.082 A 
ATOM      4  C2  PXY d   1      -0.028  -3.190  -0.513  0.00  0.00     0.003 A 
ATOM      5  C3  PXY d   1      -0.315  -2.744   0.751  0.00  0.00     0.003 A 
ATOM      6  C4  PXY d   1      -0.294  -1.405   1.035  0.00  0.00    -0.082 A 
ATOM      7  C5  PXY d   1      -0.030  -0.520   0.050  0.00  0.00     0.003 A 
ATOM      8  C6  PXY d   1       0.218  -0.991  -1.236  0.00  0.00     0.003 A 
ENDROOT
TORSDOF 0
ENDMDL
