MODEL 1
REMARK minimizedAffinity -4.03569174
REMARK minimizedRMSD -1
REMARK  0 active torsions:
REMARK  status: ('A' for Active; 'I' for Inactive)
ROOT
ATOM      1  C4' PXY d   1       0.051   2.052   0.013  0.00  0.00     0.077 C 
ATOM      2  C1' PXY d   1      -0.006  -3.727   0.147  0.00  0.00     0.077 C 
ATOM      3  C1  PXY d   1      -0.003  -2.211   0.117  0.00  0.00    -0.082 A 
ATOM      4  C2  PXY d   1       0.768  -1.575  -0.750  0.00  0.00     0.003 A 
ATOM      5  C3  PXY d   1       0.807  -0.205  -0.769  0.00  0.00     0.003 A 
ATOM      6  C4  PXY d   1       0.009   0.523   0.073  0.00  0.00    -0.082 A 
ATOM      7  C5  PXY d   1      -0.789  -0.119   0.953  0.00  0.00     0.003 A 
ATOM      8  C6  PXY d   1      -0.783  -1.510   0.984  0.00  0.00     0.003 A 
ENDROOT
TORSDOF 0
ENDMDL
