MODEL 1
REMARK minimizedAffinity -5.83623123
REMARK minimizedRMSD -1
REMARK  0 active torsions:
REMARK  status: ('A' for Active; 'I' for Inactive)
ROOT
ATOM      1  C4' PXY d   1       1.169  -2.165  -3.616  0.00  0.00     0.077 C 
ATOM      2  C1' PXY d   1      -1.088  -0.486   1.433  0.00  0.00     0.077 C 
ATOM      3  C1  PXY d   1      -0.491  -0.937   0.115  0.00  0.00    -0.082 A 
ATOM      4  C2  PXY d   1      -0.254  -0.046  -0.834  0.00  0.00     0.003 A 
ATOM      5  C3  PXY d   1       0.256  -0.441  -2.044  0.00  0.00     0.003 A 
ATOM      6  C4  PXY d   1       0.576  -1.754  -2.266  0.00  0.00    -0.082 A 
ATOM      7  C5  PXY d   1       0.347  -2.667  -1.298  0.00  0.00     0.003 A 
ATOM      8  C6  PXY d   1      -0.210  -2.252  -0.092  0.00  0.00     0.003 A 
ENDROOT
TORSDOF 0
ENDMDL
