MODEL 1
REMARK minimizedAffinity -5.3115592
REMARK minimizedRMSD -1
REMARK  0 active torsions:
REMARK  status: ('A' for Active; 'I' for Inactive)
ROOT
ATOM      1  C4' PXY d   1       0.641  -2.625  -2.626  0.00  0.00     0.077 C 
ATOM      2  C1' PXY d   1      -1.500  -0.375   2.250  0.00  0.00     0.077 C 
ATOM      3  C1  PXY d   1      -0.936  -0.976   0.978  0.00  0.00    -0.082 A 
ATOM      4  C2  PXY d   1      -0.484  -0.180   0.022  0.00  0.00     0.003 A 
ATOM      5  C3  PXY d   1      -0.000  -0.706  -1.148  0.00  0.00     0.003 A 
ATOM      6  C4  PXY d   1       0.071  -2.062  -1.320  0.00  0.00    -0.082 A 
ATOM      7  C5  PXY d   1      -0.378  -2.882  -0.346  0.00  0.00     0.003 A 
ATOM      8  C6  PXY d   1      -0.904  -2.327   0.817  0.00  0.00     0.003 A 
ENDROOT
TORSDOF 0
ENDMDL
