MODEL 1
REMARK minimizedAffinity -4.58157587
REMARK minimizedRMSD -1
REMARK  0 active torsions:
REMARK  status: ('A' for Active; 'I' for Inactive)
ROOT
ATOM      1  C4' PXY d   1       0.120   0.915   0.051  0.00  0.00     0.077 C 
ATOM      2  C1' PXY d   1      -0.266  -4.789  -0.807  0.00  0.00     0.077 C 
ATOM      3  C1  PXY d   1      -0.154  -3.293  -0.589  0.00  0.00    -0.082 A 
ATOM      4  C2  PXY d   1      -0.727  -2.741   0.468  0.00  0.00     0.003 A 
ATOM      5  C3  PXY d   1      -0.662  -1.385   0.664  0.00  0.00     0.003 A 
ATOM      6  C4  PXY d   1       0.041  -0.593  -0.204  0.00  0.00    -0.082 A 
ATOM      7  C5  PXY d   1       0.637  -1.150  -1.279  0.00  0.00     0.003 A 
ATOM      8  C6  PXY d   1       0.525  -2.523  -1.482  0.00  0.00     0.003 A 
ENDROOT
TORSDOF 0
ENDMDL
