MODEL 1
REMARK minimizedAffinity -5.72634983
REMARK minimizedRMSD -1
REMARK  0 active torsions:
REMARK  status: ('A' for Active; 'I' for Inactive)
ROOT
ATOM      1  C4' PXY d   1      -0.674  -0.353   2.421  0.00  0.00     0.077 C 
ATOM      2  C1' PXY d   1       0.010  -2.676  -2.828  0.00  0.00     0.077 C 
ATOM      3  C1  PXY d   1      -0.163  -2.056  -1.455  0.00  0.00    -0.082 A 
ATOM      4  C2  PXY d   1      -0.356  -2.837  -0.405  0.00  0.00     0.003 A 
ATOM      5  C3  PXY d   1      -0.546  -2.292   0.839  0.00  0.00     0.003 A 
ATOM      6  C4  PXY d   1      -0.485  -0.936   1.018  0.00  0.00    -0.082 A 
ATOM      7  C5  PXY d   1      -0.277  -0.133  -0.048  0.00  0.00     0.003 A 
ATOM      8  C6  PXY d   1      -0.128  -0.704  -1.308  0.00  0.00     0.003 A 
ENDROOT
TORSDOF 0
ENDMDL
