MODEL 1
REMARK minimizedAffinity -2.46398449
REMARK minimizedRMSD -1
REMARK  1 active torsions:
REMARK  status: ('A' for Active; 'I' for Inactive)
REMARK    1  A    between atoms: C1_2  and  C2_3 
ROOT
ATOM      1  C2  UNL d   1       0.422  -0.640  -0.312  0.00  0.00    -0.073 A 
ATOM      2  C3  UNL d   1       0.101   0.398   0.569  0.00  0.00    -0.002 A 
ATOM      3  C4  UNL d   1       0.037   1.715   0.113  0.00  0.00     0.004 A 
ATOM      4  C5  UNL d   1       0.285   2.007  -1.228  0.00  0.00    -0.004 A 
ATOM      5  C6  UNL d   1       0.596   0.981  -2.127  0.00  0.00    -0.075 A 
ATOM      6  C7  UNL d   1       0.868   1.279  -3.572  0.00  0.00     0.076 C 
ATOM      7  C8  UNL d   1       0.661  -0.339  -1.661  0.00  0.00     0.001 A 
ENDROOT
BRANCH   1   8
ATOM      8  C1  UNL d   1       0.486  -2.065   0.174  0.00  0.00     0.053 C 
ATOM      9  C   UNL d   1      -0.214  -2.243   1.512  0.00  0.00     0.018 C 
ENDBRANCH   1   8
TORSDOF 1
ENDMDL
