MODEL 1
REMARK minimizedAffinity -2.45298314
REMARK minimizedRMSD -1
REMARK  1 active torsions:
REMARK  status: ('A' for Active; 'I' for Inactive)
REMARK    1  A    between atoms: C1_2  and  C2_3 
ROOT
ATOM      1  C2  UNL d   1       0.849   1.314  -1.169  0.00  0.00    -0.073 A 
ATOM      2  C3  UNL d   1      -0.081   1.810  -0.250  0.00  0.00    -0.002 A 
ATOM      3  C4  UNL d   1      -0.597   0.982   0.748  0.00  0.00     0.004 A 
ATOM      4  C5  UNL d   1      -0.183  -0.347   0.841  0.00  0.00    -0.004 A 
ATOM      5  C6  UNL d   1       0.755  -0.858  -0.061  0.00  0.00    -0.075 A 
ATOM      6  C7  UNL d   1       1.209  -2.286   0.024  0.00  0.00     0.076 C 
ATOM      7  C8  UNL d   1       1.266  -0.021  -1.062  0.00  0.00     0.001 A 
ENDROOT
BRANCH   1   8
ATOM      8  C1  UNL d   1       1.414   2.206  -2.244  0.00  0.00     0.053 C 
ATOM      9  C   UNL d   1       0.595   2.144  -3.524  0.00  0.00     0.018 C 
ENDBRANCH   1   8
TORSDOF 1
ENDMDL
