MODEL 1
REMARK minimizedAffinity -3.31277919
REMARK minimizedRMSD -1
REMARK  1 active torsions:
REMARK  status: ('A' for Active; 'I' for Inactive)
REMARK    1  A    between atoms: C1_2  and  C2_3 
ROOT
ATOM      1  C2  UNL d   1      -1.412  -0.995   1.705  0.00  0.00    -0.073 A 
ATOM      2  C3  UNL d   1      -0.759  -2.233   1.708  0.00  0.00    -0.002 A 
ATOM      3  C4  UNL d   1       0.344  -2.450   0.881  0.00  0.00     0.004 A 
ATOM      4  C5  UNL d   1       0.809  -1.431   0.049  0.00  0.00    -0.004 A 
ATOM      5  C6  UNL d   1       0.177  -0.184   0.041  0.00  0.00    -0.075 A 
ATOM      6  C7  UNL d   1       0.664   0.922  -0.849  0.00  0.00     0.076 C 
ATOM      7  C8  UNL d   1      -0.931   0.026   0.872  0.00  0.00     0.001 A 
ENDROOT
BRANCH   1   8
ATOM      8  C1  UNL d   1      -2.600  -0.754   2.601  0.00  0.00     0.053 C 
ATOM      9  C   UNL d   1      -3.152   0.654   2.448  0.00  0.00     0.018 C 
ENDBRANCH   1   8
TORSDOF 1
ENDMDL
