MODEL 1
REMARK minimizedAffinity -4.84815741
REMARK minimizedRMSD -1
REMARK  1 active torsions:
REMARK  status: ('A' for Active; 'I' for Inactive)
REMARK    1  A    between atoms: C1_2  and  C2_3 
ROOT
ATOM      1  C2  UNL d   1      -1.277  -1.113   1.573  0.00  0.00    -0.073 A 
ATOM      2  C3  UNL d   1      -0.705  -2.364   1.317  0.00  0.00    -0.002 A 
ATOM      3  C4  UNL d   1       0.354  -2.483   0.415  0.00  0.00     0.004 A 
ATOM      4  C5  UNL d   1       0.855  -1.355  -0.233  0.00  0.00    -0.004 A 
ATOM      5  C6  UNL d   1       0.304  -0.094   0.018  0.00  0.00    -0.075 A 
ATOM      6  C7  UNL d   1       0.830   1.130  -0.673  0.00  0.00     0.076 C 
ATOM      7  C8  UNL d   1      -0.761   0.018   0.923  0.00  0.00     0.001 A 
ENDROOT
BRANCH   1   8
ATOM      8  C1  UNL d   1      -2.416  -0.977   2.550  0.00  0.00     0.053 C 
ATOM      9  C   UNL d   1      -3.023   0.417   2.529  0.00  0.00     0.018 C 
ENDBRANCH   1   8
TORSDOF 1
ENDMDL
