MODEL 1
REMARK minimizedAffinity -2.74227595
REMARK minimizedRMSD -1
REMARK  1 active torsions:
REMARK  status: ('A' for Active; 'I' for Inactive)
REMARK    1  A    between atoms: C1_2  and  C2_3 
ROOT
ATOM      1  C2  UNL d   1      -1.262  -1.119   1.737  0.00  0.00    -0.073 A 
ATOM      2  C3  UNL d   1      -0.531  -2.312   1.729  0.00  0.00    -0.002 A 
ATOM      3  C4  UNL d   1       0.580  -2.454   0.896  0.00  0.00     0.004 A 
ATOM      4  C5  UNL d   1       0.974  -1.403   0.068  0.00  0.00    -0.004 A 
ATOM      5  C6  UNL d   1       0.264  -0.198   0.070  0.00  0.00    -0.075 A 
ATOM      6  C7  UNL d   1       0.674   0.941  -0.816  0.00  0.00     0.076 C 
ATOM      7  C8  UNL d   1      -0.852  -0.065   0.908  0.00  0.00     0.001 A 
ENDROOT
BRANCH   1   8
ATOM      8  C1  UNL d   1      -2.458  -0.960   2.639  0.00  0.00     0.053 C 
ATOM      9  C   UNL d   1      -3.079   0.423   2.523  0.00  0.00     0.018 C 
ENDBRANCH   1   8
TORSDOF 1
ENDMDL
