MODEL 1
REMARK minimizedAffinity -1.98718011
REMARK minimizedRMSD -1
REMARK  1 active torsions:
REMARK  status: ('A' for Active; 'I' for Inactive)
REMARK    1  A    between atoms: C1_2  and  C2_3 
ROOT
ATOM      1  C2  UNL d   1       0.990   1.022  -0.447  0.00  0.00    -0.073 A 
ATOM      2  C3  UNL d   1       1.470  -0.278  -0.253  0.00  0.00    -0.002 A 
ATOM      3  C4  UNL d   1       0.756  -1.183   0.533  0.00  0.00     0.004 A 
ATOM      4  C5  UNL d   1      -0.447  -0.801   1.127  0.00  0.00    -0.004 A 
ATOM      5  C6  UNL d   1      -0.949   0.490   0.935  0.00  0.00    -0.075 A 
ATOM      6  C7  UNL d   1      -2.240   0.918   1.569  0.00  0.00     0.076 C 
ATOM      7  C8  UNL d   1      -0.225   1.394   0.146  0.00  0.00     0.001 A 
ENDROOT
BRANCH   1   8
ATOM      8  C1  UNL d   1       1.754   2.001  -1.301  0.00  0.00     0.053 C 
ATOM      9  C   UNL d   1       1.011   2.340  -2.583  0.00  0.00     0.018 C 
ENDBRANCH   1   8
TORSDOF 1
ENDMDL
