MODEL 1
REMARK minimizedAffinity -1.38957524
REMARK minimizedRMSD -1
REMARK  1 active torsions:
REMARK  status: ('A' for Active; 'I' for Inactive)
REMARK    1  A    between atoms: C1_2  and  C2_3 
ROOT
ATOM      1  C2  UNL d   1       0.899   1.651  -1.055  0.00  0.00    -0.073 A 
ATOM      2  C3  UNL d   1      -0.083   2.212  -1.879  0.00  0.00    -0.002 A 
ATOM      3  C4  UNL d   1       0.196   2.496  -3.216  0.00  0.00     0.004 A 
ATOM      4  C5  UNL d   1       1.456   2.216  -3.745  0.00  0.00    -0.004 A 
ATOM      5  C6  UNL d   1       2.447   1.645  -2.941  0.00  0.00    -0.075 A 
ATOM      6  C7  UNL d   1       3.809   1.340  -3.494  0.00  0.00     0.076 C 
ATOM      7  C8  UNL d   1       2.160   1.365  -1.598  0.00  0.00     0.001 A 
ENDROOT
BRANCH   1   8
ATOM      8  C1  UNL d   1       0.600   1.337   0.388  0.00  0.00     0.053 C 
ATOM      9  C   UNL d   1       0.755  -0.145   0.693  0.00  0.00     0.018 C 
ENDBRANCH   1   8
TORSDOF 1
ENDMDL
