MODEL 1
REMARK minimizedAffinity 7.03463697
REMARK minimizedRMSD -1
REMARK  1 active torsions:
REMARK  status: ('A' for Active; 'I' for Inactive)
REMARK    1  A    between atoms: C1_2  and  C2_3 
ROOT
ATOM      1  C2  UNL d   1       4.094   3.047  -1.528  0.00  0.00    -0.073 A 
ATOM      2  C3  UNL d   1       4.272   4.334  -2.046  0.00  0.00    -0.002 A 
ATOM      3  C4  UNL d   1       4.687   5.377  -1.217  0.00  0.00     0.004 A 
ATOM      4  C5  UNL d   1       4.934   5.143   0.136  0.00  0.00    -0.004 A 
ATOM      5  C6  UNL d   1       4.772   3.860   0.670  0.00  0.00    -0.075 A 
ATOM      6  C7  UNL d   1       5.032   3.592   2.124  0.00  0.00     0.076 C 
ATOM      7  C8  UNL d   1       4.353   2.819  -0.168  0.00  0.00     0.001 A 
ENDROOT
BRANCH   1   8
ATOM      8  C1  UNL d   1       3.653   1.916  -2.421  0.00  0.00     0.053 C 
ATOM      9  C   UNL d   1       3.147   2.415  -3.765  0.00  0.00     0.018 C 
ENDBRANCH   1   8
TORSDOF 1
ENDMDL
