MODEL 1
REMARK minimizedAffinity -3.8064487
REMARK minimizedRMSD -1
REMARK  1 active torsions:
REMARK  status: ('A' for Active; 'I' for Inactive)
REMARK    1  A    between atoms: C1_2  and  C2_3 
ROOT
ATOM      1  C2  UNL d   1      -0.027   0.667   0.154  0.00  0.00    -0.073 A 
ATOM      2  C3  UNL d   1       0.773  -0.459  -0.072  0.00  0.00    -0.002 A 
ATOM      3  C4  UNL d   1       0.484  -1.668   0.561  0.00  0.00     0.004 A 
ATOM      4  C5  UNL d   1      -0.611  -1.766   1.420  0.00  0.00    -0.004 A 
ATOM      5  C6  UNL d   1      -1.429  -0.656   1.650  0.00  0.00    -0.075 A 
ATOM      6  C7  UNL d   1      -2.609  -0.745   2.573  0.00  0.00     0.076 C 
ATOM      7  C8  UNL d   1      -1.131   0.556   1.012  0.00  0.00     0.001 A 
ENDROOT
BRANCH   1   8
ATOM      8  C1  UNL d   1       0.277   1.973  -0.533  0.00  0.00     0.053 C 
ATOM      9  C   UNL d   1       1.236   1.794  -1.699  0.00  0.00     0.018 C 
ENDBRANCH   1   8
TORSDOF 1
ENDMDL
