MODEL 1
REMARK minimizedAffinity -2.52007818
REMARK minimizedRMSD -1
REMARK  1 active torsions:
REMARK  status: ('A' for Active; 'I' for Inactive)
REMARK    1  A    between atoms: C1_2  and  C2_3 
ROOT
ATOM      1  C2  UNL d   1      -0.037   0.843  -0.171  0.00  0.00    -0.073 A 
ATOM      2  C3  UNL d   1      -0.869   1.882   0.261  0.00  0.00    -0.002 A 
ATOM      3  C4  UNL d   1      -1.967   1.612   1.077  0.00  0.00     0.004 A 
ATOM      4  C5  UNL d   1      -2.241   0.303   1.476  0.00  0.00    -0.004 A 
ATOM      5  C6  UNL d   1      -1.415  -0.747   1.064  0.00  0.00    -0.075 A 
ATOM      6  C7  UNL d   1      -1.697  -2.160   1.482  0.00  0.00     0.076 C 
ATOM      7  C8  UNL d   1      -0.315  -0.468   0.242  0.00  0.00     0.001 A 
ENDROOT
BRANCH   1   8
ATOM      8  C1  UNL d   1       1.155   1.130  -1.048  0.00  0.00     0.053 C 
ATOM      9  C   UNL d   1       0.748   1.734  -2.383  0.00  0.00     0.018 C 
ENDBRANCH   1   8
TORSDOF 1
ENDMDL
