MODEL 1
REMARK minimizedAffinity 2.0783155
REMARK minimizedRMSD -1
REMARK  1 active torsions:
REMARK  status: ('A' for Active; 'I' for Inactive)
REMARK    1  A    between atoms: C1_2  and  C2_3 
ROOT
ATOM      1  C2  UNL d   1      -1.892  -4.756  -5.367  0.00  0.00    -0.073 A 
ATOM      2  C3  UNL d   1      -1.399  -4.181  -4.190  0.00  0.00    -0.002 A 
ATOM      3  C4  UNL d   1      -2.057  -3.098  -3.606  0.00  0.00     0.004 A 
ATOM      4  C5  UNL d   1      -3.215  -2.583  -4.188  0.00  0.00    -0.004 A 
ATOM      5  C6  UNL d   1      -3.730  -3.152  -5.358  0.00  0.00    -0.075 A 
ATOM      6  C7  UNL d   1      -4.974  -2.609  -5.997  0.00  0.00     0.076 C 
ATOM      7  C8  UNL d   1      -3.063  -4.238  -5.940  0.00  0.00     0.001 A 
ENDROOT
BRANCH   1   8
ATOM      8  C1  UNL d   1      -1.189  -5.931  -5.998  0.00  0.00     0.053 C 
ATOM      9  C   UNL d   1       0.308  -5.910  -5.731  0.00  0.00     0.018 C 
ENDBRANCH   1   8
TORSDOF 1
ENDMDL
