MODEL 1
REMARK minimizedAffinity 10.4510641
REMARK minimizedRMSD -1
REMARK  3 active torsions:
REMARK  status: ('A' for Active; 'I' for Inactive)
REMARK    1  A    between atoms: C3'_2  and  C2'_3 
REMARK    2  A    between atoms: C2'_3  and  C1'_4 
REMARK    3  A    between atoms: C1'_4  and  C1_5 
ROOT
ATOM      1  C1  N4B d   1      -1.062  -4.114  -3.383  0.00  0.00    -0.075 A 
ATOM      2  C2  N4B d   1      -2.317  -3.991  -2.748  0.00  0.00     0.002 A 
ATOM      3  C3  N4B d   1      -3.438  -3.712  -3.491  0.00  0.00     0.002 A 
ATOM      4  C4  N4B d   1      -3.325  -3.533  -4.862  0.00  0.00    -0.004 A 
ATOM      5  C5  N4B d   1      -2.113  -3.679  -5.471  0.00  0.00     0.002 A 
ATOM      6  C6  N4B d   1      -0.979  -3.963  -4.737  0.00  0.00     0.002 A 
ENDROOT
BRANCH   1   7
ATOM      7  C1' N4B d   1       0.205  -4.334  -2.601  0.00  0.00     0.057 C 
BRANCH   7   8
ATOM      8  C2' N4B d   1       1.039  -3.057  -2.631  0.00  0.00     0.009 C 
BRANCH   8   9
ATOM      9  C3' N4B d   1       1.359  -2.554  -1.234  0.00  0.00     0.004 C 
ATOM     10  C4' N4B d   1       2.220  -1.326  -1.242  0.00  0.00     0.003 C 
ENDBRANCH   8   9
ENDBRANCH   7   8
ENDBRANCH   1   7
TORSDOF 3
ENDMDL
