MODEL 1
REMARK minimizedAffinity 2.55291963
REMARK minimizedRMSD -1
REMARK  3 active torsions:
REMARK  status: ('A' for Active; 'I' for Inactive)
REMARK    1  A    between atoms: C3'_2  and  C2'_3 
REMARK    2  A    between atoms: C2'_3  and  C1'_4 
REMARK    3  A    between atoms: C1'_4  and  C1_5 
ROOT
ATOM      1  C1  N4B d   1      -1.696  -4.052  -3.850  0.00  0.00    -0.075 A 
ATOM      2  C2  N4B d   1      -0.289  -4.111  -3.753  0.00  0.00     0.002 A 
ATOM      3  C3  N4B d   1       0.302  -4.971  -2.860  0.00  0.00     0.002 A 
ATOM      4  C4  N4B d   1      -0.491  -5.766  -2.045  0.00  0.00    -0.004 A 
ATOM      5  C5  N4B d   1      -1.849  -5.721  -2.164  0.00  0.00     0.002 A 
ATOM      6  C6  N4B d   1      -2.456  -4.864  -3.059  0.00  0.00     0.002 A 
ENDROOT
BRANCH   1   7
ATOM      7  C1' N4B d   1      -2.389  -3.066  -4.750  0.00  0.00     0.057 C 
BRANCH   7   8
ATOM      8  C2' N4B d   1      -2.938  -3.800  -5.970  0.00  0.00     0.009 C 
BRANCH   8   9
ATOM      9  C3' N4B d   1      -4.457  -3.803  -5.996  0.00  0.00     0.004 C 
ATOM     10  C4' N4B d   1      -5.042  -2.424  -5.924  0.00  0.00     0.003 C 
ENDBRANCH   8   9
ENDBRANCH   7   8
ENDBRANCH   1   7
TORSDOF 3
ENDMDL
