MODEL 1
REMARK minimizedAffinity 12.5838366
REMARK minimizedRMSD -1
REMARK  3 active torsions:
REMARK  status: ('A' for Active; 'I' for Inactive)
REMARK    1  A    between atoms: C3'_2  and  C2'_3 
REMARK    2  A    between atoms: C2'_3  and  C1'_4 
REMARK    3  A    between atoms: C1'_4  and  C1_5 
ROOT
ATOM      1  C1  N4B d   1      -3.466   1.469   3.747  0.00  0.00    -0.075 A 
ATOM      2  C2  N4B d   1      -2.979   1.579   5.069  0.00  0.00     0.002 A 
ATOM      3  C3  N4B d   1      -3.678   2.308   5.999  0.00  0.00     0.002 A 
ATOM      4  C4  N4B d   1      -4.851   2.949   5.629  0.00  0.00    -0.004 A 
ATOM      5  C5  N4B d   1      -5.327   2.817   4.357  0.00  0.00     0.002 A 
ATOM      6  C6  N4B d   1      -4.637   2.084   3.412  0.00  0.00     0.002 A 
ENDROOT
BRANCH   1   7
ATOM      7  C1' N4B d   1      -2.692   0.755   2.673  0.00  0.00     0.057 C 
BRANCH   7   8
ATOM      8  C2' N4B d   1      -1.279   1.326   2.610  0.00  0.00     0.009 C 
BRANCH   8   9
ATOM      9  C3' N4B d   1      -0.223   0.257   2.832  0.00  0.00     0.004 C 
ATOM     10  C4' N4B d   1       0.778   0.639   3.882  0.00  0.00     0.003 C 
ENDBRANCH   8   9
ENDBRANCH   7   8
ENDBRANCH   1   7
TORSDOF 3
ENDMDL
