MODEL 1
REMARK minimizedAffinity 13.5741825
REMARK minimizedRMSD -1
REMARK  3 active torsions:
REMARK  status: ('A' for Active; 'I' for Inactive)
REMARK    1  A    between atoms: C3'_2  and  C2'_3 
REMARK    2  A    between atoms: C2'_3  and  C1'_4 
REMARK    3  A    between atoms: C1'_4  and  C1_5 
ROOT
ATOM      1  C1  N4B d   1      -1.829   0.822   2.983  0.00  0.00    -0.075 A 
ATOM      2  C2  N4B d   1      -2.749  -0.159   2.552  0.00  0.00     0.002 A 
ATOM      3  C3  N4B d   1      -4.064  -0.084   2.938  0.00  0.00     0.002 A 
ATOM      4  C4  N4B d   1      -4.478   0.949   3.766  0.00  0.00    -0.004 A 
ATOM      5  C5  N4B d   1      -3.589   1.907   4.158  0.00  0.00     0.002 A 
ATOM      6  C6  N4B d   1      -2.264   1.845   3.774  0.00  0.00     0.002 A 
ENDROOT
BRANCH   1   7
ATOM      7  C1' N4B d   1      -0.363   0.734   2.657  0.00  0.00     0.057 C 
BRANCH   7   8
ATOM      8  C2' N4B d   1       0.433   1.473   3.728  0.00  0.00     0.009 C 
BRANCH   8   9
ATOM      9  C3' N4B d   1       0.768   0.577   4.907  0.00  0.00     0.004 C 
ATOM     10  C4' N4B d   1       1.500   1.301   5.998  0.00  0.00     0.003 C 
ENDBRANCH   8   9
ENDBRANCH   7   8
ENDBRANCH   1   7
TORSDOF 3
ENDMDL
