MODEL 1
REMARK minimizedAffinity 5.9440403
REMARK minimizedRMSD -1
REMARK  3 active torsions:
REMARK  status: ('A' for Active; 'I' for Inactive)
REMARK    1  A    between atoms: C3'_2  and  C2'_3 
REMARK    2  A    between atoms: C2'_3  and  C1'_4 
REMARK    3  A    between atoms: C1'_4  and  C1_5 
ROOT
ATOM      1  C1  N4B d   1      -1.577  -4.212  -3.679  0.00  0.00    -0.075 A 
ATOM      2  C2  N4B d   1      -1.861  -3.145  -4.560  0.00  0.00     0.002 A 
ATOM      3  C3  N4B d   1      -3.084  -3.075  -5.181  0.00  0.00     0.002 A 
ATOM      4  C4  N4B d   1      -4.027  -4.065  -4.953  0.00  0.00    -0.004 A 
ATOM      5  C5  N4B d   1      -3.755  -5.079  -4.081  0.00  0.00     0.002 A 
ATOM      6  C6  N4B d   1      -2.531  -5.160  -3.447  0.00  0.00     0.002 A 
ENDROOT
BRANCH   1   7
ATOM      7  C1' N4B d   1      -0.224  -4.378  -3.044  0.00  0.00     0.057 C 
BRANCH   7   8
ATOM      8  C2' N4B d   1       0.728  -3.330  -3.612  0.00  0.00     0.009 C 
BRANCH   8   9
ATOM      9  C3' N4B d   1       1.520  -2.630  -2.521  0.00  0.00     0.004 C 
ATOM     10  C4' N4B d   1       1.993  -1.267  -2.930  0.00  0.00     0.003 C 
ENDBRANCH   8   9
ENDBRANCH   7   8
ENDBRANCH   1   7
TORSDOF 3
ENDMDL
