MODEL 1
REMARK minimizedAffinity -1.11469114
REMARK minimizedRMSD -1
REMARK  3 active torsions:
REMARK  status: ('A' for Active; 'I' for Inactive)
REMARK    1  A    between atoms: C3'_2  and  C2'_3 
REMARK    2  A    between atoms: C2'_3  and  C1'_4 
REMARK    3  A    between atoms: C1'_4  and  C1_5 
ROOT
ATOM      1  C1  N4B d   1       2.145  -2.227  -1.722  0.00  0.00    -0.075 A 
ATOM      2  C2  N4B d   1       2.232  -2.982  -2.912  0.00  0.00     0.002 A 
ATOM      3  C3  N4B d   1       2.569  -4.312  -2.858  0.00  0.00     0.002 A 
ATOM      4  C4  N4B d   1       2.842  -4.901  -1.633  0.00  0.00    -0.004 A 
ATOM      5  C5  N4B d   1       2.731  -4.171  -0.486  0.00  0.00     0.002 A 
ATOM      6  C6  N4B d   1       2.389  -2.835  -0.525  0.00  0.00     0.002 A 
ENDROOT
BRANCH   1   7
ATOM      7  C1' N4B d   1       1.863  -0.750  -1.738  0.00  0.00     0.057 C 
BRANCH   7   8
ATOM      8  C2' N4B d   1       2.473  -0.110  -0.494  0.00  0.00     0.009 C 
BRANCH   8   9
ATOM      9  C3' N4B d   1       3.536   0.917  -0.846  0.00  0.00     0.004 C 
ATOM     10  C4' N4B d   1       4.527   1.128   0.259  0.00  0.00     0.003 C 
ENDBRANCH   8   9
ENDBRANCH   7   8
ENDBRANCH   1   7
TORSDOF 3
ENDMDL
