MODEL 1
REMARK minimizedAffinity 20.1857548
REMARK minimizedRMSD -1
REMARK  3 active torsions:
REMARK  status: ('A' for Active; 'I' for Inactive)
REMARK    1  A    between atoms: C3'_2  and  C2'_3 
REMARK    2  A    between atoms: C2'_3  and  C1'_4 
REMARK    3  A    between atoms: C1'_4  and  C1_5 
ROOT
ATOM      1  C1  N4B d   1      -3.636   0.270   4.830  0.00  0.00    -0.075 A 
ATOM      2  C2  N4B d   1      -3.645   1.062   5.999  0.00  0.00     0.002 A 
ATOM      3  C3  N4B d   1      -4.141   2.342   5.958  0.00  0.00     0.002 A 
ATOM      4  C4  N4B d   1      -4.615   2.855   4.760  0.00  0.00    -0.004 A 
ATOM      5  C5  N4B d   1      -4.627   2.075   3.641  0.00  0.00     0.002 A 
ATOM      6  C6  N4B d   1      -4.134   0.785   3.669  0.00  0.00     0.002 A 
ENDROOT
BRANCH   1   7
ATOM      7  C1' N4B d   1      -3.025  -1.104   4.807  0.00  0.00     0.057 C 
BRANCH   7   8
ATOM      8  C2' N4B d   1      -4.092  -2.134   5.166  0.00  0.00     0.009 C 
BRANCH   8   9
ATOM      9  C3' N4B d   1      -3.780  -3.502   4.585  0.00  0.00     0.004 C 
ATOM     10  C4' N4B d   1      -3.622  -4.558   5.639  0.00  0.00     0.003 C 
ENDBRANCH   8   9
ENDBRANCH   7   8
ENDBRANCH   1   7
TORSDOF 3
ENDMDL
