MODEL 1
REMARK minimizedAffinity 10.4132757
REMARK minimizedRMSD -1
REMARK  3 active torsions:
REMARK  status: ('A' for Active; 'I' for Inactive)
REMARK    1  A    between atoms: C3'_2  and  C2'_3 
REMARK    2  A    between atoms: C2'_3  and  C1'_4 
REMARK    3  A    between atoms: C1'_4  and  C1_5 
ROOT
ATOM      1  C1  N4B d   1       2.632   2.602   0.760  0.00  0.00    -0.075 A 
ATOM      2  C2  N4B d   1       3.252   1.790  -0.214  0.00  0.00     0.002 A 
ATOM      3  C3  N4B d   1       3.229   2.164  -1.536  0.00  0.00     0.002 A 
ATOM      4  C4  N4B d   1       2.578   3.330  -1.907  0.00  0.00    -0.004 A 
ATOM      5  C5  N4B d   1       2.003   4.122  -0.957  0.00  0.00     0.002 A 
ATOM      6  C6  N4B d   1       2.022   3.761   0.375  0.00  0.00     0.002 A 
ENDROOT
BRANCH   1   7
ATOM      7  C1' N4B d   1       2.557   2.192   2.205  0.00  0.00     0.057 C 
BRANCH   7   8
ATOM      8  C2' N4B d   1       1.102   2.237   2.664  0.00  0.00     0.009 C 
BRANCH   8   9
ATOM      9  C3' N4B d   1       0.804   1.178   3.712  0.00  0.00     0.004 C 
ATOM     10  C4' N4B d   1       1.640   1.332   4.947  0.00  0.00     0.003 C 
ENDBRANCH   8   9
ENDBRANCH   7   8
ENDBRANCH   1   7
TORSDOF 3
ENDMDL
