MODEL 1
REMARK minimizedAffinity -4.73535347
REMARK minimizedRMSD -1
REMARK  0 active torsions:
REMARK  status: ('A' for Active; 'I' for Inactive)
ROOT
ATOM      1  C2' OXE d   1       1.050  -1.073  -1.829  0.00  0.00     0.078 C 
ATOM      2  C1' OXE d   1       2.264   0.955  -3.344  0.00  0.00     0.078 C 
ATOM      3  C1  OXE d   1       0.903   0.471  -3.778  0.00  0.00    -0.078 A 
ATOM      4  C2  OXE d   1       0.336  -0.553  -3.058  0.00  0.00    -0.078 A 
ATOM      5  C3  OXE d   1      -0.941  -0.999  -3.383  0.00  0.00     0.003 A 
ATOM      6  C4  OXE d   1      -1.590  -0.520  -4.528  0.00  0.00    -0.002 A 
ATOM      7  C5  OXE d   1      -1.014   0.496  -5.297  0.00  0.00    -0.002 A 
ATOM      8  C6  OXE d   1       0.211   1.031  -4.912  0.00  0.00     0.003 A 
ENDROOT
TORSDOF 0
ENDMDL
