MODEL 1
REMARK minimizedAffinity -4.1186552
REMARK minimizedRMSD -1
REMARK  0 active torsions:
REMARK  status: ('A' for Active; 'I' for Inactive)
ROOT
ATOM      1  C2' OXE d   1      -2.390   0.414   1.633  0.00  0.00     0.078 C 
ATOM      2  C1' OXE d   1      -0.453   1.522   3.336  0.00  0.00     0.078 C 
ATOM      3  C1  OXE d   1       0.027   0.714   2.156  0.00  0.00    -0.078 A 
ATOM      4  C2  OXE d   1      -0.928   0.137   1.355  0.00  0.00    -0.078 A 
ATOM      5  C3  OXE d   1      -0.540  -0.573   0.222  0.00  0.00     0.003 A 
ATOM      6  C4  OXE d   1       0.814  -0.833  -0.023  0.00  0.00    -0.002 A 
ATOM      7  C5  OXE d   1       1.802  -0.287   0.804  0.00  0.00    -0.002 A 
ATOM      8  C6  OXE d   1       1.428   0.522   1.870  0.00  0.00     0.003 A 
ENDROOT
TORSDOF 0
ENDMDL
