MODEL 1
REMARK minimizedAffinity -1.6165961
REMARK minimizedRMSD -1
REMARK  0 active torsions:
REMARK  status: ('A' for Active; 'I' for Inactive)
ROOT
ATOM      1  C2' OXE d   1       0.379  -0.911  -1.425  0.00  0.00     0.078 C 
ATOM      2  C1' OXE d   1       1.932  -1.205   0.895  0.00  0.00     0.078 C 
ATOM      3  C1  OXE d   1       0.543  -0.636   1.046  0.00  0.00    -0.078 A 
ATOM      4  C2  OXE d   1      -0.192  -0.452  -0.100  0.00  0.00    -0.078 A 
ATOM      5  C3  OXE d   1      -1.499   0.018  -0.013  0.00  0.00     0.003 A 
ATOM      6  C4  OXE d   1      -2.017   0.450   1.215  0.00  0.00    -0.002 A 
ATOM      7  C5  OXE d   1      -1.270   0.308   2.389  0.00  0.00    -0.002 A 
ATOM      8  C6  OXE d   1      -0.007  -0.271   2.328  0.00  0.00     0.003 A 
ENDROOT
TORSDOF 0
ENDMDL
