MODEL 1
REMARK minimizedAffinity -3.61267161
REMARK minimizedRMSD -1
REMARK  0 active torsions:
REMARK  status: ('A' for Active; 'I' for Inactive)
ROOT
ATOM      1  C2' OXE d   1       1.508  -1.405  -0.108  0.00  0.00     0.078 C 
ATOM      2  C1' OXE d   1       1.720  -0.713   2.605  0.00  0.00     0.078 C 
ATOM      3  C1  OXE d   1       0.448  -0.346   1.883  0.00  0.00    -0.078 A 
ATOM      4  C2  OXE d   1       0.371  -0.647   0.544  0.00  0.00    -0.078 A 
ATOM      5  C3  OXE d   1      -0.801  -0.379  -0.156  0.00  0.00     0.003 A 
ATOM      6  C4  OXE d   1      -1.844   0.331   0.451  0.00  0.00    -0.002 A 
ATOM      7  C5  OXE d   1      -1.770   0.682   1.804  0.00  0.00    -0.002 A 
ATOM      8  C6  OXE d   1      -0.651   0.314   2.543  0.00  0.00     0.003 A 
ENDROOT
TORSDOF 0
ENDMDL
