MODEL 1
REMARK minimizedAffinity -2.78880644
REMARK minimizedRMSD -1
REMARK  0 active torsions:
REMARK  status: ('A' for Active; 'I' for Inactive)
ROOT
ATOM      1  C2' OXE d   1      -1.807   0.017   1.664  0.00  0.00     0.078 C 
ATOM      2  C1' OXE d   1      -0.343   2.406   1.851  0.00  0.00     0.078 C 
ATOM      3  C1  OXE d   1       0.427   1.121   1.675  0.00  0.00    -0.078 A 
ATOM      4  C2  OXE d   1      -0.295  -0.048   1.632  0.00  0.00    -0.078 A 
ATOM      5  C3  OXE d   1       0.362  -1.256   1.416  0.00  0.00     0.003 A 
ATOM      6  C4  OXE d   1       1.761  -1.309   1.397  0.00  0.00    -0.002 A 
ATOM      7  C5  OXE d   1       2.517  -0.134   1.480  0.00  0.00    -0.002 A 
ATOM      8  C6  OXE d   1       1.865   1.090   1.576  0.00  0.00     0.003 A 
ENDROOT
TORSDOF 0
ENDMDL
