MODEL 1
REMARK minimizedAffinity 1.95600581
REMARK minimizedRMSD -1
REMARK  0 active torsions:
REMARK  status: ('A' for Active; 'I' for Inactive)
ROOT
ATOM      1  C2' OXE d   1      -0.024   1.496   4.796  0.00  0.00     0.078 C 
ATOM      2  C1' OXE d   1       0.420  -1.242   4.364  0.00  0.00     0.078 C 
ATOM      3  C1  OXE d   1       0.274  -0.354   3.154  0.00  0.00    -0.078 A 
ATOM      4  C2  OXE d   1       0.010   0.977   3.374  0.00  0.00    -0.078 A 
ATOM      5  C3  OXE d   1      -0.079   1.850   2.294  0.00  0.00     0.003 A 
ATOM      6  C4  OXE d   1      -0.056   1.360   0.983  0.00  0.00    -0.002 A 
ATOM      7  C5  OXE d   1       0.171   0.002   0.736  0.00  0.00    -0.002 A 
ATOM      8  C6  OXE d   1       0.380  -0.859   1.807  0.00  0.00     0.003 A 
ENDROOT
TORSDOF 0
ENDMDL
