MODEL 1
REMARK minimizedAffinity -3.07156181
REMARK minimizedRMSD -1
REMARK  0 active torsions:
REMARK  status: ('A' for Active; 'I' for Inactive)
ROOT
ATOM      1  C2' OXE d   1      -0.136   0.339   5.055  0.00  0.00     0.078 C 
ATOM      2  C1' OXE d   1      -2.514  -0.294   3.704  0.00  0.00     0.078 C 
ATOM      3  C1  OXE d   1      -1.252  -0.169   2.887  0.00  0.00    -0.078 A 
ATOM      4  C2  OXE d   1      -0.102   0.187   3.550  0.00  0.00    -0.078 A 
ATOM      5  C3  OXE d   1       1.100   0.262   2.853  0.00  0.00     0.003 A 
ATOM      6  C4  OXE d   1       1.121   0.129   1.459  0.00  0.00    -0.002 A 
ATOM      7  C5  OXE d   1      -0.046  -0.194   0.759  0.00  0.00    -0.002 A 
ATOM      8  C6  OXE d   1      -1.230  -0.388   1.462  0.00  0.00     0.003 A 
ENDROOT
TORSDOF 0
ENDMDL
