MODEL 1
REMARK minimizedAffinity 18.7891464
REMARK minimizedRMSD -1
REMARK  0 active torsions:
REMARK  status: ('A' for Active; 'I' for Inactive)
ROOT
ATOM      1  C   UNL d   1      -2.686   0.472  -5.293  0.00  0.00     0.023 A 
ATOM      2  C1  UNL d   1      -2.412   1.774  -5.712  0.00  0.00     0.003 A 
ATOM      3  C2  UNL d   1      -3.173   2.839  -5.225  0.00  0.00     0.048 A 
ATOM      4  C3  UNL d   1      -4.205   2.595  -4.320  0.00  0.00     0.023 A 
ATOM      5  C4  UNL d   1      -4.482   1.294  -3.898  0.00  0.00     0.048 A 
ATOM      6  C5  UNL d   1      -3.719   0.232  -4.388  0.00  0.00     0.003 A 
ATOM      7  I   UNL d   1      -5.338   4.179  -3.594  0.00  0.00    -0.146 I 
ENDROOT
TORSDOF 0
ENDMDL
