MODEL 1
REMARK minimizedAffinity 4.1982522
REMARK minimizedRMSD -1
REMARK  0 active torsions:
REMARK  status: ('A' for Active; 'I' for Inactive)
ROOT
ATOM      1  C   UNL d   1       3.539  -3.001  -2.126  0.00  0.00     0.023 A 
ATOM      2  C1  UNL d   1       4.130  -1.997  -2.892  0.00  0.00     0.003 A 
ATOM      3  C2  UNL d   1       4.375  -0.742  -2.331  0.00  0.00     0.048 A 
ATOM      4  C3  UNL d   1       4.027  -0.498  -1.003  0.00  0.00     0.023 A 
ATOM      5  C4  UNL d   1       3.437  -1.501  -0.232  0.00  0.00     0.048 A 
ATOM      6  C5  UNL d   1       3.193  -2.754  -0.797  0.00  0.00     0.003 A 
ATOM      7  I   UNL d   1       4.391   1.369  -0.166  0.00  0.00    -0.146 I 
ENDROOT
TORSDOF 0
ENDMDL
