MODEL 1
REMARK minimizedAffinity 11.1927567
REMARK minimizedRMSD -1
REMARK  0 active torsions:
REMARK  status: ('A' for Active; 'I' for Inactive)
ROOT
ATOM      1  C   UNL d   1       1.999  -3.721  -1.527  0.00  0.00     0.023 A 
ATOM      2  C1  UNL d   1       0.891  -4.375  -0.987  0.00  0.00     0.003 A 
ATOM      3  C2  UNL d   1       0.540  -4.170   0.349  0.00  0.00     0.048 A 
ATOM      4  C3  UNL d   1       1.301  -3.309   1.139  0.00  0.00     0.023 A 
ATOM      5  C4  UNL d   1       2.410  -2.652   0.603  0.00  0.00     0.048 A 
ATOM      6  C5  UNL d   1       2.758  -2.861  -0.732  0.00  0.00     0.003 A 
ATOM      7  I   UNL d   1       0.781  -3.002   3.128  0.00  0.00    -0.146 I 
ENDROOT
TORSDOF 0
ENDMDL
