MODEL 1
REMARK minimizedAffinity 8.17080402
REMARK minimizedRMSD -1
REMARK  0 active torsions:
REMARK  status: ('A' for Active; 'I' for Inactive)
ROOT
ATOM      1  C   UNL d   1       4.550  -1.146  -0.190  0.00  0.00     0.023 A 
ATOM      2  C1  UNL d   1       3.503  -0.425  -0.763  0.00  0.00     0.003 A 
ATOM      3  C2  UNL d   1       3.700   0.899  -1.160  0.00  0.00     0.048 A 
ATOM      4  C3  UNL d   1       4.948   1.495  -0.983  0.00  0.00     0.023 A 
ATOM      5  C4  UNL d   1       6.000   0.777  -0.411  0.00  0.00     0.048 A 
ATOM      6  C5  UNL d   1       5.797  -0.546  -0.015  0.00  0.00     0.003 A 
ATOM      7  I   UNL d   1       5.244   3.466  -1.574  0.00  0.00    -0.146 I 
ENDROOT
TORSDOF 0
ENDMDL
