MODEL 1
REMARK minimizedAffinity -1.61526263
REMARK minimizedRMSD -1
REMARK  0 active torsions:
REMARK  status: ('A' for Active; 'I' for Inactive)
ROOT
ATOM      1  C   UNL d   1       5.973   4.182   0.882  0.00  0.00     0.023 A 
ATOM      2  C1  UNL d   1       5.919   5.549   1.156  0.00  0.00     0.003 A 
ATOM      3  C2  UNL d   1       5.854   5.996   2.478  0.00  0.00     0.048 A 
ATOM      4  C3  UNL d   1       5.845   5.070   3.521  0.00  0.00     0.023 A 
ATOM      5  C4  UNL d   1       5.900   3.702   3.251  0.00  0.00     0.048 A 
ATOM      6  C5  UNL d   1       5.964   3.260   1.929  0.00  0.00     0.003 A 
ATOM      7  I   UNL d   1       5.750   5.733   5.488  0.00  0.00    -0.146 I 
ENDROOT
TORSDOF 0
ENDMDL
