MODEL 1
REMARK minimizedAffinity 14.9272623
REMARK minimizedRMSD -1
REMARK  0 active torsions:
REMARK  status: ('A' for Active; 'I' for Inactive)
ROOT
ATOM      1  C   UNL d   1       4.115   0.742  -0.359  0.00  0.00     0.023 A 
ATOM      2  C1  UNL d   1       3.345  -0.282   0.192  0.00  0.00     0.003 A 
ATOM      3  C2  UNL d   1       2.847  -1.300  -0.624  0.00  0.00     0.048 A 
ATOM      4  C3  UNL d   1       3.123  -1.288  -1.991  0.00  0.00     0.023 A 
ATOM      5  C4  UNL d   1       3.894  -0.265  -2.547  0.00  0.00     0.048 A 
ATOM      6  C5  UNL d   1       4.389   0.751  -1.727  0.00  0.00     0.003 A 
ATOM      7  I   UNL d   1       2.384  -2.802  -3.208  0.00  0.00    -0.146 I 
ENDROOT
TORSDOF 0
ENDMDL
