MODEL 1
REMARK minimizedAffinity 0.543414593
REMARK minimizedRMSD -1
REMARK  1 active torsions:
REMARK  status: ('A' for Active; 'I' for Inactive)
REMARK    1  A    between atoms: C3_4  and  O_7 
ROOT
ATOM      1  C   UNL d   1      -2.691  -0.559  -1.499  0.00  0.00    -0.033 A 
ATOM      2  C1  UNL d   1      -1.516  -1.161  -1.956  0.00  0.00     0.039 A 
ATOM      3  C2  UNL d   1      -0.278  -0.734  -1.473  0.00  0.00    -0.080 A 
ATOM      4  C3  UNL d   1      -0.228   0.292  -0.534  0.00  0.00     0.150 A 
ATOM      5  C4  UNL d   1      -1.394   0.893  -0.071  0.00  0.00    -0.007 A 
ATOM      6  C5  UNL d   1      -2.630   0.467  -0.556  0.00  0.00     0.039 A 
ENDROOT
BRANCH   4   7
ATOM      7  O   UNL d   1       0.958   0.746  -0.037  0.00  0.00    -0.526 OA
ATOM      8  H5  UNL d   1       1.679   0.258  -0.468  0.00  0.00     0.418 HD
ENDBRANCH   4   7
TORSDOF 1
ENDMDL
