MODEL 1
REMARK minimizedAffinity -2.78057551
REMARK minimizedRMSD -1
REMARK  1 active torsions:
REMARK  status: ('A' for Active; 'I' for Inactive)
REMARK    1  A    between atoms: C3_4  and  O_7 
ROOT
ATOM      1  C   UNL d   1      -0.836   0.629   0.474  0.00  0.00    -0.033 A 
ATOM      2  C1  UNL d   1      -1.695   0.208  -0.543  0.00  0.00     0.039 A 
ATOM      3  C2  UNL d   1      -1.183  -0.441  -1.668  0.00  0.00    -0.080 A 
ATOM      4  C3  UNL d   1       0.188  -0.663  -1.764  0.00  0.00     0.150 A 
ATOM      5  C4  UNL d   1       1.050  -0.250  -0.753  0.00  0.00    -0.007 A 
ATOM      6  C5  UNL d   1       0.536   0.399   0.370  0.00  0.00     0.039 A 
ENDROOT
BRANCH   4   7
ATOM      7  O   UNL d   1       0.735  -1.289  -2.845  0.00  0.00    -0.526 OA
ATOM      8  H5  UNL d   1       0.024  -1.491  -3.475  0.00  0.00     0.418 HD
ENDBRANCH   4   7
TORSDOF 1
ENDMDL
