MODEL 1
REMARK minimizedAffinity -5.11031532
REMARK minimizedRMSD -1
REMARK  1 active torsions:
REMARK  status: ('A' for Active; 'I' for Inactive)
REMARK    1  A    between atoms: C3_4  and  O_7 
ROOT
ATOM      1  C   UNL d   1      -1.286   0.684  -1.729  0.00  0.00    -0.033 A 
ATOM      2  C1  UNL d   1      -0.063   0.549  -1.071  0.00  0.00     0.039 A 
ATOM      3  C2  UNL d   1      -0.008  -0.047   0.191  0.00  0.00    -0.080 A 
ATOM      4  C3  UNL d   1      -1.183  -0.505   0.781  0.00  0.00     0.150 A 
ATOM      5  C4  UNL d   1      -2.405  -0.377   0.129  0.00  0.00    -0.007 A 
ATOM      6  C5  UNL d   1      -2.458   0.220  -1.130  0.00  0.00     0.039 A 
ENDROOT
BRANCH   4   7
ATOM      7  O   UNL d   1      -1.181  -1.090   2.012  0.00  0.00    -0.526 OA
ATOM      8  H5  UNL d   1      -0.271  -1.084   2.354  0.00  0.00     0.418 HD
ENDBRANCH   4   7
TORSDOF 1
ENDMDL
