MODEL 1
REMARK minimizedAffinity -5.68538857
REMARK minimizedRMSD -1
REMARK  1 active torsions:
REMARK  status: ('A' for Active; 'I' for Inactive)
REMARK    1  A    between atoms: C3_4  and  O_7 
ROOT
ATOM      1  C   UNL d   1      -2.386   0.095   0.470  0.00  0.00    -0.033 A 
ATOM      2  C1  UNL d   1      -1.035  -0.239   0.349  0.00  0.00     0.039 A 
ATOM      3  C2  UNL d   1      -0.241  -0.368   1.490  0.00  0.00    -0.080 A 
ATOM      4  C3  UNL d   1      -0.808  -0.161   2.744  0.00  0.00     0.150 A 
ATOM      5  C4  UNL d   1      -2.154   0.169   2.872  0.00  0.00    -0.007 A 
ATOM      6  C5  UNL d   1      -2.945   0.298   1.732  0.00  0.00     0.039 A 
ENDROOT
BRANCH   4   7
ATOM      7  O   UNL d   1      -0.072  -0.271   3.886  0.00  0.00    -0.526 OA
ATOM      8  H5  UNL d   1       0.846  -0.475   3.641  0.00  0.00     0.418 HD
ENDBRANCH   4   7
TORSDOF 1
ENDMDL
