MODEL 1
REMARK minimizedAffinity -5.41285849
REMARK minimizedRMSD -1
REMARK  1 active torsions:
REMARK  status: ('A' for Active; 'I' for Inactive)
REMARK    1  A    between atoms: C3_4  and  O_7 
ROOT
ATOM      1  C   UNL d   1      -2.207   0.244  -0.221  0.00  0.00    -0.033 A 
ATOM      2  C1  UNL d   1      -3.019   0.246   0.914  0.00  0.00     0.039 A 
ATOM      3  C2  UNL d   1      -2.474  -0.049   2.165  0.00  0.00    -0.080 A 
ATOM      4  C3  UNL d   1      -1.117  -0.342   2.267  0.00  0.00     0.150 A 
ATOM      5  C4  UNL d   1      -0.301  -0.342   1.141  0.00  0.00    -0.007 A 
ATOM      6  C5  UNL d   1      -0.847  -0.048  -0.108  0.00  0.00     0.039 A 
ENDROOT
BRANCH   4   7
ATOM      7  O   UNL d   1      -0.541  -0.641   3.466  0.00  0.00    -0.526 OA
ATOM      8  H5  UNL d   1      -1.231  -0.631   4.150  0.00  0.00     0.418 HD
ENDBRANCH   4   7
TORSDOF 1
ENDMDL
