MODEL 1
REMARK minimizedAffinity -3.41795611
REMARK minimizedRMSD -1
REMARK  1 active torsions:
REMARK  status: ('A' for Active; 'I' for Inactive)
REMARK    1  A    between atoms: C3_4  and  O_7 
ROOT
ATOM      1  C   UNL d   1       0.566  -1.127  -3.010  0.00  0.00    -0.033 A 
ATOM      2  C1  UNL d   1       0.935  -0.090  -2.151  0.00  0.00     0.039 A 
ATOM      3  C2  UNL d   1      -0.018   0.501  -1.318  0.00  0.00    -0.080 A 
ATOM      4  C3  UNL d   1      -1.333   0.046  -1.354  0.00  0.00     0.150 A 
ATOM      5  C4  UNL d   1      -1.706  -0.989  -2.204  0.00  0.00    -0.007 A 
ATOM      6  C5  UNL d   1      -0.754  -1.578  -3.036  0.00  0.00     0.039 A 
ENDROOT
BRANCH   4   7
ATOM      7  O   UNL d   1      -2.299   0.595  -0.563  0.00  0.00    -0.526 OA
ATOM      8  H5  UNL d   1      -1.901   1.318  -0.050  0.00  0.00     0.418 HD
ENDBRANCH   4   7
TORSDOF 1
ENDMDL
