MODEL 1
REMARK minimizedAffinity -5.10025787
REMARK minimizedRMSD -1
REMARK  1 active torsions:
REMARK  status: ('A' for Active; 'I' for Inactive)
REMARK    1  A    between atoms: C3_4  and  O_7 
ROOT
ATOM      1  C   UNL d   1      -1.371  -0.335   2.602  0.00  0.00    -0.033 A 
ATOM      2  C1  UNL d   1       0.025  -0.354   2.645  0.00  0.00     0.039 A 
ATOM      3  C2  UNL d   1       0.762  -0.319   1.460  0.00  0.00    -0.080 A 
ATOM      4  C3  UNL d   1       0.093  -0.263   0.240  0.00  0.00     0.150 A 
ATOM      5  C4  UNL d   1      -1.297  -0.240   0.190  0.00  0.00    -0.007 A 
ATOM      6  C5  UNL d   1      -2.031  -0.276   1.375  0.00  0.00     0.039 A 
ENDROOT
BRANCH   4   7
ATOM      7  O   UNL d   1       0.769  -0.232  -0.943  0.00  0.00    -0.526 OA
ATOM      8  H5  UNL d   1       1.721  -0.283  -0.755  0.00  0.00     0.418 HD
ENDBRANCH   4   7
TORSDOF 1
ENDMDL
