MODEL 1
REMARK minimizedAffinity -5.66576147
REMARK minimizedRMSD -1
REMARK  1 active torsions:
REMARK  status: ('A' for Active; 'I' for Inactive)
REMARK    1  A    between atoms: C3_4  and  O_7 
ROOT
ATOM      1  C   UNL d   1      -2.106  -0.517   3.340  0.00  0.00    -0.033 A 
ATOM      2  C1  UNL d   1      -3.074  -0.090   2.430  0.00  0.00     0.039 A 
ATOM      3  C2  UNL d   1      -2.736   0.110   1.090  0.00  0.00    -0.080 A 
ATOM      4  C3  UNL d   1      -1.427  -0.123   0.674  0.00  0.00     0.150 A 
ATOM      5  C4  UNL d   1      -0.459  -0.552   1.575  0.00  0.00    -0.007 A 
ATOM      6  C5  UNL d   1      -0.798  -0.750   2.913  0.00  0.00     0.039 A 
ENDROOT
BRANCH   4   7
ATOM      7  O   UNL d   1      -1.049   0.063  -0.622  0.00  0.00    -0.526 OA
ATOM      8  H5  UNL d   1      -1.815   0.388  -1.123  0.00  0.00     0.418 HD
ENDBRANCH   4   7
TORSDOF 1
ENDMDL
