MODEL 1
REMARK minimizedAffinity -2.88763976
REMARK minimizedRMSD -1
REMARK  1 active torsions:
REMARK  status: ('A' for Active; 'I' for Inactive)
REMARK    1  A    between atoms: C3_4  and  O_7 
ROOT
ATOM      1  C   UNL d   1       0.920  -0.994  -2.947  0.00  0.00    -0.033 A 
ATOM      2  C1  UNL d   1       0.958   0.032  -2.000  0.00  0.00     0.039 A 
ATOM      3  C2  UNL d   1      -0.211   0.421  -1.343  0.00  0.00    -0.080 A 
ATOM      4  C3  UNL d   1      -1.409  -0.222  -1.642  0.00  0.00     0.150 A 
ATOM      5  C4  UNL d   1      -1.453  -1.247  -2.581  0.00  0.00    -0.007 A 
ATOM      6  C5  UNL d   1      -0.285  -1.634  -3.236  0.00  0.00     0.039 A 
ENDROOT
BRANCH   4   7
ATOM      7  O   UNL d   1      -2.577   0.127  -1.030  0.00  0.00    -0.526 OA
ATOM      8  H5  UNL d   1      -2.399   0.868  -0.427  0.00  0.00     0.418 HD
ENDBRANCH   4   7
TORSDOF 1
ENDMDL
