MODEL 1
REMARK minimizedAffinity -4.03952312
REMARK minimizedRMSD -1
REMARK  1 active torsions:
REMARK  status: ('A' for Active; 'I' for Inactive)
REMARK    1  A    between atoms: C3_4  and  O_7 
ROOT
ATOM      1  C   UNL d   1       0.953  -1.024  -3.166  0.00  0.00    -0.033 A 
ATOM      2  C1  UNL d   1      -0.173  -1.837  -3.025  0.00  0.00     0.039 A 
ATOM      3  C2  UNL d   1      -1.210  -1.455  -2.173  0.00  0.00    -0.080 A 
ATOM      4  C3  UNL d   1      -1.110  -0.258  -1.469  0.00  0.00     0.150 A 
ATOM      5  C4  UNL d   1       0.007   0.559  -1.608  0.00  0.00    -0.007 A 
ATOM      6  C5  UNL d   1       1.042   0.175  -2.458  0.00  0.00     0.039 A 
ENDROOT
BRANCH   4   7
ATOM      7  O   UNL d   1      -2.095   0.155  -0.622  0.00  0.00    -0.526 OA
ATOM      8  H5  UNL d   1      -2.791  -0.524  -0.605  0.00  0.00     0.418 HD
ENDBRANCH   4   7
TORSDOF 1
ENDMDL
