MODEL 1
REMARK minimizedAffinity -3.12106824
REMARK minimizedRMSD -1
REMARK  1 active torsions:
REMARK  status: ('A' for Active; 'I' for Inactive)
REMARK    1  A    between atoms: C3_4  and  O_7 
ROOT
ATOM      1  C   UNL d   1      -1.265   0.527  -0.331  0.00  0.00    -0.033 A 
ATOM      2  C1  UNL d   1      -1.829  -0.439  -1.167  0.00  0.00     0.039 A 
ATOM      3  C2  UNL d   1      -1.035  -1.106  -2.101  0.00  0.00    -0.080 A 
ATOM      4  C3  UNL d   1       0.321  -0.800  -2.188  0.00  0.00     0.150 A 
ATOM      5  C4  UNL d   1       0.890   0.158  -1.355  0.00  0.00    -0.007 A 
ATOM      6  C5  UNL d   1       0.095   0.824  -0.424  0.00  0.00     0.039 A 
ENDROOT
BRANCH   4   7
ATOM      7  O   UNL d   1       1.135  -1.421  -3.087  0.00  0.00    -0.526 OA
ATOM      8  H5  UNL d   1       0.599  -2.037  -3.614  0.00  0.00     0.418 HD
ENDBRANCH   4   7
TORSDOF 1
ENDMDL
