MODEL 1
REMARK minimizedAffinity -2.6082108
REMARK minimizedRMSD -1
REMARK  1 active torsions:
REMARK  status: ('A' for Active; 'I' for Inactive)
REMARK    1  A    between atoms: C3_4  and  O_7 
ROOT
ATOM      1  C   UNL d   1      -0.571   0.332  -0.988  0.00  0.00    -0.033 A 
ATOM      2  C1  UNL d   1      -1.418   0.240   0.118  0.00  0.00     0.039 A 
ATOM      3  C2  UNL d   1      -0.882   0.148   1.404  0.00  0.00    -0.080 A 
ATOM      4  C3  UNL d   1       0.501   0.150   1.570  0.00  0.00     0.150 A 
ATOM      5  C4  UNL d   1       1.350   0.245   0.472  0.00  0.00    -0.007 A 
ATOM      6  C5  UNL d   1       0.813   0.336  -0.811  0.00  0.00     0.039 A 
ENDROOT
BRANCH   4   7
ATOM      7  O   UNL d   1       1.070   0.057   2.805  0.00  0.00    -0.526 OA
ATOM      8  H5  UNL d   1       0.362  -0.032   3.464  0.00  0.00     0.418 HD
ENDBRANCH   4   7
TORSDOF 1
ENDMDL
