MODEL 1
REMARK minimizedAffinity -4.06720209
REMARK minimizedRMSD -1
REMARK  1 active torsions:
REMARK  status: ('A' for Active; 'I' for Inactive)
REMARK    1  A    between atoms: C3_4  and  O_7 
ROOT
ATOM      1  C   UNL d   1       1.130   0.072   1.136  0.00  0.00    -0.033 A 
ATOM      2  C1  UNL d   1       1.097   1.137   0.233  0.00  0.00     0.039 A 
ATOM      3  C2  UNL d   1       0.502   0.975  -1.019  0.00  0.00    -0.080 A 
ATOM      4  C3  UNL d   1      -0.057  -0.255  -1.356  0.00  0.00     0.150 A 
ATOM      5  C4  UNL d   1      -0.032  -1.319  -0.461  0.00  0.00    -0.007 A 
ATOM      6  C5  UNL d   1       0.564  -1.155   0.789  0.00  0.00     0.039 A 
ENDROOT
BRANCH   4   7
ATOM      7  O   UNL d   1      -0.645  -0.462  -2.569  0.00  0.00    -0.526 OA
ATOM      8  H5  UNL d   1      -0.563   0.352  -3.094  0.00  0.00     0.418 HD
ENDBRANCH   4   7
TORSDOF 1
ENDMDL
