MODEL 1
REMARK minimizedAffinity -5.40887594
REMARK minimizedRMSD -1
REMARK  1 active torsions:
REMARK  status: ('A' for Active; 'I' for Inactive)
REMARK    1  A    between atoms: C3_4  and  O_7 
ROOT
ATOM      1  C   UNL d   1      -0.701  -0.277  -0.806  0.00  0.00    -0.033 A 
ATOM      2  C1  UNL d   1       0.380   0.212  -0.070  0.00  0.00     0.039 A 
ATOM      3  C2  UNL d   1       0.480  -0.068   1.294  0.00  0.00    -0.080 A 
ATOM      4  C3  UNL d   1      -0.504  -0.837   1.909  0.00  0.00     0.150 A 
ATOM      5  C4  UNL d   1      -1.581  -1.330   1.180  0.00  0.00    -0.007 A 
ATOM      6  C5  UNL d   1      -1.681  -1.049  -0.182  0.00  0.00     0.039 A 
ENDROOT
BRANCH   4   7
ATOM      7  O   UNL d   1      -0.451  -1.133   3.239  0.00  0.00    -0.526 OA
ATOM      8  H5  UNL d   1       0.332  -0.702   3.619  0.00  0.00     0.418 HD
ENDBRANCH   4   7
TORSDOF 1
ENDMDL
