MODEL 1
REMARK minimizedAffinity -4.10793591
REMARK minimizedRMSD -1
REMARK  1 active torsions:
REMARK  status: ('A' for Active; 'I' for Inactive)
REMARK    1  A    between atoms: C3_4  and  O_7 
ROOT
ATOM      1  C   UNL d   1       0.859   0.076   2.950  0.00  0.00    -0.033 A 
ATOM      2  C1  UNL d   1      -0.529   0.167   3.069  0.00  0.00     0.039 A 
ATOM      3  C2  UNL d   1      -1.333   0.136   1.927  0.00  0.00    -0.080 A 
ATOM      4  C3  UNL d   1      -0.736   0.013   0.675  0.00  0.00     0.150 A 
ATOM      5  C4  UNL d   1       0.646  -0.081   0.550  0.00  0.00    -0.007 A 
ATOM      6  C5  UNL d   1       1.446  -0.049   1.691  0.00  0.00     0.039 A 
ENDROOT
BRANCH   4   7
ATOM      7  O   UNL d   1      -1.479  -0.017  -0.468  0.00  0.00    -0.526 OA
ATOM      8  H5  UNL d   1      -2.415   0.087  -0.229  0.00  0.00     0.418 HD
ENDBRANCH   4   7
TORSDOF 1
ENDMDL
