MODEL 1
REMARK minimizedAffinity 5.64444828
REMARK minimizedRMSD -1
REMARK  0 active torsions:
REMARK  status: ('A' for Active; 'I' for Inactive)
ROOT
ATOM      1  C   UNL d   1      -1.458   1.124  -1.210  0.00  0.00    -0.002 A 
ATOM      2  C1  UNL d   1      -1.336  -0.258  -1.185  0.00  0.00     0.010 A 
ATOM      3  C2  UNL d   1      -0.339  -0.869  -0.421  0.00  0.00     0.041 A 
ATOM      4  C3  UNL d   1       0.539  -0.059   0.326  0.00  0.00    -0.075 A 
ATOM      5  S   UNL d   1       1.834  -0.586   1.335  0.00  0.00     0.015 SA
ATOM      6  C4  UNL d   1       2.254   1.011   1.758  0.00  0.00     0.022 A 
ATOM      7  C5  UNL d   1       1.436   1.936   1.152  0.00  0.00     0.026 A 
ATOM      8  C6  UNL d   1       0.434   1.334   0.318  0.00  0.00    -0.082 A 
ATOM      9  C7  UNL d   1      -0.586   1.923  -0.467  0.00  0.00     0.045 A 
ENDROOT
TORSDOF 0
ENDMDL
