MODEL 1
REMARK minimizedAffinity 6.82020378
REMARK minimizedRMSD -1
REMARK  0 active torsions:
REMARK  status: ('A' for Active; 'I' for Inactive)
ROOT
ATOM      1  C   UNL d   1      -5.063   4.490  -4.766  0.00  0.00    -0.002 A 
ATOM      2  C1  UNL d   1      -5.990   4.638  -3.744  0.00  0.00     0.010 A 
ATOM      3  C2  UNL d   1      -6.000   3.758  -2.660  0.00  0.00     0.041 A 
ATOM      4  C3  UNL d   1      -5.051   2.717  -2.619  0.00  0.00    -0.075 A 
ATOM      5  S   UNL d   1      -4.873   1.520  -1.391  0.00  0.00     0.015 SA
ATOM      6  C4  UNL d   1      -3.562   0.785  -2.193  0.00  0.00     0.022 A 
ATOM      7  C5  UNL d   1      -3.254   1.423  -3.371  0.00  0.00     0.026 A 
ATOM      8  C6  UNL d   1      -4.107   2.548  -3.636  0.00  0.00    -0.082 A 
ATOM      9  C7  UNL d   1      -4.124   3.456  -4.721  0.00  0.00     0.045 A 
ENDROOT
TORSDOF 0
ENDMDL
