MODEL 1
REMARK minimizedAffinity 4.07812071
REMARK minimizedRMSD -1
REMARK  0 active torsions:
REMARK  status: ('A' for Active; 'I' for Inactive)
ROOT
ATOM      1  C   UNL d   1      -4.867   1.016   1.267  0.00  0.00    -0.002 A 
ATOM      2  C1  UNL d   1      -5.016   0.314   0.079  0.00  0.00     0.010 A 
ATOM      3  C2  UNL d   1      -3.966   0.239  -0.838  0.00  0.00     0.041 A 
ATOM      4  C3  UNL d   1      -2.751   0.886  -0.538  0.00  0.00    -0.075 A 
ATOM      5  S   UNL d   1      -1.328   0.929  -1.510  0.00  0.00     0.015 SA
ATOM      6  C4  UNL d   1      -0.489   1.880  -0.372  0.00  0.00     0.022 A 
ATOM      7  C5  UNL d   1      -1.260   2.167   0.729  0.00  0.00     0.026 A 
ATOM      8  C6  UNL d   1      -2.577   1.599   0.652  0.00  0.00    -0.082 A 
ATOM      9  C7  UNL d   1      -3.661   1.657   1.561  0.00  0.00     0.045 A 
ENDROOT
TORSDOF 0
ENDMDL
