MODEL 1
REMARK minimizedAffinity 8.53031158
REMARK minimizedRMSD -1
REMARK  0 active torsions:
REMARK  status: ('A' for Active; 'I' for Inactive)
ROOT
ATOM      1  C   UNL d   1       2.456  -1.880  -0.020  0.00  0.00    -0.002 A 
ATOM      2  C1  UNL d   1       1.302  -1.918  -0.790  0.00  0.00     0.010 A 
ATOM      3  C2  UNL d   1       0.574  -0.752  -1.036  0.00  0.00     0.041 A 
ATOM      4  C3  UNL d   1       1.032   0.465  -0.492  0.00  0.00    -0.075 A 
ATOM      5  S   UNL d   1       0.304   2.018  -0.663  0.00  0.00     0.015 SA
ATOM      6  C4  UNL d   1       1.508   2.768   0.282  0.00  0.00     0.022 A 
ATOM      7  C5  UNL d   1       2.450   1.870   0.724  0.00  0.00     0.026 A 
ATOM      8  C6  UNL d   1       2.192   0.528   0.285  0.00  0.00    -0.082 A 
ATOM      9  C7  UNL d   1       2.907  -0.672   0.518  0.00  0.00     0.045 A 
ENDROOT
TORSDOF 0
ENDMDL
