MODEL 1
REMARK minimizedAffinity 5.86822319
REMARK minimizedRMSD -1
REMARK  0 active torsions:
REMARK  status: ('A' for Active; 'I' for Inactive)
ROOT
ATOM      1  C   UNL d   1      -4.864  -0.089  -1.871  0.00  0.00    -0.002 A 
ATOM      2  C1  UNL d   1      -5.937   0.790  -1.852  0.00  0.00     0.010 A 
ATOM      3  C2  UNL d   1      -5.997   1.858  -2.750  0.00  0.00     0.041 A 
ATOM      4  C3  UNL d   1      -4.950   2.027  -3.678  0.00  0.00    -0.075 A 
ATOM      5  S   UNL d   1      -4.810   3.262  -4.873  0.00  0.00     0.015 SA
ATOM      6  C4  UNL d   1      -3.322   2.651  -5.437  0.00  0.00     0.022 A 
ATOM      7  C5  UNL d   1      -2.927   1.532  -4.742  0.00  0.00     0.026 A 
ATOM      8  C6  UNL d   1      -3.859   1.154  -3.717  0.00  0.00    -0.082 A 
ATOM      9  C7  UNL d   1      -3.827   0.082  -2.792  0.00  0.00     0.045 A 
ENDROOT
TORSDOF 0
ENDMDL
