MODEL 1
REMARK minimizedAffinity 7.0810442
REMARK minimizedRMSD -1
REMARK  0 active torsions:
REMARK  status: ('A' for Active; 'I' for Inactive)
ROOT
ATOM      1  C   UNL d   1      -0.287   1.468  -1.436  0.00  0.00    -0.002 A 
ATOM      2  C1  UNL d   1      -0.316   0.270  -2.137  0.00  0.00     0.010 A 
ATOM      3  C2  UNL d   1       0.625  -0.728  -1.877  0.00  0.00     0.041 A 
ATOM      4  C3  UNL d   1       1.604  -0.501  -0.890  0.00  0.00    -0.075 A 
ATOM      5  S   UNL d   1       2.857  -1.580  -0.401  0.00  0.00     0.015 SA
ATOM      6  C4  UNL d   1       3.460  -0.478   0.751  0.00  0.00     0.022 A 
ATOM      7  C5  UNL d   1       2.735   0.690   0.775  0.00  0.00     0.026 A 
ATOM      8  C6  UNL d   1       1.653   0.696  -0.170  0.00  0.00    -0.082 A 
ATOM      9  C7  UNL d   1       0.686   1.689  -0.458  0.00  0.00     0.045 A 
ENDROOT
TORSDOF 0
ENDMDL
