MODEL 1
REMARK minimizedAffinity 5.11961222
REMARK minimizedRMSD -1
REMARK  0 active torsions:
REMARK  status: ('A' for Active; 'I' for Inactive)
ROOT
ATOM      1  C   UNL d   1      -5.261   1.906  -4.893  0.00  0.00    -0.002 A 
ATOM      2  C1  UNL d   1      -5.890   2.644  -3.901  0.00  0.00     0.010 A 
ATOM      3  C2  UNL d   1      -5.991   2.146  -2.601  0.00  0.00     0.041 A 
ATOM      4  C3  UNL d   1      -5.442   0.881  -2.311  0.00  0.00    -0.075 A 
ATOM      5  S   UNL d   1      -5.446   0.070  -0.790  0.00  0.00     0.015 SA
ATOM      6  C4  UNL d   1      -4.612  -1.276  -1.421  0.00  0.00     0.022 A 
ATOM      7  C5  UNL d   1      -4.330  -1.126  -2.758  0.00  0.00     0.026 A 
ATOM      8  C6  UNL d   1      -4.803   0.119  -3.293  0.00  0.00    -0.082 A 
ATOM      9  C7  UNL d   1      -4.718   0.652  -4.602  0.00  0.00     0.045 A 
ENDROOT
TORSDOF 0
ENDMDL
