MODEL 1
REMARK minimizedAffinity 8.24027729
REMARK minimizedRMSD -1
REMARK  0 active torsions:
REMARK  status: ('A' for Active; 'I' for Inactive)
ROOT
ATOM      1  C   UNL d   1      -5.807   1.082  -4.972  0.00  0.00    -0.002 A 
ATOM      2  C1  UNL d   1      -5.673   2.154  -4.101  0.00  0.00     0.010 A 
ATOM      3  C2  UNL d   1      -4.668   2.161  -3.132  0.00  0.00     0.041 A 
ATOM      4  C3  UNL d   1      -3.789   1.063  -3.054  0.00  0.00    -0.075 A 
ATOM      5  S   UNL d   1      -2.483   0.854  -1.948  0.00  0.00     0.015 SA
ATOM      6  C4  UNL d   1      -2.070  -0.663  -2.607  0.00  0.00     0.022 A 
ATOM      7  C5  UNL d   1      -2.898  -1.017  -3.645  0.00  0.00     0.026 A 
ATOM      8  C6  UNL d   1      -3.902  -0.028  -3.920  0.00  0.00    -0.082 A 
ATOM      9  C7  UNL d   1      -4.933  -0.006  -4.891  0.00  0.00     0.045 A 
ENDROOT
TORSDOF 0
ENDMDL
