MODEL 1
REMARK minimizedAffinity 0.243012369
REMARK minimizedRMSD -1
REMARK  0 active torsions:
REMARK  status: ('A' for Active; 'I' for Inactive)
ROOT
ATOM      1  C4' PXY d   1       2.331  -0.280   2.244  0.00  0.00     0.077 C 
ATOM      2  C1' PXY d   1      -1.358   0.121  -2.188  0.00  0.00     0.077 C 
ATOM      3  C1  PXY d   1      -0.384   0.006  -1.032  0.00  0.00    -0.082 A 
ATOM      4  C2  PXY d   1      -0.744   0.426   0.170  0.00  0.00     0.003 A 
ATOM      5  C3  PXY d   1       0.136   0.359   1.220  0.00  0.00     0.003 A 
ATOM      6  C4  PXY d   1       1.377  -0.192   1.049  0.00  0.00    -0.082 A 
ATOM      7  C5  PXY d   1       1.748  -0.632  -0.172  0.00  0.00     0.003 A 
ATOM      8  C6  PXY d   1       0.855  -0.518  -1.234  0.00  0.00     0.003 A 
ENDROOT
TORSDOF 0
ENDMDL
