MODEL 1
REMARK minimizedAffinity -0.755160153
REMARK minimizedRMSD -1
REMARK  0 active torsions:
REMARK  status: ('A' for Active; 'I' for Inactive)
ROOT
ATOM      1  C4' PXY d   1      -0.412   1.536  -1.297  0.00  0.00     0.077 C 
ATOM      2  C1' PXY d   1      -0.078  -2.206   3.096  0.00  0.00     0.077 C 
ATOM      3  C1  PXY d   1      -0.156  -1.218   1.948  0.00  0.00    -0.082 A 
ATOM      4  C2  PXY d   1      -1.295  -1.063   1.294  0.00  0.00     0.003 A 
ATOM      5  C3  PXY d   1      -1.374  -0.198   0.234  0.00  0.00     0.003 A 
ATOM      6  C4  PXY d   1      -0.290   0.557  -0.127  0.00  0.00    -0.082 A 
ATOM      7  C5  PXY d   1       0.873   0.413   0.543  0.00  0.00     0.003 A 
ATOM      8  C6  PXY d   1       0.944  -0.501   1.590  0.00  0.00     0.003 A 
ENDROOT
TORSDOF 0
ENDMDL
