MODEL 1
REMARK minimizedAffinity -2.85948396
REMARK minimizedRMSD -1
REMARK  0 active torsions:
REMARK  status: ('A' for Active; 'I' for Inactive)
ROOT
ATOM      1  C4' PXY d   1      -1.221   0.550  -1.155  0.00  0.00     0.077 C 
ATOM      2  C1' PXY d   1       2.309  -0.322   3.339  0.00  0.00     0.077 C 
ATOM      3  C1  PXY d   1       1.381  -0.106   2.160  0.00  0.00    -0.082 A 
ATOM      4  C2  PXY d   1       1.552   0.946   1.376  0.00  0.00     0.003 A 
ATOM      5  C3  PXY d   1       0.702   1.174   0.325  0.00  0.00     0.003 A 
ATOM      6  C4  PXY d   1      -0.302   0.287   0.041  0.00  0.00    -0.082 A 
ATOM      7  C5  PXY d   1      -0.477  -0.795   0.829  0.00  0.00     0.003 A 
ATOM      8  C6  PXY d   1       0.372  -0.986   1.916  0.00  0.00     0.003 A 
ENDROOT
TORSDOF 0
ENDMDL
