MODEL 1
REMARK minimizedAffinity -5.0626173
REMARK minimizedRMSD -1
REMARK  0 active torsions:
REMARK  status: ('A' for Active; 'I' for Inactive)
ROOT
ATOM      1  C4' PXY d   1       0.956  -0.871   3.148  0.00  0.00     0.077 C 
ATOM      2  C1' PXY d   1      -1.078   0.609  -2.057  0.00  0.00     0.077 C 
ATOM      3  C1  PXY d   1      -0.554   0.228  -0.686  0.00  0.00    -0.082 A 
ATOM      4  C2  PXY d   1       0.721  -0.092  -0.539  0.00  0.00     0.003 A 
ATOM      5  C3  PXY d   1       1.204  -0.471   0.687  0.00  0.00     0.003 A 
ATOM      6  C4  PXY d   1       0.385  -0.471   1.784  0.00  0.00    -0.082 A 
ATOM      7  C5  PXY d   1      -0.915  -0.135   1.645  0.00  0.00     0.003 A 
ATOM      8  C6  PXY d   1      -1.395   0.206   0.384  0.00  0.00     0.003 A 
ENDROOT
TORSDOF 0
ENDMDL
