MODEL 1
REMARK minimizedAffinity 1.42529917
REMARK minimizedRMSD -1
REMARK  0 active torsions:
REMARK  status: ('A' for Active; 'I' for Inactive)
ROOT
ATOM      1  C4' PXY d   1       0.317  -0.926   0.697  0.00  0.00     0.077 C 
ATOM      2  C1' PXY d   1      -1.081   3.023  -3.286  0.00  0.00     0.077 C 
ATOM      3  C1  PXY d   1      -0.726   1.981  -2.244  0.00  0.00    -0.082 A 
ATOM      4  C2  PXY d   1       0.128   2.285  -1.279  0.00  0.00     0.003 A 
ATOM      5  C3  PXY d   1       0.484   1.345  -0.347  0.00  0.00     0.003 A 
ATOM      6  C4  PXY d   1      -0.078   0.097  -0.371  0.00  0.00    -0.082 A 
ATOM      7  C5  PXY d   1      -0.958  -0.217  -1.346  0.00  0.00     0.003 A 
ATOM      8  C6  PXY d   1      -1.276   0.738  -2.307  0.00  0.00     0.003 A 
ENDROOT
TORSDOF 0
ENDMDL
