MODEL 1
REMARK minimizedAffinity -4.4659853
REMARK minimizedRMSD -1
REMARK  0 active torsions:
REMARK  status: ('A' for Active; 'I' for Inactive)
ROOT
ATOM      1  C4' PXY d   1       1.413  -0.882   3.031  0.00  0.00     0.077 C 
ATOM      2  C1' PXY d   1      -1.248   0.815  -1.812  0.00  0.00     0.077 C 
ATOM      3  C1  PXY d   1      -0.560   0.376  -0.535  0.00  0.00    -0.082 A 
ATOM      4  C2  PXY d   1       0.738   0.117  -0.547  0.00  0.00     0.003 A 
ATOM      5  C3  PXY d   1       1.370  -0.313   0.591  0.00  0.00     0.003 A 
ATOM      6  C4  PXY d   1       0.678  -0.427   1.767  0.00  0.00    -0.082 A 
ATOM      7  C5  PXY d   1      -0.644  -0.154   1.790  0.00  0.00     0.003 A 
ATOM      8  C6  PXY d   1      -1.276   0.241   0.614  0.00  0.00     0.003 A 
ENDROOT
TORSDOF 0
ENDMDL
