MODEL 1
REMARK minimizedAffinity -3.05050564
REMARK minimizedRMSD -1
REMARK  0 active torsions:
REMARK  status: ('A' for Active; 'I' for Inactive)
ROOT
ATOM      1  C4' PXY d   1      -1.600   0.472  -1.249  0.00  0.00     0.077 C 
ATOM      2  C1' PXY d   1       2.072  -1.026   2.957  0.00  0.00     0.077 C 
ATOM      3  C1  PXY d   1       1.099  -0.636   1.862  0.00  0.00    -0.082 A 
ATOM      4  C2  PXY d   1       1.499  -0.639   0.600  0.00  0.00     0.003 A 
ATOM      5  C3  PXY d   1       0.641  -0.258  -0.400  0.00  0.00     0.003 A 
ATOM      6  C4  PXY d   1      -0.655   0.077  -0.111  0.00  0.00    -0.082 A 
ATOM      7  C5  PXY d   1      -1.073   0.072   1.172  0.00  0.00     0.003 A 
ATOM      8  C6  PXY d   1      -0.176  -0.278   2.177  0.00  0.00     0.003 A 
ENDROOT
TORSDOF 0
ENDMDL
