MODEL 1
REMARK minimizedAffinity -5.48911476
REMARK minimizedRMSD -1
REMARK  0 active torsions:
REMARK  status: ('A' for Active; 'I' for Inactive)
ROOT
ATOM      1  C4' PXY d   1       1.438  -0.792   3.142  0.00  0.00     0.077 C 
ATOM      2  C1' PXY d   1      -0.867   0.480  -2.004  0.00  0.00     0.077 C 
ATOM      3  C1  PXY d   1      -0.254   0.139  -0.661  0.00  0.00    -0.082 A 
ATOM      4  C2  PXY d   1      -0.980   0.258   0.439  0.00  0.00     0.003 A 
ATOM      5  C3  PXY d   1      -0.431  -0.015   1.665  0.00  0.00     0.003 A 
ATOM      6  C4  PXY d   1       0.858  -0.467   1.763  0.00  0.00    -0.082 A 
ATOM      7  C5  PXY d   1       1.602  -0.602   0.645  0.00  0.00     0.003 A 
ATOM      8  C6  PXY d   1       1.039  -0.280  -0.587  0.00  0.00     0.003 A 
ENDROOT
TORSDOF 0
ENDMDL
