MODEL 1
REMARK minimizedAffinity -3.81952333
REMARK minimizedRMSD -1
REMARK  0 active torsions:
REMARK  status: ('A' for Active; 'I' for Inactive)
ROOT
ATOM      1  C4' PXY d   1       2.308  -1.534  -0.339  0.00  0.00     0.077 C 
ATOM      2  C1' PXY d   1      -2.195   0.615   2.580  0.00  0.00     0.077 C 
ATOM      3  C1  PXY d   1      -1.022   0.047   1.805  0.00  0.00    -0.082 A 
ATOM      4  C2  PXY d   1       0.081  -0.301   2.449  0.00  0.00     0.003 A 
ATOM      5  C3  PXY d   1       1.162  -0.786   1.760  0.00  0.00     0.003 A 
ATOM      6  C4  PXY d   1       1.096  -0.966   0.404  0.00  0.00    -0.082 A 
ATOM      7  C5  PXY d   1      -0.029  -0.623  -0.259  0.00  0.00     0.003 A 
ATOM      8  C6  PXY d   1      -1.101  -0.094   0.454  0.00  0.00     0.003 A 
ENDROOT
TORSDOF 0
ENDMDL
