MODEL 1
REMARK minimizedAffinity -3.4077878
REMARK minimizedRMSD -1
REMARK  0 active torsions:
REMARK  status: ('A' for Active; 'I' for Inactive)
ROOT
ATOM      1  C4' PXY d   1      -0.887   0.313   3.236  0.00  0.00     0.077 C 
ATOM      2  C1' PXY d   1       3.415  -2.287   0.381  0.00  0.00     0.077 C 
ATOM      3  C1  PXY d   1       2.293  -1.608   1.141  0.00  0.00    -0.082 A 
ATOM      4  C2  PXY d   1       1.100  -1.490   0.580  0.00  0.00     0.003 A 
ATOM      5  C3  PXY d   1       0.083  -0.851   1.240  0.00  0.00     0.003 A 
ATOM      6  C4  PXY d   1       0.273  -0.374   2.509  0.00  0.00    -0.082 A 
ATOM      7  C5  PXY d   1       1.483  -0.499   3.093  0.00  0.00     0.003 A 
ATOM      8  C6  PXY d   1       2.515  -1.115   2.390  0.00  0.00     0.003 A 
ENDROOT
TORSDOF 0
ENDMDL
