MODEL 1
REMARK minimizedAffinity -3.690207
REMARK minimizedRMSD -1
REMARK  0 active torsions:
REMARK  status: ('A' for Active; 'I' for Inactive)
ROOT
ATOM      1  C4' PXY d   1      -0.910   1.419  -1.757  0.00  0.00     0.077 C 
ATOM      2  C1' PXY d   1       1.081  -1.075   3.063  0.00  0.00     0.077 C 
ATOM      3  C1  PXY d   1       0.571  -0.420   1.794  0.00  0.00    -0.082 A 
ATOM      4  C2  PXY d   1      -0.582   0.228   1.811  0.00  0.00     0.003 A 
ATOM      5  C3  PXY d   1      -1.073   0.799   0.665  0.00  0.00     0.003 A 
ATOM      6  C4  PXY d   1      -0.351   0.751  -0.497  0.00  0.00    -0.082 A 
ATOM      7  C5  PXY d   1       0.831   0.100  -0.520  0.00  0.00     0.003 A 
ATOM      8  C6  PXY d   1       1.293  -0.508   0.644  0.00  0.00     0.003 A 
ENDROOT
TORSDOF 0
ENDMDL
