MODEL 1
REMARK minimizedAffinity 7.86598969
REMARK minimizedRMSD -1
REMARK  0 active torsions:
REMARK  status: ('A' for Active; 'I' for Inactive)
ROOT
ATOM      1  C   UNL d   1       1.743   1.121   0.899  0.00  0.00     0.077 C 
ATOM      2  C1  UNL d   1       1.872  -0.054  -0.024  0.00  0.00    -0.074 A 
ATOM      3  C2  UNL d   1       1.317  -0.025  -1.307  0.00  0.00    -0.005 A 
ATOM      4  C3  UNL d   1       1.453  -1.122  -2.158  0.00  0.00     0.006 A 
ATOM      5  C4  UNL d   1       2.144  -2.258  -1.734  0.00  0.00    -0.005 A 
ATOM      6  C5  UNL d   1       2.707  -2.305  -0.454  0.00  0.00    -0.074 A 
ATOM      7  C6  UNL d   1       3.461  -3.514   0.013  0.00  0.00     0.077 C 
ATOM      8  C7  UNL d   1       2.571  -1.196   0.392  0.00  0.00    -0.001 A 
ENDROOT
TORSDOF 0
ENDMDL
