MODEL 1
REMARK minimizedAffinity 17.8418331
REMARK minimizedRMSD -1
REMARK  0 active torsions:
REMARK  status: ('A' for Active; 'I' for Inactive)
ROOT
ATOM      1  C   UNL d   1       0.402   1.100   2.504  0.00  0.00     0.077 C 
ATOM      2  C1  UNL d   1       1.382   0.980   1.375  0.00  0.00    -0.074 A 
ATOM      3  C2  UNL d   1       2.533   1.774   1.333  0.00  0.00    -0.005 A 
ATOM      4  C3  UNL d   1       3.439   1.644   0.281  0.00  0.00     0.006 A 
ATOM      5  C4  UNL d   1       3.206   0.720  -0.738  0.00  0.00    -0.005 A 
ATOM      6  C5  UNL d   1       2.061  -0.083  -0.713  0.00  0.00    -0.074 A 
ATOM      7  C6  UNL d   1       1.800  -1.088  -1.796  0.00  0.00     0.077 C 
ATOM      8  C7  UNL d   1       1.158   0.048   0.351  0.00  0.00    -0.001 A 
ENDROOT
TORSDOF 0
ENDMDL
