MODEL 1
REMARK minimizedAffinity 11.7146149
REMARK minimizedRMSD -1
REMARK  0 active torsions:
REMARK  status: ('A' for Active; 'I' for Inactive)
ROOT
ATOM      1  C   UNL d   1       2.568   5.999   2.097  0.00  0.00     0.077 C 
ATOM      2  C1  UNL d   1       2.331   5.991   0.616  0.00  0.00    -0.074 A 
ATOM      3  C2  UNL d   1       1.033   5.997   0.096  0.00  0.00    -0.005 A 
ATOM      4  C3  UNL d   1       0.828   5.999  -1.283  0.00  0.00     0.006 A 
ATOM      5  C4  UNL d   1       1.917   5.995  -2.155  0.00  0.00    -0.005 A 
ATOM      6  C5  UNL d   1       3.222   5.990  -1.654  0.00  0.00    -0.074 A 
ATOM      7  C6  UNL d   1       4.404   5.995  -2.577  0.00  0.00     0.077 C 
ATOM      8  C7  UNL d   1       3.420   5.995  -0.266  0.00  0.00    -0.001 A 
ENDROOT
TORSDOF 0
ENDMDL
