MODEL 1
REMARK minimizedAffinity 20.1984825
REMARK minimizedRMSD -1
REMARK  0 active torsions:
REMARK  status: ('A' for Active; 'I' for Inactive)
ROOT
ATOM      1  C   UNL d   1       1.859  -0.982  -1.801  0.00  0.00     0.077 C 
ATOM      2  C1  UNL d   1       1.948  -0.059  -0.622  0.00  0.00    -0.074 A 
ATOM      3  C2  UNL d   1       3.149   0.581  -0.299  0.00  0.00    -0.005 A 
ATOM      4  C3  UNL d   1       3.213   1.444   0.794  0.00  0.00     0.006 A 
ATOM      5  C4  UNL d   1       2.080   1.676   1.575  0.00  0.00    -0.005 A 
ATOM      6  C5  UNL d   1       0.871   1.045   1.267  0.00  0.00    -0.074 A 
ATOM      7  C6  UNL d   1      -0.359   1.290   2.090  0.00  0.00     0.077 C 
ATOM      8  C7  UNL d   1       0.812   0.185   0.162  0.00  0.00    -0.001 A 
ENDROOT
TORSDOF 0
ENDMDL
