MODEL 1
REMARK minimizedAffinity 23.1519718
REMARK minimizedRMSD -1
REMARK  0 active torsions:
REMARK  status: ('A' for Active; 'I' for Inactive)
ROOT
ATOM      1  C   UNL d   1      -0.106   1.049   3.129  0.00  0.00     0.077 C 
ATOM      2  C1  UNL d   1       1.020   1.102   2.140  0.00  0.00    -0.074 A 
ATOM      3  C2  UNL d   1       2.148   1.894   2.377  0.00  0.00    -0.005 A 
ATOM      4  C3  UNL d   1       3.191   1.926   1.452  0.00  0.00     0.006 A 
ATOM      5  C4  UNL d   1       3.117   1.168   0.282  0.00  0.00    -0.005 A 
ATOM      6  C5  UNL d   1       1.997   0.370   0.029  0.00  0.00    -0.074 A 
ATOM      7  C6  UNL d   1       1.906  -0.458  -1.219  0.00  0.00     0.077 C 
ATOM      8  C7  UNL d   1       0.956   0.338   0.966  0.00  0.00    -0.001 A 
ENDROOT
TORSDOF 0
ENDMDL
