MODEL 1
REMARK minimizedAffinity 17.194643
REMARK minimizedRMSD -1
REMARK  0 active torsions:
REMARK  status: ('A' for Active; 'I' for Inactive)
ROOT
ATOM      1  C   UNL d   1       1.872   0.004  -3.883  0.00  0.00     0.077 C 
ATOM      2  C1  UNL d   1       2.258   0.616  -2.569  0.00  0.00    -0.074 A 
ATOM      3  C2  UNL d   1       2.521  -0.184  -1.453  0.00  0.00    -0.005 A 
ATOM      4  C3  UNL d   1       2.888   0.399  -0.240  0.00  0.00     0.006 A 
ATOM      5  C4  UNL d   1       2.995   1.786  -0.132  0.00  0.00    -0.005 A 
ATOM      6  C5  UNL d   1       2.737   2.602  -1.238  0.00  0.00    -0.074 A 
ATOM      7  C6  UNL d   1       2.857   4.094  -1.141  0.00  0.00     0.077 C 
ATOM      8  C7  UNL d   1       2.375   2.009  -2.455  0.00  0.00    -0.001 A 
ENDROOT
TORSDOF 0
ENDMDL
