MODEL 1
REMARK minimizedAffinity 17.2931747
REMARK minimizedRMSD -1
REMARK  0 active torsions:
REMARK  status: ('A' for Active; 'I' for Inactive)
ROOT
ATOM      1  C   UNL d   1       2.953   4.401  -2.041  0.00  0.00     0.077 C 
ATOM      2  C1  UNL d   1       2.778   2.918  -2.188  0.00  0.00    -0.074 A 
ATOM      3  C2  UNL d   1       2.230   2.371  -3.352  0.00  0.00    -0.005 A 
ATOM      4  C3  UNL d   1       2.082   0.990  -3.478  0.00  0.00     0.006 A 
ATOM      5  C4  UNL d   1       2.481   0.143  -2.443  0.00  0.00    -0.005 A 
ATOM      6  C5  UNL d   1       3.032   0.672  -1.272  0.00  0.00    -0.074 A 
ATOM      7  C6  UNL d   1       3.474  -0.224  -0.154  0.00  0.00     0.077 C 
ATOM      8  C7  UNL d   1       3.184   2.061  -1.155  0.00  0.00    -0.001 A 
ENDROOT
TORSDOF 0
ENDMDL
