MODEL 1
REMARK minimizedAffinity 21.9517212
REMARK minimizedRMSD -1
REMARK  0 active torsions:
REMARK  status: ('A' for Active; 'I' for Inactive)
ROOT
ATOM      1  C   UNL d   1      -0.251   1.212   2.316  0.00  0.00     0.077 C 
ATOM      2  C1  UNL d   1       1.022   1.004   1.550  0.00  0.00    -0.074 A 
ATOM      3  C2  UNL d   1       2.100   1.883   1.694  0.00  0.00    -0.005 A 
ATOM      4  C3  UNL d   1       3.280   1.671   0.982  0.00  0.00     0.006 A 
ATOM      5  C4  UNL d   1       3.394   0.580   0.120  0.00  0.00    -0.005 A 
ATOM      6  C5  UNL d   1       2.327  -0.310  -0.037  0.00  0.00    -0.074 A 
ATOM      7  C6  UNL d   1       2.437  -1.494  -0.952  0.00  0.00     0.077 C 
ATOM      8  C7  UNL d   1       1.147  -0.095   0.688  0.00  0.00    -0.001 A 
ENDROOT
TORSDOF 0
ENDMDL
