MODEL 1
REMARK minimizedAffinity -1.53373444
REMARK minimizedRMSD -1
REMARK  0 active torsions:
REMARK  status: ('A' for Active; 'I' for Inactive)
ROOT
ATOM      1  C   UNL d   1       1.756  -1.070  -2.234  0.00  0.00     0.077 C 
ATOM      2  C1  UNL d   1       2.216  -2.444  -1.846  0.00  0.00    -0.074 A 
ATOM      3  C2  UNL d   1       2.960  -2.650  -0.679  0.00  0.00    -0.005 A 
ATOM      4  C3  UNL d   1       3.373  -3.934  -0.326  0.00  0.00     0.006 A 
ATOM      5  C4  UNL d   1       3.047  -5.024  -1.134  0.00  0.00    -0.005 A 
ATOM      6  C5  UNL d   1       2.304  -4.838  -2.304  0.00  0.00    -0.074 A 
ATOM      7  C6  UNL d   1       1.937  -6.000  -3.178  0.00  0.00     0.077 C 
ATOM      8  C7  UNL d   1       1.887  -3.545  -2.648  0.00  0.00    -0.001 A 
ENDROOT
TORSDOF 0
ENDMDL
