MODEL 1
REMARK minimizedAffinity 13.1235104
REMARK minimizedRMSD -1
REMARK  0 active torsions:
REMARK  status: ('A' for Active; 'I' for Inactive)
ROOT
ATOM      1  C   UNL d   1      -2.883   1.048   2.274  0.00  0.00     0.077 C 
ATOM      2  C1  UNL d   1      -1.406   1.296   2.186  0.00  0.00    -0.074 A 
ATOM      3  C2  UNL d   1      -0.780   2.217   3.031  0.00  0.00    -0.005 A 
ATOM      4  C3  UNL d   1       0.596   2.429   2.943  0.00  0.00     0.006 A 
ATOM      5  C4  UNL d   1       1.358   1.724   2.011  0.00  0.00    -0.005 A 
ATOM      6  C5  UNL d   1       0.749   0.799   1.158  0.00  0.00    -0.074 A 
ATOM      7  C6  UNL d   1       1.555   0.025   0.156  0.00  0.00     0.077 C 
ATOM      8  C7  UNL d   1      -0.633   0.585   1.257  0.00  0.00    -0.001 A 
ENDROOT
TORSDOF 0
ENDMDL
