MODEL 1
REMARK minimizedAffinity 14.9972763
REMARK minimizedRMSD -1
REMARK  0 active torsions:
REMARK  status: ('A' for Active; 'I' for Inactive)
ROOT
ATOM      1  C   UNL d   1      -0.671   2.117   2.287  0.00  0.00     0.077 C 
ATOM      2  C1  UNL d   1      -2.011   1.533   2.624  0.00  0.00    -0.074 A 
ATOM      3  C2  UNL d   1      -2.228   0.152   2.568  0.00  0.00    -0.005 A 
ATOM      4  C3  UNL d   1      -3.476  -0.377   2.894  0.00  0.00     0.006 A 
ATOM      5  C4  UNL d   1      -4.519   0.467   3.277  0.00  0.00    -0.005 A 
ATOM      6  C5  UNL d   1      -4.321   1.850   3.339  0.00  0.00    -0.074 A 
ATOM      7  C6  UNL d   1      -5.428   2.771   3.758  0.00  0.00     0.077 C 
ATOM      8  C7  UNL d   1      -3.061   2.374   3.017  0.00  0.00    -0.001 A 
ENDROOT
TORSDOF 0
ENDMDL
