MODEL 1
REMARK minimizedAffinity 10.1563501
REMARK minimizedRMSD -1
REMARK  0 active torsions:
REMARK  status: ('A' for Active; 'I' for Inactive)
ROOT
ATOM      1  C   UNL d   1      -2.662   0.961   2.204  0.00  0.00     0.077 C 
ATOM      2  C1  UNL d   1      -1.179   1.185   2.162  0.00  0.00    -0.074 A 
ATOM      3  C2  UNL d   1      -0.548   1.998   3.108  0.00  0.00    -0.005 A 
ATOM      4  C3  UNL d   1       0.833   2.189   3.062  0.00  0.00     0.006 A 
ATOM      5  C4  UNL d   1       1.595   1.570   2.071  0.00  0.00    -0.005 A 
ATOM      6  C5  UNL d   1       0.982   0.753   1.116  0.00  0.00    -0.074 A 
ATOM      7  C6  UNL d   1       1.788   0.073   0.050  0.00  0.00     0.077 C 
ATOM      8  C7  UNL d   1      -0.405   0.560   1.173  0.00  0.00    -0.001 A 
ENDROOT
TORSDOF 0
ENDMDL
