MODEL 1
REMARK minimizedAffinity 14.3020859
REMARK minimizedRMSD -1
REMARK  0 active torsions:
REMARK  status: ('A' for Active; 'I' for Inactive)
ROOT
ATOM      1  C   UNL d   1       3.100   5.978  -3.029  0.00  0.00     0.077 C 
ATOM      2  C1  UNL d   1       2.283   5.988  -1.772  0.00  0.00    -0.074 A 
ATOM      3  C2  UNL d   1       0.885   5.981  -1.823  0.00  0.00    -0.005 A 
ATOM      4  C3  UNL d   1       0.139   5.981  -0.645  0.00  0.00     0.006 A 
ATOM      5  C4  UNL d   1       0.781   5.989   0.594  0.00  0.00    -0.005 A 
ATOM      6  C5  UNL d   1       2.178   5.996   0.665  0.00  0.00    -0.074 A 
ATOM      7  C6  UNL d   1       2.884   5.994   1.988  0.00  0.00     0.077 C 
ATOM      8  C7  UNL d   1       2.921   5.988  -0.523  0.00  0.00    -0.001 A 
ENDROOT
TORSDOF 0
ENDMDL
