MODEL 1
REMARK minimizedAffinity 9.36903191
REMARK minimizedRMSD -1
REMARK  0 active torsions:
REMARK  status: ('A' for Active; 'I' for Inactive)
ROOT
ATOM      1  C   UNL d   1       0.650   1.426   2.602  0.00  0.00     0.077 C 
ATOM      2  C1  UNL d   1       1.615   1.190   1.478  0.00  0.00    -0.074 A 
ATOM      3  C2  UNL d   1       2.947   1.605   1.575  0.00  0.00    -0.005 A 
ATOM      4  C3  UNL d   1       3.835   1.371   0.525  0.00  0.00     0.006 A 
ATOM      5  C4  UNL d   1       3.400   0.719  -0.630  0.00  0.00    -0.005 A 
ATOM      6  C5  UNL d   1       2.072   0.296  -0.744  0.00  0.00    -0.074 A 
ATOM      7  C6  UNL d   1       1.592  -0.415  -1.975  0.00  0.00     0.077 C 
ATOM      8  C7  UNL d   1       1.188   0.529   0.318  0.00  0.00    -0.001 A 
ENDROOT
TORSDOF 0
ENDMDL
