MODEL 1
REMARK minimizedAffinity 17.4828415
REMARK minimizedRMSD -1
REMARK  0 active torsions:
REMARK  status: ('A' for Active; 'I' for Inactive)
ROOT
ATOM      1  C   UNL d   1      -4.563  -2.671  -5.018  0.00  0.00     0.077 C 
ATOM      2  C1  UNL d   1      -3.236  -3.355  -4.876  0.00  0.00    -0.074 A 
ATOM      3  C2  UNL d   1      -2.533  -3.800  -6.000  0.00  0.00    -0.005 A 
ATOM      4  C3  UNL d   1      -1.296  -4.426  -5.853  0.00  0.00     0.006 A 
ATOM      5  C4  UNL d   1      -0.749  -4.613  -4.582  0.00  0.00    -0.005 A 
ATOM      6  C5  UNL d   1      -1.437  -4.173  -3.447  0.00  0.00    -0.074 A 
ATOM      7  C6  UNL d   1      -0.859  -4.356  -2.075  0.00  0.00     0.077 C 
ATOM      8  C7  UNL d   1      -2.677  -3.538  -3.604  0.00  0.00    -0.001 A 
ENDROOT
TORSDOF 0
ENDMDL
