MODEL 1
REMARK minimizedAffinity 10.9625025
REMARK minimizedRMSD -1
REMARK  0 active torsions:
REMARK  status: ('A' for Active; 'I' for Inactive)
ROOT
ATOM      1  C   UNL d   1      -5.346   4.167   4.792  0.00  0.00     0.077 C 
ATOM      2  C1  UNL d   1      -4.524   2.912   4.780  0.00  0.00    -0.074 A 
ATOM      3  C2  UNL d   1      -4.115   2.309   5.973  0.00  0.00    -0.005 A 
ATOM      4  C3  UNL d   1      -3.359   1.137   5.946  0.00  0.00     0.006 A 
ATOM      5  C4  UNL d   1      -3.005   0.557   4.727  0.00  0.00    -0.005 A 
ATOM      6  C5  UNL d   1      -3.406   1.146   3.523  0.00  0.00    -0.074 A 
ATOM      7  C6  UNL d   1      -3.043   0.530   2.205  0.00  0.00     0.077 C 
ATOM      8  C7  UNL d   1      -4.171   2.320   3.559  0.00  0.00    -0.001 A 
ENDROOT
TORSDOF 0
ENDMDL
