MODEL 1
REMARK minimizedAffinity 15.2357321
REMARK minimizedRMSD -1
REMARK  0 active torsions:
REMARK  status: ('A' for Active; 'I' for Inactive)
ROOT
ATOM      1  C   UNL d   1       4.291   0.728   0.136  0.00  0.00     0.077 C 
ATOM      2  C1  UNL d   1       3.160   0.526  -0.829  0.00  0.00    -0.074 A 
ATOM      3  C2  UNL d   1       2.942   1.424  -1.879  0.00  0.00    -0.005 A 
ATOM      4  C3  UNL d   1       1.892   1.217  -2.774  0.00  0.00     0.006 A 
ATOM      5  C4  UNL d   1       1.052   0.113  -2.629  0.00  0.00    -0.005 A 
ATOM      6  C5  UNL d   1       1.255  -0.796  -1.586  0.00  0.00    -0.074 A 
ATOM      7  C6  UNL d   1       0.367  -1.993  -1.422  0.00  0.00     0.077 C 
ATOM      8  C7  UNL d   1       2.316  -0.586  -0.695  0.00  0.00    -0.001 A 
ENDROOT
TORSDOF 0
ENDMDL
