MODEL 1
REMARK minimizedAffinity 7.93497705
REMARK minimizedRMSD -1
REMARK  0 active torsions:
REMARK  status: ('A' for Active; 'I' for Inactive)
ROOT
ATOM      1  O1  BZF d   1       0.835   2.751   0.170  0.00  0.00    -0.204 OA
ATOM      2  C2  BZF d   1      -0.030   2.560  -0.890  0.00  0.00     0.174 A 
ATOM      3  C3  BZF d   1      -1.211   2.069  -0.461  0.00  0.00    -0.012 A 
ATOM      4  C3A BZF d   1      -1.107   2.033   0.966  0.00  0.00    -0.107 A 
ATOM      5  C4  BZF d   1      -1.964   1.656   1.961  0.00  0.00     0.055 A 
ATOM      6  C5  BZF d   1      -1.530   1.674   3.248  0.00  0.00    -0.016 A 
ATOM      7  C6  BZF d   1      -0.246   2.056   3.576  0.00  0.00     0.022 A 
ATOM      8  C7  BZF d   1       0.639   2.443   2.625  0.00  0.00     0.029 A 
ATOM      9  C7A BZF d   1       0.192   2.459   1.326  0.00  0.00     0.058 A 
ENDROOT
TORSDOF 0
ENDMDL
