MODEL 1
REMARK minimizedAffinity 3.62885022
REMARK minimizedRMSD -1
REMARK  0 active torsions:
REMARK  status: ('A' for Active; 'I' for Inactive)
ROOT
ATOM      1  O1  BZF d   1       0.191   3.639  -1.216  0.00  0.00    -0.204 OA
ATOM      2  C2  BZF d   1       0.348   3.246   0.099  0.00  0.00     0.174 A 
ATOM      3  C3  BZF d   1      -0.532   2.275   0.417  0.00  0.00    -0.012 A 
ATOM      4  C3A BZF d   1      -1.224   1.981  -0.800  0.00  0.00    -0.107 A 
ATOM      5  C4  BZF d   1      -2.208   1.094  -1.130  0.00  0.00     0.055 A 
ATOM      6  C5  BZF d   1      -2.717   1.110  -2.390  0.00  0.00    -0.016 A 
ATOM      7  C6  BZF d   1      -2.269   2.002  -3.342  0.00  0.00     0.022 A 
ATOM      8  C7  BZF d   1      -1.291   2.898  -3.063  0.00  0.00     0.029 A 
ATOM      9  C7A BZF d   1      -0.752   2.862  -1.801  0.00  0.00     0.058 A 
ENDROOT
TORSDOF 0
ENDMDL
