MODEL 1
REMARK minimizedAffinity -2.7023139
REMARK minimizedRMSD -1
REMARK  0 active torsions:
REMARK  status: ('A' for Active; 'I' for Inactive)
ROOT
ATOM      1  O1  BZF d   1      -1.935   2.569  -3.429  0.00  0.00    -0.204 OA
ATOM      2  C2  BZF d   1      -2.891   1.646  -3.053  0.00  0.00     0.174 A 
ATOM      3  C3  BZF d   1      -2.745   1.308  -1.755  0.00  0.00    -0.012 A 
ATOM      4  C3A BZF d   1      -1.685   2.136  -1.268  0.00  0.00    -0.107 A 
ATOM      5  C4  BZF d   1      -1.088   2.275  -0.047  0.00  0.00     0.055 A 
ATOM      6  C5  BZF d   1      -0.031   3.120   0.078  0.00  0.00    -0.016 A 
ATOM      7  C6  BZF d   1       0.458   3.836  -0.995  0.00  0.00     0.022 A 
ATOM      8  C7  BZF d   1      -0.105   3.734  -2.224  0.00  0.00     0.029 A 
ATOM      9  C7A BZF d   1      -1.194   2.907  -2.347  0.00  0.00     0.058 A 
ENDROOT
TORSDOF 0
ENDMDL
