MODEL 1
REMARK minimizedAffinity 14.4256363
REMARK minimizedRMSD -1
REMARK  0 active torsions:
REMARK  status: ('A' for Active; 'I' for Inactive)
ROOT
ATOM      1  O1  BZF d   1       1.661   3.988   0.176  0.00  0.00    -0.204 OA
ATOM      2  C2  BZF d   1       1.202   4.411  -1.056  0.00  0.00     0.174 A 
ATOM      3  C3  BZF d   1       0.139   3.680  -1.448  0.00  0.00    -0.012 A 
ATOM      4  C3A BZF d   1      -0.137   2.801  -0.354  0.00  0.00    -0.107 A 
ATOM      5  C4  BZF d   1      -1.085   1.843  -0.135  0.00  0.00     0.055 A 
ATOM      6  C5  BZF d   1      -1.035   1.113   1.010  0.00  0.00    -0.016 A 
ATOM      7  C6  BZF d   1      -0.049   1.310   1.954  0.00  0.00     0.022 A 
ATOM      8  C7  BZF d   1       0.910   2.253   1.784  0.00  0.00     0.029 A 
ATOM      9  C7A BZF d   1       0.843   3.014   0.643  0.00  0.00     0.058 A 
ENDROOT
TORSDOF 0
ENDMDL
