MODEL 1
REMARK minimizedAffinity 4.98190403
REMARK minimizedRMSD -1
REMARK  0 active torsions:
REMARK  status: ('A' for Active; 'I' for Inactive)
ROOT
ATOM      1  O1  BZF d   1      -5.999  -5.461   1.807  0.00  0.00    -0.204 OA
ATOM      2  C2  BZF d   1      -5.950  -5.269   3.174  0.00  0.00     0.174 A 
ATOM      3  C3  BZF d   1      -5.838  -3.958   3.470  0.00  0.00    -0.012 A 
ATOM      4  C3A BZF d   1      -5.909  -3.281   2.212  0.00  0.00    -0.107 A 
ATOM      5  C4  BZF d   1      -5.872  -1.965   1.851  0.00  0.00     0.055 A 
ATOM      6  C5  BZF d   1      -5.891  -1.641   0.531  0.00  0.00    -0.016 A 
ATOM      7  C6  BZF d   1      -5.942  -2.606  -0.452  0.00  0.00     0.022 A 
ATOM      8  C7  BZF d   1      -5.986  -3.925  -0.143  0.00  0.00     0.029 A 
ATOM      9  C7A BZF d   1      -6.000  -4.254   1.190  0.00  0.00     0.058 A 
ENDROOT
TORSDOF 0
ENDMDL
