MODEL 1
REMARK minimizedAffinity 15.9244471
REMARK minimizedRMSD -1
REMARK  0 active torsions:
REMARK  status: ('A' for Active; 'I' for Inactive)
ROOT
ATOM      1  O1  BZF d   1       1.429   4.168  -0.012  0.00  0.00    -0.204 OA
ATOM      2  C2  BZF d   1       0.661   3.882  -1.124  0.00  0.00     0.174 A 
ATOM      3  C3  BZF d   1      -0.205   2.881  -0.863  0.00  0.00    -0.012 A 
ATOM      4  C3A BZF d   1      -0.025   2.580   0.524  0.00  0.00    -0.107 A 
ATOM      5  C4  BZF d   1      -0.611   1.687   1.375  0.00  0.00     0.055 A 
ATOM      6  C5  BZF d   1      -0.156   1.596   2.652  0.00  0.00    -0.016 A 
ATOM      7  C6  BZF d   1       0.884   2.377   3.110  0.00  0.00     0.022 A 
ATOM      8  C7  BZF d   1       1.494   3.281   2.305  0.00  0.00     0.029 A 
ATOM      9  C7A BZF d   1       1.014   3.399   1.023  0.00  0.00     0.058 A 
ENDROOT
TORSDOF 0
ENDMDL
