MODEL 1
REMARK minimizedAffinity 23.2563
REMARK minimizedRMSD -1
REMARK  0 active torsions:
REMARK  status: ('A' for Active; 'I' for Inactive)
ROOT
ATOM      1  O1  BZF d   1      -5.670   6.000   0.370  0.00  0.00    -0.204 OA
ATOM      2  C2  BZF d   1      -5.237   5.999   1.682  0.00  0.00     0.174 A 
ATOM      3  C3  BZF d   1      -3.967   5.554   1.767  0.00  0.00    -0.012 A 
ATOM      4  C3A BZF d   1      -3.551   5.345   0.414  0.00  0.00    -0.107 A 
ATOM      5  C4  BZF d   1      -2.384   4.921  -0.154  0.00  0.00     0.055 A 
ATOM      6  C5  BZF d   1      -2.327   4.755  -1.502  0.00  0.00    -0.016 A 
ATOM      7  C6  BZF d   1      -3.419   4.997  -2.310  0.00  0.00     0.022 A 
ATOM      8  C7  BZF d   1      -4.597   5.424  -1.792  0.00  0.00     0.029 A 
ATOM      9  C7A BZF d   1      -4.647   5.624  -0.435  0.00  0.00     0.058 A 
ENDROOT
TORSDOF 0
ENDMDL
