MODEL 1
REMARK minimizedAffinity 11.7449675
REMARK minimizedRMSD -1
REMARK  0 active torsions:
REMARK  status: ('A' for Active; 'I' for Inactive)
ROOT
ATOM      1  O1  BZF d   1      -0.255   4.619  -3.143  0.00  0.00    -0.204 OA
ATOM      2  C2  BZF d   1      -1.242   3.820  -3.687  0.00  0.00     0.174 A 
ATOM      3  C3  BZF d   1      -1.541   2.799  -2.858  0.00  0.00    -0.012 A 
ATOM      4  C3A BZF d   1      -0.754   3.022  -1.685  0.00  0.00    -0.107 A 
ATOM      5  C4  BZF d   1      -0.625   2.357  -0.500  0.00  0.00     0.055 A 
ATOM      6  C5  BZF d   1       0.286   2.796   0.409  0.00  0.00    -0.016 A 
ATOM      7  C6  BZF d   1       1.086   3.893   0.163  0.00  0.00     0.022 A 
ATOM      8  C7  BZF d   1       0.990   4.588  -0.996  0.00  0.00     0.029 A 
ATOM      9  C7A BZF d   1       0.048   4.167  -1.902  0.00  0.00     0.058 A 
ENDROOT
TORSDOF 0
ENDMDL
