MODEL 1
REMARK minimizedAffinity -1.86149466
REMARK minimizedRMSD -1
REMARK  0 active torsions:
REMARK  status: ('A' for Active; 'I' for Inactive)
ROOT
ATOM      1  O1  BZF d   1       1.181   3.508   0.523  0.00  0.00    -0.204 OA
ATOM      2  C2  BZF d   1       0.478   3.508  -0.666  0.00  0.00     0.174 A 
ATOM      3  C3  BZF d   1      -0.721   2.912  -0.513  0.00  0.00    -0.012 A 
ATOM      4  C3A BZF d   1      -0.810   2.596   0.880  0.00  0.00    -0.107 A 
ATOM      5  C4  BZF d   1      -1.771   2.007   1.650  0.00  0.00     0.055 A 
ATOM      6  C5  BZF d   1      -1.516   1.779   2.965  0.00  0.00    -0.016 A 
ATOM      7  C6  BZF d   1      -0.311   2.122   3.541  0.00  0.00     0.022 A 
ATOM      8  C7  BZF d   1       0.672   2.713   2.818  0.00  0.00     0.029 A 
ATOM      9  C7A BZF d   1       0.405   2.975   1.497  0.00  0.00     0.058 A 
ENDROOT
TORSDOF 0
ENDMDL
