MODEL 1
REMARK minimizedAffinity -5.05711746
REMARK minimizedRMSD -1
REMARK  0 active torsions:
REMARK  status: ('A' for Active; 'I' for Inactive)
ROOT
ATOM      1  O1  BZF d   1       1.155   4.249   1.421  0.00  0.00    -0.204 OA
ATOM      2  C2  BZF d   1       0.737   4.449   0.120  0.00  0.00     0.174 A 
ATOM      3  C3  BZF d   1      -0.212   3.553  -0.221  0.00  0.00    -0.012 A 
ATOM      4  C3A BZF d   1      -0.466   2.802   0.970  0.00  0.00    -0.107 A 
ATOM      5  C4  BZF d   1      -1.318   1.778   1.271  0.00  0.00     0.055 A 
ATOM      6  C5  BZF d   1      -1.267   1.218   2.508  0.00  0.00    -0.016 A 
ATOM      7  C6  BZF d   1      -0.373   1.653   3.465  0.00  0.00     0.022 A 
ATOM      8  C7  BZF d   1       0.488   2.668   3.215  0.00  0.00     0.029 A 
ATOM      9  C7A BZF d   1       0.416   3.258   1.977  0.00  0.00     0.058 A 
ENDROOT
TORSDOF 0
ENDMDL
