MODEL 1
REMARK minimizedAffinity -0.0245281719
REMARK minimizedRMSD -1
REMARK  0 active torsions:
REMARK  status: ('A' for Active; 'I' for Inactive)
ROOT
ATOM      1  O1  BZF d   1      -0.846   2.446  -1.250  0.00  0.00    -0.204 OA
ATOM      2  C2  BZF d   1      -0.217   3.531  -1.830  0.00  0.00     0.174 A 
ATOM      3  C3  BZF d   1       0.426   4.265  -0.899  0.00  0.00    -0.012 A 
ATOM      4  C3A BZF d   1       0.261   3.546   0.327  0.00  0.00    -0.107 A 
ATOM      5  C4  BZF d   1       0.686   3.762   1.607  0.00  0.00     0.055 A 
ATOM      6  C5  BZF d   1       0.291   2.908   2.587  0.00  0.00    -0.016 A 
ATOM      7  C6  BZF d   1      -0.531   1.832   2.325  0.00  0.00     0.022 A 
ATOM      8  C7  BZF d   1      -0.975   1.574   1.070  0.00  0.00     0.029 A 
ATOM      9  C7A BZF d   1      -0.551   2.416   0.072  0.00  0.00     0.058 A 
ENDROOT
TORSDOF 0
ENDMDL
