MODEL 1
REMARK minimizedAffinity 1.19371545
REMARK minimizedRMSD -1
REMARK  0 active torsions:
REMARK  status: ('A' for Active; 'I' for Inactive)
ROOT
ATOM      1  O1  BZF d   1       0.715   3.311   0.380  0.00  0.00    -0.204 OA
ATOM      2  C2  BZF d   1       0.377   2.433  -0.631  0.00  0.00     0.174 A 
ATOM      3  C3  BZF d   1      -0.242   1.344  -0.132  0.00  0.00    -0.012 A 
ATOM      4  C3A BZF d   1      -0.375   1.596   1.270  0.00  0.00    -0.107 A 
ATOM      5  C4  BZF d   1      -0.922   0.891   2.304  0.00  0.00     0.055 A 
ATOM      6  C5  BZF d   1      -0.823   1.385   3.566  0.00  0.00    -0.016 A 
ATOM      7  C6  BZF d   1      -0.182   2.577   3.831  0.00  0.00     0.022 A 
ATOM      8  C7  BZF d   1       0.371   3.315   2.838  0.00  0.00     0.029 A 
ATOM      9  C7A BZF d   1       0.245   2.834   1.557  0.00  0.00     0.058 A 
ENDROOT
TORSDOF 0
ENDMDL
