MODEL 1
REMARK minimizedAffinity -1.52404964
REMARK minimizedRMSD -1
REMARK  0 active torsions:
REMARK  status: ('A' for Active; 'I' for Inactive)
ROOT
ATOM      1  O1  BZF d   1      -1.098   0.282   1.650  0.00  0.00    -0.204 OA
ATOM      2  C2  BZF d   1      -1.367   0.519   2.984  0.00  0.00     0.174 A 
ATOM      3  C3  BZF d   1      -1.052   1.787   3.317  0.00  0.00    -0.012 A 
ATOM      4  C3A BZF d   1      -0.642   2.407   2.094  0.00  0.00    -0.107 A 
ATOM      5  C4  BZF d   1      -0.224   3.667   1.775  0.00  0.00     0.055 A 
ATOM      6  C5  BZF d   1       0.173   3.928   0.501  0.00  0.00    -0.016 A 
ATOM      7  C6  BZF d   1       0.170   2.953  -0.474  0.00  0.00     0.022 A 
ATOM      8  C7  BZF d   1      -0.241   1.689  -0.206  0.00  0.00     0.029 A 
ATOM      9  C7A BZF d   1      -0.674   1.431   1.072  0.00  0.00     0.058 A 
ENDROOT
TORSDOF 0
ENDMDL
