MODEL 1
REMARK minimizedAffinity 3.59695387
REMARK minimizedRMSD -1
REMARK  0 active torsions:
REMARK  status: ('A' for Active; 'I' for Inactive)
ROOT
ATOM      1  O1  BZF d   1      -2.770   0.727   2.736  0.00  0.00    -0.204 OA
ATOM      2  C2  BZF d   1      -1.753   1.422   2.112  0.00  0.00     0.174 A 
ATOM      3  C3  BZF d   1      -0.554   0.875   2.397  0.00  0.00    -0.012 A 
ATOM      4  C3A BZF d   1      -0.847  -0.287   3.179  0.00  0.00    -0.107 A 
ATOM      5  C4  BZF d   1      -0.072  -1.255   3.749  0.00  0.00     0.055 A 
ATOM      6  C5  BZF d   1      -0.664  -2.213   4.510  0.00  0.00    -0.016 A 
ATOM      7  C6  BZF d   1      -2.026  -2.229   4.726  0.00  0.00     0.022 A 
ATOM      8  C7  BZF d   1      -2.838  -1.293   4.176  0.00  0.00     0.029 A 
ATOM      9  C7A BZF d   1      -2.246  -0.343   3.380  0.00  0.00     0.058 A 
ENDROOT
TORSDOF 0
ENDMDL
