MODEL 1
REMARK minimizedAffinity 4.74893236
REMARK minimizedRMSD -1
REMARK  0 active torsions:
REMARK  status: ('A' for Active; 'I' for Inactive)
ROOT
ATOM      1  O1  BZF d   1      -2.281   0.094   3.717  0.00  0.00    -0.204 OA
ATOM      2  C2  BZF d   1      -1.526   0.949   2.938  0.00  0.00     0.174 A 
ATOM      3  C3  BZF d   1      -0.495   0.291   2.368  0.00  0.00    -0.012 A 
ATOM      4  C3A BZF d   1      -0.667  -1.078   2.747  0.00  0.00    -0.107 A 
ATOM      5  C4  BZF d   1       0.030  -2.221   2.478  0.00  0.00     0.055 A 
ATOM      6  C5  BZF d   1      -0.360  -3.385   3.061  0.00  0.00    -0.016 A 
ATOM      7  C6  BZF d   1      -1.437  -3.441   3.921  0.00  0.00     0.022 A 
ATOM      8  C7  BZF d   1      -2.162  -2.334   4.214  0.00  0.00     0.029 A 
ATOM      9  C7A BZF d   1      -1.791  -1.163   3.601  0.00  0.00     0.058 A 
ENDROOT
TORSDOF 0
ENDMDL
