MODEL 1
REMARK minimizedAffinity -0.189222977
REMARK minimizedRMSD -1
REMARK  0 active torsions:
REMARK  status: ('A' for Active; 'I' for Inactive)
ROOT
ATOM      1  O1  BZF d   1      -0.408   2.652   2.819  0.00  0.00    -0.204 OA
ATOM      2  C2  BZF d   1      -1.333   1.738   2.352  0.00  0.00     0.174 A 
ATOM      3  C3  BZF d   1      -1.417   1.788   1.007  0.00  0.00    -0.012 A 
ATOM      4  C3A BZF d   1      -0.419   2.731   0.602  0.00  0.00    -0.107 A 
ATOM      5  C4  BZF d   1      -0.007   3.198  -0.613  0.00  0.00     0.055 A 
ATOM      6  C5  BZF d   1       0.941   4.171  -0.660  0.00  0.00    -0.016 A 
ATOM      7  C6  BZF d   1       1.494   4.701   0.487  0.00  0.00     0.022 A 
ATOM      8  C7  BZF d   1       1.121   4.266   1.715  0.00  0.00     0.029 A 
ATOM      9  C7A BZF d   1       0.187   3.260   1.765  0.00  0.00     0.058 A 
ENDROOT
TORSDOF 0
ENDMDL
