MODEL 1
REMARK minimizedAffinity 19.1691933
REMARK minimizedRMSD -1
REMARK  0 active torsions:
REMARK  status: ('A' for Active; 'I' for Inactive)
ROOT
ATOM      1  O1  BZF d   1      -2.143   6.000  -0.910  0.00  0.00    -0.204 OA
ATOM      2  C2  BZF d   1      -2.600   5.985   0.394  0.00  0.00     0.174 A 
ATOM      3  C3  BZF d   1      -1.969   5.033   1.111  0.00  0.00    -0.012 A 
ATOM      4  C3A BZF d   1      -0.995   4.476   0.222  0.00  0.00    -0.107 A 
ATOM      5  C4  BZF d   1      -0.049   3.501   0.359  0.00  0.00     0.055 A 
ATOM      6  C5  BZF d   1       0.692   3.144  -0.723  0.00  0.00    -0.016 A 
ATOM      7  C6  BZF d   1       0.512   3.738  -1.955  0.00  0.00     0.022 A 
ATOM      8  C7  BZF d   1      -0.411   4.714  -2.138  0.00  0.00     0.029 A 
ATOM      9  C7A BZF d   1      -1.139   5.099  -1.039  0.00  0.00     0.058 A 
ENDROOT
TORSDOF 0
ENDMDL
