MODEL 1
REMARK minimizedAffinity 2.59613442
REMARK minimizedRMSD -1
REMARK  0 active torsions:
REMARK  status: ('A' for Active; 'I' for Inactive)
ROOT
ATOM      1  O1  BZF d   1      -2.718   0.836   3.025  0.00  0.00    -0.204 OA
ATOM      2  C2  BZF d   1      -1.745   1.571   2.376  0.00  0.00     0.174 A 
ATOM      3  C3  BZF d   1      -0.605   0.860   2.259  0.00  0.00    -0.012 A 
ATOM      4  C3A BZF d   1      -0.912  -0.432   2.792  0.00  0.00    -0.107 A 
ATOM      5  C4  BZF d   1      -0.190  -1.582   2.939  0.00  0.00     0.055 A 
ATOM      6  C5  BZF d   1      -0.761  -2.645   3.564  0.00  0.00    -0.016 A 
ATOM      7  C6  BZF d   1      -2.048  -2.590   4.059  0.00  0.00     0.022 A 
ATOM      8  C7  BZF d   1      -2.804  -1.473   3.933  0.00  0.00     0.029 A 
ATOM      9  C7A BZF d   1      -2.242  -0.408   3.272  0.00  0.00     0.058 A 
ENDROOT
TORSDOF 0
ENDMDL
