MODEL 1
REMARK minimizedAffinity 5.78915739
REMARK minimizedRMSD -1
REMARK  0 active torsions:
REMARK  status: ('A' for Active; 'I' for Inactive)
ROOT
ATOM      1  O1  BZF d   1      -2.527   1.347   2.320  0.00  0.00    -0.204 OA
ATOM      2  C2  BZF d   1      -1.699   2.195   1.611  0.00  0.00     0.174 A 
ATOM      3  C3  BZF d   1      -0.443   1.707   1.563  0.00  0.00    -0.012 A 
ATOM      4  C3A BZF d   1      -0.509   0.432   2.208  0.00  0.00    -0.107 A 
ATOM      5  C4  BZF d   1       0.415  -0.542   2.460  0.00  0.00     0.055 A 
ATOM      6  C5  BZF d   1       0.043  -1.635   3.177  0.00  0.00    -0.016 A 
ATOM      7  C6  BZF d   1      -1.240  -1.784   3.660  0.00  0.00     0.022 A 
ATOM      8  C7  BZF d   1      -2.193  -0.847   3.431  0.00  0.00     0.029 A 
ATOM      9  C7A BZF d   1      -1.829   0.243   2.680  0.00  0.00     0.058 A 
ENDROOT
TORSDOF 0
ENDMDL
