MODEL 1
REMARK minimizedAffinity 1.06153047
REMARK minimizedRMSD -1
REMARK  1 active torsions:
REMARK  status: ('A' for Active; 'I' for Inactive)
REMARK    1  A    between atoms: C1_2  and  C2_3 
ROOT
ATOM      1  C2  UNL d   1       1.012   1.242   0.675  0.00  0.00    -0.073 A 
ATOM      2  C3  UNL d   1       0.049   2.255   0.734  0.00  0.00    -0.002 A 
ATOM      3  C4  UNL d   1      -1.299   1.959   0.530  0.00  0.00     0.004 A 
ATOM      4  C5  UNL d   1      -1.699   0.648   0.273  0.00  0.00    -0.004 A 
ATOM      5  C6  UNL d   1      -0.752  -0.381   0.221  0.00  0.00    -0.075 A 
ATOM      6  C7  UNL d   1      -1.165  -1.796  -0.057  0.00  0.00     0.076 C 
ATOM      7  C8  UNL d   1       0.600  -0.075   0.424  0.00  0.00     0.001 A 
ENDROOT
BRANCH   1   8
ATOM      8  C1  UNL d   1       2.469   1.556   0.900  0.00  0.00     0.053 C 
ATOM      9  C   UNL d   1       2.658   2.816   1.730  0.00  0.00     0.018 C 
ENDBRANCH   1   8
TORSDOF 1
ENDMDL
