MODEL 1
REMARK minimizedAffinity -4.15962076
REMARK minimizedRMSD -1
REMARK  1 active torsions:
REMARK  status: ('A' for Active; 'I' for Inactive)
REMARK    1  A    between atoms: C1_2  and  C2_3 
ROOT
ATOM      1  C2  UNL d   1      -0.309  -0.131   0.084  0.00  0.00    -0.073 A 
ATOM      2  C3  UNL d   1      -1.678   0.007   0.341  0.00  0.00    -0.002 A 
ATOM      3  C4  UNL d   1      -2.227   1.267   0.585  0.00  0.00     0.004 A 
ATOM      4  C5  UNL d   1      -1.415   2.401   0.569  0.00  0.00    -0.004 A 
ATOM      5  C6  UNL d   1      -0.047   2.285   0.303  0.00  0.00    -0.075 A 
ATOM      6  C7  UNL d   1       0.841   3.495   0.284  0.00  0.00     0.076 C 
ATOM      7  C8  UNL d   1       0.497   1.016   0.061  0.00  0.00     0.001 A 
ENDROOT
BRANCH   1   8
ATOM      8  C1  UNL d   1       0.286  -1.488  -0.187  0.00  0.00     0.053 C 
ATOM      9  C   UNL d   1      -0.686  -2.402  -0.916  0.00  0.00     0.018 C 
ENDBRANCH   1   8
TORSDOF 1
ENDMDL
