MODEL 1
REMARK minimizedAffinity -2.70656204
REMARK minimizedRMSD -1
REMARK  1 active torsions:
REMARK  status: ('A' for Active; 'I' for Inactive)
REMARK    1  A    between atoms: C1_2  and  C2_3 
ROOT
ATOM      1  C2  UNL d   1      -0.741   0.117   0.140  0.00  0.00    -0.073 A 
ATOM      2  C3  UNL d   1       0.469  -0.385   0.634  0.00  0.00    -0.002 A 
ATOM      3  C4  UNL d   1       0.884  -1.675   0.303  0.00  0.00     0.004 A 
ATOM      4  C5  UNL d   1       0.100  -2.474  -0.529  0.00  0.00    -0.004 A 
ATOM      5  C6  UNL d   1      -1.107  -1.986  -1.042  0.00  0.00    -0.075 A 
ATOM      6  C7  UNL d   1      -1.964  -2.833  -1.936  0.00  0.00     0.076 C 
ATOM      7  C8  UNL d   1      -1.519  -0.690  -0.703  0.00  0.00     0.001 A 
ENDROOT
BRANCH   1   8
ATOM      8  C1  UNL d   1      -1.191   1.512   0.490  0.00  0.00     0.053 C 
ATOM      9  C   UNL d   1      -0.015   2.446   0.731  0.00  0.00     0.018 C 
ENDBRANCH   1   8
TORSDOF 1
ENDMDL
