MODEL 1
REMARK minimizedAffinity -3.68749166
REMARK minimizedRMSD -1
REMARK  1 active torsions:
REMARK  status: ('A' for Active; 'I' for Inactive)
REMARK    1  A    between atoms: C1_2  and  C2_3 
ROOT
ATOM      1  C2  UNL d   1      -0.162  -1.236  -0.037  0.00  0.00    -0.073 A 
ATOM      2  C3  UNL d   1      -1.215  -0.313  -0.024  0.00  0.00    -0.002 A 
ATOM      3  C4  UNL d   1      -0.974   1.026   0.284  0.00  0.00     0.004 A 
ATOM      4  C5  UNL d   1       0.320   1.458   0.575  0.00  0.00    -0.004 A 
ATOM      5  C6  UNL d   1       1.387   0.554   0.555  0.00  0.00    -0.075 A 
ATOM      6  C7  UNL d   1       2.785   1.002   0.867  0.00  0.00     0.076 C 
ATOM      7  C8  UNL d   1       1.137  -0.790   0.247  0.00  0.00     0.001 A 
ENDROOT
BRANCH   1   8
ATOM      8  C1  UNL d   1      -0.416  -2.682  -0.376  0.00  0.00     0.053 C 
ATOM      9  C   UNL d   1      -0.004  -3.015  -1.801  0.00  0.00     0.018 C 
ENDBRANCH   1   8
TORSDOF 1
ENDMDL
