MODEL 1
REMARK minimizedAffinity -3.91264319
REMARK minimizedRMSD -1
REMARK  1 active torsions:
REMARK  status: ('A' for Active; 'I' for Inactive)
REMARK    1  A    between atoms: C1_2  and  C2_3 
ROOT
ATOM      1  C2  UNL d   1      -0.154  -1.097   0.116  0.00  0.00    -0.073 A 
ATOM      2  C3  UNL d   1       1.200  -1.272   0.420  0.00  0.00    -0.002 A 
ATOM      3  C4  UNL d   1       1.977  -0.187   0.826  0.00  0.00     0.004 A 
ATOM      4  C5  UNL d   1       1.408   1.081   0.939  0.00  0.00    -0.004 A 
ATOM      5  C6  UNL d   1       0.053   1.274   0.652  0.00  0.00    -0.075 A 
ATOM      6  C7  UNL d   1      -0.575   2.632   0.767  0.00  0.00     0.076 C 
ATOM      7  C8  UNL d   1      -0.721   0.179   0.242  0.00  0.00     0.001 A 
ENDROOT
BRANCH   1   8
ATOM      8  C1  UNL d   1      -0.999  -2.268  -0.317  0.00  0.00     0.053 C 
ATOM      9  C   UNL d   1      -0.471  -2.913  -1.589  0.00  0.00     0.018 C 
ENDBRANCH   1   8
TORSDOF 1
ENDMDL
