MODEL 1
REMARK minimizedAffinity 7.23269653
REMARK minimizedRMSD -1
REMARK  0 active torsions:
REMARK  status: ('A' for Active; 'I' for Inactive)
ROOT
ATOM      1  C1  DEN d   1       4.701  -4.553   1.243  0.00  0.00     0.130 A 
ATOM      2  C2  DEN d   1       5.316  -4.891  -0.037  0.00  0.00    -0.031 A 
ATOM      3  C3  DEN d   1       4.474  -4.327  -1.111  0.00  0.00     0.027 A 
ATOM      4  C4  DEN d   1       2.291  -2.965  -0.916  0.00  0.00     0.027 A 
ATOM      5  C5  DEN d   1       1.373  -2.436  -0.036  0.00  0.00    -0.003 A 
ATOM      6  C6  DEN d   1       1.481  -2.603   1.319  0.00  0.00     0.001 A 
ATOM      7  C7  DEN d   1       2.554  -3.279   1.837  0.00  0.00     0.017 A 
ATOM      8  C8  DEN d   1       3.480  -3.821   0.956  0.00  0.00    -0.094 A 
ATOM      9  C9  DEN d   1       3.360  -3.631  -0.411  0.00  0.00    -0.072 A 
ENDROOT
TORSDOF 0
ENDMDL
