MODEL 1
REMARK minimizedAffinity 10.1667566
REMARK minimizedRMSD -1
REMARK  0 active torsions:
REMARK  status: ('A' for Active; 'I' for Inactive)
ROOT
ATOM      1  C1  DEN d   1      -2.011   3.485  -0.363  0.00  0.00     0.130 A 
ATOM      2  C2  DEN d   1      -3.040   2.820   0.433  0.00  0.00    -0.031 A 
ATOM      3  C3  DEN d   1      -3.955   2.124  -0.493  0.00  0.00     0.027 A 
ATOM      4  C4  DEN d   1      -3.878   2.009  -3.069  0.00  0.00     0.027 A 
ATOM      5  C5  DEN d   1      -3.197   2.425  -4.191  0.00  0.00    -0.003 A 
ATOM      6  C6  DEN d   1      -2.102   3.245  -4.119  0.00  0.00     0.001 A 
ATOM      7  C7  DEN d   1      -1.628   3.639  -2.895  0.00  0.00     0.017 A 
ATOM      8  C8  DEN d   1      -2.314   3.229  -1.759  0.00  0.00    -0.094 A 
ATOM      9  C9  DEN d   1      -3.412   2.390  -1.853  0.00  0.00    -0.072 A 
ENDROOT
TORSDOF 0
ENDMDL
