MODEL 1
REMARK minimizedAffinity 11.6131496
REMARK minimizedRMSD -1
REMARK  0 active torsions:
REMARK  status: ('A' for Active; 'I' for Inactive)
ROOT
ATOM      1  C1  DEN d   1      -2.783   3.845  -4.114  0.00  0.00     0.130 A 
ATOM      2  C2  DEN d   1      -3.124   2.618  -3.398  0.00  0.00    -0.031 A 
ATOM      3  C3  DEN d   1      -2.010   1.664  -3.572  0.00  0.00     0.027 A 
ATOM      4  C4  DEN d   1       0.198   1.966  -4.871  0.00  0.00     0.027 A 
ATOM      5  C5  DEN d   1       0.931   2.832  -5.652  0.00  0.00    -0.003 A 
ATOM      6  C6  DEN d   1       0.467   4.073  -6.000  0.00  0.00     0.001 A 
ATOM      7  C7  DEN d   1      -0.746   4.501  -5.529  0.00  0.00     0.017 A 
ATOM      8  C8  DEN d   1      -1.495   3.631  -4.747  0.00  0.00    -0.094 A 
ATOM      9  C9  DEN d   1      -1.003   2.385  -4.396  0.00  0.00    -0.072 A 
ENDROOT
TORSDOF 0
ENDMDL
