MODEL 1
REMARK minimizedAffinity 8.90890598
REMARK minimizedRMSD -1
REMARK  0 active torsions:
REMARK  status: ('A' for Active; 'I' for Inactive)
ROOT
ATOM      1  C1  DEN d   1       2.385  -1.972   0.714  0.00  0.00     0.130 A 
ATOM      2  C2  DEN d   1       2.928  -3.014  -0.153  0.00  0.00    -0.031 A 
ATOM      3  C3  DEN d   1       1.873  -4.026  -0.366  0.00  0.00     0.027 A 
ATOM      4  C4  DEN d   1      -0.536  -4.077   0.553  0.00  0.00     0.027 A 
ATOM      5  C5  DEN d   1      -1.450  -3.415   1.343  0.00  0.00    -0.003 A 
ATOM      6  C6  DEN d   1      -1.142  -2.254   2.000  0.00  0.00     0.001 A 
ATOM      7  C7  DEN d   1       0.098  -1.694   1.844  0.00  0.00     0.017 A 
ATOM      8  C8  DEN d   1       1.028  -2.359   1.055  0.00  0.00    -0.094 A 
ATOM      9  C9  DEN d   1       0.693  -3.525   0.388  0.00  0.00    -0.072 A 
ENDROOT
TORSDOF 0
ENDMDL
