MODEL 1
REMARK minimizedAffinity 13.5161114
REMARK minimizedRMSD -1
REMARK  0 active torsions:
REMARK  status: ('A' for Active; 'I' for Inactive)
ROOT
ATOM      1  C1  DEN d   1       4.965   5.982   5.943  0.00  0.00     0.130 A 
ATOM      2  C2  DEN d   1       5.920   5.974   4.838  0.00  0.00    -0.031 A 
ATOM      3  C3  DEN d   1       5.156   5.965   3.574  0.00  0.00     0.027 A 
ATOM      4  C4  DEN d   1       2.601   5.966   3.222  0.00  0.00     0.027 A 
ATOM      5  C5  DEN d   1       1.380   5.959   3.860  0.00  0.00    -0.003 A 
ATOM      6  C6  DEN d   1       1.269   5.925   5.224  0.00  0.00     0.001 A 
ATOM      7  C7  DEN d   1       2.400   5.942   5.998  0.00  0.00     0.017 A 
ATOM      8  C8  DEN d   1       3.634   5.942   5.362  0.00  0.00    -0.094 A 
ATOM      9  C9  DEN d   1       3.726   5.989   3.982  0.00  0.00    -0.072 A 
ENDROOT
TORSDOF 0
ENDMDL
