MODEL 1
REMARK minimizedAffinity 5.12757969
REMARK minimizedRMSD -1
REMARK  0 active torsions:
REMARK  status: ('A' for Active; 'I' for Inactive)
ROOT
ATOM      1  C1  DEN d   1      -0.180   2.562  -4.879  0.00  0.00     0.130 A 
ATOM      2  C2  DEN d   1      -0.045   3.739  -5.733  0.00  0.00    -0.031 A 
ATOM      3  C3  DEN d   1      -1.308   4.502  -5.662  0.00  0.00     0.027 A 
ATOM      4  C4  DEN d   1      -3.446   3.980  -4.316  0.00  0.00     0.027 A 
ATOM      5  C5  DEN d   1      -4.038   3.084  -3.454  0.00  0.00    -0.003 A 
ATOM      6  C6  DEN d   1      -3.405   1.944  -3.036  0.00  0.00     0.001 A 
ATOM      7  C7  DEN d   1      -2.122   1.692  -3.445  0.00  0.00     0.017 A 
ATOM      8  C8  DEN d   1      -1.520   2.586  -4.320  0.00  0.00    -0.094 A 
ATOM      9  C9  DEN d   1      -2.173   3.740  -4.722  0.00  0.00    -0.072 A 
ENDROOT
TORSDOF 0
ENDMDL
