MODEL 1
REMARK minimizedAffinity 16.1159534
REMARK minimizedRMSD -1
REMARK  0 active torsions:
REMARK  status: ('A' for Active; 'I' for Inactive)
ROOT
ATOM      1  C1  DEN d   1       4.912  -4.625  -1.087  0.00  0.00     0.130 A 
ATOM      2  C2  DEN d   1       5.903  -4.831  -0.034  0.00  0.00    -0.031 A 
ATOM      3  C3  DEN d   1       5.324  -4.353   1.237  0.00  0.00     0.027 A 
ATOM      4  C4  DEN d   1       3.000  -3.324   1.677  0.00  0.00     0.027 A 
ATOM      5  C5  DEN d   1       1.815  -2.938   1.092  0.00  0.00    -0.003 A 
ATOM      6  C6  DEN d   1       1.593  -3.055  -0.255  0.00  0.00     0.001 A 
ATOM      7  C7  DEN d   1       2.555  -3.613  -1.055  0.00  0.00     0.017 A 
ATOM      8  C8  DEN d   1       3.756  -3.998  -0.474  0.00  0.00    -0.094 A 
ATOM      9  C9  DEN d   1       3.956  -3.883   0.892  0.00  0.00    -0.072 A 
ENDROOT
TORSDOF 0
ENDMDL
