MODEL 1
REMARK minimizedAffinity 10.064805
REMARK minimizedRMSD -1
REMARK  0 active torsions:
REMARK  status: ('A' for Active; 'I' for Inactive)
ROOT
ATOM      1  C1  DEN d   1      -2.338   4.142  -3.821  0.00  0.00     0.130 A 
ATOM      2  C2  DEN d   1      -2.689   2.907  -3.124  0.00  0.00    -0.031 A 
ATOM      3  C3  DEN d   1      -1.661   1.896  -3.442  0.00  0.00     0.027 A 
ATOM      4  C4  DEN d   1       0.431   2.121  -4.932  0.00  0.00     0.027 A 
ATOM      5  C5  DEN d   1       1.144   2.975  -5.745  0.00  0.00    -0.003 A 
ATOM      6  C6  DEN d   1       0.731   4.256  -5.999  0.00  0.00     0.001 A 
ATOM      7  C7  DEN d   1      -0.403   4.735  -5.398  0.00  0.00     0.017 A 
ATOM      8  C8  DEN d   1      -1.130   3.878  -4.583  0.00  0.00    -0.094 A 
ATOM      9  C9  DEN d   1      -0.690   2.590  -4.329  0.00  0.00    -0.072 A 
ENDROOT
TORSDOF 0
ENDMDL
