MODEL 1
REMARK minimizedAffinity -3.25630713
REMARK minimizedRMSD -1
REMARK  0 active torsions:
REMARK  status: ('A' for Active; 'I' for Inactive)
ROOT
ATOM      1  C   UNL d   1       0.264   2.123  -1.122  0.00  0.00     0.172 C 
ATOM      2  N   UNL d   1       0.233   1.364   0.106  0.00  0.00    -0.070 N 
ATOM      3  C1  UNL d   1       0.191   1.891   1.369  0.00  0.00    -0.004 A 
ATOM      4  C2  UNL d   1       0.172   0.842   2.263  0.00  0.00    -0.047 A 
ATOM      5  C3  UNL d   1       0.204  -0.356   1.512  0.00  0.00    -0.047 A 
ATOM      6  C4  UNL d   1       0.241  -0.004   0.179  0.00  0.00    -0.004 A 
ENDROOT
TORSDOF 0
ENDMDL
