MODEL 1
REMARK minimizedAffinity -3.7548039
REMARK minimizedRMSD -1
REMARK  0 active torsions:
REMARK  status: ('A' for Active; 'I' for Inactive)
ROOT
ATOM      1  C   UNL d   1       0.378  -0.435  -0.836  0.00  0.00     0.172 C 
ATOM      2  N   UNL d   1       0.079   0.556   0.172  0.00  0.00    -0.070 N 
ATOM      3  C1  UNL d   1       0.038   0.333   1.522  0.00  0.00    -0.004 A 
ATOM      4  C2  UNL d   1      -0.279   1.525   2.137  0.00  0.00    -0.047 A 
ATOM      5  C3  UNL d   1      -0.435   2.497   1.121  0.00  0.00    -0.047 A 
ATOM      6  C4  UNL d   1      -0.208   1.870  -0.086  0.00  0.00    -0.004 A 
ENDROOT
TORSDOF 0
ENDMDL
