MODEL 1
REMARK minimizedAffinity -2.91013074
REMARK minimizedRMSD -1
REMARK  0 active torsions:
REMARK  status: ('A' for Active; 'I' for Inactive)
ROOT
ATOM      1  C   UNL d   1       0.058   2.109   1.707  0.00  0.00     0.172 C 
ATOM      2  N   UNL d   1       0.322   1.217   0.602  0.00  0.00    -0.070 N 
ATOM      3  C1  UNL d   1       0.213   1.535  -0.725  0.00  0.00    -0.004 A 
ATOM      4  C2  UNL d   1       0.550   0.417  -1.457  0.00  0.00    -0.047 A 
ATOM      5  C3  UNL d   1       0.871  -0.610  -0.537  0.00  0.00    -0.047 A 
ATOM      6  C4  UNL d   1       0.722  -0.087   0.730  0.00  0.00    -0.004 A 
ENDROOT
TORSDOF 0
ENDMDL
