MODEL 1
REMARK minimizedAffinity -2.98827863
REMARK minimizedRMSD -1
REMARK  0 active torsions:
REMARK  status: ('A' for Active; 'I' for Inactive)
ROOT
ATOM      1  C   UNL d   1       0.266  -0.635  -0.418  0.00  0.00     0.172 C 
ATOM      2  N   UNL d   1      -0.212   0.509   0.323  0.00  0.00    -0.070 N 
ATOM      3  C1  UNL d   1      -0.993   1.516  -0.178  0.00  0.00    -0.004 A 
ATOM      4  C2  UNL d   1      -1.230   2.413   0.841  0.00  0.00    -0.047 A 
ATOM      5  C3  UNL d   1      -0.569   1.929   1.994  0.00  0.00    -0.047 A 
ATOM      6  C4  UNL d   1       0.054   0.749   1.645  0.00  0.00    -0.004 A 
ENDROOT
TORSDOF 0
ENDMDL
