MODEL 1
REMARK minimizedAffinity 6.9030118
REMARK minimizedRMSD -1
REMARK  0 active torsions:
REMARK  status: ('A' for Active; 'I' for Inactive)
ROOT
ATOM      1  C   UNL d   1       0.002   0.604  -0.548  0.00  0.00     0.172 C 
ATOM      2  N   UNL d   1       0.250   0.779   0.864  0.00  0.00    -0.070 N 
ATOM      3  C1  UNL d   1       0.366   1.981   1.511  0.00  0.00    -0.004 A 
ATOM      4  C2  UNL d   1       0.598   1.721   2.844  0.00  0.00    -0.047 A 
ATOM      5  C3  UNL d   1       0.622   0.316   3.005  0.00  0.00    -0.047 A 
ATOM      6  C4  UNL d   1       0.404  -0.243   1.763  0.00  0.00    -0.004 A 
ENDROOT
TORSDOF 0
ENDMDL
