MODEL 1
REMARK minimizedAffinity -4.99334145
REMARK minimizedRMSD -1
REMARK  0 active torsions:
REMARK  status: ('A' for Active; 'I' for Inactive)
ROOT
ATOM      1  C2' OXE d   1      -0.568   1.007  -0.387  0.00  0.00     0.078 C 
ATOM      2  C1' OXE d   1      -1.329  -0.707   1.702  0.00  0.00     0.078 C 
ATOM      3  C1  OXE d   1       0.063  -0.856   1.141  0.00  0.00    -0.078 A 
ATOM      4  C2  OXE d   1       0.411  -0.045   0.088  0.00  0.00    -0.078 A 
ATOM      5  C3  OXE d   1       1.701  -0.104  -0.430  0.00  0.00     0.003 A 
ATOM      6  C4  OXE d   1       2.597  -1.086   0.008  0.00  0.00    -0.002 A 
ATOM      7  C5  OXE d   1       2.249  -1.949   1.053  0.00  0.00    -0.002 A 
ATOM      8  C6  OXE d   1       1.004  -1.819   1.658  0.00  0.00     0.003 A 
ENDROOT
TORSDOF 0
ENDMDL
