MODEL 1
REMARK minimizedAffinity -3.55348873
REMARK minimizedRMSD -1
REMARK  0 active torsions:
REMARK  status: ('A' for Active; 'I' for Inactive)
ROOT
ATOM      1  C2' OXE d   1       1.226  -2.786   1.477  0.00  0.00     0.078 C 
ATOM      2  C1' OXE d   1       3.315  -0.911   1.437  0.00  0.00     0.078 C 
ATOM      3  C1  OXE d   1       2.133  -0.667   0.532  0.00  0.00    -0.078 A 
ATOM      4  C2  OXE d   1       1.137  -1.614   0.524  0.00  0.00    -0.078 A 
ATOM      5  C3  OXE d   1      -0.001  -1.411  -0.251  0.00  0.00     0.003 A 
ATOM      6  C4  OXE d   1      -0.071  -0.329  -1.138  0.00  0.00    -0.002 A 
ATOM      7  C5  OXE d   1       0.950   0.626  -1.174  0.00  0.00    -0.002 A 
ATOM      8  C6  OXE d   1       2.037   0.494  -0.317  0.00  0.00     0.003 A 
ENDROOT
TORSDOF 0
ENDMDL
