MODEL 1
REMARK minimizedAffinity -4.52090693
REMARK minimizedRMSD -1
REMARK  0 active torsions:
REMARK  status: ('A' for Active; 'I' for Inactive)
ROOT
ATOM      1  C2' OXE d   1       1.351  -0.997  -2.202  0.00  0.00     0.078 C 
ATOM      2  C1' OXE d   1       1.253  -2.483   0.177  0.00  0.00     0.078 C 
ATOM      3  C1  OXE d   1       0.470  -1.195   0.119  0.00  0.00    -0.078 A 
ATOM      4  C2  OXE d   1       0.561  -0.451  -1.032  0.00  0.00    -0.078 A 
ATOM      5  C3  OXE d   1      -0.184   0.718  -1.159  0.00  0.00     0.003 A 
ATOM      6  C4  OXE d   1      -0.904   1.221  -0.069  0.00  0.00    -0.002 A 
ATOM      7  C5  OXE d   1      -0.978   0.499   1.127  0.00  0.00    -0.002 A 
ATOM      8  C6  OXE d   1      -0.333  -0.729   1.223  0.00  0.00     0.003 A 
ENDROOT
TORSDOF 0
ENDMDL
