MODEL 1
REMARK minimizedAffinity -1.8247211
REMARK minimizedRMSD -1
REMARK  0 active torsions:
REMARK  status: ('A' for Active; 'I' for Inactive)
ROOT
ATOM      1  C2' OXE d   1      -0.910  -1.720   2.446  0.00  0.00     0.078 C 
ATOM      2  C1' OXE d   1       1.873  -1.730   2.079  0.00  0.00     0.078 C 
ATOM      3  C1  OXE d   1       1.054  -0.800   1.220  0.00  0.00    -0.078 A 
ATOM      4  C2  OXE d   1      -0.311  -0.836   1.374  0.00  0.00    -0.078 A 
ATOM      5  C3  OXE d   1      -1.110   0.040   0.645  0.00  0.00     0.003 A 
ATOM      6  C4  OXE d   1      -0.550   0.848  -0.352  0.00  0.00    -0.002 A 
ATOM      7  C5  OXE d   1       0.834   0.870  -0.553  0.00  0.00    -0.002 A 
ATOM      8  C6  OXE d   1       1.652   0.085   0.252  0.00  0.00     0.003 A 
ENDROOT
TORSDOF 0
ENDMDL
