MODEL 1
REMARK minimizedAffinity -2.26061726
REMARK minimizedRMSD -1
REMARK  0 active torsions:
REMARK  status: ('A' for Active; 'I' for Inactive)
ROOT
ATOM      1  C2' OXE d   1      -1.597  -0.409   1.773  0.00  0.00     0.078 C 
ATOM      2  C1' OXE d   1      -0.914   0.267  -0.864  0.00  0.00     0.078 C 
ATOM      3  C1  OXE d   1      -0.037  -0.726  -0.142  0.00  0.00    -0.078 A 
ATOM      4  C2  OXE d   1      -0.352  -1.015   1.164  0.00  0.00    -0.078 A 
ATOM      5  C3  OXE d   1       0.391  -1.965   1.858  0.00  0.00     0.003 A 
ATOM      6  C4  OXE d   1       1.548  -2.514   1.290  0.00  0.00    -0.002 A 
ATOM      7  C5  OXE d   1       1.909  -2.203  -0.025  0.00  0.00    -0.002 A 
ATOM      8  C6  OXE d   1       1.106  -1.345  -0.768  0.00  0.00     0.003 A 
ENDROOT
TORSDOF 0
ENDMDL
