MODEL 1
REMARK minimizedAffinity -5.71334982
REMARK minimizedRMSD -1
REMARK  0 active torsions:
REMARK  status: ('A' for Active; 'I' for Inactive)
ROOT
ATOM      1  C2' OXE d   1       2.301   0.897  -0.565  0.00  0.00     0.078 C 
ATOM      2  C1' OXE d   1      -0.506   0.911  -0.617  0.00  0.00     0.078 C 
ATOM      3  C1  OXE d   1       0.180  -0.300  -0.037  0.00  0.00    -0.078 A 
ATOM      4  C2  OXE d   1       1.554  -0.318  -0.058  0.00  0.00    -0.078 A 
ATOM      5  C3  OXE d   1       2.238  -1.387   0.515  0.00  0.00     0.003 A 
ATOM      6  C4  OXE d   1       1.540  -2.511   0.973  0.00  0.00    -0.002 A 
ATOM      7  C5  OXE d   1       0.141  -2.530   0.967  0.00  0.00    -0.002 A 
ATOM      8  C6  OXE d   1      -0.553  -1.417   0.506  0.00  0.00     0.003 A 
ENDROOT
TORSDOF 0
ENDMDL
