MODEL 1
REMARK minimizedAffinity -4.14322662
REMARK minimizedRMSD -1
REMARK  0 active torsions:
REMARK  status: ('A' for Active; 'I' for Inactive)
ROOT
ATOM      1  C2' OXE d   1       1.558  -2.692   0.805  0.00  0.00     0.078 C 
ATOM      2  C1' OXE d   1       3.193  -0.699  -0.305  0.00  0.00     0.078 C 
ATOM      3  C1  OXE d   1       1.767  -0.336   0.022  0.00  0.00    -0.078 A 
ATOM      4  C2  OXE d   1       0.960  -1.330   0.522  0.00  0.00    -0.078 A 
ATOM      5  C3  OXE d   1      -0.349  -1.035   0.892  0.00  0.00     0.003 A 
ATOM      6  C4  OXE d   1      -0.897   0.224   0.618  0.00  0.00    -0.002 A 
ATOM      7  C5  OXE d   1      -0.104   1.239   0.073  0.00  0.00    -0.002 A 
ATOM      8  C6  OXE d   1       1.238   0.989  -0.191  0.00  0.00     0.003 A 
ENDROOT
TORSDOF 0
ENDMDL
