MODEL 1
REMARK minimizedAffinity -3.95581317
REMARK minimizedRMSD -1
REMARK  0 active torsions:
REMARK  status: ('A' for Active; 'I' for Inactive)
ROOT
ATOM      1  C2' OXE d   1      -0.879   0.828  -1.228  0.00  0.00     0.078 C 
ATOM      2  C1' OXE d   1      -1.365   0.059   1.427  0.00  0.00     0.078 C 
ATOM      3  C1  OXE d   1      -0.011  -0.252   0.842  0.00  0.00    -0.078 A 
ATOM      4  C2  OXE d   1       0.203   0.086  -0.473  0.00  0.00    -0.078 A 
ATOM      5  C3  OXE d   1       1.453  -0.129  -1.046  0.00  0.00     0.003 A 
ATOM      6  C4  OXE d   1       2.445  -0.824  -0.343  0.00  0.00    -0.002 A 
ATOM      7  C5  OXE d   1       2.234  -1.213   0.984  0.00  0.00    -0.002 A 
ATOM      8  C6  OXE d   1       1.030  -0.897   1.604  0.00  0.00     0.003 A 
ENDROOT
TORSDOF 0
ENDMDL
