MODEL 1
REMARK minimizedAffinity -4.97334433
REMARK minimizedRMSD -1
REMARK  0 active torsions:
REMARK  status: ('A' for Active; 'I' for Inactive)
ROOT
ATOM      1  C2' OXE d   1      -1.266   1.099   0.096  0.00  0.00     0.078 C 
ATOM      2  C1' OXE d   1      -1.299  -0.816   2.148  0.00  0.00     0.078 C 
ATOM      3  C1  OXE d   1      -0.426  -1.086   0.948  0.00  0.00    -0.078 A 
ATOM      4  C2  OXE d   1      -0.452  -0.166  -0.072  0.00  0.00    -0.078 A 
ATOM      5  C3  OXE d   1       0.376  -0.339  -1.177  0.00  0.00     0.003 A 
ATOM      6  C4  OXE d   1       1.118  -1.517  -1.329  0.00  0.00    -0.002 A 
ATOM      7  C5  OXE d   1       1.128  -2.485  -0.320  0.00  0.00    -0.002 A 
ATOM      8  C6  OXE d   1       0.396  -2.266   0.842  0.00  0.00     0.003 A 
ENDROOT
TORSDOF 0
ENDMDL
