MODEL 1
REMARK minimizedAffinity -2.28154778
REMARK minimizedRMSD -1
REMARK  0 active torsions:
REMARK  status: ('A' for Active; 'I' for Inactive)
ROOT
ATOM      1  C2' OXE d   1      -0.908   0.804   1.246  0.00  0.00     0.078 C 
ATOM      2  C1' OXE d   1      -0.337   0.934  -1.500  0.00  0.00     0.078 C 
ATOM      3  C1  OXE d   1       0.507   0.019  -0.648  0.00  0.00    -0.078 A 
ATOM      4  C2  OXE d   1       0.252  -0.003   0.702  0.00  0.00    -0.078 A 
ATOM      5  C3  OXE d   1       0.965  -0.870   1.525  0.00  0.00     0.003 A 
ATOM      6  C4  OXE d   1       2.042  -1.605   1.015  0.00  0.00    -0.002 A 
ATOM      7  C5  OXE d   1       2.345  -1.567  -0.350  0.00  0.00    -0.002 A 
ATOM      8  C6  OXE d   1       1.562  -0.794  -1.201  0.00  0.00     0.003 A 
ENDROOT
TORSDOF 0
ENDMDL
