MODEL 1
REMARK minimizedAffinity -4.59949732
REMARK minimizedRMSD -1
REMARK  0 active torsions:
REMARK  status: ('A' for Active; 'I' for Inactive)
ROOT
ATOM      1  C2' OXE d   1       3.563  -1.126   0.939  0.00  0.00     0.078 C 
ATOM      2  C1' OXE d   1       1.463  -2.883   1.559  0.00  0.00     0.078 C 
ATOM      3  C1  OXE d   1       1.125  -1.621   0.806  0.00  0.00    -0.078 A 
ATOM      4  C2  OXE d   1       2.152  -0.744   0.548  0.00  0.00    -0.078 A 
ATOM      5  C3  OXE d   1       1.904   0.409  -0.191  0.00  0.00     0.003 A 
ATOM      6  C4  OXE d   1       0.594   0.759  -0.540  0.00  0.00    -0.002 A 
ATOM      7  C5  OXE d   1      -0.472  -0.100  -0.252  0.00  0.00    -0.002 A 
ATOM      8  C6  OXE d   1      -0.218  -1.312   0.381  0.00  0.00     0.003 A 
ENDROOT
TORSDOF 0
ENDMDL
