MODEL 1
REMARK minimizedAffinity -2.32236385
REMARK minimizedRMSD -1
REMARK  0 active torsions:
REMARK  status: ('A' for Active; 'I' for Inactive)
ROOT
ATOM      1  C2' OXE d   1      -1.959   1.171   1.549  0.00  0.00     0.078 C 
ATOM      2  C1' OXE d   1      -1.198   1.856  -1.064  0.00  0.00     0.078 C 
ATOM      3  C1  OXE d   1      -0.432   0.754  -0.374  0.00  0.00    -0.078 A 
ATOM      4  C2  OXE d   1      -0.781   0.457   0.921  0.00  0.00    -0.078 A 
ATOM      5  C3  OXE d   1      -0.144  -0.587   1.584  0.00  0.00     0.003 A 
ATOM      6  C4  OXE d   1       0.951  -1.235   1.000  0.00  0.00    -0.002 A 
ATOM      7  C5  OXE d   1       1.348  -0.921  -0.304  0.00  0.00    -0.002 A 
ATOM      8  C6  OXE d   1       0.642   0.040  -1.019  0.00  0.00     0.003 A 
ENDROOT
TORSDOF 0
ENDMDL
