MODEL 1
REMARK minimizedAffinity -5.92140722
REMARK minimizedRMSD -1
REMARK  0 active torsions:
REMARK  status: ('A' for Active; 'I' for Inactive)
ROOT
ATOM      1  C2' OXE d   1       2.675   0.760  -0.819  0.00  0.00     0.078 C 
ATOM      2  C1' OXE d   1      -0.011   1.199  -0.133  0.00  0.00     0.078 C 
ATOM      3  C1  OXE d   1       0.632  -0.085   0.328  0.00  0.00    -0.078 A 
ATOM      4  C2  OXE d   1       1.933  -0.312  -0.052  0.00  0.00    -0.078 A 
ATOM      5  C3  OXE d   1       2.591  -1.455   0.393  0.00  0.00     0.003 A 
ATOM      6  C4  OXE d   1       1.894  -2.447   1.094  0.00  0.00    -0.002 A 
ATOM      7  C5  OXE d   1       0.557  -2.253   1.457  0.00  0.00    -0.002 A 
ATOM      8  C6  OXE d   1      -0.075  -1.062   1.120  0.00  0.00     0.003 A 
ENDROOT
TORSDOF 0
ENDMDL
