MODEL 1
REMARK minimizedAffinity 2.16596651
REMARK minimizedRMSD -1
REMARK  0 active torsions:
REMARK  status: ('A' for Active; 'I' for Inactive)
ROOT
ATOM      1  C2' OXE d   1       0.239  -0.716  -1.633  0.00  0.00     0.078 C 
ATOM      2  C1' OXE d   1       1.580  -0.459   0.819  0.00  0.00     0.078 C 
ATOM      3  C1  OXE d   1       0.090  -0.231   0.805  0.00  0.00    -0.078 A 
ATOM      4  C2  OXE d   1      -0.552  -0.313  -0.407  0.00  0.00    -0.078 A 
ATOM      5  C3  OXE d   1      -1.934  -0.165  -0.467  0.00  0.00     0.003 A 
ATOM      6  C4  OXE d   1      -2.656   0.218   0.670  0.00  0.00    -0.002 A 
ATOM      7  C5  OXE d   1      -2.017   0.346   1.907  0.00  0.00    -0.002 A 
ATOM      8  C6  OXE d   1      -0.654   0.084   2.000  0.00  0.00     0.003 A 
ENDROOT
TORSDOF 0
ENDMDL
