MODEL 1
REMARK minimizedAffinity -2.03888583
REMARK minimizedRMSD -1
REMARK  0 active torsions:
REMARK  status: ('A' for Active; 'I' for Inactive)
ROOT
ATOM      1  C2' OXE d   1      -1.435  -1.547  -0.396  0.00  0.00     0.078 C 
ATOM      2  C1' OXE d   1      -0.967   1.204  -0.704  0.00  0.00     0.078 C 
ATOM      3  C1  OXE d   1       0.213   0.321  -0.386  0.00  0.00    -0.078 A 
ATOM      4  C2  OXE d   1      -0.032  -1.017  -0.191  0.00  0.00    -0.078 A 
ATOM      5  C3  OXE d   1       1.029  -1.884   0.051  0.00  0.00     0.003 A 
ATOM      6  C4  OXE d   1       2.322  -1.385   0.249  0.00  0.00    -0.002 A 
ATOM      7  C5  OXE d   1       2.587  -0.020   0.094  0.00  0.00    -0.002 A 
ATOM      8  C6  OXE d   1       1.554   0.838  -0.264  0.00  0.00     0.003 A 
ENDROOT
TORSDOF 0
ENDMDL
