MODEL 1
REMARK minimizedAffinity -2.35431194
REMARK minimizedRMSD -1
REMARK  0 active torsions:
REMARK  status: ('A' for Active; 'I' for Inactive)
ROOT
ATOM      1  C2' OXE d   1      -1.959   1.893  -2.467  0.00  0.00     0.078 C 
ATOM      2  C1' OXE d   1      -1.626   1.865   0.320  0.00  0.00     0.078 C 
ATOM      3  C1  OXE d   1      -0.797   0.906  -0.497  0.00  0.00    -0.078 A 
ATOM      4  C2  OXE d   1      -1.000   0.893  -1.856  0.00  0.00    -0.078 A 
ATOM      5  C3  OXE d   1      -0.223   0.066  -2.662  0.00  0.00     0.003 A 
ATOM      6  C4  OXE d   1       0.654  -0.862  -2.088  0.00  0.00    -0.002 A 
ATOM      7  C5  OXE d   1       0.847  -0.894  -0.703  0.00  0.00    -0.002 A 
ATOM      8  C6  OXE d   1       0.162   0.011   0.102  0.00  0.00     0.003 A 
ENDROOT
TORSDOF 0
ENDMDL
