MODEL 1
REMARK minimizedAffinity -1.84773362
REMARK minimizedRMSD -1
REMARK  0 active torsions:
REMARK  status: ('A' for Active; 'I' for Inactive)
ROOT
ATOM      1  C2' OXE d   1      -0.808   1.244  -0.732  0.00  0.00     0.078 C 
ATOM      2  C1' OXE d   1      -1.396  -0.704   1.202  0.00  0.00     0.078 C 
ATOM      3  C1  OXE d   1      -0.051  -0.771   0.522  0.00  0.00    -0.078 A 
ATOM      4  C2  OXE d   1       0.210   0.158  -0.456  0.00  0.00    -0.078 A 
ATOM      5  C3  OXE d   1       1.456   0.175  -1.076  0.00  0.00     0.003 A 
ATOM      6  C4  OXE d   1       2.387  -0.839  -0.823  0.00  0.00    -0.002 A 
ATOM      7  C5  OXE d   1       2.126  -1.818   0.141  0.00  0.00    -0.002 A 
ATOM      8  C6  OXE d   1       0.931  -1.774   0.851  0.00  0.00     0.003 A 
ENDROOT
TORSDOF 0
ENDMDL
