MODEL 1
REMARK minimizedAffinity -1.19123411
REMARK minimizedRMSD -1
REMARK  0 active torsions:
REMARK  status: ('A' for Active; 'I' for Inactive)
ROOT
ATOM      1  C2' OXE d   1       3.985  -0.797   1.641  0.00  0.00     0.078 C 
ATOM      2  C1' OXE d   1       1.933  -2.712   1.622  0.00  0.00     0.078 C 
ATOM      3  C1  OXE d   1       1.793  -1.523   0.705  0.00  0.00    -0.078 A 
ATOM      4  C2  OXE d   1       2.779  -0.567   0.755  0.00  0.00    -0.078 A 
ATOM      5  C3  OXE d   1       2.727   0.523  -0.110  0.00  0.00     0.003 A 
ATOM      6  C4  OXE d   1       1.604   0.733  -0.918  0.00  0.00    -0.002 A 
ATOM      7  C5  OXE d   1       0.569  -0.208  -0.955  0.00  0.00    -0.002 A 
ATOM      8  C6  OXE d   1       0.668  -1.360  -0.182  0.00  0.00     0.003 A 
ENDROOT
TORSDOF 0
ENDMDL
