MODEL 1
REMARK minimizedAffinity 3.55332017
REMARK minimizedRMSD -1
REMARK  3 active torsions:
REMARK  status: ('A' for Active; 'I' for Inactive)
REMARK    1  A    between atoms: C3'_2  and  C2'_3 
REMARK    2  A    between atoms: C2'_3  and  C1'_4 
REMARK    3  A    between atoms: C1'_4  and  C1_5 
ROOT
ATOM      1  C1  N4B d   1      -4.821  -2.482  -5.746  0.00  0.00    -0.075 A 
ATOM      2  C2  N4B d   1      -3.609  -3.192  -5.898  0.00  0.00     0.002 A 
ATOM      3  C3  N4B d   1      -3.625  -4.562  -6.000  0.00  0.00     0.002 A 
ATOM      4  C4  N4B d   1      -4.832  -5.241  -5.935  0.00  0.00    -0.004 A 
ATOM      5  C5  N4B d   1      -6.000  -4.546  -5.814  0.00  0.00     0.002 A 
ATOM      6  C6  N4B d   1      -6.000  -3.169  -5.714  0.00  0.00     0.002 A 
ENDROOT
BRANCH   1   7
ATOM      7  C1' N4B d   1      -4.847  -0.992  -5.545  0.00  0.00     0.057 C 
BRANCH   7   8
ATOM      8  C2' N4B d   1      -3.730  -0.596  -4.584  0.00  0.00     0.009 C 
BRANCH   8   9
ATOM      9  C3' N4B d   1      -3.838   0.856  -4.154  0.00  0.00     0.004 C 
ATOM     10  C4' N4B d   1      -3.204   1.116  -2.820  0.00  0.00     0.003 C 
ENDBRANCH   8   9
ENDBRANCH   7   8
ENDBRANCH   1   7
TORSDOF 3
ENDMDL
