MODEL 1
REMARK minimizedAffinity 16.6453476
REMARK minimizedRMSD -1
REMARK  3 active torsions:
REMARK  status: ('A' for Active; 'I' for Inactive)
REMARK    1  A    between atoms: C3'_2  and  C2'_3 
REMARK    2  A    between atoms: C2'_3  and  C1'_4 
REMARK    3  A    between atoms: C1'_4  and  C1_5 
ROOT
ATOM      1  C1  N4B d   1       4.049  -0.784  -3.745  0.00  0.00    -0.075 A 
ATOM      2  C2  N4B d   1       4.093   0.514  -4.300  0.00  0.00     0.002 A 
ATOM      3  C3  N4B d   1       4.842   0.754  -5.425  0.00  0.00     0.002 A 
ATOM      4  C4  N4B d   1       5.568  -0.279  -6.000  0.00  0.00    -0.004 A 
ATOM      5  C5  N4B d   1       5.500  -1.535  -5.472  0.00  0.00     0.002 A 
ATOM      6  C6  N4B d   1       4.748  -1.792  -4.344  0.00  0.00     0.002 A 
ENDROOT
BRANCH   1   7
ATOM      7  C1' N4B d   1       3.313  -1.076  -2.466  0.00  0.00     0.057 C 
BRANCH   7   8
ATOM      8  C2' N4B d   1       4.095  -0.492  -1.293  0.00  0.00     0.009 C 
BRANCH   8   9
ATOM      9  C3' N4B d   1       3.780  -1.205   0.011  0.00  0.00     0.004 C 
ATOM     10  C4' N4B d   1       3.276  -0.274   1.074  0.00  0.00     0.003 C 
ENDBRANCH   8   9
ENDBRANCH   7   8
ENDBRANCH   1   7
TORSDOF 3
ENDMDL
