MODEL 1
REMARK minimizedAffinity 12.1881237
REMARK minimizedRMSD -1
REMARK  3 active torsions:
REMARK  status: ('A' for Active; 'I' for Inactive)
REMARK    1  A    between atoms: C3'_2  and  C2'_3 
REMARK    2  A    between atoms: C2'_3  and  C1'_4 
REMARK    3  A    between atoms: C1'_4  and  C1_5 
ROOT
ATOM      1  C1  N4B d   1      -2.825   2.550  -0.435  0.00  0.00    -0.075 A 
ATOM      2  C2  N4B d   1      -3.923   3.327  -0.007  0.00  0.00     0.002 A 
ATOM      3  C3  N4B d   1      -4.030   3.696   1.312  0.00  0.00     0.002 A 
ATOM      4  C4  N4B d   1      -3.066   3.285   2.219  0.00  0.00    -0.004 A 
ATOM      5  C5  N4B d   1      -1.995   2.556   1.793  0.00  0.00     0.002 A 
ATOM      6  C6  N4B d   1      -1.872   2.181   0.470  0.00  0.00     0.002 A 
ENDROOT
BRANCH   1   7
ATOM      7  C1' N4B d   1      -2.709   2.050  -1.849  0.00  0.00     0.057 C 
BRANCH   7   8
ATOM      8  C2' N4B d   1      -4.018   1.377  -2.251  0.00  0.00     0.009 C 
BRANCH   8   9
ATOM      9  C3' N4B d   1      -4.229   1.397  -3.755  0.00  0.00     0.004 C 
ATOM     10  C4' N4B d   1      -5.381   2.264  -4.169  0.00  0.00     0.003 C 
ENDBRANCH   8   9
ENDBRANCH   7   8
ENDBRANCH   1   7
TORSDOF 3
ENDMDL
