MODEL 1
REMARK minimizedAffinity 2.89062977
REMARK minimizedRMSD -1
REMARK  3 active torsions:
REMARK  status: ('A' for Active; 'I' for Inactive)
REMARK    1  A    between atoms: C3'_2  and  C2'_3 
REMARK    2  A    between atoms: C2'_3  and  C1'_4 
REMARK    3  A    between atoms: C1'_4  and  C1_5 
ROOT
ATOM      1  C1  N4B d   1       3.840  -1.473  -4.520  0.00  0.00    -0.075 A 
ATOM      2  C2  N4B d   1       5.096  -1.432  -5.164  0.00  0.00     0.002 A 
ATOM      3  C3  N4B d   1       5.461  -0.325  -5.889  0.00  0.00     0.002 A 
ATOM      4  C4  N4B d   1       4.583   0.743  -6.000  0.00  0.00    -0.004 A 
ATOM      5  C5  N4B d   1       3.381   0.706  -5.354  0.00  0.00     0.002 A 
ATOM      6  C6  N4B d   1       3.003  -0.399  -4.618  0.00  0.00     0.002 A 
ENDROOT
BRANCH   1   7
ATOM      7  C1' N4B d   1       3.362  -2.696  -3.788  0.00  0.00     0.057 C 
BRANCH   7   8
ATOM      8  C2' N4B d   1       1.836  -2.713  -3.784  0.00  0.00     0.009 C 
BRANCH   8   9
ATOM      9  C3' N4B d   1       1.277  -3.261  -2.482  0.00  0.00     0.004 C 
ATOM     10  C4' N4B d   1       1.691  -2.454  -1.287  0.00  0.00     0.003 C 
ENDBRANCH   8   9
ENDBRANCH   7   8
ENDBRANCH   1   7
TORSDOF 3
ENDMDL
