MODEL 1
REMARK minimizedAffinity 1.66552913
REMARK minimizedRMSD -1
REMARK  3 active torsions:
REMARK  status: ('A' for Active; 'I' for Inactive)
REMARK    1  A    between atoms: C3'_2  and  C2'_3 
REMARK    2  A    between atoms: C2'_3  and  C1'_4 
REMARK    3  A    between atoms: C1'_4  and  C1_5 
ROOT
ATOM      1  C1  N4B d   1       5.688  -3.369  -5.097  0.00  0.00    -0.075 A 
ATOM      2  C2  N4B d   1       5.991  -4.416  -5.995  0.00  0.00     0.002 A 
ATOM      3  C3  N4B d   1       5.989  -5.718  -5.557  0.00  0.00     0.002 A 
ATOM      4  C4  N4B d   1       5.708  -5.994  -4.227  0.00  0.00    -0.004 A 
ATOM      5  C5  N4B d   1       5.391  -4.979  -3.372  0.00  0.00     0.002 A 
ATOM      6  C6  N4B d   1       5.385  -3.666  -3.800  0.00  0.00     0.002 A 
ENDROOT
BRANCH   1   7
ATOM      7  C1' N4B d   1       5.761  -1.924  -5.508  0.00  0.00     0.057 C 
BRANCH   7   8
ATOM      8  C2' N4B d   1       5.273  -1.050  -4.357  0.00  0.00     0.009 C 
BRANCH   8   9
ATOM      9  C3' N4B d   1       3.978  -0.332  -4.698  0.00  0.00     0.004 C 
ATOM     10  C4' N4B d   1       3.111  -0.097  -3.497  0.00  0.00     0.003 C 
ENDBRANCH   8   9
ENDBRANCH   7   8
ENDBRANCH   1   7
TORSDOF 3
ENDMDL
