MODEL 1
REMARK minimizedAffinity 10.8909588
REMARK minimizedRMSD -1
REMARK  3 active torsions:
REMARK  status: ('A' for Active; 'I' for Inactive)
REMARK    1  A    between atoms: C3'_2  and  C2'_3 
REMARK    2  A    between atoms: C2'_3  and  C1'_4 
REMARK    3  A    between atoms: C1'_4  and  C1_5 
ROOT
ATOM      1  C1  N4B d   1       1.430  -1.372   3.719  0.00  0.00    -0.075 A 
ATOM      2  C2  N4B d   1       1.831  -0.037   3.498  0.00  0.00     0.002 A 
ATOM      3  C3  N4B d   1       2.273   0.351   2.257  0.00  0.00     0.002 A 
ATOM      4  C4  N4B d   1       2.339  -0.579   1.231  0.00  0.00    -0.004 A 
ATOM      5  C5  N4B d   1       1.926  -1.862   1.446  0.00  0.00     0.002 A 
ATOM      6  C6  N4B d   1       1.476  -2.264   2.687  0.00  0.00     0.002 A 
ENDROOT
BRANCH   1   7
ATOM      7  C1' N4B d   1       1.021  -1.864   5.081  0.00  0.00     0.057 C 
BRANCH   7   8
ATOM      8  C2' N4B d   1       0.059  -3.038   4.921  0.00  0.00     0.009 C 
BRANCH   8   9
ATOM      9  C3' N4B d   1       0.303  -4.117   5.962  0.00  0.00     0.004 C 
ATOM     10  C4' N4B d   1      -0.789  -5.145   6.000  0.00  0.00     0.003 C 
ENDBRANCH   8   9
ENDBRANCH   7   8
ENDBRANCH   1   7
TORSDOF 3
ENDMDL
