MODEL 1
REMARK minimizedAffinity 7.33931446
REMARK minimizedRMSD -1
REMARK  1 active torsions:
REMARK  status: ('A' for Active; 'I' for Inactive)
REMARK    1  A    between atoms: C3_4  and  O_7 
ROOT
ATOM      1  C   UNL d   1      -4.926   3.090  -3.150  0.00  0.00    -0.033 A 
ATOM      2  C1  UNL d   1      -4.779   2.761  -4.499  0.00  0.00     0.039 A 
ATOM      3  C2  UNL d   1      -3.978   1.680  -4.872  0.00  0.00    -0.080 A 
ATOM      4  C3  UNL d   1      -3.331   0.937  -3.888  0.00  0.00     0.150 A 
ATOM      5  C4  UNL d   1      -3.476   1.257  -2.542  0.00  0.00    -0.007 A 
ATOM      6  C5  UNL d   1      -4.275   2.338  -2.172  0.00  0.00     0.039 A 
ENDROOT
BRANCH   4   7
ATOM      7  O   UNL d   1      -2.535  -0.124  -4.204  0.00  0.00    -0.526 OA
ATOM      8  H5  UNL d   1      -2.506  -0.209  -5.172  0.00  0.00     0.418 HD
ENDBRANCH   4   7
TORSDOF 1
ENDMDL
