MODEL 1
REMARK minimizedAffinity 3.45041347
REMARK minimizedRMSD -1
REMARK  1 active torsions:
REMARK  status: ('A' for Active; 'I' for Inactive)
REMARK    1  A    between atoms: C3_4  and  O_7 
ROOT
ATOM      1  C   UNL d   1      -0.823  -2.026  -3.148  0.00  0.00    -0.033 A 
ATOM      2  C1  UNL d   1       0.456  -2.327  -2.676  0.00  0.00     0.039 A 
ATOM      3  C2  UNL d   1       0.717  -2.311  -1.305  0.00  0.00    -0.080 A 
ATOM      4  C3  UNL d   1      -0.307  -1.993  -0.417  0.00  0.00     0.150 A 
ATOM      5  C4  UNL d   1      -1.585  -1.695  -0.881  0.00  0.00    -0.007 A 
ATOM      6  C5  UNL d   1      -1.844  -1.711  -2.251  0.00  0.00     0.039 A 
ENDROOT
BRANCH   4   7
ATOM      7  O   UNL d   1      -0.099  -1.959   0.929  0.00  0.00    -0.526 OA
ATOM      8  H5  UNL d   1       0.837  -2.158   1.101  0.00  0.00     0.418 HD
ENDBRANCH   4   7
TORSDOF 1
ENDMDL
