MODEL 1
REMARK minimizedAffinity 0.397373825
REMARK minimizedRMSD -1
REMARK  1 active torsions:
REMARK  status: ('A' for Active; 'I' for Inactive)
REMARK    1  A    between atoms: C3_4  and  O_7 
ROOT
ATOM      1  C   UNL d   1      -3.186  -0.508  -3.945  0.00  0.00    -0.033 A 
ATOM      2  C1  UNL d   1      -2.771  -1.833  -3.798  0.00  0.00     0.039 A 
ATOM      3  C2  UNL d   1      -2.308  -2.288  -2.562  0.00  0.00    -0.080 A 
ATOM      4  C3  UNL d   1      -2.266  -1.409  -1.482  0.00  0.00     0.150 A 
ATOM      5  C4  UNL d   1      -2.682  -0.089  -1.621  0.00  0.00    -0.007 A 
ATOM      6  C5  UNL d   1      -3.143   0.364  -2.857  0.00  0.00     0.039 A 
ENDROOT
BRANCH   4   7
ATOM      7  O   UNL d   1      -1.817  -1.806  -0.258  0.00  0.00    -0.526 OA
ATOM      8  H5  UNL d   1      -1.537  -2.735  -0.319  0.00  0.00     0.418 HD
ENDBRANCH   4   7
TORSDOF 1
ENDMDL
