MODEL 1
REMARK minimizedAffinity 2.14651656
REMARK minimizedRMSD -1
REMARK  1 active torsions:
REMARK  status: ('A' for Active; 'I' for Inactive)
REMARK    1  A    between atoms: C3_4  and  O_7 
ROOT
ATOM      1  C   UNL d   1       2.652   0.493   2.680  0.00  0.00    -0.033 A 
ATOM      2  C1  UNL d   1       2.566   1.342   1.574  0.00  0.00     0.039 A 
ATOM      3  C2  UNL d   1       1.621   1.097   0.576  0.00  0.00    -0.080 A 
ATOM      4  C3  UNL d   1       0.769   0.003   0.696  0.00  0.00     0.150 A 
ATOM      5  C4  UNL d   1       0.846  -0.844   1.796  0.00  0.00    -0.007 A 
ATOM      6  C5  UNL d   1       1.791  -0.599   2.792  0.00  0.00     0.039 A 
ENDROOT
BRANCH   4   7
ATOM      7  O   UNL d   1      -0.166  -0.280  -0.256  0.00  0.00    -0.526 OA
ATOM      8  H5  UNL d   1      -0.085   0.373  -0.971  0.00  0.00     0.418 HD
ENDBRANCH   4   7
TORSDOF 1
ENDMDL
