MODEL 1
REMARK minimizedAffinity 2.4476881
REMARK minimizedRMSD -1
REMARK  1 active torsions:
REMARK  status: ('A' for Active; 'I' for Inactive)
REMARK    1  A    between atoms: C3_4  and  O_7 
ROOT
ATOM      1  C   UNL d   1       4.857   1.306  -5.654  0.00  0.00    -0.033 A 
ATOM      2  C1  UNL d   1       6.000   0.510  -5.553  0.00  0.00     0.039 A 
ATOM      3  C2  UNL d   1       5.898  -0.878  -5.668  0.00  0.00    -0.080 A 
ATOM      4  C3  UNL d   1       4.650  -1.456  -5.885  0.00  0.00     0.150 A 
ATOM      5  C4  UNL d   1       3.509  -0.668  -5.991  0.00  0.00    -0.007 A 
ATOM      6  C5  UNL d   1       3.612   0.717  -5.875  0.00  0.00     0.039 A 
ENDROOT
BRANCH   4   7
ATOM      7  O   UNL d   1       4.501  -2.806  -5.999  0.00  0.00    -0.526 OA
ATOM      8  H5  UNL d   1       5.370  -3.223  -5.876  0.00  0.00     0.418 HD
ENDBRANCH   4   7
TORSDOF 1
ENDMDL
