MODEL 1
REMARK minimizedAffinity -2.23984146
REMARK minimizedRMSD -1
REMARK  1 active torsions:
REMARK  status: ('A' for Active; 'I' for Inactive)
REMARK    1  A    between atoms: C3_4  and  O_7 
ROOT
ATOM      1  C   UNL d   1       1.007   1.222   0.302  0.00  0.00    -0.033 A 
ATOM      2  C1  UNL d   1       2.143   1.726   0.940  0.00  0.00     0.039 A 
ATOM      3  C2  UNL d   1       2.645   1.092   2.078  0.00  0.00    -0.080 A 
ATOM      4  C3  UNL d   1       2.005  -0.043   2.567  0.00  0.00     0.150 A 
ATOM      5  C4  UNL d   1       0.876  -0.553   1.934  0.00  0.00    -0.007 A 
ATOM      6  C5  UNL d   1       0.375   0.081   0.799  0.00  0.00     0.039 A 
ENDROOT
BRANCH   4   7
ATOM      7  O   UNL d   1       2.455  -0.693   3.678  0.00  0.00    -0.526 OA
ATOM      8  H5  UNL d   1       3.225  -0.211   4.025  0.00  0.00     0.418 HD
ENDBRANCH   4   7
TORSDOF 1
ENDMDL
