MODEL 1
REMARK minimizedAffinity 12.2722511
REMARK minimizedRMSD -1
REMARK  2 active torsions:
REMARK  status: ('A' for Active; 'I' for Inactive)
REMARK    1  A    between atoms: C2'_3  and  C1'_4 
REMARK    2  A    between atoms: C1'_4  and  C1_5 
ROOT
ATOM      1  C1  I4B d   1      -1.819  -3.709  -4.085  0.00  0.00    -0.075 A 
ATOM      2  C2  I4B d   1      -1.536  -2.907  -5.162  0.00  0.00     0.003 A 
ATOM      3  C3  I4B d   1      -0.432  -3.199  -5.999  0.00  0.00     0.002 A 
ATOM      4  C4  I4B d   1       0.387  -4.267  -5.695  0.00  0.00    -0.004 A 
ATOM      5  C5  I4B d   1       0.086  -5.093  -4.616  0.00  0.00     0.002 A 
ATOM      6  C6  I4B d   1      -1.031  -4.820  -3.813  0.00  0.00     0.003 A 
ENDROOT
BRANCH   1   7
ATOM      7  C1' I4B d   1      -2.973  -3.352  -3.204  0.00  0.00     0.060 C 
BRANCH   7   8
ATOM      8  C2' I4B d   1      -2.666  -3.854  -1.807  0.00  0.00    -0.013 C 
ATOM      9  C4' I4B d   1      -2.946  -2.794  -0.774  0.00  0.00     0.013 C 
ATOM     10  C3' I4B d   1      -3.494  -5.080  -1.563  0.00  0.00     0.013 C 
ENDBRANCH   7   8
ENDBRANCH   1   7
TORSDOF 2
ENDMDL
