MODEL 1
REMARK minimizedAffinity 12.8898392
REMARK minimizedRMSD -1
REMARK  2 active torsions:
REMARK  status: ('A' for Active; 'I' for Inactive)
REMARK    1  A    between atoms: C2'_3  and  C1'_4 
REMARK    2  A    between atoms: C1'_4  and  C1_5 
ROOT
ATOM      1  C1  I4B d   1       1.545   1.666   1.637  0.00  0.00    -0.075 A 
ATOM      2  C2  I4B d   1       2.151   2.575   0.806  0.00  0.00     0.003 A 
ATOM      3  C3  I4B d   1       1.586   3.860   0.622  0.00  0.00     0.002 A 
ATOM      4  C4  I4B d   1       0.395   4.174   1.244  0.00  0.00    -0.004 A 
ATOM      5  C5  I4B d   1      -0.206   3.260   2.104  0.00  0.00     0.002 A 
ATOM      6  C6  I4B d   1       0.379   2.002   2.312  0.00  0.00     0.003 A 
ENDROOT
BRANCH   1   7
ATOM      7  C1' I4B d   1       2.152   0.307   1.784  0.00  0.00     0.060 C 
BRANCH   7   8
ATOM      8  C2' I4B d   1       3.619   0.409   1.420  0.00  0.00    -0.013 C 
ATOM      9  C4' I4B d   1       4.485  -0.263   2.453  0.00  0.00     0.013 C 
ATOM     10  C3' I4B d   1       3.806  -0.215   0.069  0.00  0.00     0.013 C 
ENDBRANCH   7   8
ENDBRANCH   1   7
TORSDOF 2
ENDMDL
