MODEL 1
REMARK minimizedAffinity 20.2677975
REMARK minimizedRMSD -1
REMARK  2 active torsions:
REMARK  status: ('A' for Active; 'I' for Inactive)
REMARK    1  A    between atoms: C2'_3  and  C1'_4 
REMARK    2  A    between atoms: C1'_4  and  C1_5 
ROOT
ATOM      1  C1  I4B d   1      -2.083  -2.542   0.116  0.00  0.00    -0.075 A 
ATOM      2  C2  I4B d   1      -2.533  -3.686   0.727  0.00  0.00     0.003 A 
ATOM      3  C3  I4B d   1      -2.007  -4.078   1.982  0.00  0.00     0.002 A 
ATOM      4  C4  I4B d   1      -1.004  -3.329   2.563  0.00  0.00    -0.004 A 
ATOM      5  C5  I4B d   1      -0.566  -2.156   1.953  0.00  0.00     0.002 A 
ATOM      6  C6  I4B d   1      -1.117  -1.753   0.728  0.00  0.00     0.003 A 
ENDROOT
BRANCH   1   7
ATOM      7  C1' I4B d   1      -2.636  -2.175  -1.224  0.00  0.00     0.060 C 
BRANCH   7   8
ATOM      8  C2' I4B d   1      -2.917  -3.458  -1.980  0.00  0.00    -0.013 C 
ATOM      9  C4' I4B d   1      -4.104  -3.303  -2.894  0.00  0.00     0.013 C 
ATOM     10  C3' I4B d   1      -1.683  -3.821  -2.751  0.00  0.00     0.013 C 
ENDBRANCH   7   8
ENDBRANCH   1   7
TORSDOF 2
ENDMDL
