MODEL 1
REMARK minimizedAffinity 17.2144432
REMARK minimizedRMSD -1
REMARK  2 active torsions:
REMARK  status: ('A' for Active; 'I' for Inactive)
REMARK    1  A    between atoms: C2'_3  and  C1'_4 
REMARK    2  A    between atoms: C1'_4  and  C1_5 
ROOT
ATOM      1  C1  I4B d   1       2.008   0.874   2.186  0.00  0.00    -0.075 A 
ATOM      2  C2  I4B d   1       3.205   0.393   1.718  0.00  0.00     0.003 A 
ATOM      3  C3  I4B d   1       4.005  -0.443   2.534  0.00  0.00     0.002 A 
ATOM      4  C4  I4B d   1       3.596  -0.731   3.820  0.00  0.00    -0.004 A 
ATOM      5  C5  I4B d   1       2.371  -0.261   4.285  0.00  0.00     0.002 A 
ATOM      6  C6  I4B d   1       1.565   0.536   3.458  0.00  0.00     0.003 A 
ENDROOT
BRANCH   1   7
ATOM      7  C1' I4B d   1       1.204   1.781   1.310  0.00  0.00     0.060 C 
BRANCH   7   8
ATOM      8  C2' I4B d   1       0.629   2.881   2.180  0.00  0.00    -0.013 C 
ATOM      9  C4' I4B d   1       0.730   4.222   1.501  0.00  0.00     0.013 C 
ATOM     10  C3' I4B d   1      -0.798   2.534   2.482  0.00  0.00     0.013 C 
ENDBRANCH   7   8
ENDBRANCH   1   7
TORSDOF 2
ENDMDL
