MODEL 1
REMARK minimizedAffinity 7.04508638
REMARK minimizedRMSD -1
REMARK  2 active torsions:
REMARK  status: ('A' for Active; 'I' for Inactive)
REMARK    1  A    between atoms: C2'_3  and  C1'_4 
REMARK    2  A    between atoms: C1'_4  and  C1_5 
ROOT
ATOM      1  C1  I4B d   1      -2.912  -2.715  -0.430  0.00  0.00    -0.075 A 
ATOM      2  C2  I4B d   1      -2.090  -2.198  -1.401  0.00  0.00     0.003 A 
ATOM      3  C3  I4B d   1      -2.459  -2.281  -2.765  0.00  0.00     0.002 A 
ATOM      4  C4  I4B d   1      -3.626  -2.929  -3.115  0.00  0.00    -0.004 A 
ATOM      5  C5  I4B d   1      -4.469  -3.432  -2.128  0.00  0.00     0.002 A 
ATOM      6  C6  I4B d   1      -4.116  -3.313  -0.776  0.00  0.00     0.003 A 
ENDROOT
BRANCH   1   7
ATOM      7  C1' I4B d   1      -2.475  -2.639   0.999  0.00  0.00     0.060 C 
BRANCH   7   8
ATOM      8  C2' I4B d   1      -1.004  -2.995   1.057  0.00  0.00    -0.013 C 
ATOM      9  C4' I4B d   1      -0.161  -1.783   1.355  0.00  0.00     0.013 C 
ATOM     10  C3' I4B d   1      -0.824  -4.051   2.106  0.00  0.00     0.013 C 
ENDBRANCH   7   8
ENDBRANCH   1   7
TORSDOF 2
ENDMDL
