MODEL 1
REMARK minimizedAffinity 18.2359409
REMARK minimizedRMSD -1
REMARK  2 active torsions:
REMARK  status: ('A' for Active; 'I' for Inactive)
REMARK    1  A    between atoms: C2'_3  and  C1'_4 
REMARK    2  A    between atoms: C1'_4  and  C1_5 
ROOT
ATOM      1  C1  I4B d   1      -4.503   3.748   3.682  0.00  0.00    -0.075 A 
ATOM      2  C2  I4B d   1      -5.406   4.505   2.978  0.00  0.00     0.003 A 
ATOM      3  C3  I4B d   1      -5.997   5.646   3.574  0.00  0.00     0.002 A 
ATOM      4  C4  I4B d   1      -5.697   5.961   4.883  0.00  0.00    -0.004 A 
ATOM      5  C5  I4B d   1      -4.764   5.206   5.587  0.00  0.00     0.002 A 
ATOM      6  C6  I4B d   1      -4.154   4.099   4.979  0.00  0.00     0.003 A 
ENDROOT
BRANCH   1   7
ATOM      7  C1' I4B d   1      -3.922   2.531   3.034  0.00  0.00     0.060 C 
BRANCH   7   8
ATOM      8  C2' I4B d   1      -4.497   1.313   3.728  0.00  0.00    -0.013 C 
ATOM      9  C4' I4B d   1      -5.140   0.376   2.741  0.00  0.00     0.013 C 
ATOM     10  C3' I4B d   1      -3.384   0.637   4.472  0.00  0.00     0.013 C 
ENDBRANCH   7   8
ENDBRANCH   1   7
TORSDOF 2
ENDMDL
