MODEL 1
REMARK minimizedAffinity 16.2498379
REMARK minimizedRMSD -1
REMARK  2 active torsions:
REMARK  status: ('A' for Active; 'I' for Inactive)
REMARK    1  A    between atoms: C2'_3  and  C1'_4 
REMARK    2  A    between atoms: C1'_4  and  C1_5 
ROOT
ATOM      1  C1  I4B d   1      -3.597  -3.888  -2.612  0.00  0.00    -0.075 A 
ATOM      2  C2  I4B d   1      -3.493  -5.169  -2.130  0.00  0.00     0.003 A 
ATOM      3  C3  I4B d   1      -4.637  -6.000  -2.060  0.00  0.00     0.002 A 
ATOM      4  C4  I4B d   1      -5.867  -5.495  -2.432  0.00  0.00    -0.004 A 
ATOM      5  C5  I4B d   1      -5.966  -4.204  -2.942  0.00  0.00     0.002 A 
ATOM      6  C6  I4B d   1      -4.823  -3.399  -3.044  0.00  0.00     0.003 A 
ENDROOT
BRANCH   1   7
ATOM      7  C1' I4B d   1      -2.374  -3.028  -2.641  0.00  0.00     0.060 C 
BRANCH   7   8
ATOM      8  C2' I4B d   1      -2.498  -2.002  -1.533  0.00  0.00    -0.013 C 
ATOM      9  C4' I4B d   1      -1.778  -2.452  -0.290  0.00  0.00     0.013 C 
ATOM     10  C3' I4B d   1      -1.943  -0.704  -2.040  0.00  0.00     0.013 C 
ENDBRANCH   7   8
ENDBRANCH   1   7
TORSDOF 2
ENDMDL
