MODEL 1
REMARK minimizedAffinity 13.5526342
REMARK minimizedRMSD -1
REMARK  2 active torsions:
REMARK  status: ('A' for Active; 'I' for Inactive)
REMARK    1  A    between atoms: C2'_3  and  C1'_4 
REMARK    2  A    between atoms: C1'_4  and  C1_5 
ROOT
ATOM      1  C1  I4B d   1      -2.735   3.220  -0.452  0.00  0.00    -0.075 A 
ATOM      2  C2  I4B d   1      -2.860   4.547  -0.124  0.00  0.00     0.003 A 
ATOM      3  C3  I4B d   1      -2.675   5.545  -1.111  0.00  0.00     0.002 A 
ATOM      4  C4  I4B d   1      -2.320   5.177  -2.393  0.00  0.00    -0.004 A 
ATOM      5  C5  I4B d   1      -2.216   3.830  -2.729  0.00  0.00     0.002 A 
ATOM      6  C6  I4B d   1      -2.437   2.845  -1.756  0.00  0.00     0.003 A 
ENDROOT
BRANCH   1   7
ATOM      7  C1' I4B d   1      -2.904   2.193   0.623  0.00  0.00     0.060 C 
BRANCH   7   8
ATOM      8  C2' I4B d   1      -2.168   2.681   1.854  0.00  0.00    -0.013 C 
ATOM      9  C4' I4B d   1      -2.954   2.395   3.107  0.00  0.00     0.013 C 
ATOM     10  C3' I4B d   1      -0.829   2.008   1.890  0.00  0.00     0.013 C 
ENDBRANCH   7   8
ENDBRANCH   1   7
TORSDOF 2
ENDMDL
