MODEL 1
REMARK minimizedAffinity 8.35862923
REMARK minimizedRMSD -1
REMARK  2 active torsions:
REMARK  status: ('A' for Active; 'I' for Inactive)
REMARK    1  A    between atoms: C2'_3  and  C1'_4 
REMARK    2  A    between atoms: C1'_4  and  C1_5 
ROOT
ATOM      1  C1  I4B d   1      -4.358   1.749   3.715  0.00  0.00    -0.075 A 
ATOM      2  C2  I4B d   1      -4.551   2.654   4.728  0.00  0.00     0.003 A 
ATOM      3  C3  I4B d   1      -5.253   2.276   5.898  0.00  0.00     0.002 A 
ATOM      4  C4  I4B d   1      -5.785   1.007   5.991  0.00  0.00    -0.004 A 
ATOM      5  C5  I4B d   1      -5.569   0.083   4.973  0.00  0.00     0.002 A 
ATOM      6  C6  I4B d   1      -4.841   0.452   3.833  0.00  0.00     0.003 A 
ENDROOT
BRANCH   1   7
ATOM      7  C1' I4B d   1      -3.641   2.191   2.479  0.00  0.00     0.060 C 
BRANCH   7   8
ATOM      8  C2' I4B d   1      -2.208   1.708   2.573  0.00  0.00    -0.013 C 
ATOM      9  C4' I4B d   1      -2.024   0.403   1.845  0.00  0.00     0.013 C 
ATOM     10  C3' I4B d   1      -1.322   2.776   2.003  0.00  0.00     0.013 C 
ENDBRANCH   7   8
ENDBRANCH   1   7
TORSDOF 2
ENDMDL
