MODEL 1
REMARK minimizedAffinity 3.44674444
REMARK minimizedRMSD -1
REMARK  2 active torsions:
REMARK  status: ('A' for Active; 'I' for Inactive)
REMARK    1  A    between atoms: C2'_3  and  C1'_4 
REMARK    2  A    between atoms: C1'_4  and  C1_5 
ROOT
ATOM      1  C1  I4B d   1      -0.426   1.392   2.215  0.00  0.00    -0.075 A 
ATOM      2  C2  I4B d   1      -0.003   0.127   2.537  0.00  0.00     0.003 A 
ATOM      3  C3  I4B d   1       1.381  -0.160   2.631  0.00  0.00     0.002 A 
ATOM      4  C4  I4B d   1       2.300   0.829   2.346  0.00  0.00    -0.004 A 
ATOM      5  C5  I4B d   1       1.869   2.117   2.042  0.00  0.00     0.002 A 
ATOM      6  C6  I4B d   1       0.498   2.404   1.988  0.00  0.00     0.003 A 
ENDROOT
BRANCH   1   7
ATOM      7  C1' I4B d   1      -1.894   1.651   2.093  0.00  0.00     0.060 C 
BRANCH   7   8
ATOM      8  C2' I4B d   1      -2.624   0.593   2.894  0.00  0.00    -0.013 C 
ATOM      9  C4' I4B d   1      -3.968   1.090   3.358  0.00  0.00     0.013 C 
ATOM     10  C3' I4B d   1      -2.765  -0.626   2.032  0.00  0.00     0.013 C 
ENDBRANCH   7   8
ENDBRANCH   1   7
TORSDOF 2
ENDMDL
