MODEL 1
REMARK minimizedAffinity 3.48506331
REMARK minimizedRMSD -1
REMARK  0 active torsions:
REMARK  status: ('A' for Active; 'I' for Inactive)
ROOT
ATOM      1  C   UNL d   1       3.846   1.474  -2.038  0.00  0.00     0.020 A 
ATOM      2  C1  UNL d   1       3.207   1.536  -0.800  0.00  0.00     0.020 A 
ATOM      3  C2  UNL d   1       2.420   0.467  -0.366  0.00  0.00     0.034 A 
ATOM      4  C3  UNL d   1       2.270  -0.669  -1.170  0.00  0.00     0.017 A 
ATOM      5  C4  UNL d   1       2.911  -0.730  -2.413  0.00  0.00     0.017 A 
ATOM      6  C5  UNL d   1       3.698   0.343  -2.842  0.00  0.00     0.034 A 
ATOM      7 Cl   UNL d   1       2.773  -2.097  -3.461  0.00  0.00    -0.070 Cl
ATOM      8 Cl1  UNL d   1       1.283  -1.954  -0.570  0.00  0.00    -0.070 Cl
ENDROOT
TORSDOF 0
ENDMDL
