MODEL 1
REMARK minimizedAffinity 1.33681345
REMARK minimizedRMSD -1
REMARK  0 active torsions:
REMARK  status: ('A' for Active; 'I' for Inactive)
ROOT
ATOM      1  C   UNL d   1       3.085   1.830  -0.038  0.00  0.00     0.020 A 
ATOM      2  C1  UNL d   1       3.933   1.776  -1.144  0.00  0.00     0.020 A 
ATOM      3  C2  UNL d   1       3.838   0.715  -2.046  0.00  0.00     0.034 A 
ATOM      4  C3  UNL d   1       2.893  -0.298  -1.843  0.00  0.00     0.017 A 
ATOM      5  C4  UNL d   1       2.042  -0.243  -0.733  0.00  0.00     0.017 A 
ATOM      6  C5  UNL d   1       2.142   0.822   0.167  0.00  0.00     0.034 A 
ATOM      7 Cl   UNL d   1       0.852  -1.456  -0.417  0.00  0.00    -0.070 Cl
ATOM      8 Cl1  UNL d   1       2.831  -1.581  -2.999  0.00  0.00    -0.070 Cl
ENDROOT
TORSDOF 0
ENDMDL
