MODEL 1
REMARK minimizedAffinity -0.525702655
REMARK minimizedRMSD -1
REMARK  0 active torsions:
REMARK  status: ('A' for Active; 'I' for Inactive)
ROOT
ATOM      1  C   UNL d   1       1.318   0.209   0.456  0.00  0.00     0.020 A 
ATOM      2  C1  UNL d   1       1.924   1.465   0.461  0.00  0.00     0.020 A 
ATOM      3  C2  UNL d   1       2.995   1.727  -0.395  0.00  0.00     0.034 A 
ATOM      4  C3  UNL d   1       3.464   0.732  -1.261  0.00  0.00     0.017 A 
ATOM      5  C4  UNL d   1       2.854  -0.528  -1.266  0.00  0.00     0.017 A 
ATOM      6  C5  UNL d   1       1.782  -0.785  -0.407  0.00  0.00     0.034 A 
ATOM      7 Cl   UNL d   1       3.376  -1.806  -2.307  0.00  0.00    -0.070 Cl
ATOM      8 Cl1  UNL d   1       4.792   1.126  -2.294  0.00  0.00    -0.070 Cl
ENDROOT
TORSDOF 0
ENDMDL
