MODEL 1
REMARK minimizedAffinity 4.08221626
REMARK minimizedRMSD -1
REMARK  0 active torsions:
REMARK  status: ('A' for Active; 'I' for Inactive)
ROOT
ATOM      1  C   UNL d   1       3.895   1.031  -1.916  0.00  0.00     0.020 A 
ATOM      2  C1  UNL d   1       4.520   1.543  -0.780  0.00  0.00     0.020 A 
ATOM      3  C2  UNL d   1       3.919   1.399   0.472  0.00  0.00     0.034 A 
ATOM      4  C3  UNL d   1       2.689   0.743   0.591  0.00  0.00     0.017 A 
ATOM      5  C4  UNL d   1       2.062   0.230  -0.550  0.00  0.00     0.017 A 
ATOM      6  C5  UNL d   1       2.668   0.376  -1.801  0.00  0.00     0.034 A 
ATOM      7 Cl   UNL d   1       0.543  -0.592  -0.483  0.00  0.00    -0.070 Cl
ATOM      8 Cl1  UNL d   1       2.003   0.602   2.171  0.00  0.00    -0.070 Cl
ENDROOT
TORSDOF 0
ENDMDL
