MODEL 1
REMARK minimizedAffinity -0.611620665
REMARK minimizedRMSD -1
REMARK  0 active torsions:
REMARK  status: ('A' for Active; 'I' for Inactive)
ROOT
ATOM      1  C   UNL d   1       3.428   1.955  -0.677  0.00  0.00     0.020 A 
ATOM      2  C1  UNL d   1       2.409   1.905   0.273  0.00  0.00     0.020 A 
ATOM      3  C2  UNL d   1       1.594   0.775   0.364  0.00  0.00     0.034 A 
ATOM      4  C3  UNL d   1       1.796  -0.310  -0.497  0.00  0.00     0.017 A 
ATOM      5  C4  UNL d   1       2.820  -0.259  -1.450  0.00  0.00     0.017 A 
ATOM      6  C5  UNL d   1       3.633   0.875  -1.537  0.00  0.00     0.034 A 
ATOM      7 Cl   UNL d   1       3.131  -1.559  -2.547  0.00  0.00    -0.070 Cl
ATOM      8 Cl1  UNL d   1       0.751  -1.676  -0.328  0.00  0.00    -0.070 Cl
ENDROOT
TORSDOF 0
ENDMDL
