MODEL 1
REMARK minimizedAffinity -0.200199544
REMARK minimizedRMSD -1
REMARK  0 active torsions:
REMARK  status: ('A' for Active; 'I' for Inactive)
ROOT
ATOM      1  C   UNL d   1       3.840   1.957  -0.985  0.00  0.00     0.020 A 
ATOM      2  C1  UNL d   1       4.608   1.411  -2.014  0.00  0.00     0.020 A 
ATOM      3  C2  UNL d   1       4.291   0.153  -2.530  0.00  0.00     0.034 A 
ATOM      4  C3  UNL d   1       3.203  -0.564  -2.018  0.00  0.00     0.017 A 
ATOM      5  C4  UNL d   1       2.433  -0.016  -0.986  0.00  0.00     0.017 A 
ATOM      6  C5  UNL d   1       2.755   1.245  -0.473  0.00  0.00     0.034 A 
ATOM      7 Cl   UNL d   1       1.076  -0.840  -0.304  0.00  0.00    -0.070 Cl
ATOM      8 Cl1  UNL d   1       2.868  -2.114  -2.705  0.00  0.00    -0.070 Cl
ENDROOT
TORSDOF 0
ENDMDL
