MODEL 1
REMARK minimizedAffinity 14.0731859
REMARK minimizedRMSD -1
REMARK  0 active torsions:
REMARK  status: ('A' for Active; 'I' for Inactive)
ROOT
ATOM      1  C   UNL d   1      -4.035  -1.563  -2.288  0.00  0.00     0.020 A 
ATOM      2  C1  UNL d   1      -4.916  -1.244  -1.255  0.00  0.00     0.020 A 
ATOM      3  C2  UNL d   1      -4.580  -1.542   0.067  0.00  0.00     0.034 A 
ATOM      4  C3  UNL d   1      -3.359  -2.161   0.360  0.00  0.00     0.017 A 
ATOM      5  C4  UNL d   1      -2.475  -2.481  -0.677  0.00  0.00     0.017 A 
ATOM      6  C5  UNL d   1      -2.817  -2.180  -1.999  0.00  0.00     0.034 A 
ATOM      7 Cl   UNL d   1      -0.952  -3.246  -0.393  0.00  0.00    -0.070 Cl
ATOM      8 Cl1  UNL d   1      -3.008  -2.501   2.018  0.00  0.00    -0.070 Cl
ENDROOT
TORSDOF 0
ENDMDL
