MODEL 1
REMARK minimizedAffinity 2.51473618
REMARK minimizedRMSD -1
REMARK  1 active torsions:
REMARK  status: ('A' for Active; 'I' for Inactive)
REMARK    1  A    between atoms: C1_2  and  C2_3 
ROOT
ATOM      1  C2  UNL d   1       0.746   0.241   1.072  0.00  0.00    -0.081 A 
ATOM      2  C3  UNL d   1      -0.343   0.658   1.848  0.00  0.00     0.006 A 
ATOM      3  C4  UNL d   1      -1.644   0.574   1.346  0.00  0.00     0.002 A 
ATOM      4  C5  UNL d   1      -1.879   0.064   0.065  0.00  0.00    -0.080 A 
ATOM      5  C6  UNL d   1      -3.273  -0.060  -0.474  0.00  0.00     0.076 C 
ATOM      6  C7  UNL d   1      -0.790  -0.336  -0.717  0.00  0.00     0.002 A 
ATOM      7  C8  UNL d   1       0.511  -0.251  -0.216  0.00  0.00     0.006 A 
ENDROOT
BRANCH   1   8
ATOM      8  C1  UNL d   1       2.144   0.271   1.635  0.00  0.00     0.054 C 
ATOM      9  C   UNL d   1       2.939  -0.954   1.205  0.00  0.00     0.018 C 
ENDBRANCH   1   8
TORSDOF 1
ENDMDL
