MODEL 1
REMARK minimizedAffinity -4.62015057
REMARK minimizedRMSD -1
REMARK  1 active torsions:
REMARK  status: ('A' for Active; 'I' for Inactive)
REMARK    1  A    between atoms: C1_2  and  C2_3 
ROOT
ATOM      1  C2  UNL d   1      -0.044  -0.148  -0.623  0.00  0.00    -0.081 A 
ATOM      2  C3  UNL d   1      -1.204   0.360  -0.025  0.00  0.00     0.006 A 
ATOM      3  C4  UNL d   1      -1.206   0.721   1.324  0.00  0.00     0.002 A 
ATOM      4  C5  UNL d   1      -0.047   0.588   2.096  0.00  0.00    -0.080 A 
ATOM      5  C6  UNL d   1      -0.027   1.000   3.538  0.00  0.00     0.076 C 
ATOM      6  C7  UNL d   1       1.107   0.064   1.504  0.00  0.00     0.002 A 
ATOM      7  C8  UNL d   1       1.110  -0.298   0.155  0.00  0.00     0.006 A 
ENDROOT
BRANCH   1   8
ATOM      8  C1  UNL d   1      -0.020  -0.478  -2.093  0.00  0.00     0.054 C 
ATOM      9  C   UNL d   1       1.000   0.375  -2.835  0.00  0.00     0.018 C 
ENDBRANCH   1   8
TORSDOF 1
ENDMDL
