MODEL 1
REMARK minimizedAffinity -5.29342508
REMARK minimizedRMSD -1
REMARK  1 active torsions:
REMARK  status: ('A' for Active; 'I' for Inactive)
REMARK    1  A    between atoms: C1_2  and  C2_3 
ROOT
ATOM      1  C2  UNL d   1       0.086  -0.596  -1.322  0.00  0.00    -0.081 A 
ATOM      2  C3  UNL d   1      -1.294  -0.426  -1.157  0.00  0.00     0.006 A 
ATOM      3  C4  UNL d   1      -1.807   0.080   0.040  0.00  0.00     0.002 A 
ATOM      4  C5  UNL d   1      -0.949   0.433   1.087  0.00  0.00    -0.080 A 
ATOM      5  C6  UNL d   1      -1.485   1.006   2.366  0.00  0.00     0.076 C 
ATOM      6  C7  UNL d   1       0.428   0.247   0.928  0.00  0.00     0.002 A 
ATOM      7  C8  UNL d   1       0.942  -0.260  -0.267  0.00  0.00     0.006 A 
ENDROOT
BRANCH   1   8
ATOM      8  C1  UNL d   1       0.647  -1.081  -2.635  0.00  0.00     0.054 C 
ATOM      9  C   UNL d   1       1.460   0.006  -3.324  0.00  0.00     0.018 C 
ENDBRANCH   1   8
TORSDOF 1
ENDMDL
