MODEL 1
REMARK minimizedAffinity -0.374139696
REMARK minimizedRMSD -1
REMARK  1 active torsions:
REMARK  status: ('A' for Active; 'I' for Inactive)
REMARK    1  A    between atoms: C1_2  and  C2_3 
ROOT
ATOM      1  C2  UNL d   1      -0.648   0.005   1.687  0.00  0.00    -0.081 A 
ATOM      2  C3  UNL d   1      -1.747  -0.084   0.823  0.00  0.00     0.006 A 
ATOM      3  C4  UNL d   1      -1.558  -0.323  -0.541  0.00  0.00     0.002 A 
ATOM      4  C5  UNL d   1      -0.269  -0.485  -1.061  0.00  0.00    -0.080 A 
ATOM      5  C6  UNL d   1      -0.054  -0.771  -2.517  0.00  0.00     0.076 C 
ATOM      6  C7  UNL d   1       0.829  -0.379  -0.201  0.00  0.00     0.002 A 
ATOM      7  C8  UNL d   1       0.641  -0.139   1.162  0.00  0.00     0.006 A 
ENDROOT
BRANCH   1   8
ATOM      8  C1  UNL d   1      -0.852   0.198   3.168  0.00  0.00     0.054 C 
ATOM      9  C   UNL d   1      -1.593   1.494   3.460  0.00  0.00     0.018 C 
ENDBRANCH   1   8
TORSDOF 1
ENDMDL
