MODEL 1
REMARK minimizedAffinity -3.53631759
REMARK minimizedRMSD -1
REMARK  1 active torsions:
REMARK  status: ('A' for Active; 'I' for Inactive)
REMARK    1  A    between atoms: C1_2  and  C2_3 
ROOT
ATOM      1  C2  UNL d   1       0.639  -0.666  -0.640  0.00  0.00    -0.081 A 
ATOM      2  C3  UNL d   1      -0.760  -0.640  -0.589  0.00  0.00     0.006 A 
ATOM      3  C4  UNL d   1      -1.418  -0.063   0.500  0.00  0.00     0.002 A 
ATOM      4  C5  UNL d   1      -0.688   0.505   1.550  0.00  0.00    -0.080 A 
ATOM      5  C6  UNL d   1      -1.382   1.155   2.711  0.00  0.00     0.076 C 
ATOM      6  C7  UNL d   1       0.709   0.464   1.507  0.00  0.00     0.002 A 
ATOM      7  C8  UNL d   1       1.368  -0.114   0.419  0.00  0.00     0.006 A 
ENDROOT
BRANCH   1   8
ATOM      8  C1  UNL d   1       1.351  -1.229  -1.843  0.00  0.00     0.054 C 
ATOM      9  C   UNL d   1       0.790  -0.657  -3.137  0.00  0.00     0.018 C 
ENDBRANCH   1   8
TORSDOF 1
ENDMDL
