MODEL 1
REMARK minimizedAffinity -6.33360291
REMARK minimizedRMSD -1
REMARK  1 active torsions:
REMARK  status: ('A' for Active; 'I' for Inactive)
REMARK    1  A    between atoms: C1_2  and  C2_3 
ROOT
ATOM      1  C2  UNL d   1       0.217  -0.160  -0.421  0.00  0.00    -0.081 A 
ATOM      2  C3  UNL d   1      -1.012   0.325   0.043  0.00  0.00     0.006 A 
ATOM      3  C4  UNL d   1      -1.172   0.683   1.383  0.00  0.00     0.002 A 
ATOM      4  C5  UNL d   1      -0.104   0.570   2.280  0.00  0.00    -0.080 A 
ATOM      5  C6  UNL d   1      -0.254   0.980   3.716  0.00  0.00     0.076 C 
ATOM      6  C7  UNL d   1       1.119   0.070   1.821  0.00  0.00     0.002 A 
ATOM      7  C8  UNL d   1       1.279  -0.289   0.481  0.00  0.00     0.006 A 
ENDROOT
BRANCH   1   8
ATOM      8  C1  UNL d   1       0.411  -0.486  -1.880  0.00  0.00     0.054 C 
ATOM      9  C   UNL d   1       1.150   0.631  -2.603  0.00  0.00     0.018 C 
ENDBRANCH   1   8
TORSDOF 1
ENDMDL
