MODEL 1
REMARK minimizedAffinity -6.49238968
REMARK minimizedRMSD -1
REMARK  1 active torsions:
REMARK  status: ('A' for Active; 'I' for Inactive)
REMARK    1  A    between atoms: C1_2  and  C2_3 
ROOT
ATOM      1  C2  UNL d   1       0.087   0.288   1.933  0.00  0.00    -0.081 A 
ATOM      2  C3  UNL d   1      -1.161   0.814   2.289  0.00  0.00     0.006 A 
ATOM      3  C4  UNL d   1      -2.255   0.682   1.431  0.00  0.00     0.002 A 
ATOM      4  C5  UNL d   1      -2.122   0.017   0.207  0.00  0.00    -0.080 A 
ATOM      5  C6  UNL d   1      -3.296  -0.158  -0.709  0.00  0.00     0.076 C 
ATOM      6  C7  UNL d   1      -0.871  -0.492  -0.156  0.00  0.00     0.002 A 
ATOM      7  C8  UNL d   1       0.224  -0.361   0.701  0.00  0.00     0.006 A 
ENDROOT
BRANCH   1   8
ATOM      8  C1  UNL d   1       1.253   0.372   2.884  0.00  0.00     0.054 C 
ATOM      9  C   UNL d   1       2.196  -0.810   2.709  0.00  0.00     0.018 C 
ENDBRANCH   1   8
TORSDOF 1
ENDMDL
