MODEL 1
REMARK minimizedAffinity -5.78187466
REMARK minimizedRMSD -1
REMARK  1 active torsions:
REMARK  status: ('A' for Active; 'I' for Inactive)
REMARK    1  A    between atoms: C1_2  and  C2_3 
ROOT
ATOM      1  C2  UNL d   1      -0.415   0.102   0.151  0.00  0.00    -0.081 A 
ATOM      2  C3  UNL d   1      -1.384   0.718   0.953  0.00  0.00     0.006 A 
ATOM      3  C4  UNL d   1      -1.133   0.960   2.305  0.00  0.00     0.002 A 
ATOM      4  C5  UNL d   1       0.091   0.599   2.876  0.00  0.00    -0.080 A 
ATOM      5  C6  UNL d   1       0.384   0.881   4.320  0.00  0.00     0.076 C 
ATOM      6  C7  UNL d   1       1.053  -0.032   2.079  0.00  0.00     0.002 A 
ATOM      7  C8  UNL d   1       0.803  -0.276   0.727  0.00  0.00     0.006 A 
ENDROOT
BRANCH   1   8
ATOM      8  C1  UNL d   1      -0.657  -0.102  -1.323  0.00  0.00     0.054 C 
ATOM      9  C   UNL d   1       0.651  -0.296  -2.077  0.00  0.00     0.018 C 
ENDBRANCH   1   8
TORSDOF 1
ENDMDL
