MODEL 1
REMARK minimizedAffinity -4.80481863
REMARK minimizedRMSD -1
REMARK  1 active torsions:
REMARK  status: ('A' for Active; 'I' for Inactive)
REMARK    1  A    between atoms: C1_2  and  C2_3 
ROOT
ATOM      1  C2  UNL d   1       0.135  -0.436  -0.445  0.00  0.00    -0.081 A 
ATOM      2  C3  UNL d   1      -0.874   0.133   0.342  0.00  0.00     0.006 A 
ATOM      3  C4  UNL d   1      -0.657   0.385   1.698  0.00  0.00     0.002 A 
ATOM      4  C5  UNL d   1       0.574   0.079   2.289  0.00  0.00    -0.080 A 
ATOM      5  C6  UNL d   1       0.831   0.373   3.737  0.00  0.00     0.076 C 
ATOM      6  C7  UNL d   1       1.576  -0.505   1.507  0.00  0.00     0.002 A 
ATOM      7  C8  UNL d   1       1.360  -0.758   0.151  0.00  0.00     0.006 A 
ENDROOT
BRANCH   1   8
ATOM      8  C1  UNL d   1      -0.073  -0.650  -1.922  0.00  0.00     0.054 C 
ATOM      9  C   UNL d   1       1.046  -0.015  -2.736  0.00  0.00     0.018 C 
ENDBRANCH   1   8
TORSDOF 1
ENDMDL
