MODEL 1
REMARK minimizedAffinity 7.69436502
REMARK minimizedRMSD -1
REMARK  0 active torsions:
REMARK  status: ('A' for Active; 'I' for Inactive)
ROOT
ATOM      1  C   UNL d   1       4.253  -1.126   1.878  0.00  0.00     0.077 C 
ATOM      2  C1  UNL d   1       3.336  -0.097   1.286  0.00  0.00    -0.074 A 
ATOM      3  C2  UNL d   1       3.567   0.420   0.007  0.00  0.00    -0.005 A 
ATOM      4  C3  UNL d   1       2.701   1.369  -0.534  0.00  0.00     0.006 A 
ATOM      5  C4  UNL d   1       1.597   1.811   0.196  0.00  0.00    -0.005 A 
ATOM      6  C5  UNL d   1       1.350   1.305   1.477  0.00  0.00    -0.074 A 
ATOM      7  C6  UNL d   1       0.163   1.762   2.271  0.00  0.00     0.077 C 
ATOM      8  C7  UNL d   1       2.221   0.346   2.011  0.00  0.00    -0.001 A 
ENDROOT
TORSDOF 0
ENDMDL
