MODEL 1
REMARK minimizedAffinity 6.13626528
REMARK minimizedRMSD -1
REMARK  0 active torsions:
REMARK  status: ('A' for Active; 'I' for Inactive)
ROOT
ATOM      1  C   UNL d   1       2.847  -2.818  -3.374  0.00  0.00     0.077 C 
ATOM      2  C1  UNL d   1       2.990  -1.597  -2.514  0.00  0.00    -0.074 A 
ATOM      3  C2  UNL d   1       3.513  -0.409  -3.035  0.00  0.00    -0.005 A 
ATOM      4  C3  UNL d   1       3.631   0.721  -2.226  0.00  0.00     0.006 A 
ATOM      5  C4  UNL d   1       3.228   0.674  -0.890  0.00  0.00    -0.005 A 
ATOM      6  C5  UNL d   1       2.702  -0.505  -0.353  0.00  0.00    -0.074 A 
ATOM      7  C6  UNL d   1       2.256  -0.569   1.077  0.00  0.00     0.077 C 
ATOM      8  C7  UNL d   1       2.580  -1.634  -1.174  0.00  0.00    -0.001 A 
ENDROOT
TORSDOF 0
ENDMDL
