MODEL 1
REMARK minimizedAffinity 5.41289282
REMARK minimizedRMSD -1
REMARK  0 active torsions:
REMARK  status: ('A' for Active; 'I' for Inactive)
ROOT
ATOM      1  C   UNL d   1       5.993  -1.427   1.779  0.00  0.00     0.077 C 
ATOM      2  C1  UNL d   1       4.568  -1.184   1.380  0.00  0.00    -0.074 A 
ATOM      3  C2  UNL d   1       3.559  -2.087   1.731  0.00  0.00    -0.005 A 
ATOM      4  C3  UNL d   1       2.237  -1.843   1.361  0.00  0.00     0.006 A 
ATOM      5  C4  UNL d   1       1.910  -0.695   0.637  0.00  0.00    -0.005 A 
ATOM      6  C5  UNL d   1       2.906   0.219   0.277  0.00  0.00    -0.074 A 
ATOM      7  C6  UNL d   1       2.570   1.462  -0.492  0.00  0.00     0.077 C 
ATOM      8  C7  UNL d   1       4.231  -0.030   0.659  0.00  0.00    -0.001 A 
ENDROOT
TORSDOF 0
ENDMDL
