MODEL 1
REMARK minimizedAffinity 9.82558155
REMARK minimizedRMSD -1
REMARK  0 active torsions:
REMARK  status: ('A' for Active; 'I' for Inactive)
ROOT
ATOM      1  C   UNL d   1       4.564   2.942   2.224  0.00  0.00     0.077 C 
ATOM      2  C1  UNL d   1       4.202   2.390   0.877  0.00  0.00    -0.074 A 
ATOM      3  C2  UNL d   1       4.769   2.913  -0.290  0.00  0.00    -0.005 A 
ATOM      4  C3  UNL d   1       4.430   2.384  -1.535  0.00  0.00     0.006 A 
ATOM      5  C4  UNL d   1       3.523   1.327  -1.626  0.00  0.00    -0.005 A 
ATOM      6  C5  UNL d   1       2.946   0.791  -0.470  0.00  0.00    -0.074 A 
ATOM      7  C6  UNL d   1       1.977  -0.351  -0.549  0.00  0.00     0.077 C 
ATOM      8  C7  UNL d   1       3.297   1.324   0.778  0.00  0.00    -0.001 A 
ENDROOT
TORSDOF 0
ENDMDL
