MODEL 1
REMARK minimizedAffinity 10.4483414
REMARK minimizedRMSD -1
REMARK  0 active torsions:
REMARK  status: ('A' for Active; 'I' for Inactive)
ROOT
ATOM      1  C   UNL d   1      -0.035   2.043  -0.781  0.00  0.00     0.077 C 
ATOM      2  C1  UNL d   1       1.055   1.056  -0.487  0.00  0.00    -0.074 A 
ATOM      3  C2  UNL d   1       2.216   1.446   0.188  0.00  0.00    -0.005 A 
ATOM      4  C3  UNL d   1       3.217   0.515   0.463  0.00  0.00     0.006 A 
ATOM      5  C4  UNL d   1       3.067  -0.815   0.066  0.00  0.00    -0.005 A 
ATOM      6  C5  UNL d   1       1.913  -1.224  -0.609  0.00  0.00    -0.074 A 
ATOM      7  C6  UNL d   1       1.733  -2.651  -1.034  0.00  0.00     0.077 C 
ATOM      8  C7  UNL d   1       0.909  -0.283  -0.876  0.00  0.00    -0.001 A 
ENDROOT
TORSDOF 0
ENDMDL
