MODEL 1
REMARK minimizedAffinity 13.2046146
REMARK minimizedRMSD -1
REMARK  0 active torsions:
REMARK  status: ('A' for Active; 'I' for Inactive)
ROOT
ATOM      1  C   UNL d   1       6.000  -1.111   2.256  0.00  0.00     0.077 C 
ATOM      2  C1  UNL d   1       4.688  -0.936   1.551  0.00  0.00    -0.074 A 
ATOM      3  C2  UNL d   1       3.728  -1.953   1.555  0.00  0.00    -0.005 A 
ATOM      4  C3  UNL d   1       2.508  -1.773   0.903  0.00  0.00     0.006 A 
ATOM      5  C4  UNL d   1       2.236  -0.575   0.241  0.00  0.00    -0.005 A 
ATOM      6  C5  UNL d   1       3.183   0.454   0.227  0.00  0.00    -0.074 A 
ATOM      7  C6  UNL d   1       2.903   1.752  -0.471  0.00  0.00     0.077 C 
ATOM      8  C7  UNL d   1       4.404   0.268   0.890  0.00  0.00    -0.001 A 
ENDROOT
TORSDOF 0
ENDMDL
