MODEL 1
REMARK minimizedAffinity 8.73623562
REMARK minimizedRMSD -1
REMARK  0 active torsions:
REMARK  status: ('A' for Active; 'I' for Inactive)
ROOT
ATOM      1  C   UNL d   1       5.338   2.860   1.763  0.00  0.00     0.077 C 
ATOM      2  C1  UNL d   1       4.908   2.175   0.500  0.00  0.00    -0.074 A 
ATOM      3  C2  UNL d   1       5.589   2.391  -0.703  0.00  0.00    -0.005 A 
ATOM      4  C3  UNL d   1       5.183   1.740  -1.868  0.00  0.00     0.006 A 
ATOM      5  C4  UNL d   1       4.095   0.867  -1.842  0.00  0.00    -0.005 A 
ATOM      6  C5  UNL d   1       3.402   0.638  -0.649  0.00  0.00    -0.074 A 
ATOM      7  C6  UNL d   1       2.236  -0.304  -0.602  0.00  0.00     0.077 C 
ATOM      8  C7  UNL d   1       3.820   1.291   0.519  0.00  0.00    -0.001 A 
ENDROOT
TORSDOF 0
ENDMDL
