MODEL 1
REMARK minimizedAffinity 2.86538696
REMARK minimizedRMSD -1
REMARK  0 active torsions:
REMARK  status: ('A' for Active; 'I' for Inactive)
ROOT
ATOM      1  C   UNL d   1      -4.745   2.714   2.068  0.00  0.00     0.077 C 
ATOM      2  C1  UNL d   1      -4.272   1.846   0.940  0.00  0.00    -0.074 A 
ATOM      3  C2  UNL d   1      -5.169   1.049   0.221  0.00  0.00    -0.005 A 
ATOM      4  C3  UNL d   1      -4.716   0.255  -0.832  0.00  0.00     0.006 A 
ATOM      5  C4  UNL d   1      -3.364   0.250  -1.177  0.00  0.00    -0.005 A 
ATOM      6  C5  UNL d   1      -2.453   1.041  -0.470  0.00  0.00    -0.074 A 
ATOM      7  C6  UNL d   1      -0.998   1.054  -0.834  0.00  0.00     0.077 C 
ATOM      8  C7  UNL d   1      -2.917   1.841   0.582  0.00  0.00    -0.001 A 
ENDROOT
TORSDOF 0
ENDMDL
