MODEL 1
REMARK minimizedAffinity 19.3097248
REMARK minimizedRMSD -1
REMARK  0 active torsions:
REMARK  status: ('A' for Active; 'I' for Inactive)
ROOT
ATOM      1  C   UNL d   1      -3.940   2.696   1.419  0.00  0.00     0.077 C 
ATOM      2  C1  UNL d   1      -3.939   1.641   0.353  0.00  0.00    -0.074 A 
ATOM      3  C2  UNL d   1      -5.035   0.787   0.186  0.00  0.00    -0.005 A 
ATOM      4  C3  UNL d   1      -5.024  -0.183  -0.816  0.00  0.00     0.006 A 
ATOM      5  C4  UNL d   1      -3.919  -0.310  -1.659  0.00  0.00    -0.005 A 
ATOM      6  C5  UNL d   1      -2.815   0.535  -1.508  0.00  0.00    -0.074 A 
ATOM      7  C6  UNL d   1      -1.624   0.419  -2.412  0.00  0.00     0.077 C 
ATOM      8  C7  UNL d   1      -2.837   1.512  -0.503  0.00  0.00    -0.001 A 
ENDROOT
TORSDOF 0
ENDMDL
