MODEL 1
REMARK minimizedAffinity -1.98499858
REMARK minimizedRMSD -1
REMARK  2 active torsions:
REMARK  status: ('A' for Active; 'I' for Inactive)
REMARK    1  A    between atoms: C1_2  and  C2_3 
REMARK    2  A    between atoms: C2_3  and  C3_4 
ROOT
ATOM      1  C3  UNL d   1       0.652   0.089  -2.630  0.00  0.00    -0.075 A 
ATOM      2  C4  UNL d   1       0.158  -1.154  -3.050  0.00  0.00     0.002 A 
ATOM      3  C5  UNL d   1       1.001  -2.079  -3.667  0.00  0.00     0.002 A 
ATOM      4  C6  UNL d   1       2.343  -1.770  -3.881  0.00  0.00    -0.004 A 
ATOM      5  C7  UNL d   1       2.840  -0.530  -3.482  0.00  0.00     0.002 A 
ATOM      6  C8  UNL d   1       2.000   0.395  -2.861  0.00  0.00     0.002 A 
ENDROOT
BRANCH   1   7
ATOM      7  C2  UNL d   1      -0.248   1.083  -1.935  0.00  0.00     0.056 C 
BRANCH   7   8
ATOM      8  C1  UNL d   1      -0.578   0.717  -0.484  0.00  0.00     0.007 C 
ATOM      9  C   UNL d   1       0.659   0.515   0.380  0.00  0.00     0.009 C 
ENDBRANCH   7   8
ENDBRANCH   1   7
TORSDOF 2
ENDMDL
