MODEL 1
REMARK minimizedAffinity -2.01194763
REMARK minimizedRMSD -1
REMARK  2 active torsions:
REMARK  status: ('A' for Active; 'I' for Inactive)
REMARK    1  A    between atoms: C1_2  and  C2_3 
REMARK    2  A    between atoms: C2_3  and  C3_4 
ROOT
ATOM      1  C3  UNL d   1      -0.032   0.403   0.125  0.00  0.00    -0.075 A 
ATOM      2  C4  UNL d   1      -1.421   0.432   0.315  0.00  0.00     0.002 A 
ATOM      3  C5  UNL d   1      -1.959   0.488   1.602  0.00  0.00     0.002 A 
ATOM      4  C6  UNL d   1      -1.117   0.504   2.712  0.00  0.00    -0.004 A 
ATOM      5  C7  UNL d   1       0.265   0.459   2.534  0.00  0.00     0.002 A 
ATOM      6  C8  UNL d   1       0.805   0.407   1.248  0.00  0.00     0.002 A 
ENDROOT
BRANCH   1   7
ATOM      7  C2  UNL d   1       0.556   0.372  -1.266  0.00  0.00     0.056 C 
BRANCH   7   8
ATOM      8  C1  UNL d   1       0.163  -0.863  -2.082  0.00  0.00     0.007 C 
ATOM      9  C   UNL d   1       1.219  -1.269  -3.103  0.00  0.00     0.009 C 
ENDBRANCH   7   8
ENDBRANCH   1   7
TORSDOF 2
ENDMDL
