MODEL 1
REMARK minimizedAffinity -2.2407341
REMARK minimizedRMSD -1
REMARK  2 active torsions:
REMARK  status: ('A' for Active; 'I' for Inactive)
REMARK    1  A    between atoms: C1_2  and  C2_3 
REMARK    2  A    between atoms: C2_3  and  C3_4 
ROOT
ATOM      1  C3  UNL d   1       0.012   0.473  -0.155  0.00  0.00    -0.075 A 
ATOM      2  C4  UNL d   1       1.330   0.381   0.317  0.00  0.00     0.002 A 
ATOM      3  C5  UNL d   1       1.584   0.202   1.677  0.00  0.00     0.002 A 
ATOM      4  C6  UNL d   1       0.528   0.123   2.582  0.00  0.00    -0.004 A 
ATOM      5  C7  UNL d   1      -0.784   0.229   2.126  0.00  0.00     0.002 A 
ATOM      6  C8  UNL d   1      -1.042   0.404   0.765  0.00  0.00     0.002 A 
ENDROOT
BRANCH   1   7
ATOM      7  C2  UNL d   1      -0.271   0.637  -1.629  0.00  0.00     0.056 C 
BRANCH   7   8
ATOM      8  C1  UNL d   1       0.850   0.126  -2.540  0.00  0.00     0.007 C 
ATOM      9  C   UNL d   1       0.420  -1.032  -3.431  0.00  0.00     0.009 C 
ENDBRANCH   7   8
ENDBRANCH   1   7
TORSDOF 2
ENDMDL
