MODEL 1
REMARK minimizedAffinity -1.62223291
REMARK minimizedRMSD -1
REMARK  2 active torsions:
REMARK  status: ('A' for Active; 'I' for Inactive)
REMARK    1  A    between atoms: C1_2  and  C2_3 
REMARK    2  A    between atoms: C2_3  and  C3_4 
ROOT
ATOM      1  C3  UNL d   1       0.651  -0.154  -2.346  0.00  0.00    -0.075 A 
ATOM      2  C4  UNL d   1      -0.098  -1.225  -2.857  0.00  0.00     0.002 A 
ATOM      3  C5  UNL d   1       0.494  -2.164  -3.702  0.00  0.00     0.002 A 
ATOM      4  C6  UNL d   1       1.836  -2.039  -4.056  0.00  0.00    -0.004 A 
ATOM      5  C7  UNL d   1       2.585  -0.970  -3.568  0.00  0.00     0.002 A 
ATOM      6  C8  UNL d   1       1.996  -0.032  -2.718  0.00  0.00     0.002 A 
ENDROOT
BRANCH   1   7
ATOM      7  C2  UNL d   1       0.024   0.848  -1.407  0.00  0.00     0.056 C 
BRANCH   7   8
ATOM      8  C1  UNL d   1      -0.156   0.334   0.025  0.00  0.00     0.007 C 
ATOM      9  C   UNL d   1       1.058   0.583   0.910  0.00  0.00     0.009 C 
ENDBRANCH   7   8
ENDBRANCH   1   7
TORSDOF 2
ENDMDL
