MODEL 1
REMARK minimizedAffinity -4.31268311
REMARK minimizedRMSD -1
REMARK  2 active torsions:
REMARK  status: ('A' for Active; 'I' for Inactive)
REMARK    1  A    between atoms: C1_2  and  C2_3 
REMARK    2  A    between atoms: C2_3  and  C3_4 
ROOT
ATOM      1  C3  UNL d   1      -0.400   0.325   0.259  0.00  0.00    -0.075 A 
ATOM      2  C4  UNL d   1      -1.520   0.464   1.091  0.00  0.00     0.002 A 
ATOM      3  C5  UNL d   1      -1.390   0.361   2.476  0.00  0.00     0.002 A 
ATOM      4  C6  UNL d   1      -0.144   0.109   3.046  0.00  0.00    -0.004 A 
ATOM      5  C7  UNL d   1       0.972  -0.048   2.228  0.00  0.00     0.002 A 
ATOM      6  C8  UNL d   1       0.846   0.059   0.841  0.00  0.00     0.002 A 
ENDROOT
BRANCH   1   7
ATOM      7  C2  UNL d   1      -0.528   0.465  -1.239  0.00  0.00     0.056 C 
BRANCH   7   8
ATOM      8  C1  UNL d   1       0.715   0.019  -2.016  0.00  0.00     0.007 C 
ATOM      9  C   UNL d   1       0.447  -1.142  -2.964  0.00  0.00     0.009 C 
ENDBRANCH   7   8
ENDBRANCH   1   7
TORSDOF 2
ENDMDL
