MODEL 1
REMARK minimizedAffinity -1.85870433
REMARK minimizedRMSD -1
REMARK  2 active torsions:
REMARK  status: ('A' for Active; 'I' for Inactive)
REMARK    1  A    between atoms: C1_2  and  C2_3 
REMARK    2  A    between atoms: C2_3  and  C3_4 
ROOT
ATOM      1  C3  UNL d   1       0.895  -0.379  -1.649  0.00  0.00    -0.075 A 
ATOM      2  C4  UNL d   1       0.560  -1.729  -1.468  0.00  0.00     0.002 A 
ATOM      3  C5  UNL d   1       0.843  -2.668  -2.461  0.00  0.00     0.002 A 
ATOM      4  C6  UNL d   1       1.452  -2.268  -3.648  0.00  0.00    -0.004 A 
ATOM      5  C7  UNL d   1       1.774  -0.927  -3.845  0.00  0.00     0.002 A 
ATOM      6  C8  UNL d   1       1.497   0.013  -2.852  0.00  0.00     0.002 A 
ENDROOT
BRANCH   1   7
ATOM      7  C2  UNL d   1       0.619   0.637  -0.566  0.00  0.00     0.056 C 
BRANCH   7   8
ATOM      8  C1  UNL d   1      -0.296   0.124   0.551  0.00  0.00     0.007 C 
ATOM      9  C   UNL d   1      -1.767   0.442   0.315  0.00  0.00     0.009 C 
ENDBRANCH   7   8
ENDBRANCH   1   7
TORSDOF 2
ENDMDL
