MODEL 1
REMARK minimizedAffinity -3.18142772
REMARK minimizedRMSD -1
REMARK  2 active torsions:
REMARK  status: ('A' for Active; 'I' for Inactive)
REMARK    1  A    between atoms: C1_2  and  C2_3 
REMARK    2  A    between atoms: C2_3  and  C3_4 
ROOT
ATOM      1  C3  UNL d   1      -0.309   0.185   0.060  0.00  0.00    -0.075 A 
ATOM      2  C4  UNL d   1      -1.480   0.321   0.819  0.00  0.00     0.002 A 
ATOM      3  C5  UNL d   1      -1.428   0.301   2.213  0.00  0.00     0.002 A 
ATOM      4  C6  UNL d   1      -0.207   0.136   2.864  0.00  0.00    -0.004 A 
ATOM      5  C7  UNL d   1       0.961  -0.016   2.120  0.00  0.00     0.002 A 
ATOM      6  C8  UNL d   1       0.911   0.008   0.725  0.00  0.00     0.002 A 
ENDROOT
BRANCH   1   7
ATOM      7  C2  UNL d   1      -0.355   0.236  -1.449  0.00  0.00     0.056 C 
BRANCH   7   8
ATOM      8  C1  UNL d   1       0.858   0.920  -2.088  0.00  0.00     0.007 C 
ATOM      9  C   UNL d   1       1.631   0.011  -3.034  0.00  0.00     0.009 C 
ENDBRANCH   7   8
ENDBRANCH   1   7
TORSDOF 2
ENDMDL
