MODEL 1
REMARK minimizedAffinity -4.57202768
REMARK minimizedRMSD -1
REMARK  2 active torsions:
REMARK  status: ('A' for Active; 'I' for Inactive)
REMARK    1  A    between atoms: C1_2  and  C2_3 
REMARK    2  A    between atoms: C2_3  and  C3_4 
ROOT
ATOM      1  C3  UNL d   1       0.543   0.381  -0.769  0.00  0.00    -0.075 A 
ATOM      2  C4  UNL d   1       1.335   0.349   0.388  0.00  0.00     0.002 A 
ATOM      3  C5  UNL d   1       0.745   0.380   1.652  0.00  0.00     0.002 A 
ATOM      4  C6  UNL d   1      -0.641   0.455   1.775  0.00  0.00    -0.004 A 
ATOM      5  C7  UNL d   1      -1.436   0.504   0.632  0.00  0.00     0.002 A 
ATOM      6  C8  UNL d   1      -0.849   0.469  -0.633  0.00  0.00     0.002 A 
ENDROOT
BRANCH   1   7
ATOM      7  C2  UNL d   1       1.175   0.318  -2.139  0.00  0.00     0.056 C 
BRANCH   7   8
ATOM      8  C1  UNL d   1       0.846  -0.960  -2.918  0.00  0.00     0.007 C 
ATOM      9  C   UNL d   1       2.075  -1.801  -3.237  0.00  0.00     0.009 C 
ENDBRANCH   7   8
ENDBRANCH   1   7
TORSDOF 2
ENDMDL
