MODEL 1
REMARK minimizedAffinity -2.87519288
REMARK minimizedRMSD -1
REMARK  2 active torsions:
REMARK  status: ('A' for Active; 'I' for Inactive)
REMARK    1  A    between atoms: C1_2  and  C2_3 
REMARK    2  A    between atoms: C2_3  and  C3_4 
ROOT
ATOM      1  C3  UNL d   1       0.584   0.020  -1.391  0.00  0.00    -0.075 A 
ATOM      2  C4  UNL d   1      -0.052  -1.179  -1.747  0.00  0.00     0.002 A 
ATOM      3  C5  UNL d   1       0.216  -1.785  -2.974  0.00  0.00     0.002 A 
ATOM      4  C6  UNL d   1       1.113  -1.198  -3.864  0.00  0.00    -0.004 A 
ATOM      5  C7  UNL d   1       1.738   0.001  -3.528  0.00  0.00     0.002 A 
ATOM      6  C8  UNL d   1       1.476   0.608  -2.299  0.00  0.00     0.002 A 
ENDROOT
BRANCH   1   7
ATOM      7  C2  UNL d   1       0.321   0.666  -0.052  0.00  0.00     0.056 C 
BRANCH   7   8
ATOM      8  C1  UNL d   1       0.332  -0.314   1.126  0.00  0.00     0.007 C 
ATOM      9  C   UNL d   1      -0.460   0.184   2.328  0.00  0.00     0.009 C 
ENDBRANCH   7   8
ENDBRANCH   1   7
TORSDOF 2
ENDMDL
