MODEL 1
REMARK minimizedAffinity -4.13504505
REMARK minimizedRMSD -1
REMARK  2 active torsions:
REMARK  status: ('A' for Active; 'I' for Inactive)
REMARK    1  A    between atoms: C1_2  and  C2_3 
REMARK    2  A    between atoms: C2_3  and  C3_4 
ROOT
ATOM      1  C3  UNL d   1       0.328   0.108  -0.093  0.00  0.00    -0.075 A 
ATOM      2  C4  UNL d   1      -0.898   0.345   0.544  0.00  0.00     0.002 A 
ATOM      3  C5  UNL d   1      -0.980   0.372   1.936  0.00  0.00     0.002 A 
ATOM      4  C6  UNL d   1       0.159   0.152   2.708  0.00  0.00    -0.004 A 
ATOM      5  C7  UNL d   1       1.379  -0.101   2.086  0.00  0.00     0.002 A 
ATOM      6  C8  UNL d   1       1.465  -0.124   0.693  0.00  0.00     0.002 A 
ENDROOT
BRANCH   1   7
ATOM      7  C2  UNL d   1       0.429   0.106  -1.600  0.00  0.00     0.056 C 
BRANCH   7   8
ATOM      8  C1  UNL d   1       0.367  -1.290  -2.228  0.00  0.00     0.007 C 
ATOM      9  C   UNL d   1       1.472  -1.540  -3.245  0.00  0.00     0.009 C 
ENDBRANCH   7   8
ENDBRANCH   1   7
TORSDOF 2
ENDMDL
