MODEL 1
REMARK minimizedAffinity 6.13713598
REMARK minimizedRMSD -1
REMARK  1 active torsions:
REMARK  status: ('A' for Active; 'I' for Inactive)
REMARK    1  A    between atoms: C1_2  and  C2_3 
ROOT
ATOM      1  C2  UNL d   1      -1.012   1.098  -1.175  0.00  0.00    -0.073 A 
ATOM      2  C3  UNL d   1      -2.362   0.800  -0.958  0.00  0.00    -0.002 A 
ATOM      3  C4  UNL d   1      -2.840  -0.494  -1.162  0.00  0.00     0.004 A 
ATOM      4  C5  UNL d   1      -1.974  -1.505  -1.579  0.00  0.00    -0.004 A 
ATOM      5  C6  UNL d   1      -0.619  -1.230  -1.790  0.00  0.00    -0.075 A 
ATOM      6  C7  UNL d   1       0.325  -2.306  -2.240  0.00  0.00     0.076 C 
ATOM      7  C8  UNL d   1      -0.147   0.073  -1.585  0.00  0.00     0.001 A 
ENDROOT
BRANCH   1   8
ATOM      8  C1  UNL d   1      -0.489   2.493  -0.949  0.00  0.00     0.053 C 
ATOM      9  C   UNL d   1      -0.246   2.779   0.524  0.00  0.00     0.018 C 
ENDBRANCH   1   8
TORSDOF 1
ENDMDL
