MODEL 1
REMARK minimizedAffinity 13.3815622
REMARK minimizedRMSD -1
REMARK  1 active torsions:
REMARK  status: ('A' for Active; 'I' for Inactive)
REMARK    1  A    between atoms: C1_2  and  C2_3 
ROOT
ATOM      1  C2  UNL d   1      -0.823   1.928  -0.772  0.00  0.00    -0.073 A 
ATOM      2  C3  UNL d   1      -0.456   3.167  -1.310  0.00  0.00    -0.002 A 
ATOM      3  C4  UNL d   1       0.049   4.173  -0.485  0.00  0.00     0.004 A 
ATOM      4  C5  UNL d   1       0.198   3.948   0.884  0.00  0.00    -0.004 A 
ATOM      5  C6  UNL d   1      -0.152   2.713   1.438  0.00  0.00    -0.075 A 
ATOM      6  C7  UNL d   1       0.000   2.456   2.909  0.00  0.00     0.076 C 
ATOM      7  C8  UNL d   1      -0.660   1.709   0.603  0.00  0.00     0.001 A 
ENDROOT
BRANCH   1   8
ATOM      8  C1  UNL d   1      -1.362   0.837  -1.661  0.00  0.00     0.053 C 
ATOM      9  C   UNL d   1      -2.713   0.328  -1.183  0.00  0.00     0.018 C 
ENDBRANCH   1   8
TORSDOF 1
ENDMDL
