MODEL 1
REMARK minimizedAffinity 7.85657024
REMARK minimizedRMSD -1
REMARK  1 active torsions:
REMARK  status: ('A' for Active; 'I' for Inactive)
REMARK    1  A    between atoms: C1_2  and  C2_3 
ROOT
ATOM      1  C2  UNL d   1      -0.776   1.261  -1.083  0.00  0.00    -0.073 A 
ATOM      2  C3  UNL d   1       0.043   0.201  -1.488  0.00  0.00    -0.002 A 
ATOM      3  C4  UNL d   1      -0.509  -1.048  -1.774  0.00  0.00     0.004 A 
ATOM      4  C5  UNL d   1      -1.886  -1.248  -1.665  0.00  0.00    -0.004 A 
ATOM      5  C6  UNL d   1      -2.722  -0.198  -1.273  0.00  0.00    -0.075 A 
ATOM      6  C7  UNL d   1      -4.204  -0.398  -1.149  0.00  0.00     0.076 C 
ATOM      7  C8  UNL d   1      -2.159   1.053  -0.985  0.00  0.00     0.001 A 
ENDROOT
BRANCH   1   8
ATOM      8  C1  UNL d   1      -0.184   2.613  -0.779  0.00  0.00     0.053 C 
ATOM      9  C   UNL d   1      -0.040   2.849   0.716  0.00  0.00     0.018 C 
ENDBRANCH   1   8
TORSDOF 1
ENDMDL
