MODEL 1
REMARK minimizedAffinity 1.2252779
REMARK minimizedRMSD -1
REMARK  1 active torsions:
REMARK  status: ('A' for Active; 'I' for Inactive)
REMARK    1  A    between atoms: C1_2  and  C2_3 
ROOT
ATOM      1  C2  UNL d   1      -1.179   1.435  -0.868  0.00  0.00    -0.073 A 
ATOM      2  C3  UNL d   1      -0.313   0.369  -1.138  0.00  0.00    -0.002 A 
ATOM      3  C4  UNL d   1      -0.812  -0.927  -1.273  0.00  0.00     0.004 A 
ATOM      4  C5  UNL d   1      -2.179  -1.170  -1.146  0.00  0.00    -0.004 A 
ATOM      5  C6  UNL d   1      -3.062  -0.117  -0.888  0.00  0.00    -0.075 A 
ATOM      6  C7  UNL d   1      -4.536  -0.362  -0.746  0.00  0.00     0.076 C 
ATOM      7  C8  UNL d   1      -2.554   1.182  -0.751  0.00  0.00     0.001 A 
ENDROOT
BRANCH   1   8
ATOM      8  C1  UNL d   1      -0.646   2.837  -0.728  0.00  0.00     0.053 C 
ATOM      9  C   UNL d   1      -0.313   3.179   0.715  0.00  0.00     0.018 C 
ENDBRANCH   1   8
TORSDOF 1
ENDMDL
