MODEL 1
REMARK minimizedAffinity -4.46390581
REMARK minimizedRMSD -1
REMARK  0 active torsions:
REMARK  status: ('A' for Active; 'I' for Inactive)
ROOT
ATOM      1  O1  BZF d   1      -0.660  -0.874   2.841  0.00  0.00    -0.204 OA
ATOM      2  C2  BZF d   1      -1.553  -1.775   2.295  0.00  0.00     0.174 A 
ATOM      3  C3  BZF d   1      -1.754  -1.516   0.986  0.00  0.00    -0.012 A 
ATOM      4  C3A BZF d   1      -0.864  -0.439   0.675  0.00  0.00    -0.107 A 
ATOM      5  C4  BZF d   1      -0.592   0.251  -0.471  0.00  0.00     0.055 A 
ATOM      6  C5  BZF d   1       0.277   1.295  -0.422  0.00  0.00    -0.016 A 
ATOM      7  C6  BZF d   1       0.886   1.679   0.755  0.00  0.00     0.022 A 
ATOM      8  C7  BZF d   1       0.650   1.021   1.917  0.00  0.00     0.029 A 
ATOM      9  C7A BZF d   1      -0.202  -0.055   1.864  0.00  0.00     0.058 A 
ENDROOT
TORSDOF 0
ENDMDL
