MODEL 1
REMARK minimizedAffinity -4.63331318
REMARK minimizedRMSD -1
REMARK  0 active torsions:
REMARK  status: ('A' for Active; 'I' for Inactive)
ROOT
ATOM      1  O1  BZF d   1       0.820   0.742   0.019  0.00  0.00    -0.204 OA
ATOM      2  C2  BZF d   1       0.203   0.849  -1.213  0.00  0.00     0.174 A 
ATOM      3  C3  BZF d   1      -1.088   0.466  -1.136  0.00  0.00    -0.012 A 
ATOM      4  C3A BZF d   1      -1.315   0.184   0.248  0.00  0.00    -0.107 A 
ATOM      5  C4  BZF d   1      -2.409  -0.226   0.955  0.00  0.00     0.055 A 
ATOM      6  C5  BZF d   1      -2.279  -0.481   2.284  0.00  0.00    -0.016 A 
ATOM      7  C6  BZF d   1      -1.071  -0.341   2.935  0.00  0.00     0.022 A 
ATOM      8  C7  BZF d   1       0.041   0.068   2.277  0.00  0.00     0.029 A 
ATOM      9  C7A BZF d   1      -0.095   0.358   0.941  0.00  0.00     0.058 A 
ENDROOT
TORSDOF 0
ENDMDL
