MODEL 1
REMARK minimizedAffinity -3.19577527
REMARK minimizedRMSD -1
REMARK  0 active torsions:
REMARK  status: ('A' for Active; 'I' for Inactive)
ROOT
ATOM      1  O1  BZF d   1      -1.393   0.536  -0.376  0.00  0.00    -0.204 OA
ATOM      2  C2  BZF d   1      -0.083   0.263  -0.720  0.00  0.00     0.174 A 
ATOM      3  C3  BZF d   1       0.689   0.157   0.381  0.00  0.00    -0.012 A 
ATOM      4  C3A BZF d   1      -0.211   0.286   1.485  0.00  0.00    -0.107 A 
ATOM      5  C4  BZF d   1      -0.046   0.250   2.840  0.00  0.00     0.055 A 
ATOM      6  C5  BZF d   1      -1.118   0.483   3.643  0.00  0.00    -0.016 A 
ATOM      7  C6  BZF d   1      -2.366   0.759   3.125  0.00  0.00     0.022 A 
ATOM      8  C7  BZF d   1      -2.580   0.799   1.787  0.00  0.00     0.029 A 
ATOM      9  C7A BZF d   1      -1.506   0.532   0.974  0.00  0.00     0.058 A 
ENDROOT
TORSDOF 0
ENDMDL
