MODEL 1
REMARK minimizedAffinity -6.22538233
REMARK minimizedRMSD -1
REMARK  0 active torsions:
REMARK  status: ('A' for Active; 'I' for Inactive)
ROOT
ATOM      1  O1  BZF d   1      -1.320   0.706  -0.782  0.00  0.00    -0.204 OA
ATOM      2  C2  BZF d   1       0.028   0.479  -0.982  0.00  0.00     0.174 A 
ATOM      3  C3  BZF d   1       0.629   0.117   0.170  0.00  0.00    -0.012 A 
ATOM      4  C3A BZF d   1      -0.426   0.029   1.132  0.00  0.00    -0.107 A 
ATOM      5  C4  BZF d   1      -0.464  -0.302   2.457  0.00  0.00     0.055 A 
ATOM      6  C5  BZF d   1      -1.644  -0.219   3.125  0.00  0.00    -0.016 A 
ATOM      7  C6  BZF d   1      -2.803   0.195   2.503  0.00  0.00     0.022 A 
ATOM      8  C7  BZF d   1      -2.817   0.529   1.189  0.00  0.00     0.029 A 
ATOM      9  C7A BZF d   1      -1.633   0.415   0.503  0.00  0.00     0.058 A 
ENDROOT
TORSDOF 0
ENDMDL
