MODEL 1
REMARK minimizedAffinity -4.87696886
REMARK minimizedRMSD -1
REMARK  0 active torsions:
REMARK  status: ('A' for Active; 'I' for Inactive)
ROOT
ATOM      1  O1  BZF d   1      -0.210   1.053  -0.150  0.00  0.00    -0.204 OA
ATOM      2  C2  BZF d   1       1.107   0.910   0.242  0.00  0.00     0.174 A 
ATOM      3  C3  BZF d   1       1.184   0.319   1.452  0.00  0.00    -0.012 A 
ATOM      4  C3A BZF d   1      -0.166  -0.005   1.799  0.00  0.00    -0.107 A 
ATOM      5  C4  BZF d   1      -0.736  -0.619   2.877  0.00  0.00     0.055 A 
ATOM      6  C5  BZF d   1      -2.090  -0.716   2.942  0.00  0.00    -0.016 A 
ATOM      7  C6  BZF d   1      -2.903  -0.205   1.952  0.00  0.00     0.022 A 
ATOM      8  C7  BZF d   1      -2.383   0.409   0.861  0.00  0.00     0.029 A 
ATOM      9  C7A BZF d   1      -1.014   0.478   0.776  0.00  0.00     0.058 A 
ENDROOT
TORSDOF 0
ENDMDL
