MODEL 1
REMARK minimizedAffinity -1.64786589
REMARK minimizedRMSD -1
REMARK  0 active torsions:
REMARK  status: ('A' for Active; 'I' for Inactive)
ROOT
ATOM      1  O1  BZF d   1      -0.003  -0.331   3.152  0.00  0.00    -0.204 OA
ATOM      2  C2  BZF d   1      -1.025  -1.257   3.061  0.00  0.00     0.174 A 
ATOM      3  C3  BZF d   1      -1.545  -1.274   1.817  0.00  0.00    -0.012 A 
ATOM      4  C3A BZF d   1      -0.742  -0.364   1.060  0.00  0.00    -0.107 A 
ATOM      5  C4  BZF d   1      -0.754   0.037  -0.245  0.00  0.00     0.055 A 
ATOM      6  C5  BZF d   1       0.121   0.995  -0.650  0.00  0.00    -0.016 A 
ATOM      7  C6  BZF d   1       1.017   1.576   0.223  0.00  0.00     0.022 A 
ATOM      8  C7  BZF d   1       1.070   1.207   1.526  0.00  0.00     0.029 A 
ATOM      9  C7A BZF d   1       0.209   0.216   1.931  0.00  0.00     0.058 A 
ENDROOT
TORSDOF 0
ENDMDL
