MODEL 1
REMARK minimizedAffinity -5.12506247
REMARK minimizedRMSD -1
REMARK  0 active torsions:
REMARK  status: ('A' for Active; 'I' for Inactive)
ROOT
ATOM      1  O1  BZF d   1      -0.987   0.607   2.425  0.00  0.00    -0.204 OA
ATOM      2  C2  BZF d   1       0.351   0.317   2.605  0.00  0.00     0.174 A 
ATOM      3  C3  BZF d   1       0.964   0.126   1.419  0.00  0.00    -0.012 A 
ATOM      4  C3A BZF d   1      -0.035   0.398   0.431  0.00  0.00    -0.107 A 
ATOM      5  C4  BZF d   1      -0.031   0.393  -0.934  0.00  0.00     0.055 A 
ATOM      6  C5  BZF d   1      -1.192   0.633  -1.599  0.00  0.00    -0.016 A 
ATOM      7  C6  BZF d   1      -2.375   0.876  -0.931  0.00  0.00     0.022 A 
ATOM      8  C7  BZF d   1      -2.427   0.895   0.423  0.00  0.00     0.029 A 
ATOM      9  C7A BZF d   1      -1.249   0.686   1.098  0.00  0.00     0.058 A 
ENDROOT
TORSDOF 0
ENDMDL
