MODEL 1
REMARK minimizedAffinity -1.78214395
REMARK minimizedRMSD -1
REMARK  0 active torsions:
REMARK  status: ('A' for Active; 'I' for Inactive)
ROOT
ATOM      1  O1  BZF d   1      -0.691  -0.725  -0.959  0.00  0.00    -0.204 OA
ATOM      2  C2  BZF d   1      -0.640   0.482  -0.290  0.00  0.00     0.174 A 
ATOM      3  C3  BZF d   1       0.331   1.269  -0.796  0.00  0.00    -0.012 A 
ATOM      4  C3A BZF d   1       0.863   0.543  -1.908  0.00  0.00    -0.107 A 
ATOM      5  C4  BZF d   1       1.842   0.810  -2.822  0.00  0.00     0.055 A 
ATOM      6  C5  BZF d   1       2.168  -0.141  -3.736  0.00  0.00    -0.016 A 
ATOM      7  C6  BZF d   1       1.541  -1.369  -3.763  0.00  0.00     0.022 A 
ATOM      8  C7  BZF d   1       0.560  -1.678  -2.879  0.00  0.00     0.029 A 
ATOM      9  C7A BZF d   1       0.205  -0.707  -1.975  0.00  0.00     0.058 A 
ENDROOT
TORSDOF 0
ENDMDL
