MODEL 1
REMARK minimizedAffinity 1.96132421
REMARK minimizedRMSD -1
REMARK  0 active torsions:
REMARK  status: ('A' for Active; 'I' for Inactive)
ROOT
ATOM      1  O1  BZF d   1      -3.170   1.073   0.726  0.00  0.00    -0.204 OA
ATOM      2  C2  BZF d   1      -3.626   1.370   1.996  0.00  0.00     0.174 A 
ATOM      3  C3  BZF d   1      -2.608   1.371   2.881  0.00  0.00    -0.012 A 
ATOM      4  C3A BZF d   1      -1.430   1.145   2.101  0.00  0.00    -0.107 A 
ATOM      5  C4  BZF d   1      -0.103   1.056   2.409  0.00  0.00     0.055 A 
ATOM      6  C5  BZF d   1       0.785   0.755   1.425  0.00  0.00    -0.016 A 
ATOM      7  C6  BZF d   1       0.380   0.534   0.125  0.00  0.00     0.022 A 
ATOM      8  C7  BZF d   1      -0.925   0.617  -0.230  0.00  0.00     0.029 A 
ATOM      9  C7A BZF d   1      -1.821   0.953   0.756  0.00  0.00     0.058 A 
ENDROOT
TORSDOF 0
ENDMDL
