MODEL 1
REMARK minimizedAffinity -2.11546206
REMARK minimizedRMSD -1
REMARK  0 active torsions:
REMARK  status: ('A' for Active; 'I' for Inactive)
ROOT
ATOM      1  O1  BZF d   1      -2.928   0.990   0.775  0.00  0.00    -0.204 OA
ATOM      2  C2  BZF d   1      -3.403   1.174   2.059  0.00  0.00     0.174 A 
ATOM      3  C3  BZF d   1      -2.411   1.032   2.962  0.00  0.00    -0.012 A 
ATOM      4  C3A BZF d   1      -1.224   0.833   2.187  0.00  0.00    -0.107 A 
ATOM      5  C4  BZF d   1       0.089   0.646   2.513  0.00  0.00     0.055 A 
ATOM      6  C5  BZF d   1       0.988   0.408   1.522  0.00  0.00    -0.016 A 
ATOM      7  C6  BZF d   1       0.608   0.345   0.197  0.00  0.00     0.022 A 
ATOM      8  C7  BZF d   1      -0.682   0.528  -0.175  0.00  0.00     0.029 A 
ATOM      9  C7A BZF d   1      -1.587   0.802   0.821  0.00  0.00     0.058 A 
ENDROOT
TORSDOF 0
ENDMDL
