MODEL 1
REMARK minimizedAffinity -3.67878127
REMARK minimizedRMSD -1
REMARK  0 active torsions:
REMARK  status: ('A' for Active; 'I' for Inactive)
ROOT
ATOM      1  O1  BZF d   1      -1.018   0.236  -0.553  0.00  0.00    -0.204 OA
ATOM      2  C2  BZF d   1       0.223   0.776  -0.829  0.00  0.00     0.174 A 
ATOM      3  C3  BZF d   1       0.894   1.042   0.311  0.00  0.00    -0.012 A 
ATOM      4  C3A BZF d   1       0.054   0.558   1.363  0.00  0.00    -0.107 A 
ATOM      5  C4  BZF d   1       0.179   0.521   2.722  0.00  0.00     0.055 A 
ATOM      6  C5  BZF d   1      -0.854   0.048   3.468  0.00  0.00    -0.016 A 
ATOM      7  C6  BZF d   1      -2.027  -0.390   2.889  0.00  0.00     0.022 A 
ATOM      8  C7  BZF d   1      -2.196  -0.378   1.544  0.00  0.00     0.029 A 
ATOM      9  C7A BZF d   1      -1.141   0.069   0.786  0.00  0.00     0.058 A 
ENDROOT
TORSDOF 0
ENDMDL
