MODEL 1
REMARK minimizedAffinity -2.26751351
REMARK minimizedRMSD -1
REMARK  0 active torsions:
REMARK  status: ('A' for Active; 'I' for Inactive)
ROOT
ATOM      1  O1  BZF d   1       0.842   0.746  -0.469  0.00  0.00    -0.204 OA
ATOM      2  C2  BZF d   1      -0.102   0.563  -1.461  0.00  0.00     0.174 A 
ATOM      3  C3  BZF d   1      -1.201  -0.044  -0.969  0.00  0.00    -0.012 A 
ATOM      4  C3A BZF d   1      -0.964  -0.170   0.436  0.00  0.00    -0.107 A 
ATOM      5  C4  BZF d   1      -1.697  -0.678   1.470  0.00  0.00     0.055 A 
ATOM      6  C5  BZF d   1      -1.149  -0.718   2.713  0.00  0.00    -0.016 A 
ATOM      7  C6  BZF d   1       0.131  -0.263   2.956  0.00  0.00     0.022 A 
ATOM      8  C7  BZF d   1       0.895   0.255   1.963  0.00  0.00     0.029 A 
ATOM      9  C7A BZF d   1       0.331   0.326   0.713  0.00  0.00     0.058 A 
ENDROOT
TORSDOF 0
ENDMDL
