MODEL 1
REMARK minimizedAffinity -5.68159485
REMARK minimizedRMSD -1
REMARK  0 active torsions:
REMARK  status: ('A' for Active; 'I' for Inactive)
ROOT
ATOM      1  O1  BZF d   1      -0.737   0.275  -0.433  0.00  0.00    -0.204 OA
ATOM      2  C2  BZF d   1       0.600   0.589  -0.584  0.00  0.00     0.174 A 
ATOM      3  C3  BZF d   1       1.226   0.602   0.611  0.00  0.00    -0.012 A 
ATOM      4  C3A BZF d   1       0.237   0.186   1.558  0.00  0.00    -0.107 A 
ATOM      5  C4  BZF d   1       0.257  -0.012   2.909  0.00  0.00     0.055 A 
ATOM      6  C5  BZF d   1      -0.897  -0.349   3.544  0.00  0.00    -0.016 A 
ATOM      7  C6  BZF d   1      -2.087  -0.490   2.860  0.00  0.00     0.022 A 
ATOM      8  C7  BZF d   1      -2.155  -0.308   1.519  0.00  0.00     0.029 A 
ATOM      9  C7A BZF d   1      -0.984  -0.001   0.870  0.00  0.00     0.058 A 
ENDROOT
TORSDOF 0
ENDMDL
