MODEL 1
REMARK minimizedAffinity -5.22390747
REMARK minimizedRMSD -1
REMARK  0 active torsions:
REMARK  status: ('A' for Active; 'I' for Inactive)
ROOT
ATOM      1  O1  BZF d   1      -2.261   0.601  -0.288  0.00  0.00    -0.204 OA
ATOM      2  C2  BZF d   1      -1.223   0.899  -1.150  0.00  0.00     0.174 A 
ATOM      3  C3  BZF d   1      -0.032   0.691  -0.554  0.00  0.00    -0.012 A 
ATOM      4  C3A BZF d   1      -0.344   0.146   0.732  0.00  0.00    -0.107 A 
ATOM      5  C4  BZF d   1       0.418  -0.281   1.781  0.00  0.00     0.055 A 
ATOM      6  C5  BZF d   1      -0.197  -0.690   2.921  0.00  0.00    -0.016 A 
ATOM      7  C6  BZF d   1      -1.571  -0.680   3.049  0.00  0.00     0.022 A 
ATOM      8  C7  BZF d   1      -2.369  -0.270   2.034  0.00  0.00     0.029 A 
ATOM      9  C7A BZF d   1      -1.751   0.113   0.868  0.00  0.00     0.058 A 
ENDROOT
TORSDOF 0
ENDMDL
