MODEL 1
REMARK minimizedAffinity -3.39451098
REMARK minimizedRMSD -1
REMARK  0 active torsions:
REMARK  status: ('A' for Active; 'I' for Inactive)
ROOT
ATOM      1  O1  BZF d   1       1.298  -0.121   1.734  0.00  0.00    -0.204 OA
ATOM      2  C2  BZF d   1       0.607  -0.313   2.915  0.00  0.00     0.174 A 
ATOM      3  C3  BZF d   1      -0.718  -0.150   2.726  0.00  0.00    -0.012 A 
ATOM      4  C3A BZF d   1      -0.873   0.072   1.321  0.00  0.00    -0.107 A 
ATOM      5  C4  BZF d   1      -1.957   0.285   0.518  0.00  0.00     0.055 A 
ATOM      6  C5  BZF d   1      -1.761   0.540  -0.802  0.00  0.00    -0.016 A 
ATOM      7  C6  BZF d   1      -0.497   0.594  -1.351  0.00  0.00     0.022 A 
ATOM      8  C7  BZF d   1       0.609   0.384  -0.596  0.00  0.00     0.029 A 
ATOM      9  C7A BZF d   1       0.412   0.093   0.732  0.00  0.00     0.058 A 
ENDROOT
TORSDOF 0
ENDMDL
