MODEL 1
REMARK minimizedAffinity -3.84977388
REMARK minimizedRMSD -1
REMARK  0 active torsions:
REMARK  status: ('A' for Active; 'I' for Inactive)
ROOT
ATOM      1  O1  BZF d   1      -1.854   0.755  -0.635  0.00  0.00    -0.204 OA
ATOM      2  C2  BZF d   1      -0.746   0.812  -1.458  0.00  0.00     0.174 A 
ATOM      3  C3  BZF d   1       0.359   0.405  -0.801  0.00  0.00    -0.012 A 
ATOM      4  C3A BZF d   1      -0.102  -0.015   0.487  0.00  0.00    -0.107 A 
ATOM      5  C4  BZF d   1       0.523  -0.536   1.584  0.00  0.00     0.055 A 
ATOM      6  C5  BZF d   1      -0.204  -0.770   2.708  0.00  0.00    -0.016 A 
ATOM      7  C6  BZF d   1      -1.553  -0.492   2.772  0.00  0.00     0.022 A 
ATOM      8  C7  BZF d   1      -2.218   0.020   1.708  0.00  0.00     0.029 A 
ATOM      9  C7A BZF d   1      -1.493   0.228   0.559  0.00  0.00     0.058 A 
ENDROOT
TORSDOF 0
ENDMDL
