MODEL 1
REMARK minimizedAffinity -2.93124557
REMARK minimizedRMSD -1
REMARK  0 active torsions:
REMARK  status: ('A' for Active; 'I' for Inactive)
ROOT
ATOM      1  O1  BZF d   1       4.172  -0.983  -4.241  0.00  0.00    -0.204 OA
ATOM      2  C2  BZF d   1       4.777   0.128  -3.684  0.00  0.00     0.174 A 
ATOM      3  C3  BZF d   1       3.918   0.789  -2.882  0.00  0.00    -0.012 A 
ATOM      4  C3A BZF d   1       2.728  -0.006  -2.868  0.00  0.00    -0.107 A 
ATOM      5  C4  BZF d   1       1.523   0.118  -2.238  0.00  0.00     0.055 A 
ATOM      6  C5  BZF d   1       0.548  -0.793  -2.493  0.00  0.00    -0.016 A 
ATOM      7  C6  BZF d   1       0.741  -1.836  -3.374  0.00  0.00     0.022 A 
ATOM      8  C7  BZF d   1       1.921  -2.004  -4.019  0.00  0.00     0.029 A 
ATOM      9  C7A BZF d   1       2.920  -1.104  -3.739  0.00  0.00     0.058 A 
ENDROOT
TORSDOF 0
ENDMDL
