MODEL 1
REMARK minimizedAffinity -2.45010734
REMARK minimizedRMSD -1
REMARK  0 active torsions:
REMARK  status: ('A' for Active; 'I' for Inactive)
ROOT
ATOM      1  O1  BZF d   1      -1.572   0.400  -0.680  0.00  0.00    -0.204 OA
ATOM      2  C2  BZF d   1      -0.458   0.629  -1.465  0.00  0.00     0.174 A 
ATOM      3  C3  BZF d   1       0.666   0.601  -0.720  0.00  0.00    -0.012 A 
ATOM      4  C3A BZF d   1       0.236   0.247   0.598  0.00  0.00    -0.107 A 
ATOM      5  C4  BZF d   1       0.893   0.046   1.778  0.00  0.00     0.055 A 
ATOM      6  C5  BZF d   1       0.172  -0.218   2.899  0.00  0.00    -0.016 A 
ATOM      7  C6  BZF d   1      -1.206  -0.283   2.877  0.00  0.00     0.022 A 
ATOM      8  C7  BZF d   1      -1.902  -0.096   1.730  0.00  0.00     0.029 A 
ATOM      9  C7A BZF d   1      -1.174   0.139   0.589  0.00  0.00     0.058 A 
ENDROOT
TORSDOF 0
ENDMDL
