MODEL 1
REMARK minimizedAffinity -2.28349209
REMARK minimizedRMSD -1
REMARK  0 active torsions:
REMARK  status: ('A' for Active; 'I' for Inactive)
ROOT
ATOM      1  C   UNL d   1       1.006   0.074   2.383  0.00  0.00     0.020 A 
ATOM      2  C1  UNL d   1      -0.229   0.525   2.847  0.00  0.00     0.020 A 
ATOM      3  C2  UNL d   1      -1.265   0.776   1.945  0.00  0.00     0.034 A 
ATOM      4  C3  UNL d   1      -1.068   0.576   0.574  0.00  0.00     0.017 A 
ATOM      5  C4  UNL d   1       0.172   0.123   0.109  0.00  0.00     0.017 A 
ATOM      6  C5  UNL d   1       1.206  -0.126   1.016  0.00  0.00     0.034 A 
ATOM      7 Cl   UNL d   1       0.490  -0.147  -1.568  0.00  0.00    -0.070 Cl
ATOM      8 Cl1  UNL d   1      -2.393   0.906  -0.484  0.00  0.00    -0.070 Cl
ENDROOT
TORSDOF 0
ENDMDL
