MODEL 1
REMARK minimizedAffinity -1.39684236
REMARK minimizedRMSD -1
REMARK  0 active torsions:
REMARK  status: ('A' for Active; 'I' for Inactive)
ROOT
ATOM      1  C   UNL d   1       0.839  -0.227   2.402  0.00  0.00     0.020 A 
ATOM      2  C1  UNL d   1       1.590  -0.013   1.246  0.00  0.00     0.020 A 
ATOM      3  C2  UNL d   1       0.991   0.554   0.119  0.00  0.00     0.034 A 
ATOM      4  C3  UNL d   1      -0.362   0.910   0.146  0.00  0.00     0.017 A 
ATOM      5  C4  UNL d   1      -1.115   0.696   1.306  0.00  0.00     0.017 A 
ATOM      6  C5  UNL d   1      -0.510   0.127   2.432  0.00  0.00     0.034 A 
ATOM      7 Cl   UNL d   1      -2.789   1.109   1.415  0.00  0.00    -0.070 Cl
ATOM      8 Cl1  UNL d   1      -1.038   1.608  -1.283  0.00  0.00    -0.070 Cl
ENDROOT
TORSDOF 0
ENDMDL
