MODEL 1
REMARK minimizedAffinity -0.126770303
REMARK minimizedRMSD -1
REMARK  0 active torsions:
REMARK  status: ('A' for Active; 'I' for Inactive)
ROOT
ATOM      1  C   UNL d   1       1.368  -1.760  -3.773  0.00  0.00     0.020 A 
ATOM      2  C1  UNL d   1       2.244  -0.760  -3.353  0.00  0.00     0.020 A 
ATOM      3  C2  UNL d   1       1.932   0.020  -2.238  0.00  0.00     0.034 A 
ATOM      4  C3  UNL d   1       0.739  -0.199  -1.538  0.00  0.00     0.017 A 
ATOM      5  C4  UNL d   1      -0.139  -1.204  -1.960  0.00  0.00     0.017 A 
ATOM      6  C5  UNL d   1       0.179  -1.981  -3.077  0.00  0.00     0.034 A 
ATOM      7 Cl   UNL d   1      -1.629  -1.533  -1.147  0.00  0.00    -0.070 Cl
ATOM      8 Cl1  UNL d   1       0.417   0.802  -0.167  0.00  0.00    -0.070 Cl
ENDROOT
TORSDOF 0
ENDMDL
