MODEL 1
REMARK minimizedAffinity -0.65219754
REMARK minimizedRMSD -1
REMARK  0 active torsions:
REMARK  status: ('A' for Active; 'I' for Inactive)
ROOT
ATOM      1  C   UNL d   1       1.538  -0.026   2.037  0.00  0.00     0.020 A 
ATOM      2  C1  UNL d   1       0.383   0.588   2.520  0.00  0.00     0.020 A 
ATOM      3  C2  UNL d   1      -0.695   0.820   1.663  0.00  0.00     0.034 A 
ATOM      4  C3  UNL d   1      -0.620   0.437   0.319  0.00  0.00     0.017 A 
ATOM      5  C4  UNL d   1       0.539  -0.179  -0.165  0.00  0.00     0.017 A 
ATOM      6  C5  UNL d   1       1.616  -0.409   0.698  0.00  0.00     0.034 A 
ATOM      7 Cl   UNL d   1       0.705  -0.680  -1.811  0.00  0.00    -0.070 Cl
ATOM      8 Cl1  UNL d   1      -1.991   0.754  -0.684  0.00  0.00    -0.070 Cl
ENDROOT
TORSDOF 0
ENDMDL
