MODEL 1
REMARK minimizedAffinity 6.40944338
REMARK minimizedRMSD -1
REMARK  0 active torsions:
REMARK  status: ('A' for Active; 'I' for Inactive)
ROOT
ATOM      1  C   UNL d   1       2.081   1.810   0.687  0.00  0.00     0.020 A 
ATOM      2  C1  UNL d   1       2.889   0.907   1.377  0.00  0.00     0.020 A 
ATOM      3  C2  UNL d   1       2.405  -0.365   1.691  0.00  0.00     0.034 A 
ATOM      4  C3  UNL d   1       1.110  -0.737   1.314  0.00  0.00     0.017 A 
ATOM      5  C4  UNL d   1       0.299   0.170   0.622  0.00  0.00     0.017 A 
ATOM      6  C5  UNL d   1       0.789   1.442   0.310  0.00  0.00     0.034 A 
ATOM      7 Cl   UNL d   1      -1.310  -0.218   0.124  0.00  0.00    -0.070 Cl
ATOM      8 Cl1  UNL d   1       0.577  -2.326   1.735  0.00  0.00    -0.070 Cl
ENDROOT
TORSDOF 0
ENDMDL
