MODEL 1
REMARK minimizedAffinity 0.443887234
REMARK minimizedRMSD -1
REMARK  0 active torsions:
REMARK  status: ('A' for Active; 'I' for Inactive)
ROOT
ATOM      1  C   UNL d   1       0.471   0.528   2.054  0.00  0.00     0.020 A 
ATOM      2  C1  UNL d   1       1.464  -0.288   1.513  0.00  0.00     0.020 A 
ATOM      3  C2  UNL d   1       1.366  -0.722   0.189  0.00  0.00     0.034 A 
ATOM      4  C3  UNL d   1       0.274  -0.341  -0.598  0.00  0.00     0.017 A 
ATOM      5  C4  UNL d   1      -0.722   0.478  -0.054  0.00  0.00     0.017 A 
ATOM      6  C5  UNL d   1      -0.620   0.910   1.272  0.00  0.00     0.034 A 
ATOM      7 Cl   UNL d   1      -2.100   0.990  -0.964  0.00  0.00    -0.070 Cl
ATOM      8 Cl1  UNL d   1       0.218  -0.915  -2.227  0.00  0.00    -0.070 Cl
ENDROOT
TORSDOF 0
ENDMDL
