MODEL 1
REMARK minimizedAffinity -3.24946761
REMARK minimizedRMSD -1
REMARK  0 active torsions:
REMARK  status: ('A' for Active; 'I' for Inactive)
ROOT
ATOM      1  C   UNL d   1       1.103   0.031   2.054  0.00  0.00     0.020 A 
ATOM      2  C1  UNL d   1      -0.099   0.567   2.513  0.00  0.00     0.020 A 
ATOM      3  C2  UNL d   1      -1.090   0.941   1.603  0.00  0.00     0.034 A 
ATOM      4  C3  UNL d   1      -0.880   0.780   0.228  0.00  0.00     0.017 A 
ATOM      5  C4  UNL d   1       0.327   0.241  -0.231  0.00  0.00     0.017 A 
ATOM      6  C5  UNL d   1       1.316  -0.132   0.685  0.00  0.00     0.034 A 
ATOM      7 Cl   UNL d   1       0.659   0.011  -1.912  0.00  0.00    -0.070 Cl
ATOM      8 Cl1  UNL d   1      -2.148   1.263  -0.841  0.00  0.00    -0.070 Cl
ENDROOT
TORSDOF 0
ENDMDL
