MODEL 1
REMARK minimizedAffinity -1.89499402
REMARK minimizedRMSD -1
REMARK  0 active torsions:
REMARK  status: ('A' for Active; 'I' for Inactive)
ROOT
ATOM      1  C   UNL d   1      -0.263  -2.325  -3.023  0.00  0.00     0.020 A 
ATOM      2  C1  UNL d   1       1.037  -2.048  -2.599  0.00  0.00     0.020 A 
ATOM      3  C2  UNL d   1       1.258  -1.089  -1.608  0.00  0.00     0.034 A 
ATOM      4  C3  UNL d   1       0.180  -0.403  -1.038  0.00  0.00     0.017 A 
ATOM      5  C4  UNL d   1      -1.124  -0.682  -1.464  0.00  0.00     0.017 A 
ATOM      6  C5  UNL d   1      -1.341  -1.643  -2.456  0.00  0.00     0.034 A 
ATOM      7 Cl   UNL d   1      -2.506   0.122  -0.807  0.00  0.00    -0.070 Cl
ATOM      8 Cl1  UNL d   1       0.528   0.769   0.183  0.00  0.00    -0.070 Cl
ENDROOT
TORSDOF 0
ENDMDL
