MODEL 1
REMARK minimizedAffinity -2.4687314
REMARK minimizedRMSD -1
REMARK  0 active torsions:
REMARK  status: ('A' for Active; 'I' for Inactive)
ROOT
ATOM      1  C   UNL d   1       1.183  -1.782  -3.858  0.00  0.00     0.020 A 
ATOM      2  C1  UNL d   1       1.879  -0.595  -3.632  0.00  0.00     0.020 A 
ATOM      3  C2  UNL d   1       1.672   0.122  -2.452  0.00  0.00     0.034 A 
ATOM      4  C3  UNL d   1       0.768  -0.347  -1.493  0.00  0.00     0.017 A 
ATOM      5  C4  UNL d   1       0.070  -1.539  -1.720  0.00  0.00     0.017 A 
ATOM      6  C5  UNL d   1       0.280  -2.253  -2.903  0.00  0.00     0.034 A 
ATOM      7 Cl   UNL d   1      -1.063  -2.180  -0.582  0.00  0.00    -0.070 Cl
ATOM      8 Cl1  UNL d   1       0.562   0.591  -0.056  0.00  0.00    -0.070 Cl
ENDROOT
TORSDOF 0
ENDMDL
