MODEL 1
REMARK minimizedAffinity 2.21936226
REMARK minimizedRMSD -1
REMARK  0 active torsions:
REMARK  status: ('A' for Active; 'I' for Inactive)
ROOT
ATOM      1  C   UNL d   1       1.355   0.160   1.826  0.00  0.00     0.020 A 
ATOM      2  C1  UNL d   1       1.532   0.004   0.452  0.00  0.00     0.020 A 
ATOM      3  C2  UNL d   1       0.455   0.190  -0.417  0.00  0.00     0.034 A 
ATOM      4  C3  UNL d   1      -0.805   0.533   0.088  0.00  0.00     0.017 A 
ATOM      5  C4  UNL d   1      -0.982   0.689   1.467  0.00  0.00     0.017 A 
ATOM      6  C5  UNL d   1       0.100   0.502   2.332  0.00  0.00     0.034 A 
ATOM      7 Cl   UNL d   1      -2.507   1.111   2.164  0.00  0.00    -0.070 Cl
ATOM      8 Cl1  UNL d   1      -2.093   0.747  -1.044  0.00  0.00    -0.070 Cl
ENDROOT
TORSDOF 0
ENDMDL
