MODEL 1
REMARK minimizedAffinity -3.93799829
REMARK minimizedRMSD -1
REMARK  0 active torsions:
REMARK  status: ('A' for Active; 'I' for Inactive)
ROOT
ATOM      1  C   UNL d   1       1.240   0.373   0.839  0.00  0.00     0.020 A 
ATOM      2  C1  UNL d   1       0.792   0.777  -0.418  0.00  0.00     0.020 A 
ATOM      3  C2  UNL d   1      -0.577   0.885  -0.670  0.00  0.00     0.034 A 
ATOM      4  C3  UNL d   1      -1.504   0.590   0.337  0.00  0.00     0.017 A 
ATOM      5  C4  UNL d   1      -1.053   0.185   1.598  0.00  0.00     0.017 A 
ATOM      6  C5  UNL d   1       0.319   0.078   1.845  0.00  0.00     0.034 A 
ATOM      7 Cl   UNL d   1      -2.136  -0.196   2.891  0.00  0.00    -0.070 Cl
ATOM      8 Cl1  UNL d   1      -3.182   0.747  -0.044  0.00  0.00    -0.070 Cl
ENDROOT
TORSDOF 0
ENDMDL
