MODEL 1
REMARK minimizedAffinity -1.40934539
REMARK minimizedRMSD -1
REMARK  0 active torsions:
REMARK  status: ('A' for Active; 'I' for Inactive)
ROOT
ATOM      1  C   UNL d   1       0.335  -1.030   1.329  0.00  0.00     0.020 A 
ATOM      2  C1  UNL d   1       0.792  -0.000   2.151  0.00  0.00     0.020 A 
ATOM      3  C2  UNL d   1      -0.118   0.888   2.729  0.00  0.00     0.034 A 
ATOM      4  C3  UNL d   1      -1.489   0.747   2.487  0.00  0.00     0.017 A 
ATOM      5  C4  UNL d   1      -1.947  -0.287   1.662  0.00  0.00     0.017 A 
ATOM      6  C5  UNL d   1      -1.032  -1.173   1.086  0.00  0.00     0.034 A 
ATOM      7 Cl   UNL d   1      -3.624  -0.524   1.317  0.00  0.00    -0.070 Cl
ATOM      8 Cl1  UNL d   1      -2.558   1.881   3.235  0.00  0.00    -0.070 Cl
ENDROOT
TORSDOF 0
ENDMDL
