MODEL 1
REMARK minimizedAffinity -3.91150641
REMARK minimizedRMSD -1
REMARK  0 active torsions:
REMARK  status: ('A' for Active; 'I' for Inactive)
ROOT
ATOM      1  C   UNL d   1      -0.219   0.158   2.747  0.00  0.00     0.020 A 
ATOM      2  C1  UNL d   1      -1.595   0.353   2.861  0.00  0.00     0.020 A 
ATOM      3  C2  UNL d   1      -2.366   0.568   1.717  0.00  0.00     0.034 A 
ATOM      4  C3  UNL d   1      -1.762   0.589   0.454  0.00  0.00     0.017 A 
ATOM      5  C4  UNL d   1      -0.381   0.392   0.341  0.00  0.00     0.017 A 
ATOM      6  C5  UNL d   1       0.386   0.177   1.490  0.00  0.00     0.034 A 
ATOM      7 Cl   UNL d   1       0.435   0.404  -1.182  0.00  0.00    -0.070 Cl
ATOM      8 Cl1  UNL d   1      -2.778   0.860  -0.918  0.00  0.00    -0.070 Cl
ENDROOT
TORSDOF 0
ENDMDL
