MODEL 1
REMARK minimizedAffinity -4.18707514
REMARK minimizedRMSD -1
REMARK  0 active torsions:
REMARK  status: ('A' for Active; 'I' for Inactive)
ROOT
ATOM      1  C   UNL d   1      -2.396  -0.534   1.402  0.00  0.00     0.020 A 
ATOM      2  C1  UNL d   1      -1.823  -0.975   2.594  0.00  0.00     0.020 A 
ATOM      3  C2  UNL d   1      -0.467  -0.753   2.840  0.00  0.00     0.034 A 
ATOM      4  C3  UNL d   1       0.321  -0.089   1.894  0.00  0.00     0.017 A 
ATOM      5  C4  UNL d   1      -0.255   0.354   0.697  0.00  0.00     0.017 A 
ATOM      6  C5  UNL d   1      -1.614   0.129   0.456  0.00  0.00     0.034 A 
ATOM      7 Cl   UNL d   1       0.653   1.181  -0.518  0.00  0.00    -0.070 Cl
ATOM      8 Cl1  UNL d   1       1.992   0.151   2.265  0.00  0.00    -0.070 Cl
ENDROOT
TORSDOF 0
ENDMDL
