MODEL 1
REMARK minimizedAffinity -2.39759779
REMARK minimizedRMSD -1
REMARK  0 active torsions:
REMARK  status: ('A' for Active; 'I' for Inactive)
ROOT
ATOM      1  C   UNL d   1      -0.614   0.401   1.019  0.00  0.00     0.020 A 
ATOM      2  C1  UNL d   1      -0.803  -0.892   0.532  0.00  0.00     0.020 A 
ATOM      3  C2  UNL d   1       0.300  -1.694   0.233  0.00  0.00     0.034 A 
ATOM      4  C3  UNL d   1       1.598  -1.204   0.420  0.00  0.00     0.017 A 
ATOM      5  C4  UNL d   1       1.787   0.093   0.909  0.00  0.00     0.017 A 
ATOM      6  C5  UNL d   1       0.679   0.892   1.207  0.00  0.00     0.034 A 
ATOM      7 Cl   UNL d   1       3.358   0.767   1.167  0.00  0.00    -0.070 Cl
ATOM      8 Cl1  UNL d   1       2.916  -2.251   0.030  0.00  0.00    -0.070 Cl
ENDROOT
TORSDOF 0
ENDMDL
