MODEL 1
REMARK minimizedAffinity -4.8248992
REMARK minimizedRMSD -1
REMARK  0 active torsions:
REMARK  status: ('A' for Active; 'I' for Inactive)
ROOT
ATOM      1  C   UNL d   1       0.348  -0.231   0.063  0.00  0.00     0.020 A 
ATOM      2  C1  UNL d   1       0.905  -0.332   1.337  0.00  0.00     0.020 A 
ATOM      3  C2  UNL d   1       0.076  -0.367   2.460  0.00  0.00     0.034 A 
ATOM      4  C3  UNL d   1      -1.315  -0.301   2.311  0.00  0.00     0.017 A 
ATOM      5  C4  UNL d   1      -1.872  -0.199   1.032  0.00  0.00     0.017 A 
ATOM      6  C5  UNL d   1      -1.038  -0.165  -0.090  0.00  0.00     0.034 A 
ATOM      7 Cl   UNL d   1      -3.578  -0.113   0.768  0.00  0.00    -0.070 Cl
ATOM      8 Cl1  UNL d   1      -2.279  -0.349   3.744  0.00  0.00    -0.070 Cl
ENDROOT
TORSDOF 0
ENDMDL
