MODEL 1
REMARK minimizedAffinity -2.51842046
REMARK minimizedRMSD -1
REMARK  0 active torsions:
REMARK  status: ('A' for Active; 'I' for Inactive)
ROOT
ATOM      1  C   UNL d   1       1.062   2.641   0.195  0.00  0.00     0.077 C 
ATOM      2  C1  UNL d   1      -0.184   1.867   0.511  0.00  0.00    -0.074 A 
ATOM      3  C2  UNL d   1      -0.116   0.528   0.907  0.00  0.00    -0.005 A 
ATOM      4  C3  UNL d   1      -1.282  -0.176   1.207  0.00  0.00     0.006 A 
ATOM      5  C4  UNL d   1      -2.525   0.451   1.115  0.00  0.00    -0.005 A 
ATOM      6  C5  UNL d   1      -2.612   1.790   0.722  0.00  0.00    -0.074 A 
ATOM      7  C6  UNL d   1      -3.939   2.483   0.627  0.00  0.00     0.077 C 
ATOM      8  C7  UNL d   1      -1.435   2.493   0.429  0.00  0.00    -0.001 A 
ENDROOT
TORSDOF 0
ENDMDL
