MODEL 1
REMARK minimizedAffinity 1.26254237
REMARK minimizedRMSD -1
REMARK  0 active torsions:
REMARK  status: ('A' for Active; 'I' for Inactive)
ROOT
ATOM      1  C   UNL d   1      -5.167   1.879   0.934  0.00  0.00     0.077 C 
ATOM      2  C1  UNL d   1      -3.803   2.009   0.323  0.00  0.00    -0.074 A 
ATOM      3  C2  UNL d   1      -3.643   2.480  -0.984  0.00  0.00    -0.005 A 
ATOM      4  C3  UNL d   1      -2.367   2.604  -1.535  0.00  0.00     0.006 A 
ATOM      5  C4  UNL d   1      -1.242   2.258  -0.787  0.00  0.00    -0.005 A 
ATOM      6  C5  UNL d   1      -1.382   1.786   0.522  0.00  0.00    -0.074 A 
ATOM      7  C6  UNL d   1      -0.182   1.419   1.344  0.00  0.00     0.077 C 
ATOM      8  C7  UNL d   1      -2.667   1.671   1.071  0.00  0.00    -0.001 A 
ENDROOT
TORSDOF 0
ENDMDL
