MODEL 1
REMARK minimizedAffinity 0.257206053
REMARK minimizedRMSD -1
REMARK  0 active torsions:
REMARK  status: ('A' for Active; 'I' for Inactive)
ROOT
ATOM      1  C   UNL d   1      -5.295   1.622   0.920  0.00  0.00     0.077 C 
ATOM      2  C1  UNL d   1      -3.832   1.705   0.605  0.00  0.00    -0.074 A 
ATOM      3  C2  UNL d   1      -3.360   2.559  -0.397  0.00  0.00    -0.005 A 
ATOM      4  C3  UNL d   1      -1.994   2.632  -0.673  0.00  0.00     0.006 A 
ATOM      5  C4  UNL d   1      -1.089   1.854   0.049  0.00  0.00    -0.005 A 
ATOM      6  C5  UNL d   1      -1.542   0.995   1.055  0.00  0.00    -0.074 A 
ATOM      7  C6  UNL d   1      -0.581   0.159   1.848  0.00  0.00     0.077 C 
ATOM      8  C7  UNL d   1      -2.915   0.932   1.331  0.00  0.00    -0.001 A 
ENDROOT
TORSDOF 0
ENDMDL
