MODEL 1
REMARK minimizedAffinity 2.2151134
REMARK minimizedRMSD -1
REMARK  0 active torsions:
REMARK  status: ('A' for Active; 'I' for Inactive)
ROOT
ATOM      1  C   UNL d   1       1.593   0.698   0.338  0.00  0.00     0.077 C 
ATOM      2  C1  UNL d   1       0.174   1.022   0.701  0.00  0.00    -0.074 A 
ATOM      3  C2  UNL d   1      -0.349   2.301   0.487  0.00  0.00    -0.005 A 
ATOM      4  C3  UNL d   1      -1.673   2.585   0.821  0.00  0.00     0.006 A 
ATOM      5  C4  UNL d   1      -2.486   1.594   1.372  0.00  0.00    -0.005 A 
ATOM      6  C5  UNL d   1      -1.981   0.308   1.593  0.00  0.00    -0.074 A 
ATOM      7  C6  UNL d   1      -2.844  -0.771   2.175  0.00  0.00     0.077 C 
ATOM      8  C7  UNL d   1      -0.651   0.029   1.248  0.00  0.00    -0.001 A 
ENDROOT
TORSDOF 0
ENDMDL
