MODEL 1
REMARK minimizedAffinity 4.13890171
REMARK minimizedRMSD -1
REMARK  0 active torsions:
REMARK  status: ('A' for Active; 'I' for Inactive)
ROOT
ATOM      1  C   UNL d   1      -1.011   2.249   0.404  0.00  0.00     0.077 C 
ATOM      2  C1  UNL d   1      -2.308   1.554   0.693  0.00  0.00    -0.074 A 
ATOM      3  C2  UNL d   1      -2.346   0.178   0.943  0.00  0.00    -0.005 A 
ATOM      4  C3  UNL d   1      -3.559  -0.453   1.220  0.00  0.00     0.006 A 
ATOM      5  C4  UNL d   1      -4.744   0.283   1.250  0.00  0.00    -0.005 A 
ATOM      6  C5  UNL d   1      -4.725   1.660   1.003  0.00  0.00    -0.074 A 
ATOM      7  C6  UNL d   1      -5.988   2.468   1.041  0.00  0.00     0.077 C 
ATOM      8  C7  UNL d   1      -3.502   2.288   0.733  0.00  0.00    -0.001 A 
ENDROOT
TORSDOF 0
ENDMDL
