MODEL 1
REMARK minimizedAffinity 1.17781079
REMARK minimizedRMSD -1
REMARK  0 active torsions:
REMARK  status: ('A' for Active; 'I' for Inactive)
ROOT
ATOM      1  C   UNL d   1      -0.983  -0.772   2.713  0.00  0.00     0.077 C 
ATOM      2  C1  UNL d   1      -0.629   0.198   1.626  0.00  0.00    -0.074 A 
ATOM      3  C2  UNL d   1       0.683   0.301   1.153  0.00  0.00    -0.005 A 
ATOM      4  C3  UNL d   1       0.995   1.201   0.134  0.00  0.00     0.006 A 
ATOM      5  C4  UNL d   1       0.000   2.006  -0.421  0.00  0.00    -0.005 A 
ATOM      6  C5  UNL d   1      -1.318   1.917   0.038  0.00  0.00    -0.074 A 
ATOM      7  C6  UNL d   1      -2.401   2.768  -0.555  0.00  0.00     0.077 C 
ATOM      8  C7  UNL d   1      -1.625   1.005   1.057  0.00  0.00    -0.001 A 
ENDROOT
TORSDOF 0
ENDMDL
