MODEL 1
REMARK minimizedAffinity 7.9813962
REMARK minimizedRMSD -1
REMARK  0 active torsions:
REMARK  status: ('A' for Active; 'I' for Inactive)
ROOT
ATOM      1  C   UNL d   1       1.425   1.237   0.852  0.00  0.00     0.077 C 
ATOM      2  C1  UNL d   1      -0.074   1.173   0.879  0.00  0.00    -0.074 A 
ATOM      3  C2  UNL d   1      -0.739   0.240   1.681  0.00  0.00    -0.005 A 
ATOM      4  C3  UNL d   1      -2.133   0.200   1.703  0.00  0.00     0.006 A 
ATOM      5  C4  UNL d   1      -2.875   1.090   0.926  0.00  0.00    -0.005 A 
ATOM      6  C5  UNL d   1      -2.226   2.031   0.119  0.00  0.00    -0.074 A 
ATOM      7  C6  UNL d   1      -3.008   3.002  -0.715  0.00  0.00     0.077 C 
ATOM      8  C7  UNL d   1      -0.825   2.070   0.107  0.00  0.00    -0.001 A 
ENDROOT
TORSDOF 0
ENDMDL
