MODEL 1
REMARK minimizedAffinity 1.70013237
REMARK minimizedRMSD -1
REMARK  0 active torsions:
REMARK  status: ('A' for Active; 'I' for Inactive)
ROOT
ATOM      1  C   UNL d   1       1.081   0.799   1.398  0.00  0.00     0.077 C 
ATOM      2  C1  UNL d   1      -0.319   1.235   1.084  0.00  0.00    -0.074 A 
ATOM      3  C2  UNL d   1      -0.617   2.581   0.850  0.00  0.00    -0.005 A 
ATOM      4  C3  UNL d   1      -1.923   2.970   0.550  0.00  0.00     0.006 A 
ATOM      5  C4  UNL d   1      -2.941   2.019   0.480  0.00  0.00    -0.005 A 
ATOM      6  C5  UNL d   1      -2.662   0.668   0.711  0.00  0.00    -0.074 A 
ATOM      7  C6  UNL d   1      -3.743  -0.368   0.631  0.00  0.00     0.077 C 
ATOM      8  C7  UNL d   1      -1.346   0.284   1.005  0.00  0.00    -0.001 A 
ENDROOT
TORSDOF 0
ENDMDL
