MODEL 1
REMARK minimizedAffinity -1.99353266
REMARK minimizedRMSD -1
REMARK  0 active torsions:
REMARK  status: ('A' for Active; 'I' for Inactive)
ROOT
ATOM      1  C   UNL d   1      -0.755   2.598   0.379  0.00  0.00     0.077 C 
ATOM      2  C1  UNL d   1      -1.931   1.715   0.671  0.00  0.00    -0.074 A 
ATOM      3  C2  UNL d   1      -1.750   0.393   1.091  0.00  0.00    -0.005 A 
ATOM      4  C3  UNL d   1      -2.853  -0.414   1.369  0.00  0.00     0.006 A 
ATOM      5  C4  UNL d   1      -4.146   0.091   1.229  0.00  0.00    -0.005 A 
ATOM      6  C5  UNL d   1      -4.347   1.411   0.811  0.00  0.00    -0.074 A 
ATOM      7  C6  UNL d   1      -5.730   1.973   0.665  0.00  0.00     0.077 C 
ATOM      8  C7  UNL d   1      -3.233   2.217   0.541  0.00  0.00    -0.001 A 
ENDROOT
TORSDOF 0
ENDMDL
