MODEL 1
REMARK minimizedAffinity -2.62214375
REMARK minimizedRMSD -1
REMARK  0 active torsions:
REMARK  status: ('A' for Active; 'I' for Inactive)
ROOT
ATOM      1  C   UNL d   1       0.217   0.023   1.288  0.00  0.00     0.077 C 
ATOM      2  C1  UNL d   1      -0.846   1.012   0.911  0.00  0.00    -0.074 A 
ATOM      3  C2  UNL d   1      -0.509   2.291   0.459  0.00  0.00    -0.005 A 
ATOM      4  C3  UNL d   1      -1.508   3.197   0.103  0.00  0.00     0.006 A 
ATOM      5  C4  UNL d   1      -2.852   2.833   0.196  0.00  0.00    -0.005 A 
ATOM      6  C5  UNL d   1      -3.208   1.558   0.645  0.00  0.00    -0.074 A 
ATOM      7  C6  UNL d   1      -4.648   1.147   0.742  0.00  0.00     0.077 C 
ATOM      8  C7  UNL d   1      -2.198   0.651   0.995  0.00  0.00    -0.001 A 
ENDROOT
TORSDOF 0
ENDMDL
