MODEL 1
REMARK minimizedAffinity -0.0755928159
REMARK minimizedRMSD -1
REMARK  0 active torsions:
REMARK  status: ('A' for Active; 'I' for Inactive)
ROOT
ATOM      1  C   UNL d   1      -1.761  -1.212   1.922  0.00  0.00     0.077 C 
ATOM      2  C1  UNL d   1      -1.377   0.105   1.316  0.00  0.00    -0.074 A 
ATOM      3  C2  UNL d   1      -0.035   0.428   1.089  0.00  0.00    -0.005 A 
ATOM      4  C3  UNL d   1       0.306   1.652   0.515  0.00  0.00     0.006 A 
ATOM      5  C4  UNL d   1      -0.689   2.565   0.163  0.00  0.00    -0.005 A 
ATOM      6  C5  UNL d   1      -2.036   2.259   0.381  0.00  0.00    -0.074 A 
ATOM      7  C6  UNL d   1      -3.118   3.225  -0.001  0.00  0.00     0.077 C 
ATOM      8  C7  UNL d   1      -2.372   1.024   0.952  0.00  0.00    -0.001 A 
ENDROOT
TORSDOF 0
ENDMDL
