MODEL 1
REMARK minimizedAffinity -1.18742716
REMARK minimizedRMSD -1
REMARK  0 active torsions:
REMARK  status: ('A' for Active; 'I' for Inactive)
ROOT
ATOM      1  C   UNL d   1       1.061   1.514  -0.397  0.00  0.00     0.077 C 
ATOM      2  C1  UNL d   1      -0.249   1.205   0.267  0.00  0.00    -0.074 A 
ATOM      3  C2  UNL d   1      -0.371   0.125   1.146  0.00  0.00    -0.005 A 
ATOM      4  C3  UNL d   1      -1.593  -0.144   1.763  0.00  0.00     0.006 A 
ATOM      5  C4  UNL d   1      -2.702   0.662   1.507  0.00  0.00    -0.005 A 
ATOM      6  C5  UNL d   1      -2.598   1.747   0.631  0.00  0.00    -0.074 A 
ATOM      7  C6  UNL d   1      -3.778   2.630   0.353  0.00  0.00     0.077 C 
ATOM      8  C7  UNL d   1      -1.366   2.016   0.021  0.00  0.00    -0.001 A 
ENDROOT
TORSDOF 0
ENDMDL
