MODEL 1
REMARK minimizedAffinity -4.83680916
REMARK minimizedRMSD -1
REMARK  0 active torsions:
REMARK  status: ('A' for Active; 'I' for Inactive)
ROOT
ATOM      1  C   UNL d   1      -0.098   0.192   1.814  0.00  0.00     0.077 C 
ATOM      2  C1  UNL d   1      -0.950   1.042   0.919  0.00  0.00    -0.074 A 
ATOM      3  C2  UNL d   1      -0.380   1.795  -0.113  0.00  0.00    -0.005 A 
ATOM      4  C3  UNL d   1      -1.186   2.573  -0.944  0.00  0.00     0.006 A 
ATOM      5  C4  UNL d   1      -2.568   2.608  -0.750  0.00  0.00    -0.005 A 
ATOM      6  C5  UNL d   1      -3.155   1.862   0.276  0.00  0.00    -0.074 A 
ATOM      7  C6  UNL d   1      -4.640   1.880   0.492  0.00  0.00     0.077 C 
ATOM      8  C7  UNL d   1      -2.339   1.076   1.102  0.00  0.00    -0.001 A 
ENDROOT
TORSDOF 0
ENDMDL
