MODEL 1
REMARK minimizedAffinity 1.23326623
REMARK minimizedRMSD -1
REMARK  0 active torsions:
REMARK  status: ('A' for Active; 'I' for Inactive)
ROOT
ATOM      1  C   UNL d   1      -5.073   2.683   0.526  0.00  0.00     0.077 C 
ATOM      2  C1  UNL d   1      -3.633   2.296   0.370  0.00  0.00    -0.074 A 
ATOM      3  C2  UNL d   1      -2.805   2.958  -0.542  0.00  0.00    -0.005 A 
ATOM      4  C3  UNL d   1      -1.465   2.593  -0.670  0.00  0.00     0.006 A 
ATOM      5  C4  UNL d   1      -0.939   1.564   0.113  0.00  0.00    -0.005 A 
ATOM      6  C5  UNL d   1      -1.752   0.891   1.031  0.00  0.00    -0.074 A 
ATOM      7  C6  UNL d   1      -1.200  -0.210   1.887  0.00  0.00     0.077 C 
ATOM      8  C7  UNL d   1      -3.096   1.268   1.158  0.00  0.00    -0.001 A 
ENDROOT
TORSDOF 0
ENDMDL
