MODEL 1
REMARK minimizedAffinity -4.7896533
REMARK minimizedRMSD -1
REMARK  0 active torsions:
REMARK  status: ('A' for Active; 'I' for Inactive)
ROOT
ATOM      1  C   UNL d   1       0.019   3.428  -0.974  0.00  0.00     0.077 C 
ATOM      2  C1  UNL d   1      -0.832   2.368  -0.339  0.00  0.00    -0.074 A 
ATOM      3  C2  UNL d   1      -0.255   1.223   0.219  0.00  0.00    -0.005 A 
ATOM      4  C3  UNL d   1      -1.057   0.250   0.815  0.00  0.00     0.006 A 
ATOM      5  C4  UNL d   1      -2.443   0.413   0.858  0.00  0.00    -0.005 A 
ATOM      6  C5  UNL d   1      -3.037   1.552   0.306  0.00  0.00    -0.074 A 
ATOM      7  C6  UNL d   1      -4.524   1.746   0.354  0.00  0.00     0.077 C 
ATOM      8  C7  UNL d   1      -2.223   2.528  -0.284  0.00  0.00    -0.001 A 
ENDROOT
TORSDOF 0
ENDMDL
