MODEL 1
REMARK minimizedAffinity -2.40302563
REMARK minimizedRMSD -1
REMARK  0 active torsions:
REMARK  status: ('A' for Active; 'I' for Inactive)
ROOT
ATOM      1  C   UNL d   1       0.103   1.951  -0.789  0.00  0.00     0.077 C 
ATOM      2  C1  UNL d   1      -1.064   1.327  -0.083  0.00  0.00    -0.074 A 
ATOM      3  C2  UNL d   1      -0.915   0.140   0.640  0.00  0.00    -0.005 A 
ATOM      4  C3  UNL d   1      -2.007  -0.424   1.300  0.00  0.00     0.006 A 
ATOM      5  C4  UNL d   1      -3.257   0.193   1.243  0.00  0.00    -0.005 A 
ATOM      6  C5  UNL d   1      -3.425   1.382   0.525  0.00  0.00    -0.074 A 
ATOM      7  C6  UNL d   1      -4.760   2.063   0.462  0.00  0.00     0.077 C 
ATOM      8  C7  UNL d   1      -2.321   1.946  -0.129  0.00  0.00    -0.001 A 
ENDROOT
TORSDOF 0
ENDMDL
