MODEL 1
REMARK minimizedAffinity -0.295378715
REMARK minimizedRMSD -1
REMARK  0 active torsions:
REMARK  status: ('A' for Active; 'I' for Inactive)
ROOT
ATOM      1  C   UNL d   1      -0.198   0.012   2.106  0.00  0.00     0.077 C 
ATOM      2  C1  UNL d   1      -0.948   0.884   1.143  0.00  0.00    -0.074 A 
ATOM      3  C2  UNL d   1      -0.290   1.514   0.081  0.00  0.00    -0.005 A 
ATOM      4  C3  UNL d   1      -1.002   2.315  -0.811  0.00  0.00     0.006 A 
ATOM      5  C4  UNL d   1      -2.376   2.494  -0.652  0.00  0.00    -0.005 A 
ATOM      6  C5  UNL d   1      -3.051   1.872   0.404  0.00  0.00    -0.074 A 
ATOM      7  C6  UNL d   1      -4.530   2.047   0.584  0.00  0.00     0.077 C 
ATOM      8  C7  UNL d   1      -2.330   1.063   1.292  0.00  0.00    -0.001 A 
ENDROOT
TORSDOF 0
ENDMDL
