MODEL 1
REMARK minimizedAffinity 6.44849634
REMARK minimizedRMSD -1
REMARK  0 active torsions:
REMARK  status: ('A' for Active; 'I' for Inactive)
ROOT
ATOM      1  C   UNL d   1      -1.454   1.838   3.689  0.00  0.00     0.077 C 
ATOM      2  C1  UNL d   1      -0.525   1.879   2.512  0.00  0.00    -0.074 A 
ATOM      3  C2  UNL d   1      -0.975   2.299   1.256  0.00  0.00    -0.005 A 
ATOM      4  C3  UNL d   1      -0.096   2.341   0.173  0.00  0.00     0.006 A 
ATOM      5  C4  UNL d   1       1.238   1.965   0.335  0.00  0.00    -0.005 A 
ATOM      6  C5  UNL d   1       1.705   1.544   1.584  0.00  0.00    -0.074 A 
ATOM      7  C6  UNL d   1       3.138   1.145   1.778  0.00  0.00     0.077 C 
ATOM      8  C7  UNL d   1       0.818   1.510   2.669  0.00  0.00    -0.001 A 
ENDROOT
TORSDOF 0
ENDMDL
