MODEL 1
REMARK minimizedAffinity 5.50442219
REMARK minimizedRMSD -1
REMARK  0 active torsions:
REMARK  status: ('A' for Active; 'I' for Inactive)
ROOT
ATOM      1  C2' OXE d   1      -2.328  -1.157   3.967  0.00  0.00     0.078 C 
ATOM      2  C1' OXE d   1      -1.312  -2.790   1.923  0.00  0.00     0.078 C 
ATOM      3  C1  OXE d   1      -0.898  -1.339   1.936  0.00  0.00    -0.078 A 
ATOM      4  C2  OXE d   1      -1.438  -0.537   2.913  0.00  0.00    -0.078 A 
ATOM      5  C3  OXE d   1      -1.047   0.796   3.003  0.00  0.00     0.003 A 
ATOM      6  C4  OXE d   1      -0.231   1.364   2.018  0.00  0.00    -0.002 A 
ATOM      7  C5  OXE d   1       0.297   0.574   0.992  0.00  0.00    -0.002 A 
ATOM      8  C6  OXE d   1       0.008  -0.786   0.961  0.00  0.00     0.003 A 
ENDROOT
TORSDOF 0
ENDMDL
