MODEL 1
REMARK minimizedAffinity 4.21983862
REMARK minimizedRMSD -1
REMARK  0 active torsions:
REMARK  status: ('A' for Active; 'I' for Inactive)
ROOT
ATOM      1  C2' OXE d   1      -2.461  -5.995   3.412  0.00  0.00     0.078 C 
ATOM      2  C1' OXE d   1      -1.789  -5.978   0.686  0.00  0.00     0.078 C 
ATOM      3  C1  OXE d   1      -0.662  -5.978   1.689  0.00  0.00    -0.078 A 
ATOM      4  C2  OXE d   1      -1.000  -5.939   3.020  0.00  0.00    -0.078 A 
ATOM      5  C3  OXE d   1      -0.000  -5.992   3.987  0.00  0.00     0.003 A 
ATOM      6  C4  OXE d   1       1.348  -5.929   3.616  0.00  0.00    -0.002 A 
ATOM      7  C5  OXE d   1       1.714  -5.928   2.266  0.00  0.00    -0.002 A 
ATOM      8  C6  OXE d   1       0.724  -5.995   1.292  0.00  0.00     0.003 A 
ENDROOT
TORSDOF 0
ENDMDL
