MODEL 1
REMARK minimizedAffinity 0.494219869
REMARK minimizedRMSD -1
REMARK  0 active torsions:
REMARK  status: ('A' for Active; 'I' for Inactive)
ROOT
ATOM      1  C2' OXE d   1       0.020  -5.949   4.286  0.00  0.00     0.078 C 
ATOM      2  C1' OXE d   1       0.782  -5.978   1.585  0.00  0.00     0.078 C 
ATOM      3  C1  OXE d   1      -0.693  -5.966   1.899  0.00  0.00    -0.078 A 
ATOM      4  C2  OXE d   1      -1.057  -6.000   3.224  0.00  0.00    -0.078 A 
ATOM      5  C3  OXE d   1      -2.404  -5.935   3.570  0.00  0.00     0.003 A 
ATOM      6  C4  OXE d   1      -3.393  -5.992   2.581  0.00  0.00    -0.002 A 
ATOM      7  C5  OXE d   1      -3.044  -5.999   1.227  0.00  0.00    -0.002 A 
ATOM      8  C6  OXE d   1      -1.702  -5.944   0.869  0.00  0.00     0.003 A 
ENDROOT
TORSDOF 0
ENDMDL
