MODEL 1
REMARK minimizedAffinity 8.00621319
REMARK minimizedRMSD -1
REMARK  0 active torsions:
REMARK  status: ('A' for Active; 'I' for Inactive)
ROOT
ATOM      1  C2' OXE d   1       0.735  -5.902   1.203  0.00  0.00     0.078 C 
ATOM      2  C1' OXE d   1       3.199  -5.914   2.548  0.00  0.00     0.078 C 
ATOM      3  C1  OXE d   1       1.942  -5.939   3.382  0.00  0.00    -0.078 A 
ATOM      4  C2  OXE d   1       0.741  -5.886   2.716  0.00  0.00    -0.078 A 
ATOM      5  C3  OXE d   1      -0.449  -5.962   3.434  0.00  0.00     0.003 A 
ATOM      6  C4  OXE d   1      -0.435  -5.937   4.834  0.00  0.00    -0.002 A 
ATOM      7  C5  OXE d   1       0.777  -5.950   5.532  0.00  0.00    -0.002 A 
ATOM      8  C6  OXE d   1       1.972  -5.995   4.822  0.00  0.00     0.003 A 
ENDROOT
TORSDOF 0
ENDMDL
