MODEL 1
REMARK minimizedAffinity 5.91517639
REMARK minimizedRMSD -1
REMARK  0 active torsions:
REMARK  status: ('A' for Active; 'I' for Inactive)
ROOT
ATOM      1  C2' OXE d   1       3.360  -0.630  -3.583  0.00  0.00     0.078 C 
ATOM      2  C1' OXE d   1       5.998   0.030  -2.889  0.00  0.00     0.078 C 
ATOM      3  C1  OXE d   1       5.333   0.839  -3.975  0.00  0.00    -0.078 A 
ATOM      4  C2  OXE d   1       4.058   0.479  -4.340  0.00  0.00    -0.078 A 
ATOM      5  C3  OXE d   1       3.378   1.226  -5.297  0.00  0.00     0.003 A 
ATOM      6  C4  OXE d   1       4.035   2.244  -6.000  0.00  0.00    -0.002 A 
ATOM      7  C5  OXE d   1       5.347   2.601  -5.671  0.00  0.00    -0.002 A 
ATOM      8  C6  OXE d   1       5.994   1.938  -4.634  0.00  0.00     0.003 A 
ENDROOT
TORSDOF 0
ENDMDL
