MODEL 1
REMARK minimizedAffinity 14.9791527
REMARK minimizedRMSD -1
REMARK  0 active torsions:
REMARK  status: ('A' for Active; 'I' for Inactive)
ROOT
ATOM      1  C2' OXE d   1       0.400  -0.503  -0.737  0.00  0.00     0.078 C 
ATOM      2  C1' OXE d   1       2.005  -0.932  -3.000  0.00  0.00     0.078 C 
ATOM      3  C1  OXE d   1       0.742  -1.746  -2.869  0.00  0.00    -0.078 A 
ATOM      4  C2  OXE d   1      -0.013  -1.563  -1.736  0.00  0.00    -0.078 A 
ATOM      5  C3  OXE d   1      -1.216  -2.249  -1.591  0.00  0.00     0.003 A 
ATOM      6  C4  OXE d   1      -1.585  -3.234  -2.514  0.00  0.00    -0.002 A 
ATOM      7  C5  OXE d   1      -0.810  -3.464  -3.656  0.00  0.00    -0.002 A 
ATOM      8  C6  OXE d   1       0.332  -2.700  -3.869  0.00  0.00     0.003 A 
ENDROOT
TORSDOF 0
ENDMDL
