MODEL 1
REMARK minimizedAffinity 12.8183661
REMARK minimizedRMSD -1
REMARK  0 active torsions:
REMARK  status: ('A' for Active; 'I' for Inactive)
ROOT
ATOM      1  C2' OXE d   1      -1.460   0.122   3.520  0.00  0.00     0.078 C 
ATOM      2  C1' OXE d   1      -2.358  -1.827   1.710  0.00  0.00     0.078 C 
ATOM      3  C1  OXE d   1      -3.310  -1.378   2.791  0.00  0.00    -0.078 A 
ATOM      4  C2  OXE d   1      -2.846  -0.458   3.700  0.00  0.00    -0.078 A 
ATOM      5  C3  OXE d   1      -3.701   0.030   4.684  0.00  0.00     0.003 A 
ATOM      6  C4  OXE d   1      -4.978  -0.520   4.850  0.00  0.00    -0.002 A 
ATOM      7  C5  OXE d   1      -5.456  -1.487   3.959  0.00  0.00    -0.002 A 
ATOM      8  C6  OXE d   1      -4.652  -1.895   2.901  0.00  0.00     0.003 A 
ENDROOT
TORSDOF 0
ENDMDL
