MODEL 1
REMARK minimizedAffinity 8.22127151
REMARK minimizedRMSD -1
REMARK  0 active torsions:
REMARK  status: ('A' for Active; 'I' for Inactive)
ROOT
ATOM      1  C2' OXE d   1      -0.695  -5.995   1.874  0.00  0.00     0.078 C 
ATOM      2  C1' OXE d   1       2.110  -6.000   1.979  0.00  0.00     0.078 C 
ATOM      3  C1  OXE d   1       1.357  -5.985   3.286  0.00  0.00    -0.078 A 
ATOM      4  C2  OXE d   1      -0.014  -5.935   3.225  0.00  0.00    -0.078 A 
ATOM      5  C3  OXE d   1      -0.759  -5.974   4.401  0.00  0.00     0.003 A 
ATOM      6  C4  OXE d   1      -0.121  -5.909   5.645  0.00  0.00    -0.002 A 
ATOM      7  C5  OXE d   1       1.275  -5.919   5.730  0.00  0.00    -0.002 A 
ATOM      8  C6  OXE d   1       2.027  -5.999   4.563  0.00  0.00     0.003 A 
ENDROOT
TORSDOF 0
ENDMDL
