MODEL 1
REMARK minimizedAffinity 2.98371458
REMARK minimizedRMSD -1
REMARK  0 active torsions:
REMARK  status: ('A' for Active; 'I' for Inactive)
ROOT
ATOM      1  C2' OXE d   1       1.284  -5.949   5.326  0.00  0.00     0.078 C 
ATOM      2  C1' OXE d   1       2.798  -6.000   2.962  0.00  0.00     0.078 C 
ATOM      3  C1  OXE d   1       1.295  -5.977   2.835  0.00  0.00    -0.078 A 
ATOM      4  C2  OXE d   1       0.562  -6.000   3.997  0.00  0.00    -0.078 A 
ATOM      5  C3  OXE d   1      -0.827  -5.925   3.937  0.00  0.00     0.003 A 
ATOM      6  C4  OXE d   1      -1.488  -5.982   2.704  0.00  0.00    -0.002 A 
ATOM      7  C5  OXE d   1      -0.760  -6.000   1.509  0.00  0.00    -0.002 A 
ATOM      8  C6  OXE d   1       0.628  -5.954   1.556  0.00  0.00     0.003 A 
ENDROOT
TORSDOF 0
ENDMDL
