MODEL 1
REMARK minimizedAffinity 6.28864288
REMARK minimizedRMSD -1
REMARK  0 active torsions:
REMARK  status: ('A' for Active; 'I' for Inactive)
ROOT
ATOM      1  C2' OXE d   1       1.121  -3.290  -5.484  0.00  0.00     0.078 C 
ATOM      2  C1' OXE d   1       1.522  -1.026  -3.874  0.00  0.00     0.078 C 
ATOM      3  C1  OXE d   1       0.153  -1.660  -3.868  0.00  0.00    -0.078 A 
ATOM      4  C2  OXE d   1      -0.047  -2.739  -4.694  0.00  0.00    -0.078 A 
ATOM      5  C3  OXE d   1      -1.275  -3.395  -4.686  0.00  0.00     0.003 A 
ATOM      6  C4  OXE d   1      -2.353  -2.873  -3.960  0.00  0.00    -0.002 A 
ATOM      7  C5  OXE d   1      -2.181  -1.751  -3.143  0.00  0.00    -0.002 A 
ATOM      8  C6  OXE d   1      -0.926  -1.159  -3.053  0.00  0.00     0.003 A 
ENDROOT
TORSDOF 0
ENDMDL
