MODEL 1
REMARK minimizedAffinity 10.1480017
REMARK minimizedRMSD -1
REMARK  0 active torsions:
REMARK  status: ('A' for Active; 'I' for Inactive)
ROOT
ATOM      1  C2' OXE d   1       4.245   0.028   2.455  0.00  0.00     0.078 C 
ATOM      2  C1' OXE d   1       2.055   1.190   1.139  0.00  0.00     0.078 C 
ATOM      3  C1  OXE d   1       3.338   1.981   1.203  0.00  0.00    -0.078 A 
ATOM      4  C2  OXE d   1       4.390   1.425   1.889  0.00  0.00    -0.078 A 
ATOM      5  C3  OXE d   1       5.613   2.088   1.932  0.00  0.00     0.003 A 
ATOM      6  C4  OXE d   1       5.735   3.383   1.414  0.00  0.00    -0.002 A 
ATOM      7  C5  OXE d   1       4.664   3.985   0.746  0.00  0.00    -0.002 A 
ATOM      8  C6  OXE d   1       3.474   3.281   0.594  0.00  0.00     0.003 A 
ENDROOT
TORSDOF 0
ENDMDL
