MODEL 1
REMARK minimizedAffinity 5.08403921
REMARK minimizedRMSD -1
REMARK  0 active torsions:
REMARK  status: ('A' for Active; 'I' for Inactive)
ROOT
ATOM      1  C2' OXE d   1      -2.249  -5.973   3.849  0.00  0.00     0.078 C 
ATOM      2  C1' OXE d   1      -1.664  -5.956   1.104  0.00  0.00     0.078 C 
ATOM      3  C1  OXE d   1      -0.506  -5.969   2.069  0.00  0.00    -0.078 A 
ATOM      4  C2  OXE d   1      -0.801  -5.930   3.411  0.00  0.00    -0.078 A 
ATOM      5  C3  OXE d   1       0.229  -5.995   4.345  0.00  0.00     0.003 A 
ATOM      6  C4  OXE d   1       1.565  -5.946   3.932  0.00  0.00    -0.002 A 
ATOM      7  C5  OXE d   1       1.888  -5.945   2.571  0.00  0.00    -0.002 A 
ATOM      8  C6  OXE d   1       0.867  -5.999   1.628  0.00  0.00     0.003 A 
ENDROOT
TORSDOF 0
ENDMDL
