MODEL 1
REMARK minimizedAffinity 3.08806229
REMARK minimizedRMSD -1
REMARK  0 active torsions:
REMARK  status: ('A' for Active; 'I' for Inactive)
ROOT
ATOM      1  C2' OXE d   1       2.837  -6.000   2.981  0.00  0.00     0.078 C 
ATOM      2  C1' OXE d   1       0.745  -5.979   4.852  0.00  0.00     0.078 C 
ATOM      3  C1  OXE d   1       0.380  -5.981   3.388  0.00  0.00    -0.078 A 
ATOM      4  C2  OXE d   1       1.410  -5.944   2.480  0.00  0.00    -0.078 A 
ATOM      5  C3  OXE d   1       1.131  -6.000   1.117  0.00  0.00     0.003 A 
ATOM      6  C4  OXE d   1      -0.192  -5.938   0.662  0.00  0.00    -0.002 A 
ATOM      7  C5  OXE d   1      -1.256  -5.935   1.571  0.00  0.00    -0.002 A 
ATOM      8  C6  OXE d   1      -0.988  -5.999   2.934  0.00  0.00     0.003 A 
ENDROOT
TORSDOF 0
ENDMDL
