MODEL 1
REMARK minimizedAffinity 11.0277529
REMARK minimizedRMSD -1
REMARK  0 active torsions:
REMARK  status: ('A' for Active; 'I' for Inactive)
ROOT
ATOM      1  C2' OXE d   1       0.903  -5.940  -0.120  0.00  0.00     0.078 C 
ATOM      2  C1' OXE d   1      -1.656  -5.994   1.031  0.00  0.00     0.078 C 
ATOM      3  C1  OXE d   1      -0.468  -5.967   1.960  0.00  0.00    -0.078 A 
ATOM      4  C2  OXE d   1       0.781  -5.988   1.388  0.00  0.00    -0.078 A 
ATOM      5  C3  OXE d   1       1.911  -5.910   2.197  0.00  0.00     0.003 A 
ATOM      6  C4  OXE d   1       1.790  -5.965   3.591  0.00  0.00    -0.002 A 
ATOM      7  C5  OXE d   1       0.528  -5.984   4.194  0.00  0.00    -0.002 A 
ATOM      8  C6  OXE d   1      -0.610  -5.943   3.395  0.00  0.00     0.003 A 
ENDROOT
TORSDOF 0
ENDMDL
