MODEL 1
REMARK minimizedAffinity 7.17273426
REMARK minimizedRMSD -1
REMARK  0 active torsions:
REMARK  status: ('A' for Active; 'I' for Inactive)
ROOT
ATOM      1  C2' OXE d   1       2.287  -5.940   5.860  0.00  0.00     0.078 C 
ATOM      2  C1' OXE d   1       3.443  -5.987   3.303  0.00  0.00     0.078 C 
ATOM      3  C1  OXE d   1       1.938  -5.965   3.394  0.00  0.00    -0.078 A 
ATOM      4  C2  OXE d   1       1.380  -5.990   4.650  0.00  0.00    -0.078 A 
ATOM      5  C3  OXE d   1      -0.002  -5.915   4.791  0.00  0.00     0.003 A 
ATOM      6  C4  OXE d   1      -0.834  -5.971   3.667  0.00  0.00    -0.002 A 
ATOM      7  C5  OXE d   1      -0.287  -5.987   2.379  0.00  0.00    -0.002 A 
ATOM      8  C6  OXE d   1       1.094  -5.941   2.225  0.00  0.00     0.003 A 
ENDROOT
TORSDOF 0
ENDMDL
