MODEL 1
REMARK minimizedAffinity 6.65004683
REMARK minimizedRMSD -1
REMARK  0 active torsions:
REMARK  status: ('A' for Active; 'I' for Inactive)
ROOT
ATOM      1  C2' OXE d   1      -0.999  -2.938   2.022  0.00  0.00     0.078 C 
ATOM      2  C1' OXE d   1      -1.532  -0.881   3.856  0.00  0.00     0.078 C 
ATOM      3  C1  OXE d   1      -0.671  -0.553   2.662  0.00  0.00    -0.078 A 
ATOM      4  C2  OXE d   1      -0.377  -1.577   1.795  0.00  0.00    -0.078 A 
ATOM      5  C3  OXE d   1       0.368  -1.317   0.648  0.00  0.00     0.003 A 
ATOM      6  C4  OXE d   1       0.949  -0.058   0.451  0.00  0.00    -0.002 A 
ATOM      7  C5  OXE d   1       0.694   0.989   1.343  0.00  0.00    -0.002 A 
ATOM      8  C6  OXE d   1      -0.146   0.770   2.429  0.00  0.00     0.003 A 
ENDROOT
TORSDOF 0
ENDMDL
