MODEL 1
REMARK minimizedAffinity 13.9436054
REMARK minimizedRMSD -1
REMARK  0 active torsions:
REMARK  status: ('A' for Active; 'I' for Inactive)
ROOT
ATOM      1  C2' OXE d   1       0.871  -6.000   5.003  0.00  0.00     0.078 C 
ATOM      2  C1' OXE d   1       1.827  -5.792   2.372  0.00  0.00     0.078 C 
ATOM      3  C1  OXE d   1       0.333  -5.846   2.575  0.00  0.00    -0.078 A 
ATOM      4  C2  OXE d   1      -0.124  -5.994   3.863  0.00  0.00    -0.078 A 
ATOM      5  C3  OXE d   1      -1.494  -5.994   4.112  0.00  0.00     0.003 A 
ATOM      6  C4  OXE d   1      -2.407  -5.998   3.051  0.00  0.00    -0.002 A 
ATOM      7  C5  OXE d   1      -1.961  -5.887   1.729  0.00  0.00    -0.002 A 
ATOM      8  C6  OXE d   1      -0.599  -5.767   1.478  0.00  0.00     0.003 A 
ENDROOT
TORSDOF 0
ENDMDL
