MODEL 1
REMARK minimizedAffinity 9.12862015
REMARK minimizedRMSD -1
REMARK  0 active torsions:
REMARK  status: ('A' for Active; 'I' for Inactive)
ROOT
ATOM      1  C2' OXE d   1      -1.498  -2.705   1.288  0.00  0.00     0.078 C 
ATOM      2  C1' OXE d   1      -2.208  -0.973   3.381  0.00  0.00     0.078 C 
ATOM      3  C1  OXE d   1      -1.207  -0.478   2.366  0.00  0.00    -0.078 A 
ATOM      4  C2  OXE d   1      -0.831  -1.349   1.373  0.00  0.00    -0.078 A 
ATOM      5  C3  OXE d   1       0.048  -0.924   0.380  0.00  0.00     0.003 A 
ATOM      6  C4  OXE d   1       0.668   0.328   0.471  0.00  0.00    -0.002 A 
ATOM      7  C5  OXE d   1       0.329   1.215   1.497  0.00  0.00    -0.002 A 
ATOM      8  C6  OXE d   1      -0.637   0.845   2.427  0.00  0.00     0.003 A 
ENDROOT
TORSDOF 0
ENDMDL
