MODEL 1
REMARK minimizedAffinity 12.1927691
REMARK minimizedRMSD -1
REMARK  0 active torsions:
REMARK  status: ('A' for Active; 'I' for Inactive)
ROOT
ATOM      1  C2' OXE d   1       0.426  -0.902  -0.927  0.00  0.00     0.078 C 
ATOM      2  C1' OXE d   1       2.201  -1.166  -3.085  0.00  0.00     0.078 C 
ATOM      3  C1  OXE d   1       0.833  -1.787  -3.220  0.00  0.00    -0.078 A 
ATOM      4  C2  OXE d   1      -0.012  -1.694  -2.140  0.00  0.00    -0.078 A 
ATOM      5  C3  OXE d   1      -1.305  -2.202  -2.231  0.00  0.00     0.003 A 
ATOM      6  C4  OXE d   1      -1.699  -2.941  -3.354  0.00  0.00    -0.002 A 
ATOM      7  C5  OXE d   1      -0.839  -3.083  -4.448  0.00  0.00    -0.002 A 
ATOM      8  C6  OXE d   1       0.412  -2.477  -4.414  0.00  0.00     0.003 A 
ENDROOT
TORSDOF 0
ENDMDL
