MODEL 1
REMARK minimizedAffinity 4.40598106
REMARK minimizedRMSD -1
REMARK  0 active torsions:
REMARK  status: ('A' for Active; 'I' for Inactive)
ROOT
ATOM      1  C2' OXE d   1      -5.617  -0.243   5.845  0.00  0.00     0.078 C 
ATOM      2  C1' OXE d   1      -5.984  -0.043   3.069  0.00  0.00     0.078 C 
ATOM      3  C1  OXE d   1      -5.912   1.237   3.863  0.00  0.00    -0.078 A 
ATOM      4  C2  OXE d   1      -5.780   1.129   5.226  0.00  0.00    -0.078 A 
ATOM      5  C3  OXE d   1      -5.654   2.279   6.000  0.00  0.00     0.003 A 
ATOM      6  C4  OXE d   1      -5.815   3.544   5.421  0.00  0.00    -0.002 A 
ATOM      7  C5  OXE d   1      -5.991   3.675   4.039  0.00  0.00    -0.002 A 
ATOM      8  C6  OXE d   1      -5.999   2.536   3.242  0.00  0.00     0.003 A 
ENDROOT
TORSDOF 0
ENDMDL
