MODEL 1
REMARK minimizedAffinity -2.43133378
REMARK minimizedRMSD -1
REMARK  2 active torsions:
REMARK  status: ('A' for Active; 'I' for Inactive)
REMARK    1  A    between atoms: C1_2  and  C2_3 
REMARK    2  A    between atoms: C2_3  and  C3_4 
ROOT
ATOM      1  C3  UNL d   1      -1.758   0.855   1.882  0.00  0.00    -0.075 A 
ATOM      2  C4  UNL d   1      -1.671   2.208   2.239  0.00  0.00     0.002 A 
ATOM      3  C5  UNL d   1      -2.044   2.629   3.515  0.00  0.00     0.002 A 
ATOM      4  C6  UNL d   1      -2.518   1.707   4.446  0.00  0.00    -0.004 A 
ATOM      5  C7  UNL d   1      -2.624   0.363   4.097  0.00  0.00     0.002 A 
ATOM      6  C8  UNL d   1      -2.247  -0.062   2.822  0.00  0.00     0.002 A 
ENDROOT
BRANCH   1   7
ATOM      7  C2  UNL d   1      -1.327   0.388   0.512  0.00  0.00     0.056 C 
BRANCH   7   8
ATOM      8  C1  UNL d   1       0.142  -0.042   0.432  0.00  0.00     0.007 C 
ATOM      9  C   UNL d   1       0.330  -1.429  -0.167  0.00  0.00     0.009 C 
ENDBRANCH   7   8
ENDBRANCH   1   7
TORSDOF 2
ENDMDL
