MODEL 1
REMARK minimizedAffinity -4.6643405
REMARK minimizedRMSD -1
REMARK  2 active torsions:
REMARK  status: ('A' for Active; 'I' for Inactive)
REMARK    1  A    between atoms: C1_2  and  C2_3 
REMARK    2  A    between atoms: C2_3  and  C3_4 
ROOT
ATOM      1  C3  UNL d   1      -0.099  -0.056  -0.149  0.00  0.00    -0.075 A 
ATOM      2  C4  UNL d   1       0.020  -1.452  -0.207  0.00  0.00     0.002 A 
ATOM      3  C5  UNL d   1       1.218  -2.044  -0.609  0.00  0.00     0.002 A 
ATOM      4  C6  UNL d   1       2.305  -1.250  -0.968  0.00  0.00    -0.004 A 
ATOM      5  C7  UNL d   1       2.192   0.138  -0.930  0.00  0.00     0.002 A 
ATOM      6  C8  UNL d   1       0.996   0.733  -0.523  0.00  0.00     0.002 A 
ENDROOT
BRANCH   1   7
ATOM      7  C2  UNL d   1      -1.383   0.590   0.315  0.00  0.00     0.056 C 
BRANCH   7   8
ATOM      8  C1  UNL d   1      -1.290   1.240   1.700  0.00  0.00     0.007 C 
ATOM      9  C   UNL d   1      -2.311   0.694   2.689  0.00  0.00     0.009 C 
ENDBRANCH   7   8
ENDBRANCH   1   7
TORSDOF 2
ENDMDL
