MODEL 1
REMARK minimizedAffinity -1.92169273
REMARK minimizedRMSD -1
REMARK  2 active torsions:
REMARK  status: ('A' for Active; 'I' for Inactive)
REMARK    1  A    between atoms: C1_2  and  C2_3 
REMARK    2  A    between atoms: C2_3  and  C3_4 
ROOT
ATOM      1  C3  UNL d   1       0.373  -1.431  -0.873  0.00  0.00    -0.075 A 
ATOM      2  C4  UNL d   1       0.519  -0.094  -0.476  0.00  0.00     0.002 A 
ATOM      3  C5  UNL d   1      -0.240   0.420   0.575  0.00  0.00     0.002 A 
ATOM      4  C6  UNL d   1      -1.160  -0.391   1.235  0.00  0.00    -0.004 A 
ATOM      5  C7  UNL d   1      -1.326  -1.716   0.839  0.00  0.00     0.002 A 
ATOM      6  C8  UNL d   1      -0.565  -2.234  -0.210  0.00  0.00     0.002 A 
ENDROOT
BRANCH   1   7
ATOM      7  C2  UNL d   1       1.212  -2.002  -1.991  0.00  0.00     0.056 C 
BRANCH   7   8
ATOM      8  C1  UNL d   1       0.615  -3.253  -2.644  0.00  0.00     0.007 C 
ATOM      9  C   UNL d   1       0.958  -3.381  -4.122  0.00  0.00     0.009 C 
ENDBRANCH   7   8
ENDBRANCH   1   7
TORSDOF 2
ENDMDL
