MODEL 1
REMARK minimizedAffinity -2.16390777
REMARK minimizedRMSD -1
REMARK  2 active torsions:
REMARK  status: ('A' for Active; 'I' for Inactive)
REMARK    1  A    between atoms: C1_2  and  C2_3 
REMARK    2  A    between atoms: C2_3  and  C3_4 
ROOT
ATOM      1  C3  UNL d   1       0.730   0.204  -0.497  0.00  0.00    -0.075 A 
ATOM      2  C4  UNL d   1       0.597   1.337  -1.312  0.00  0.00     0.002 A 
ATOM      3  C5  UNL d   1       1.329   1.450  -2.494  0.00  0.00     0.002 A 
ATOM      4  C6  UNL d   1       2.210   0.439  -2.870  0.00  0.00    -0.004 A 
ATOM      5  C7  UNL d   1       2.363  -0.684  -2.060  0.00  0.00     0.002 A 
ATOM      6  C8  UNL d   1       1.628  -0.802  -0.879  0.00  0.00     0.002 A 
ENDROOT
BRANCH   1   7
ATOM      7  C2  UNL d   1      -0.082   0.062   0.768  0.00  0.00     0.056 C 
BRANCH   7   8
ATOM      8  C1  UNL d   1      -1.520   0.577   0.647  0.00  0.00     0.007 C 
ATOM      9  C   UNL d   1      -2.175   0.851   1.995  0.00  0.00     0.009 C 
ENDBRANCH   7   8
ENDBRANCH   1   7
TORSDOF 2
ENDMDL
