MODEL 1
REMARK minimizedAffinity -5.24703074
REMARK minimizedRMSD -1
REMARK  2 active torsions:
REMARK  status: ('A' for Active; 'I' for Inactive)
REMARK    1  A    between atoms: C1_2  and  C2_3 
REMARK    2  A    between atoms: C2_3  and  C3_4 
ROOT
ATOM      1  C3  UNL d   1       0.305  -0.061  -0.244  0.00  0.00    -0.075 A 
ATOM      2  C4  UNL d   1       0.985   0.980  -0.893  0.00  0.00     0.002 A 
ATOM      3  C5  UNL d   1       2.150   0.722  -1.616  0.00  0.00     0.002 A 
ATOM      4  C6  UNL d   1       2.655  -0.575  -1.690  0.00  0.00    -0.004 A 
ATOM      5  C7  UNL d   1       1.996  -1.613  -1.036  0.00  0.00     0.002 A 
ATOM      6  C8  UNL d   1       0.828  -1.359  -0.315  0.00  0.00     0.002 A 
ENDROOT
BRANCH   1   7
ATOM      7  C2  UNL d   1      -0.973   0.207   0.515  0.00  0.00     0.056 C 
BRANCH   7   8
ATOM      8  C1  UNL d   1      -0.784   0.325   2.031  0.00  0.00     0.007 C 
ATOM      9  C   UNL d   1      -1.882   1.132   2.712  0.00  0.00     0.009 C 
ENDBRANCH   7   8
ENDBRANCH   1   7
TORSDOF 2
ENDMDL
