MODEL 1
REMARK minimizedAffinity -5.86162901
REMARK minimizedRMSD -1
REMARK  2 active torsions:
REMARK  status: ('A' for Active; 'I' for Inactive)
REMARK    1  A    between atoms: C1_2  and  C2_3 
REMARK    2  A    between atoms: C2_3  and  C3_4 
ROOT
ATOM      1  C3  UNL d   1       0.183  -0.332   0.725  0.00  0.00    -0.075 A 
ATOM      2  C4  UNL d   1      -1.083   0.266   0.801  0.00  0.00     0.002 A 
ATOM      3  C5  UNL d   1      -1.502   0.890   1.977  0.00  0.00     0.002 A 
ATOM      4  C6  UNL d   1      -0.667   0.915   3.091  0.00  0.00    -0.004 A 
ATOM      5  C7  UNL d   1       0.586   0.310   3.032  0.00  0.00     0.002 A 
ATOM      6  C8  UNL d   1       1.010  -0.311   1.856  0.00  0.00     0.002 A 
ENDROOT
BRANCH   1   7
ATOM      7  C2  UNL d   1       0.654  -0.982  -0.554  0.00  0.00     0.056 C 
BRANCH   7   8
ATOM      8  C1  UNL d   1       1.852  -0.283  -1.205  0.00  0.00     0.007 C 
ATOM      9  C   UNL d   1       1.579   1.174  -1.556  0.00  0.00     0.009 C 
ENDBRANCH   7   8
ENDBRANCH   1   7
TORSDOF 2
ENDMDL
