MODEL 1
REMARK minimizedAffinity -3.94558024
REMARK minimizedRMSD -1
REMARK  2 active torsions:
REMARK  status: ('A' for Active; 'I' for Inactive)
REMARK    1  A    between atoms: C1_2  and  C2_3 
REMARK    2  A    between atoms: C2_3  and  C3_4 
ROOT
ATOM      1  C3  UNL d   1       1.488  -0.780  -1.491  0.00  0.00    -0.075 A 
ATOM      2  C4  UNL d   1       0.682  -1.753  -0.883  0.00  0.00     0.002 A 
ATOM      3  C5  UNL d   1      -0.106  -1.431   0.222  0.00  0.00     0.002 A 
ATOM      4  C6  UNL d   1      -0.090  -0.138   0.740  0.00  0.00    -0.004 A 
ATOM      5  C7  UNL d   1       0.720   0.833   0.154  0.00  0.00     0.002 A 
ATOM      6  C8  UNL d   1       1.506   0.514  -0.955  0.00  0.00     0.002 A 
ENDROOT
BRANCH   1   7
ATOM      7  C2  UNL d   1       2.320  -1.115  -2.706  0.00  0.00     0.056 C 
BRANCH   7   8
ATOM      8  C1  UNL d   1       1.672  -2.141  -3.642  0.00  0.00     0.007 C 
ATOM      9  C   UNL d   1       1.069  -1.515  -4.893  0.00  0.00     0.009 C 
ENDBRANCH   7   8
ENDBRANCH   1   7
TORSDOF 2
ENDMDL
