MODEL 1
REMARK minimizedAffinity -3.50631642
REMARK minimizedRMSD -1
REMARK  2 active torsions:
REMARK  status: ('A' for Active; 'I' for Inactive)
REMARK    1  A    between atoms: C1_2  and  C2_3 
REMARK    2  A    between atoms: C2_3  and  C3_4 
ROOT
ATOM      1  C3  UNL d   1      -0.309  -0.289   0.108  0.00  0.00    -0.075 A 
ATOM      2  C4  UNL d   1       0.800  -0.189   0.960  0.00  0.00     0.002 A 
ATOM      3  C5  UNL d   1       1.937  -0.967   0.738  0.00  0.00     0.002 A 
ATOM      4  C6  UNL d   1       1.976  -1.860  -0.331  0.00  0.00    -0.004 A 
ATOM      5  C7  UNL d   1       0.873  -1.979  -1.174  0.00  0.00     0.002 A 
ATOM      6  C8  UNL d   1      -0.264  -1.199  -0.957  0.00  0.00     0.002 A 
ENDROOT
BRANCH   1   7
ATOM      7  C2  UNL d   1      -1.531   0.572   0.325  0.00  0.00     0.056 C 
BRANCH   7   8
ATOM      8  C1  UNL d   1      -2.098   0.502   1.747  0.00  0.00     0.007 C 
ATOM      9  C   UNL d   1      -1.954   1.808   2.516  0.00  0.00     0.009 C 
ENDBRANCH   7   8
ENDBRANCH   1   7
TORSDOF 2
ENDMDL
