MODEL 1
REMARK minimizedAffinity -4.4894824
REMARK minimizedRMSD -1
REMARK  2 active torsions:
REMARK  status: ('A' for Active; 'I' for Inactive)
REMARK    1  A    between atoms: C1_2  and  C2_3 
REMARK    2  A    between atoms: C2_3  and  C3_4 
ROOT
ATOM      1  C3  UNL d   1      -0.061  -0.158   0.283  0.00  0.00    -0.075 A 
ATOM      2  C4  UNL d   1       0.959  -0.235   1.242  0.00  0.00     0.002 A 
ATOM      3  C5  UNL d   1       2.186  -0.819   0.926  0.00  0.00     0.002 A 
ATOM      4  C6  UNL d   1       2.406  -1.341  -0.347  0.00  0.00    -0.004 A 
ATOM      5  C7  UNL d   1       1.394  -1.285  -1.303  0.00  0.00     0.002 A 
ATOM      6  C8  UNL d   1       0.166  -0.697  -0.991  0.00  0.00     0.002 A 
ENDROOT
BRANCH   1   7
ATOM      7  C2  UNL d   1      -1.381   0.498   0.609  0.00  0.00     0.056 C 
BRANCH   7   8
ATOM      8  C1  UNL d   1      -1.833   0.302   2.060  0.00  0.00     0.007 C 
ATOM      9  C   UNL d   1      -1.493   1.482   2.960  0.00  0.00     0.009 C 
ENDBRANCH   7   8
ENDBRANCH   1   7
TORSDOF 2
ENDMDL
