MODEL 1
REMARK minimizedAffinity -5.31715727
REMARK minimizedRMSD -1
REMARK  2 active torsions:
REMARK  status: ('A' for Active; 'I' for Inactive)
REMARK    1  A    between atoms: C1_2  and  C2_3 
REMARK    2  A    between atoms: C2_3  and  C3_4 
ROOT
ATOM      1  C3  UNL d   1       1.249   0.308  -0.962  0.00  0.00    -0.075 A 
ATOM      2  C4  UNL d   1       2.590   0.031  -1.265  0.00  0.00     0.002 A 
ATOM      3  C5  UNL d   1       3.169   0.526  -2.434  0.00  0.00     0.002 A 
ATOM      4  C6  UNL d   1       2.414   1.293  -3.318  0.00  0.00    -0.004 A 
ATOM      5  C7  UNL d   1       1.076   1.561  -3.035  0.00  0.00     0.002 A 
ATOM      6  C8  UNL d   1       0.496   1.071  -1.864  0.00  0.00     0.002 A 
ENDROOT
BRANCH   1   7
ATOM      7  C2  UNL d   1       0.625  -0.199   0.316  0.00  0.00     0.056 C 
BRANCH   7   8
ATOM      8  C1  UNL d   1      -0.848  -0.597   0.176  0.00  0.00     0.007 C 
ATOM      9  C   UNL d   1      -1.044  -2.079  -0.117  0.00  0.00     0.009 C 
ENDBRANCH   7   8
ENDBRANCH   1   7
TORSDOF 2
ENDMDL
