MODEL 1
REMARK minimizedAffinity -2.05850697
REMARK minimizedRMSD -1
REMARK  2 active torsions:
REMARK  status: ('A' for Active; 'I' for Inactive)
REMARK    1  A    between atoms: C1_2  and  C2_3 
REMARK    2  A    between atoms: C2_3  and  C3_4 
ROOT
ATOM      1  C3  UNL d   1       0.534  -0.413  -0.543  0.00  0.00    -0.075 A 
ATOM      2  C4  UNL d   1       1.455  -1.467  -0.630  0.00  0.00     0.002 A 
ATOM      3  C5  UNL d   1       2.357  -1.533  -1.692  0.00  0.00     0.002 A 
ATOM      4  C6  UNL d   1       2.343  -0.556  -2.684  0.00  0.00    -0.004 A 
ATOM      5  C7  UNL d   1       1.421   0.487  -2.617  0.00  0.00     0.002 A 
ATOM      6  C8  UNL d   1       0.520   0.558  -1.553  0.00  0.00     0.002 A 
ENDROOT
BRANCH   1   7
ATOM      7  C2  UNL d   1      -0.426  -0.319   0.619  0.00  0.00     0.056 C 
BRANCH   7   8
ATOM      8  C1  UNL d   1      -1.775   0.316   0.265  0.00  0.00     0.007 C 
ATOM      9  C   UNL d   1      -2.571   0.755   1.486  0.00  0.00     0.009 C 
ENDBRANCH   7   8
ENDBRANCH   1   7
TORSDOF 2
ENDMDL
