MODEL 1
REMARK minimizedAffinity -2.87792969
REMARK minimizedRMSD -1
REMARK  2 active torsions:
REMARK  status: ('A' for Active; 'I' for Inactive)
REMARK    1  A    between atoms: C1_2  and  C2_3 
REMARK    2  A    between atoms: C2_3  and  C3_4 
ROOT
ATOM      1  C3  UNL d   1       0.399   0.026  -1.144  0.00  0.00    -0.075 A 
ATOM      2  C4  UNL d   1       1.147  -1.155  -1.249  0.00  0.00     0.002 A 
ATOM      3  C5  UNL d   1       2.179  -1.260  -2.181  0.00  0.00     0.002 A 
ATOM      4  C6  UNL d   1       2.469  -0.191  -3.026  0.00  0.00    -0.004 A 
ATOM      5  C7  UNL d   1       1.722   0.981  -2.943  0.00  0.00     0.002 A 
ATOM      6  C8  UNL d   1       0.691   1.090  -2.007  0.00  0.00     0.002 A 
ENDROOT
BRANCH   1   7
ATOM      7  C2  UNL d   1      -0.700   0.156  -0.117  0.00  0.00     0.056 C 
BRANCH   7   8
ATOM      8  C1  UNL d   1      -0.196   0.260   1.327  0.00  0.00     0.007 C 
ATOM      9  C   UNL d   1      -1.276   0.689   2.311  0.00  0.00     0.009 C 
ENDBRANCH   7   8
ENDBRANCH   1   7
TORSDOF 2
ENDMDL
