MODEL 1
REMARK minimizedAffinity -2.75730181
REMARK minimizedRMSD -1
REMARK  2 active torsions:
REMARK  status: ('A' for Active; 'I' for Inactive)
REMARK    1  A    between atoms: C1_2  and  C2_3 
REMARK    2  A    between atoms: C2_3  and  C3_4 
ROOT
ATOM      1  C3  UNL d   1       0.627  -0.363   0.291  0.00  0.00    -0.075 A 
ATOM      2  C4  UNL d   1       1.736   0.428   0.623  0.00  0.00     0.002 A 
ATOM      3  C5  UNL d   1       2.986   0.169   0.061  0.00  0.00     0.002 A 
ATOM      4  C6  UNL d   1       3.145  -0.889  -0.832  0.00  0.00    -0.004 A 
ATOM      5  C7  UNL d   1       2.054  -1.692  -1.157  0.00  0.00     0.002 A 
ATOM      6  C8  UNL d   1       0.801  -1.432  -0.599  0.00  0.00     0.002 A 
ENDROOT
BRANCH   1   7
ATOM      7  C2  UNL d   1      -0.735  -0.069   0.873  0.00  0.00     0.056 C 
BRANCH   7   8
ATOM      8  C1  UNL d   1      -0.699   0.802   2.133  0.00  0.00     0.007 C 
ATOM      9  C   UNL d   1      -1.658   0.328   3.218  0.00  0.00     0.009 C 
ENDBRANCH   7   8
ENDBRANCH   1   7
TORSDOF 2
ENDMDL
