MODEL 1
REMARK minimizedAffinity -5.31766176
REMARK minimizedRMSD -1
REMARK  2 active torsions:
REMARK  status: ('A' for Active; 'I' for Inactive)
REMARK    1  A    between atoms: C1_2  and  C2_3 
REMARK    2  A    between atoms: C2_3  and  C3_4 
ROOT
ATOM      1  C3  UNL d   1       0.246  -0.347  -0.388  0.00  0.00    -0.075 A 
ATOM      2  C4  UNL d   1       0.705  -1.661  -0.220  0.00  0.00     0.002 A 
ATOM      3  C5  UNL d   1       2.017  -2.001  -0.550  0.00  0.00     0.002 A 
ATOM      4  C6  UNL d   1       2.882  -1.037  -1.062  0.00  0.00    -0.004 A 
ATOM      5  C7  UNL d   1       2.432   0.269  -1.249  0.00  0.00     0.002 A 
ATOM      6  C8  UNL d   1       1.121   0.613  -0.914  0.00  0.00     0.002 A 
ENDROOT
BRANCH   1   7
ATOM      7  C2  UNL d   1      -1.164   0.035  -0.004  0.00  0.00     0.056 C 
BRANCH   7   8
ATOM      8  C1  UNL d   1      -1.335   0.380   1.479  0.00  0.00     0.007 C 
ATOM      9  C   UNL d   1      -2.743   0.119   1.997  0.00  0.00     0.009 C 
ENDBRANCH   7   8
ENDBRANCH   1   7
TORSDOF 2
ENDMDL
