MODEL 1
REMARK minimizedAffinity -0.102764837
REMARK minimizedRMSD -1
REMARK  2 active torsions:
REMARK  status: ('A' for Active; 'I' for Inactive)
REMARK    1  A    between atoms: C1_2  and  C2_3 
REMARK    2  A    between atoms: C2_3  and  C3_4 
ROOT
ATOM      1  C3  UNL d   1      -0.669   0.409   1.856  0.00  0.00    -0.075 A 
ATOM      2  C4  UNL d   1      -1.666  -0.324   2.517  0.00  0.00     0.002 A 
ATOM      3  C5  UNL d   1      -2.064   0.026   3.807  0.00  0.00     0.002 A 
ATOM      4  C6  UNL d   1      -1.465   1.103   4.456  0.00  0.00    -0.004 A 
ATOM      5  C7  UNL d   1      -0.463   1.828   3.815  0.00  0.00     0.002 A 
ATOM      6  C8  UNL d   1      -0.065   1.483   2.522  0.00  0.00     0.002 A 
ENDROOT
BRANCH   1   7
ATOM      7  C2  UNL d   1      -0.255   0.054   0.448  0.00  0.00     0.056 C 
BRANCH   7   8
ATOM      8  C1  UNL d   1      -0.309   1.230  -0.534  0.00  0.00     0.007 C 
ATOM      9  C   UNL d   1       1.068   1.733  -0.944  0.00  0.00     0.009 C 
ENDBRANCH   7   8
ENDBRANCH   1   7
TORSDOF 2
ENDMDL
