MODEL 1
REMARK minimizedAffinity -4.70720434
REMARK minimizedRMSD -1
REMARK  2 active torsions:
REMARK  status: ('A' for Active; 'I' for Inactive)
REMARK    1  A    between atoms: C1_2  and  C2_3 
REMARK    2  A    between atoms: C2_3  and  C3_4 
ROOT
ATOM      1  C3  UNL d   1      -0.353  -0.353   0.240  0.00  0.00    -0.075 A 
ATOM      2  C4  UNL d   1       0.560   0.661  -0.085  0.00  0.00     0.002 A 
ATOM      3  C5  UNL d   1       1.811   0.345  -0.614  0.00  0.00     0.002 A 
ATOM      4  C6  UNL d   1       2.169  -0.987  -0.816  0.00  0.00    -0.004 A 
ATOM      5  C7  UNL d   1       1.277  -2.003  -0.481  0.00  0.00     0.002 A 
ATOM      6  C8  UNL d   1       0.022  -1.689   0.045  0.00  0.00     0.002 A 
ENDROOT
BRANCH   1   7
ATOM      7  C2  UNL d   1      -1.720  -0.016   0.786  0.00  0.00     0.056 C 
BRANCH   7   8
ATOM      8  C1  UNL d   1      -1.741   1.213   1.701  0.00  0.00     0.007 C 
ATOM      9  C   UNL d   1      -2.083   0.879   3.147  0.00  0.00     0.009 C 
ENDBRANCH   7   8
ENDBRANCH   1   7
TORSDOF 2
ENDMDL
