MODEL 1
REMARK minimizedAffinity 7.33222771
REMARK minimizedRMSD -1
REMARK  1 active torsions:
REMARK  status: ('A' for Active; 'I' for Inactive)
REMARK    1  A    between atoms: C1_2  and  C2_3 
ROOT
ATOM      1  C2  UNL d   1       2.120   3.422  -5.965  0.00  0.00    -0.076 A 
ATOM      2  C3  UNL d   1       1.662   4.751  -5.994  0.00  0.00     0.004 A 
ATOM      3  C4  UNL d   1       2.557   5.819  -5.999  0.00  0.00    -0.003 A 
ATOM      4  C5  UNL d   1       3.926   5.575  -5.975  0.00  0.00     0.000 A 
ATOM      5  C6  UNL d   1       4.399   4.264  -5.964  0.00  0.00     0.000 A 
ATOM      6  C7  UNL d   1       3.510   3.175  -5.975  0.00  0.00    -0.073 A 
ATOM      7  C8  UNL d   1       4.075   1.781  -5.956  0.00  0.00     0.078 C 
ENDROOT
BRANCH   1   8
ATOM      8  C1  UNL d   1       1.102   2.305  -5.933  0.00  0.00     0.053 C 
ATOM      9  C   UNL d   1      -0.180   2.705  -5.219  0.00  0.00     0.018 C 
ENDBRANCH   1   8
TORSDOF 1
ENDMDL
