MODEL 1
REMARK minimizedAffinity 17.6511688
REMARK minimizedRMSD -1
REMARK  1 active torsions:
REMARK  status: ('A' for Active; 'I' for Inactive)
REMARK    1  A    between atoms: C1_2  and  C2_3 
ROOT
ATOM      1  C2  UNL d   1       3.940   2.209   0.866  0.00  0.00    -0.076 A 
ATOM      2  C3  UNL d   1       2.552   2.002   0.779  0.00  0.00     0.004 A 
ATOM      3  C4  UNL d   1       1.696   2.439   1.789  0.00  0.00    -0.003 A 
ATOM      4  C5  UNL d   1       2.215   3.091   2.902  0.00  0.00     0.000 A 
ATOM      5  C6  UNL d   1       3.587   3.321   2.997  0.00  0.00     0.000 A 
ATOM      6  C7  UNL d   1       4.462   2.901   1.980  0.00  0.00    -0.073 A 
ATOM      7  C8  UNL d   1       5.933   3.169   2.137  0.00  0.00     0.078 C 
ENDROOT
BRANCH   1   8
ATOM      8  C1  UNL d   1       4.821   1.688  -0.246  0.00  0.00     0.053 C 
ATOM      9  C   UNL d   1       5.070   0.192  -0.140  0.00  0.00     0.018 C 
ENDBRANCH   1   8
TORSDOF 1
ENDMDL
