MODEL 1
REMARK minimizedAffinity -0.066812031
REMARK minimizedRMSD -1
REMARK  1 active torsions:
REMARK  status: ('A' for Active; 'I' for Inactive)
REMARK    1  A    between atoms: C1_2  and  C2_3 
ROOT
ATOM      1  C2  UNL d   1       3.519   3.265  -5.909  0.00  0.00    -0.076 A 
ATOM      2  C3  UNL d   1       3.743   4.653  -5.914  0.00  0.00     0.004 A 
ATOM      3  C4  UNL d   1       2.678   5.551  -5.959  0.00  0.00    -0.003 A 
ATOM      4  C5  UNL d   1       1.372   5.076  -6.000  0.00  0.00     0.000 A 
ATOM      5  C6  UNL d   1       1.131   3.702  -5.978  0.00  0.00     0.000 A 
ATOM      6  C7  UNL d   1       2.192   2.784  -5.916  0.00  0.00    -0.073 A 
ATOM      7  C8  UNL d   1       1.875   1.313  -5.901  0.00  0.00     0.078 C 
ENDROOT
BRANCH   1   8
ATOM      8  C1  UNL d   1       4.714   2.339  -5.887  0.00  0.00     0.053 C 
ATOM      9  C   UNL d   1       5.902   2.939  -5.150  0.00  0.00     0.018 C 
ENDBRANCH   1   8
TORSDOF 1
ENDMDL
