MODEL 1
REMARK minimizedAffinity -1.25147152
REMARK minimizedRMSD -1
REMARK  1 active torsions:
REMARK  status: ('A' for Active; 'I' for Inactive)
REMARK    1  A    between atoms: C1_2  and  C2_3 
ROOT
ATOM      1  C2  UNL d   1       3.539   3.618  -5.977  0.00  0.00    -0.076 A 
ATOM      2  C3  UNL d   1       3.335   2.227  -5.947  0.00  0.00     0.004 A 
ATOM      3  C4  UNL d   1       4.413   1.344  -5.952  0.00  0.00    -0.003 A 
ATOM      4  C5  UNL d   1       5.713   1.836  -5.987  0.00  0.00     0.000 A 
ATOM      5  C6  UNL d   1       5.934   3.213  -6.000  0.00  0.00     0.000 A 
ATOM      6  C7  UNL d   1       4.859   4.118  -5.978  0.00  0.00    -0.073 A 
ATOM      7  C8  UNL d   1       5.155   5.592  -5.999  0.00  0.00     0.078 C 
ENDROOT
BRANCH   1   8
ATOM      8  C1  UNL d   1       2.331   4.526  -5.997  0.00  0.00     0.053 C 
ATOM      9  C   UNL d   1       2.709   5.999  -5.956  0.00  0.00     0.018 C 
ENDBRANCH   1   8
TORSDOF 1
ENDMDL
