MODEL 1
REMARK minimizedAffinity 12.5187168
REMARK minimizedRMSD -1
REMARK  1 active torsions:
REMARK  status: ('A' for Active; 'I' for Inactive)
REMARK    1  A    between atoms: C1_2  and  C2_3 
ROOT
ATOM      1  C2  UNL d   1       4.865  -4.606   3.839  0.00  0.00    -0.076 A 
ATOM      2  C3  UNL d   1       5.351  -3.430   3.241  0.00  0.00     0.004 A 
ATOM      3  C4  UNL d   1       5.913  -2.413   4.011  0.00  0.00    -0.003 A 
ATOM      4  C5  UNL d   1       5.999  -2.556   5.392  0.00  0.00     0.000 A 
ATOM      5  C6  UNL d   1       5.537  -3.723   6.000  0.00  0.00     0.000 A 
ATOM      6  C7  UNL d   1       4.983  -4.764   5.237  0.00  0.00    -0.073 A 
ATOM      7  C8  UNL d   1       4.495  -5.998   5.945  0.00  0.00     0.078 C 
ENDROOT
BRANCH   1   8
ATOM      8  C1  UNL d   1       4.241  -5.663   2.956  0.00  0.00     0.053 C 
ATOM      9  C   UNL d   1       4.903  -5.746   1.590  0.00  0.00     0.018 C 
ENDBRANCH   1   8
TORSDOF 1
ENDMDL
