MODEL 1
REMARK minimizedAffinity 10.7582865
REMARK minimizedRMSD -1
REMARK  1 active torsions:
REMARK  status: ('A' for Active; 'I' for Inactive)
REMARK    1  A    between atoms: C1_2  and  C2_3 
ROOT
ATOM      1  C2  UNL d   1       2.046   3.270  -5.963  0.00  0.00    -0.076 A 
ATOM      2  C3  UNL d   1       1.330   4.479  -5.981  0.00  0.00     0.004 A 
ATOM      3  C4  UNL d   1       1.992   5.705  -6.000  0.00  0.00    -0.003 A 
ATOM      4  C5  UNL d   1       3.382   5.742  -6.000  0.00  0.00     0.000 A 
ATOM      5  C6  UNL d   1       4.109   4.552  -5.999  0.00  0.00     0.000 A 
ATOM      6  C7  UNL d   1       3.457   3.307  -5.998  0.00  0.00    -0.073 A 
ATOM      7  C8  UNL d   1       4.291   2.055  -5.991  0.00  0.00     0.078 C 
ENDROOT
BRANCH   1   8
ATOM      8  C1  UNL d   1       1.274   1.971  -5.916  0.00  0.00     0.053 C 
ATOM      9  C   UNL d   1       0.675   1.698  -4.545  0.00  0.00     0.018 C 
ENDBRANCH   1   8
TORSDOF 1
ENDMDL
