MODEL 1
REMARK minimizedAffinity 1.68505692
REMARK minimizedRMSD -1
REMARK  1 active torsions:
REMARK  status: ('A' for Active; 'I' for Inactive)
REMARK    1  A    between atoms: C1_2  and  C2_3 
ROOT
ATOM      1  C2  UNL d   1       4.750   3.613  -5.776  0.00  0.00    -0.076 A 
ATOM      2  C3  UNL d   1       4.915   2.217  -5.795  0.00  0.00     0.004 A 
ATOM      3  C4  UNL d   1       3.816   1.366  -5.904  0.00  0.00    -0.003 A 
ATOM      4  C5  UNL d   1       2.535   1.898  -5.998  0.00  0.00     0.000 A 
ATOM      5  C6  UNL d   1       2.354   3.280  -5.999  0.00  0.00     0.000 A 
ATOM      6  C7  UNL d   1       3.452   4.152  -5.906  0.00  0.00    -0.073 A 
ATOM      7  C8  UNL d   1       3.199   5.635  -5.905  0.00  0.00     0.078 C 
ENDROOT
BRANCH   1   8
ATOM      8  C1  UNL d   1       5.976   4.485  -5.627  0.00  0.00     0.053 C 
ATOM      9  C   UNL d   1       5.708   5.935  -5.997  0.00  0.00     0.018 C 
ENDBRANCH   1   8
TORSDOF 1
ENDMDL
