MODEL 1
REMARK minimizedAffinity 4.63011312
REMARK minimizedRMSD -1
REMARK  1 active torsions:
REMARK  status: ('A' for Active; 'I' for Inactive)
REMARK    1  A    between atoms: C1_2  and  C2_3 
ROOT
ATOM      1  C2  UNL d   1       4.650  -3.330   3.300  0.00  0.00    -0.076 A 
ATOM      2  C3  UNL d   1       4.960  -2.252   4.147  0.00  0.00     0.004 A 
ATOM      3  C4  UNL d   1       5.287  -2.462   5.486  0.00  0.00    -0.003 A 
ATOM      4  C5  UNL d   1       5.309  -3.755   5.999  0.00  0.00     0.000 A 
ATOM      5  C6  UNL d   1       5.020  -4.837   5.169  0.00  0.00     0.000 A 
ATOM      6  C7  UNL d   1       4.705  -4.644   3.813  0.00  0.00    -0.073 A 
ATOM      7  C8  UNL d   1       4.397  -5.847   2.964  0.00  0.00     0.078 C 
ENDROOT
BRANCH   1   8
ATOM      8  C1  UNL d   1       4.276  -3.038   1.864  0.00  0.00     0.053 C 
ATOM      9  C   UNL d   1       2.813  -2.653   1.709  0.00  0.00     0.018 C 
ENDBRANCH   1   8
TORSDOF 1
ENDMDL
