MODEL 1
REMARK minimizedAffinity 3.87744045
REMARK minimizedRMSD -1
REMARK  1 active torsions:
REMARK  status: ('A' for Active; 'I' for Inactive)
REMARK    1  A    between atoms: C1_2  and  C2_3 
ROOT
ATOM      1  C2  UNL d   1       3.826  -3.736   2.200  0.00  0.00    -0.076 A 
ATOM      2  C3  UNL d   1       4.774  -4.263   1.306  0.00  0.00     0.004 A 
ATOM      3  C4  UNL d   1       4.627  -4.106  -0.071  0.00  0.00    -0.003 A 
ATOM      4  C5  UNL d   1       3.529  -3.418  -0.577  0.00  0.00     0.000 A 
ATOM      5  C6  UNL d   1       2.589  -2.872   0.296  0.00  0.00     0.000 A 
ATOM      6  C7  UNL d   1       2.731  -3.008   1.688  0.00  0.00    -0.073 A 
ATOM      7  C8  UNL d   1       1.683  -2.405   2.583  0.00  0.00     0.078 C 
ENDROOT
BRANCH   1   8
ATOM      8  C1  UNL d   1       4.024  -3.961   3.682  0.00  0.00     0.053 C 
ATOM      9  C   UNL d   1       4.874  -2.878   4.328  0.00  0.00     0.018 C 
ENDBRANCH   1   8
TORSDOF 1
ENDMDL
