MODEL 1
REMARK minimizedAffinity 4.11049843
REMARK minimizedRMSD -1
REMARK  1 active torsions:
REMARK  status: ('A' for Active; 'I' for Inactive)
REMARK    1  A    between atoms: C1_2  and  C2_3 
ROOT
ATOM      1  C2  UNL d   1       1.619  -0.083   1.226  0.00  0.00    -0.076 A 
ATOM      2  C3  UNL d   1       2.512  -0.571   0.257  0.00  0.00     0.004 A 
ATOM      3  C4  UNL d   1       2.851  -1.922   0.209  0.00  0.00    -0.003 A 
ATOM      4  C5  UNL d   1       2.300  -2.808   1.129  0.00  0.00     0.000 A 
ATOM      5  C6  UNL d   1       1.398  -2.344   2.086  0.00  0.00     0.000 A 
ATOM      6  C7  UNL d   1       1.034  -0.988   2.137  0.00  0.00    -0.073 A 
ATOM      7  C8  UNL d   1       0.061  -0.541   3.194  0.00  0.00     0.078 C 
ENDROOT
BRANCH   1   8
ATOM      8  C1  UNL d   1       1.310   1.397   1.246  0.00  0.00     0.053 C 
ATOM      9  C   UNL d   1       2.561   2.255   1.138  0.00  0.00     0.018 C 
ENDBRANCH   1   8
TORSDOF 1
ENDMDL
