MODEL 1
REMARK minimizedAffinity -4.82915783
REMARK minimizedRMSD -1
REMARK  0 active torsions:
REMARK  status: ('A' for Active; 'I' for Inactive)
ROOT
ATOM      1  C1  BNZ d   1      -0.444   0.540   2.702  0.00  0.00     0.000 A 
ATOM      2  C2  BNZ d   1      -1.409   0.026   1.877  0.00  0.00     0.000 A 
ATOM      3  C3  BNZ d   1      -1.153  -0.192   0.552  0.00  0.00     0.000 A 
ATOM      4  C4  BNZ d   1       0.052   0.140   0.046  0.00  0.00     0.000 A 
ATOM      5  C5  BNZ d   1       1.032   0.668   0.862  0.00  0.00     0.000 A 
ATOM      6  C6  BNZ d   1       0.784   0.850   2.204  0.00  0.00     0.000 A 
ENDROOT
TORSDOF 0
ENDMDL
