MODEL 1
REMARK minimizedAffinity -2.45363951
REMARK minimizedRMSD -1
REMARK  0 active torsions:
REMARK  status: ('A' for Active; 'I' for Inactive)
ROOT
ATOM      1  C1  BNZ d   1      -1.085   1.012  -0.088  0.00  0.00     0.000 A 
ATOM      2  C2  BNZ d   1       0.114   0.353  -0.159  0.00  0.00     0.000 A 
ATOM      3  C3  BNZ d   1       0.165  -0.971  -0.491  0.00  0.00     0.000 A 
ATOM      4  C4  BNZ d   1      -0.982  -1.645  -0.713  0.00  0.00     0.000 A 
ATOM      5  C5  BNZ d   1      -2.199  -0.997  -0.637  0.00  0.00     0.000 A 
ATOM      6  C6  BNZ d   1      -2.245   0.346  -0.340  0.00  0.00     0.000 A 
ENDROOT
TORSDOF 0
ENDMDL
