MODEL 1
REMARK minimizedAffinity 3.71726799
REMARK minimizedRMSD -1
REMARK  0 active torsions:
REMARK  status: ('A' for Active; 'I' for Inactive)
ROOT
ATOM      1  C1  BNZ d   1      -0.007   0.991   3.001  0.00  0.00     0.000 A 
ATOM      2  C2  BNZ d   1       1.356   0.877   3.070  0.00  0.00     0.000 A 
ATOM      3  C3  BNZ d   1       1.968  -0.328   2.862  0.00  0.00     0.000 A 
ATOM      4  C4  BNZ d   1       1.216  -1.422   2.627  0.00  0.00     0.000 A 
ATOM      5  C5  BNZ d   1      -0.159  -1.325   2.564  0.00  0.00     0.000 A 
ATOM      6  C6  BNZ d   1      -0.770  -0.104   2.735  0.00  0.00     0.000 A 
ENDROOT
TORSDOF 0
ENDMDL
