MODEL 1
REMARK minimizedAffinity 0.111120991
REMARK minimizedRMSD -1
REMARK  0 active torsions:
REMARK  status: ('A' for Active; 'I' for Inactive)
ROOT
ATOM      1  C1  BNZ d   1       0.742  -0.154   1.176  0.00  0.00     0.000 A 
ATOM      2  C2  BNZ d   1      -0.454   0.466   0.934  0.00  0.00     0.000 A 
ATOM      3  C3  BNZ d   1      -1.446   0.465   1.875  0.00  0.00     0.000 A 
ATOM      4  C4  BNZ d   1      -1.255  -0.189   3.039  0.00  0.00     0.000 A 
ATOM      5  C5  BNZ d   1      -0.058  -0.827   3.294  0.00  0.00     0.000 A 
ATOM      6  C6  BNZ d   1       0.953  -0.791   2.360  0.00  0.00     0.000 A 
ENDROOT
TORSDOF 0
ENDMDL
