MODEL 1
REMARK minimizedAffinity -0.741984069
REMARK minimizedRMSD -1
REMARK  0 active torsions:
REMARK  status: ('A' for Active; 'I' for Inactive)
ROOT
ATOM      1  C1  BNZ d   1       1.104  -0.067   2.347  0.00  0.00     0.000 A 
ATOM      2  C2  BNZ d   1       0.733   0.225   1.062  0.00  0.00     0.000 A 
ATOM      3  C3  BNZ d   1      -0.585   0.245   0.701  0.00  0.00     0.000 A 
ATOM      4  C4  BNZ d   1      -1.527  -0.066   1.615  0.00  0.00     0.000 A 
ATOM      5  C5  BNZ d   1      -1.168  -0.372   2.912  0.00  0.00     0.000 A 
ATOM      6  C6  BNZ d   1       0.157  -0.353   3.281  0.00  0.00     0.000 A 
ENDROOT
TORSDOF 0
ENDMDL
