MODEL 1
REMARK minimizedAffinity -0.546282709
REMARK minimizedRMSD -1
REMARK  0 active torsions:
REMARK  status: ('A' for Active; 'I' for Inactive)
ROOT
ATOM      1  C1  BNZ d   1       0.111  -3.589  -5.022  0.00  0.00     0.000 A 
ATOM      2  C2  BNZ d   1       0.058  -2.782  -3.916  0.00  0.00     0.000 A 
ATOM      3  C3  BNZ d   1       0.375  -3.268  -2.679  0.00  0.00     0.000 A 
ATOM      4  C4  BNZ d   1       0.706  -4.568  -2.542  0.00  0.00     0.000 A 
ATOM      5  C5  BNZ d   1       0.755  -5.397  -3.645  0.00  0.00     0.000 A 
ATOM      6  C6  BNZ d   1       0.472  -4.894  -4.895  0.00  0.00     0.000 A 
ENDROOT
TORSDOF 0
ENDMDL
