MODEL 1
REMARK minimizedAffinity 0.136315778
REMARK minimizedRMSD -1
REMARK  0 active torsions:
REMARK  status: ('A' for Active; 'I' for Inactive)
ROOT
ATOM      1  C1  BNZ d   1      -2.331   0.085   2.950  0.00  0.00     0.000 A 
ATOM      2  C2  BNZ d   1      -1.433   0.733   2.145  0.00  0.00     0.000 A 
ATOM      3  C3  BNZ d   1      -0.137   0.306   2.057  0.00  0.00     0.000 A 
ATOM      4  C4  BNZ d   1       0.268  -0.741   2.803  0.00  0.00     0.000 A 
ATOM      5  C5  BNZ d   1      -0.624  -1.400   3.627  0.00  0.00     0.000 A 
ATOM      6  C6  BNZ d   1      -1.937  -0.991   3.683  0.00  0.00     0.000 A 
ENDROOT
TORSDOF 0
ENDMDL
