MODEL 1
REMARK minimizedAffinity -1.19979131
REMARK minimizedRMSD -1
REMARK  0 active torsions:
REMARK  status: ('A' for Active; 'I' for Inactive)
ROOT
ATOM      1  C1  BNZ d   1      -0.106   0.243   1.563  0.00  0.00     0.000 A 
ATOM      2  C2  BNZ d   1       0.094  -0.463   2.719  0.00  0.00     0.000 A 
ATOM      3  C3  BNZ d   1      -0.889  -0.548   3.666  0.00  0.00     0.000 A 
ATOM      4  C4  BNZ d   1      -2.052   0.106   3.474  0.00  0.00     0.000 A 
ATOM      5  C5  BNZ d   1      -2.265   0.830   2.318  0.00  0.00     0.000 A 
ATOM      6  C6  BNZ d   1      -1.289   0.881   1.350  0.00  0.00     0.000 A 
ENDROOT
TORSDOF 0
ENDMDL
