MODEL 1
REMARK minimizedAffinity 0.86763078
REMARK minimizedRMSD -1
REMARK  0 active torsions:
REMARK  status: ('A' for Active; 'I' for Inactive)
ROOT
ATOM      1  C1  BNZ d   1       1.773   0.469   1.312  0.00  0.00     0.000 A 
ATOM      2  C2  BNZ d   1       1.441  -0.747   1.847  0.00  0.00     0.000 A 
ATOM      3  C3  BNZ d   1       1.992  -1.167   3.025  0.00  0.00     0.000 A 
ATOM      4  C4  BNZ d   1       2.902  -0.389   3.646  0.00  0.00     0.000 A 
ATOM      5  C5  BNZ d   1       3.254   0.835   3.114  0.00  0.00     0.000 A 
ATOM      6  C6  BNZ d   1       2.669   1.272   1.948  0.00  0.00     0.000 A 
ENDROOT
TORSDOF 0
ENDMDL
