MODEL 1
REMARK minimizedAffinity 5.88084364
REMARK minimizedRMSD -1
REMARK  0 active torsions:
REMARK  status: ('A' for Active; 'I' for Inactive)
ROOT
ATOM      1  C4' PXY d   1       1.515  -0.016   0.193  0.00  0.00     0.077 C 
ATOM      2  C1' PXY d   1      -4.188  -0.097  -0.745  0.00  0.00     0.077 C 
ATOM      3  C1  PXY d   1      -2.693  -0.088  -0.493  0.00  0.00    -0.082 A 
ATOM      4  C2  PXY d   1      -2.041   1.063  -0.474  0.00  0.00     0.003 A 
ATOM      5  C3  PXY d   1      -0.684   1.088  -0.279  0.00  0.00     0.003 A 
ATOM      6  C4  PXY d   1       0.004  -0.073  -0.048  0.00  0.00    -0.082 A 
ATOM      7  C5  PXY d   1      -0.656  -1.251  -0.055  0.00  0.00     0.003 A 
ATOM      8  C6  PXY d   1      -2.027  -1.258  -0.296  0.00  0.00     0.003 A 
ENDROOT
TORSDOF 0
ENDMDL
