MODEL 1
REMARK minimizedAffinity 1.33467042
REMARK minimizedRMSD -1
REMARK  0 active torsions:
REMARK  status: ('A' for Active; 'I' for Inactive)
ROOT
ATOM      1  C4' PXY d   1       0.752   1.963   0.968  0.00  0.00     0.077 C 
ATOM      2  C1' PXY d   1      -0.662  -2.782  -2.015  0.00  0.00     0.077 C 
ATOM      3  C1  PXY d   1      -0.284  -1.545  -1.225  0.00  0.00    -0.082 A 
ATOM      4  C2  PXY d   1      -1.076  -0.485  -1.250  0.00  0.00     0.003 A 
ATOM      5  C3  PXY d   1      -0.733   0.653  -0.567  0.00  0.00     0.003 A 
ATOM      6  C4  PXY d   1       0.405   0.689   0.193  0.00  0.00    -0.082 A 
ATOM      7  C5  PXY d   1       1.214  -0.391   0.232  0.00  0.00     0.003 A 
ATOM      8  C6  PXY d   1       0.869  -1.523  -0.502  0.00  0.00     0.003 A 
ENDROOT
TORSDOF 0
ENDMDL
