MODEL 1
REMARK minimizedAffinity 5.20500898
REMARK minimizedRMSD -1
REMARK  0 active torsions:
REMARK  status: ('A' for Active; 'I' for Inactive)
ROOT
ATOM      1  C4' PXY d   1       3.673   0.327  -0.769  0.00  0.00     0.077 C 
ATOM      2  C1' PXY d   1      -0.860  -3.257  -0.611  0.00  0.00     0.077 C 
ATOM      3  C1  PXY d   1       0.321  -2.308  -0.656  0.00  0.00    -0.082 A 
ATOM      4  C2  PXY d   1       1.544  -2.791  -0.802  0.00  0.00     0.003 A 
ATOM      5  C3  PXY d   1       2.626  -1.949  -0.813  0.00  0.00     0.003 A 
ATOM      6  C4  PXY d   1       2.450  -0.594  -0.727  0.00  0.00    -0.082 A 
ATOM      7  C5  PXY d   1       1.205  -0.092  -0.589  0.00  0.00     0.003 A 
ATOM      8  C6  PXY d   1       0.123  -0.967  -0.539  0.00  0.00     0.003 A 
ENDROOT
TORSDOF 0
ENDMDL
