MODEL 1
REMARK minimizedAffinity 6.44700289
REMARK minimizedRMSD -1
REMARK  0 active torsions:
REMARK  status: ('A' for Active; 'I' for Inactive)
ROOT
ATOM      1  C4' PXY d   1      -1.388  -5.870   5.976  0.00  0.00     0.077 C 
ATOM      2  C1' PXY d   1       0.771  -0.507   6.000  0.00  0.00     0.077 C 
ATOM      3  C1  PXY d   1       0.194  -1.909   5.999  0.00  0.00    -0.082 A 
ATOM      4  C2  PXY d   1       1.009  -2.952   5.996  0.00  0.00     0.003 A 
ATOM      5  C3  PXY d   1       0.504  -4.226   5.963  0.00  0.00     0.003 A 
ATOM      6  C4  PXY d   1      -0.849  -4.436   5.986  0.00  0.00    -0.082 A 
ATOM      7  C5  PXY d   1      -1.687  -3.378   6.000  0.00  0.00     0.003 A 
ATOM      8  C6  PXY d   1      -1.154  -2.092   5.992  0.00  0.00     0.003 A 
ENDROOT
TORSDOF 0
ENDMDL
