MODEL 1
REMARK minimizedAffinity 0.113566682
REMARK minimizedRMSD -1
REMARK  0 active torsions:
REMARK  status: ('A' for Active; 'I' for Inactive)
ROOT
ATOM      1  C4' PXY d   1       4.016   1.001  -0.137  0.00  0.00     0.077 C 
ATOM      2  C1' PXY d   1      -0.920  -2.007  -0.160  0.00  0.00     0.077 C 
ATOM      3  C1  PXY d   1       0.368  -1.208  -0.159  0.00  0.00    -0.082 A 
ATOM      4  C2  PXY d   1       1.530  -1.841  -0.143  0.00  0.00     0.003 A 
ATOM      5  C3  PXY d   1       2.704  -1.133  -0.111  0.00  0.00     0.003 A 
ATOM      6  C4  PXY d   1       2.690   0.235  -0.148  0.00  0.00    -0.082 A 
ATOM      7  C5  PXY d   1       1.508   0.888  -0.175  0.00  0.00     0.003 A 
ATOM      8  C6  PXY d   1       0.327   0.152  -0.166  0.00  0.00     0.003 A 
ENDROOT
TORSDOF 0
ENDMDL
