MODEL 1
REMARK minimizedAffinity 12.8827305
REMARK minimizedRMSD -1
REMARK  0 active torsions:
REMARK  status: ('A' for Active; 'I' for Inactive)
ROOT
ATOM      1  C4' PXY d   1       1.829  -2.730  -1.445  0.00  0.00     0.077 C 
ATOM      2  C1' PXY d   1       1.652   1.423   2.572  0.00  0.00     0.077 C 
ATOM      3  C1  PXY d   1       1.703   0.325   1.528  0.00  0.00    -0.082 A 
ATOM      4  C2  PXY d   1       1.774   0.645   0.246  0.00  0.00     0.003 A 
ATOM      5  C3  PXY d   1       1.789  -0.334  -0.714  0.00  0.00     0.003 A 
ATOM      6  C4  PXY d   1       1.785  -1.655  -0.355  0.00  0.00    -0.082 A 
ATOM      7  C5  PXY d   1       1.723  -1.990   0.951  0.00  0.00     0.003 A 
ATOM      8  C6  PXY d   1       1.667  -0.981   1.908  0.00  0.00     0.003 A 
ENDROOT
TORSDOF 0
ENDMDL
