MODEL 1
REMARK minimizedAffinity 7.54193592
REMARK minimizedRMSD -1
REMARK  0 active torsions:
REMARK  status: ('A' for Active; 'I' for Inactive)
ROOT
ATOM      1  C4' PXY d   1       1.485  -2.574  -0.004  0.00  0.00     0.077 C 
ATOM      2  C1' PXY d   1      -2.476  -5.285  -3.226  0.00  0.00     0.077 C 
ATOM      3  C1  PXY d   1      -1.442  -4.580  -2.370  0.00  0.00    -0.082 A 
ATOM      4  C2  PXY d   1      -0.876  -3.468  -2.811  0.00  0.00     0.003 A 
ATOM      5  C3  PXY d   1       0.084  -2.834  -2.064  0.00  0.00     0.003 A 
ATOM      6  C4  PXY d   1       0.430  -3.315  -0.829  0.00  0.00    -0.082 A 
ATOM      7  C5  PXY d   1      -0.151  -4.443  -0.368  0.00  0.00     0.003 A 
ATOM      8  C6  PXY d   1      -1.093  -5.093  -1.159  0.00  0.00     0.003 A 
ENDROOT
TORSDOF 0
ENDMDL
