MODEL 1
REMARK minimizedAffinity -2.47636509
REMARK minimizedRMSD -1
REMARK  0 active torsions:
REMARK  status: ('A' for Active; 'I' for Inactive)
ROOT
ATOM      1  C1  DEN d   1      -0.295   0.184  -2.332  0.00  0.00     0.130 A 
ATOM      2  C2  DEN d   1       0.974  -0.539  -2.360  0.00  0.00    -0.031 A 
ATOM      3  C3  DEN d   1       1.309  -0.927  -0.976  0.00  0.00     0.027 A 
ATOM      4  C4  DEN d   1      -0.008  -0.487   1.197  0.00  0.00     0.027 A 
ATOM      5  C5  DEN d   1      -1.138   0.098   1.727  0.00  0.00    -0.003 A 
ATOM      6  C6  DEN d   1      -2.040   0.776   0.951  0.00  0.00     0.001 A 
ATOM      7  C7  DEN d   1      -1.853   0.848  -0.404  0.00  0.00     0.017 A 
ATOM      8  C8  DEN d   1      -0.713   0.267  -0.944  0.00  0.00    -0.094 A 
ATOM      9  C9  DEN d   1       0.182  -0.424  -0.145  0.00  0.00    -0.072 A 
ENDROOT
TORSDOF 0
ENDMDL
