MODEL 1
REMARK minimizedAffinity -3.82430005
REMARK minimizedRMSD -1
REMARK  0 active torsions:
REMARK  status: ('A' for Active; 'I' for Inactive)
ROOT
ATOM      1  C1  DEN d   1       1.695  -0.964   1.199  0.00  0.00     0.130 A 
ATOM      2  C2  DEN d   1       1.950  -0.942   2.637  0.00  0.00    -0.031 A 
ATOM      3  C3  DEN d   1       0.738  -0.429   3.307  0.00  0.00     0.027 A 
ATOM      4  C4  DEN d   1      -1.497   0.325   2.264  0.00  0.00     0.027 A 
ATOM      5  C5  DEN d   1      -2.182   0.499   1.081  0.00  0.00    -0.003 A 
ATOM      6  C6  DEN d   1      -1.616   0.231  -0.137  0.00  0.00     0.001 A 
ATOM      7  C7  DEN d   1      -0.341  -0.268  -0.198  0.00  0.00     0.017 A 
ATOM      8  C8  DEN d   1       0.358  -0.438   0.990  0.00  0.00    -0.094 A 
ATOM      9  C9  DEN d   1      -0.236  -0.174   2.212  0.00  0.00    -0.072 A 
ENDROOT
TORSDOF 0
ENDMDL
