MODEL 1
REMARK minimizedAffinity -4.06157875
REMARK minimizedRMSD -1
REMARK  0 active torsions:
REMARK  status: ('A' for Active; 'I' for Inactive)
ROOT
ATOM      1  C1  DEN d   1      -0.404   0.317   3.409  0.00  0.00     0.130 A 
ATOM      2  C2  DEN d   1       0.901  -0.317   3.570  0.00  0.00    -0.031 A 
ATOM      3  C3  DEN d   1       1.314  -0.853   2.257  0.00  0.00     0.027 A 
ATOM      4  C4  DEN d   1       0.067  -0.758   0.001  0.00  0.00     0.027 A 
ATOM      5  C5  DEN d   1      -1.082  -0.333  -0.629  0.00  0.00    -0.003 A 
ATOM      6  C6  DEN d   1      -2.091   0.304   0.043  0.00  0.00     0.001 A 
ATOM      7  C7  DEN d   1      -1.952   0.574   1.379  0.00  0.00     0.017 A 
ATOM      8  C8  DEN d   1      -0.801   0.141   2.023  0.00  0.00    -0.094 A 
ATOM      9  C9  DEN d   1       0.214  -0.490   1.323  0.00  0.00    -0.072 A 
ENDROOT
TORSDOF 0
ENDMDL
