MODEL 1
REMARK minimizedAffinity 0.389836192
REMARK minimizedRMSD -1
REMARK  0 active torsions:
REMARK  status: ('A' for Active; 'I' for Inactive)
ROOT
ATOM      1  C1  DEN d   1       1.144  -0.718  -0.232  0.00  0.00     0.130 A 
ATOM      2  C2  DEN d   1       0.604  -0.600  -1.584  0.00  0.00    -0.031 A 
ATOM      3  C3  DEN d   1      -0.752  -0.024  -1.484  0.00  0.00     0.027 A 
ATOM      4  C4  DEN d   1      -2.059   0.696   0.619  0.00  0.00     0.027 A 
ATOM      5  C5  DEN d   1      -2.018   0.777   1.993  0.00  0.00    -0.003 A 
ATOM      6  C6  DEN d   1      -0.943   0.337   2.719  0.00  0.00     0.001 A 
ATOM      7  C7  DEN d   1       0.155  -0.162   2.070  0.00  0.00     0.017 A 
ATOM      8  C8  DEN d   1       0.118  -0.254   0.684  0.00  0.00    -0.094 A 
ATOM      9  C9  DEN d   1      -0.973   0.208  -0.032  0.00  0.00    -0.072 A 
ENDROOT
TORSDOF 0
ENDMDL
