MODEL 1
REMARK minimizedAffinity -3.62347078
REMARK minimizedRMSD -1
REMARK  2 active torsions:
REMARK  status: ('A' for Active; 'I' for Inactive)
REMARK    1  A    between atoms: C2'_3  and  C1'_4 
REMARK    2  A    between atoms: C1'_4  and  C1_5 
ROOT
ATOM      1  C1  I4B d   1       0.218  -0.041   0.524  0.00  0.00    -0.075 A 
ATOM      2  C2  I4B d   1       1.013   0.786  -0.230  0.00  0.00     0.003 A 
ATOM      3  C3  I4B d   1       1.390   2.058   0.265  0.00  0.00     0.002 A 
ATOM      4  C4  I4B d   1       0.911   2.480   1.489  0.00  0.00    -0.004 A 
ATOM      5  C5  I4B d   1       0.125   1.631   2.262  0.00  0.00     0.002 A 
ATOM      6  C6  I4B d   1      -0.214   0.357   1.782  0.00  0.00     0.003 A 
ENDROOT
BRANCH   1   7
ATOM      7  C1' I4B d   1      -0.188  -1.365  -0.043  0.00  0.00     0.060 C 
BRANCH   7   8
ATOM      8  C2' I4B d   1      -1.463  -1.798   0.650  0.00  0.00    -0.013 C 
ATOM      9  C4' I4B d   1      -2.449  -2.375  -0.332  0.00  0.00     0.013 C 
ATOM     10  C3' I4B d   1      -1.100  -2.801   1.705  0.00  0.00     0.013 C 
ENDBRANCH   7   8
ENDBRANCH   1   7
TORSDOF 2
ENDMDL
