MODEL 1
REMARK minimizedAffinity -2.95162249
REMARK minimizedRMSD -1
REMARK  2 active torsions:
REMARK  status: ('A' for Active; 'I' for Inactive)
REMARK    1  A    between atoms: C2'_3  and  C1'_4 
REMARK    2  A    between atoms: C1'_4  and  C1_5 
ROOT
ATOM      1  C1  I4B d   1       0.010  -1.359  -0.961  0.00  0.00    -0.075 A 
ATOM      2  C2  I4B d   1       1.305  -1.531  -1.380  0.00  0.00     0.003 A 
ATOM      3  C3  I4B d   1       2.263  -0.508  -1.174  0.00  0.00     0.002 A 
ATOM      4  C4  I4B d   1       1.873   0.682  -0.594  0.00  0.00    -0.004 A 
ATOM      5  C5  I4B d   1       0.564   0.846  -0.149  0.00  0.00     0.002 A 
ATOM      6  C6  I4B d   1      -0.371  -0.185  -0.322  0.00  0.00     0.003 A 
ENDROOT
BRANCH   1   7
ATOM      7  C1' I4B d   1      -0.983  -2.446  -1.224  0.00  0.00     0.060 C 
BRANCH   7   8
ATOM      8  C2' I4B d   1      -0.628  -3.626  -0.343  0.00  0.00    -0.013 C 
ATOM      9  C4' I4B d   1      -1.353  -3.560   0.976  0.00  0.00     0.013 C 
ATOM     10  C3' I4B d   1      -0.972  -4.881  -1.088  0.00  0.00     0.013 C 
ENDBRANCH   7   8
ENDBRANCH   1   7
TORSDOF 2
ENDMDL
