MODEL 1
REMARK minimizedAffinity -3.94043612
REMARK minimizedRMSD -1
REMARK  2 active torsions:
REMARK  status: ('A' for Active; 'I' for Inactive)
REMARK    1  A    between atoms: C2'_3  and  C1'_4 
REMARK    2  A    between atoms: C1'_4  and  C1_5 
ROOT
ATOM      1  C1  I4B d   1       0.180  -0.304  -0.317  0.00  0.00    -0.075 A 
ATOM      2  C2  I4B d   1       1.290   0.369  -0.765  0.00  0.00     0.003 A 
ATOM      3  C3  I4B d   1       1.711   1.557  -0.121  0.00  0.00     0.002 A 
ATOM      4  C4  I4B d   1       0.970   2.061   0.928  0.00  0.00    -0.004 A 
ATOM      5  C5  I4B d   1      -0.141   1.366   1.396  0.00  0.00     0.002 A 
ATOM      6  C6  I4B d   1      -0.532   0.169   0.777  0.00  0.00     0.003 A 
ENDROOT
BRANCH   1   7
ATOM      7  C1' I4B d   1      -0.256  -1.538  -1.042  0.00  0.00     0.060 C 
BRANCH   7   8
ATOM      8  C2' I4B d   1      -1.583  -1.242  -1.710  0.00  0.00    -0.013 C 
ATOM      9  C4' I4B d   1      -1.399  -0.926  -3.171  0.00  0.00     0.013 C 
ATOM     10  C3' I4B d   1      -2.472  -2.435  -1.522  0.00  0.00     0.013 C 
ENDBRANCH   7   8
ENDBRANCH   1   7
TORSDOF 2
ENDMDL
