MODEL 1
REMARK minimizedAffinity -3.7219739
REMARK minimizedRMSD -1
REMARK  2 active torsions:
REMARK  status: ('A' for Active; 'I' for Inactive)
REMARK    1  A    between atoms: C2'_3  and  C1'_4 
REMARK    2  A    between atoms: C1'_4  and  C1_5 
ROOT
ATOM      1  C1  I4B d   1       0.680   0.278   0.151  0.00  0.00    -0.075 A 
ATOM      2  C2  I4B d   1      -0.273   0.611   1.082  0.00  0.00     0.003 A 
ATOM      3  C3  I4B d   1      -0.184   1.837   1.785  0.00  0.00     0.002 A 
ATOM      4  C4  I4B d   1       0.893   2.671   1.565  0.00  0.00    -0.004 A 
ATOM      5  C5  I4B d   1       1.846   2.342   0.604  0.00  0.00     0.002 A 
ATOM      6  C6  I4B d   1       1.733   1.144  -0.116  0.00  0.00     0.003 A 
ENDROOT
BRANCH   1   7
ATOM      7  C1' I4B d   1       0.573  -1.039  -0.549  0.00  0.00     0.060 C 
BRANCH   7   8
ATOM      8  C2' I4B d   1      -0.895  -1.404  -0.637  0.00  0.00    -0.013 C 
ATOM      9  C4' I4B d   1      -1.381  -1.369  -2.062  0.00  0.00     0.013 C 
ATOM     10  C3' I4B d   1      -1.069  -2.768  -0.039  0.00  0.00     0.013 C 
ENDBRANCH   7   8
ENDBRANCH   1   7
TORSDOF 2
ENDMDL
