MODEL 1
REMARK minimizedAffinity -2.65713358
REMARK minimizedRMSD -1
REMARK  2 active torsions:
REMARK  status: ('A' for Active; 'I' for Inactive)
REMARK    1  A    between atoms: C2'_3  and  C1'_4 
REMARK    2  A    between atoms: C1'_4  and  C1_5 
ROOT
ATOM      1  C1  I4B d   1       0.658   0.407  -0.318  0.00  0.00    -0.075 A 
ATOM      2  C2  I4B d   1       1.580   1.305  -0.797  0.00  0.00     0.003 A 
ATOM      3  C3  I4B d   1       1.854   2.495  -0.082  0.00  0.00     0.002 A 
ATOM      4  C4  I4B d   1       1.151   2.771   1.073  0.00  0.00    -0.004 A 
ATOM      5  C5  I4B d   1       0.233   1.850   1.569  0.00  0.00     0.002 A 
ATOM      6  C6  I4B d   1      -0.006   0.655   0.876  0.00  0.00     0.003 A 
ENDROOT
BRANCH   1   7
ATOM      7  C1' I4B d   1       0.370  -0.825  -1.116  0.00  0.00     0.060 C 
BRANCH   7   8
ATOM      8  C2' I4B d   1      -1.111  -1.121  -0.999  0.00  0.00    -0.013 C 
ATOM      9  C4' I4B d   1      -1.699  -1.502  -2.332  0.00  0.00     0.013 C 
ATOM     10  C3' I4B d   1      -1.285  -2.222   0.004  0.00  0.00     0.013 C 
ENDBRANCH   7   8
ENDBRANCH   1   7
TORSDOF 2
ENDMDL
