MODEL 1
REMARK minimizedAffinity -5.37477398
REMARK minimizedRMSD -1
REMARK  2 active torsions:
REMARK  status: ('A' for Active; 'I' for Inactive)
REMARK    1  A    between atoms: C2'_3  and  C1'_4 
REMARK    2  A    between atoms: C1'_4  and  C1_5 
ROOT
ATOM      1  C1  I4B d   1       0.775   0.255  -0.023  0.00  0.00    -0.075 A 
ATOM      2  C2  I4B d   1      -0.130   0.431   0.994  0.00  0.00     0.003 A 
ATOM      3  C3  I4B d   1      -0.185   1.660   1.694  0.00  0.00     0.002 A 
ATOM      4  C4  I4B d   1       0.711   2.662   1.381  0.00  0.00    -0.004 A 
ATOM      5  C5  I4B d   1       1.613   2.490   0.335  0.00  0.00     0.002 A 
ATOM      6  C6  I4B d   1       1.637   1.283  -0.380  0.00  0.00     0.003 A 
ENDROOT
BRANCH   1   7
ATOM      7  C1' I4B d   1       0.828  -1.068  -0.719  0.00  0.00     0.060 C 
BRANCH   7   8
ATOM      8  C2' I4B d   1      -0.582  -1.619  -0.783  0.00  0.00    -0.013 C 
ATOM      9  C4' I4B d   1      -1.039  -1.784  -2.208  0.00  0.00     0.013 C 
ATOM     10  C3' I4B d   1      -0.600  -2.929  -0.053  0.00  0.00     0.013 C 
ENDBRANCH   7   8
ENDBRANCH   1   7
TORSDOF 2
ENDMDL
