MODEL 1
REMARK minimizedAffinity -4.05571127
REMARK minimizedRMSD -1
REMARK  2 active torsions:
REMARK  status: ('A' for Active; 'I' for Inactive)
REMARK    1  A    between atoms: C2'_3  and  C1'_4 
REMARK    2  A    between atoms: C1'_4  and  C1_5 
ROOT
ATOM      1  C1  I4B d   1       0.351  -0.175  -0.338  0.00  0.00    -0.075 A 
ATOM      2  C2  I4B d   1       1.334   0.643  -0.836  0.00  0.00     0.003 A 
ATOM      3  C3  I4B d   1       1.617   1.881  -0.209  0.00  0.00     0.002 A 
ATOM      4  C4  I4B d   1       0.863   2.281   0.875  0.00  0.00    -0.004 A 
ATOM      5  C5  I4B d   1      -0.119   1.441   1.392  0.00  0.00     0.002 A 
ATOM      6  C6  I4B d   1      -0.368   0.199   0.789  0.00  0.00     0.003 A 
ENDROOT
BRANCH   1   7
ATOM      7  C1' I4B d   1       0.057  -1.461  -1.045  0.00  0.00     0.060 C 
BRANCH   7   8
ATOM      8  C2' I4B d   1      -1.051  -1.201  -2.045  0.00  0.00    -0.013 C 
ATOM      9  C4' I4B d   1      -0.526  -1.218  -3.457  0.00  0.00     0.013 C 
ATOM     10  C3' I4B d   1      -2.108  -2.246  -1.847  0.00  0.00     0.013 C 
ENDBRANCH   7   8
ENDBRANCH   1   7
TORSDOF 2
ENDMDL
