MODEL 1
REMARK minimizedAffinity -5.29444218
REMARK minimizedRMSD -1
REMARK  2 active torsions:
REMARK  status: ('A' for Active; 'I' for Inactive)
REMARK    1  A    between atoms: C2'_3  and  C1'_4 
REMARK    2  A    between atoms: C1'_4  and  C1_5 
ROOT
ATOM      1  C1  I4B d   1       0.529   0.964   0.553  0.00  0.00    -0.075 A 
ATOM      2  C2  I4B d   1       0.576   1.851   1.600  0.00  0.00     0.003 A 
ATOM      3  C3  I4B d   1       1.738   2.626   1.826  0.00  0.00     0.002 A 
ATOM      4  C4  I4B d   1       2.842   2.447   1.018  0.00  0.00    -0.004 A 
ATOM      5  C5  I4B d   1       2.786   1.564  -0.057  0.00  0.00     0.002 A 
ATOM      6  C6  I4B d   1       1.618   0.826  -0.298  0.00  0.00     0.003 A 
ENDROOT
BRANCH   1   7
ATOM      7  C1' I4B d   1      -0.702   0.137   0.363  0.00  0.00     0.060 C 
BRANCH   7   8
ATOM      8  C2' I4B d   1      -0.304  -1.137  -0.354  0.00  0.00    -0.013 C 
ATOM      9  C4' I4B d   1      -0.501  -2.343   0.526  0.00  0.00     0.013 C 
ATOM     10  C3' I4B d   1      -1.123  -1.240  -1.606  0.00  0.00     0.013 C 
ENDBRANCH   7   8
ENDBRANCH   1   7
TORSDOF 2
ENDMDL
