MODEL 1
REMARK minimizedAffinity -4.8312726
REMARK minimizedRMSD -1
REMARK  2 active torsions:
REMARK  status: ('A' for Active; 'I' for Inactive)
REMARK    1  A    between atoms: C2'_3  and  C1'_4 
REMARK    2  A    between atoms: C1'_4  and  C1_5 
ROOT
ATOM      1  C1  I4B d   1      -0.044  -0.533   0.440  0.00  0.00    -0.075 A 
ATOM      2  C2  I4B d   1       0.973  -0.862  -0.422  0.00  0.00     0.003 A 
ATOM      3  C3  I4B d   1       2.000   0.072  -0.702  0.00  0.00     0.002 A 
ATOM      4  C4  I4B d   1       1.943   1.332  -0.143  0.00  0.00    -0.004 A 
ATOM      5  C5  I4B d   1       0.924   1.656   0.748  0.00  0.00     0.002 A 
ATOM      6  C6  I4B d   1      -0.069   0.714   1.051  0.00  0.00     0.003 A 
ENDROOT
BRANCH   1   7
ATOM      7  C1' I4B d   1      -1.129  -1.531   0.688  0.00  0.00     0.060 C 
BRANCH   7   8
ATOM      8  C2' I4B d   1      -0.823  -2.239   1.992  0.00  0.00    -0.013 C 
ATOM      9  C4' I4B d   1      -1.950  -2.079   2.978  0.00  0.00     0.013 C 
ATOM     10  C3' I4B d   1      -0.573  -3.686   1.686  0.00  0.00     0.013 C 
ENDBRANCH   7   8
ENDBRANCH   1   7
TORSDOF 2
ENDMDL
