MODEL 1
REMARK minimizedAffinity -3.23114848
REMARK minimizedRMSD -1
REMARK  2 active torsions:
REMARK  status: ('A' for Active; 'I' for Inactive)
REMARK    1  A    between atoms: C2'_3  and  C1'_4 
REMARK    2  A    between atoms: C1'_4  and  C1_5 
ROOT
ATOM      1  C1  I4B d   1      -0.591  -1.720  -1.564  0.00  0.00    -0.075 A 
ATOM      2  C2  I4B d   1      -0.916  -1.196  -2.790  0.00  0.00     0.003 A 
ATOM      3  C3  I4B d   1      -2.158  -1.511  -3.394  0.00  0.00     0.002 A 
ATOM      4  C4  I4B d   1      -3.017  -2.387  -2.763  0.00  0.00    -0.004 A 
ATOM      5  C5  I4B d   1      -2.696  -2.900  -1.509  0.00  0.00     0.002 A 
ATOM      6  C6  I4B d   1      -1.481  -2.554  -0.900  0.00  0.00     0.003 A 
ENDROOT
BRANCH   1   7
ATOM      7  C1' I4B d   1       0.742  -1.393  -0.971  0.00  0.00     0.060 C 
BRANCH   7   8
ATOM      8  C2' I4B d   1       0.840   0.114  -0.844  0.00  0.00    -0.013 C 
ATOM      9  C4' I4B d   1       0.073   0.612   0.352  0.00  0.00     0.013 C 
ATOM     10  C3' I4B d   1       2.292   0.477  -0.746  0.00  0.00     0.013 C 
ENDBRANCH   7   8
ENDBRANCH   1   7
TORSDOF 2
ENDMDL
