MODEL 1
REMARK minimizedAffinity -2.07431006
REMARK minimizedRMSD -1
REMARK  2 active torsions:
REMARK  status: ('A' for Active; 'I' for Inactive)
REMARK    1  A    between atoms: C2'_3  and  C1'_4 
REMARK    2  A    between atoms: C1'_4  and  C1_5 
ROOT
ATOM      1  C1  I4B d   1      -1.944  -1.624  -1.689  0.00  0.00    -0.075 A 
ATOM      2  C2  I4B d   1      -1.930  -2.593  -0.717  0.00  0.00     0.003 A 
ATOM      3  C3  I4B d   1      -3.069  -3.406  -0.504  0.00  0.00     0.002 A 
ATOM      4  C4  I4B d   1      -4.211  -3.185  -1.247  0.00  0.00    -0.004 A 
ATOM      5  C5  I4B d   1      -4.216  -2.218  -2.248  0.00  0.00     0.002 A 
ATOM      6  C6  I4B d   1      -3.072  -1.441  -2.479  0.00  0.00     0.003 A 
ENDROOT
BRANCH   1   7
ATOM      7  C1' I4B d   1      -0.735  -0.761  -1.865  0.00  0.00     0.060 C 
BRANCH   7   8
ATOM      8  C2' I4B d   1      -0.013  -0.692  -0.535  0.00  0.00    -0.013 C 
ATOM      9  C4' I4B d   1       1.441  -1.052  -0.684  0.00  0.00     0.013 C 
ATOM     10  C3' I4B d   1      -0.174   0.696   0.008  0.00  0.00     0.013 C 
ENDBRANCH   7   8
ENDBRANCH   1   7
TORSDOF 2
ENDMDL
