MODEL 1
REMARK minimizedAffinity -5.0026865
REMARK minimizedRMSD -1
REMARK  2 active torsions:
REMARK  status: ('A' for Active; 'I' for Inactive)
REMARK    1  A    between atoms: C2'_3  and  C1'_4 
REMARK    2  A    between atoms: C1'_4  and  C1_5 
ROOT
ATOM      1  C1  I4B d   1      -2.172  -2.361  -0.447  0.00  0.00    -0.075 A 
ATOM      2  C2  I4B d   1      -3.003  -2.491  -1.533  0.00  0.00     0.003 A 
ATOM      3  C3  I4B d   1      -2.824  -1.667  -2.670  0.00  0.00     0.002 A 
ATOM      4  C4  I4B d   1      -1.842  -0.698  -2.659  0.00  0.00    -0.004 A 
ATOM      5  C5  I4B d   1      -0.986  -0.583  -1.567  0.00  0.00     0.002 A 
ATOM      6  C6  I4B d   1      -1.144  -1.428  -0.459  0.00  0.00     0.003 A 
ENDROOT
BRANCH   1   7
ATOM      7  C1' I4B d   1      -2.410  -3.226   0.750  0.00  0.00     0.060 C 
BRANCH   7   8
ATOM      8  C2' I4B d   1      -1.091  -3.388   1.478  0.00  0.00    -0.013 C 
ATOM      9  C4' I4B d   1      -1.216  -2.995   2.927  0.00  0.00     0.013 C 
ATOM     10  C3' I4B d   1      -0.658  -4.817   1.340  0.00  0.00     0.013 C 
ENDBRANCH   7   8
ENDBRANCH   1   7
TORSDOF 2
ENDMDL
