MODEL 1
REMARK minimizedAffinity -1.30997968
REMARK minimizedRMSD -1
REMARK  0 active torsions:
REMARK  status: ('A' for Active; 'I' for Inactive)
ROOT
ATOM      1  C4' PXY d   1      -5.171  -2.963  -0.760  0.00  0.00     0.077 C 
ATOM      2  C1' PXY d   1      -4.013  -6.000  -5.541  0.00  0.00     0.077 C 
ATOM      3  C1  PXY d   1      -4.311  -5.193  -4.293  0.00  0.00    -0.082 A 
ATOM      4  C2  PXY d   1      -4.444  -5.811  -3.130  0.00  0.00     0.003 A 
ATOM      5  C3  PXY d   1      -4.745  -5.100  -1.997  0.00  0.00     0.003 A 
ATOM      6  C4  PXY d   1      -4.860  -3.737  -2.045  0.00  0.00    -0.082 A 
ATOM      7  C5  PXY d   1      -4.716  -3.098  -3.225  0.00  0.00     0.003 A 
ATOM      8  C6  PXY d   1      -4.451  -3.842  -4.371  0.00  0.00     0.003 A 
ENDROOT
TORSDOF 0
ENDMDL
