MODEL 1
REMARK minimizedAffinity 2.84352541
REMARK minimizedRMSD -1
REMARK  0 active torsions:
REMARK  status: ('A' for Active; 'I' for Inactive)
ROOT
ATOM      1  C4' PXY d   1       2.155   1.606   2.689  0.00  0.00     0.077 C 
ATOM      2  C1' PXY d   1       0.539  -3.944   2.727  0.00  0.00     0.077 C 
ATOM      3  C1  PXY d   1       0.966  -2.490   2.705  0.00  0.00    -0.082 A 
ATOM      4  C2  PXY d   1       1.275  -1.881   3.838  0.00  0.00     0.003 A 
ATOM      5  C3  PXY d   1       1.633  -0.558   3.840  0.00  0.00     0.003 A 
ATOM      6  C4  PXY d   1       1.727   0.136   2.663  0.00  0.00    -0.082 A 
ATOM      7  C5  PXY d   1       1.424  -0.481   1.501  0.00  0.00     0.003 A 
ATOM      8  C6  PXY d   1       1.023  -1.813   1.525  0.00  0.00     0.003 A 
ENDROOT
TORSDOF 0
ENDMDL
