MODEL 1
REMARK minimizedAffinity 7.0692091
REMARK minimizedRMSD -1
REMARK  0 active torsions:
REMARK  status: ('A' for Active; 'I' for Inactive)
ROOT
ATOM      1  C4' PXY d   1       0.789  -3.928   1.504  0.00  0.00     0.077 C 
ATOM      2  C1' PXY d   1       1.803   1.494   3.232  0.00  0.00     0.077 C 
ATOM      3  C1  PXY d   1       1.539   0.068   2.791  0.00  0.00    -0.082 A 
ATOM      4  C2  PXY d   1       1.719  -0.269   1.524  0.00  0.00     0.003 A 
ATOM      5  C3  PXY d   1       1.455  -1.547   1.102  0.00  0.00     0.003 A 
ATOM      6  C4  PXY d   1       1.052  -2.503   1.996  0.00  0.00    -0.082 A 
ATOM      7  C5  PXY d   1       0.876  -2.169   3.292  0.00  0.00     0.003 A 
ATOM      8  C6  PXY d   1       1.111  -0.857   3.693  0.00  0.00     0.003 A 
ENDROOT
TORSDOF 0
ENDMDL
