MODEL 1
REMARK minimizedAffinity 6.58701754
REMARK minimizedRMSD -1
REMARK  0 active torsions:
REMARK  status: ('A' for Active; 'I' for Inactive)
ROOT
ATOM      1  C4' PXY d   1       0.375  -2.765   2.998  0.00  0.00     0.077 C 
ATOM      2  C1' PXY d   1       6.000  -3.450   4.141  0.00  0.00     0.077 C 
ATOM      3  C1  PXY d   1       4.522  -3.276   3.853  0.00  0.00    -0.082 A 
ATOM      4  C2  PXY d   1       4.104  -3.203   2.600  0.00  0.00     0.003 A 
ATOM      5  C3  PXY d   1       2.774  -3.013   2.322  0.00  0.00     0.003 A 
ATOM      6  C4  PXY d   1       1.857  -2.951   3.336  0.00  0.00    -0.082 A 
ATOM      7  C5  PXY d   1       2.274  -3.034   4.617  0.00  0.00     0.003 A 
ATOM      8  C6  PXY d   1       3.633  -3.186   4.879  0.00  0.00     0.003 A 
ENDROOT
TORSDOF 0
ENDMDL
