MODEL 1
REMARK minimizedAffinity 1.62717283
REMARK minimizedRMSD -1
REMARK  0 active torsions:
REMARK  status: ('A' for Active; 'I' for Inactive)
ROOT
ATOM      1  C4' PXY d   1      -5.999  -4.008  -5.999  0.00  0.00     0.077 C 
ATOM      2  C1' PXY d   1      -2.741  -5.999  -1.659  0.00  0.00     0.077 C 
ATOM      3  C1  PXY d   1      -3.605  -5.474  -2.789  0.00  0.00    -0.082 A 
ATOM      4  C2  PXY d   1      -3.390  -5.892  -4.026  0.00  0.00     0.003 A 
ATOM      5  C3  PXY d   1      -4.141  -5.403  -5.063  0.00  0.00     0.003 A 
ATOM      6  C4  PXY d   1      -5.158  -4.518  -4.826  0.00  0.00    -0.082 A 
ATOM      7  C5  PXY d   1      -5.391  -4.095  -3.565  0.00  0.00     0.003 A 
ATOM      8  C6  PXY d   1      -4.590  -4.572  -2.531  0.00  0.00     0.003 A 
ENDROOT
TORSDOF 0
ENDMDL
