MODEL 1
REMARK minimizedAffinity 1.58395791
REMARK minimizedRMSD -1
REMARK  0 active torsions:
REMARK  status: ('A' for Active; 'I' for Inactive)
ROOT
ATOM      1  C4' PXY d   1       1.175  -1.128   4.520  0.00  0.00     0.077 C 
ATOM      2  C1' PXY d   1       0.334  -4.374  -0.189  0.00  0.00     0.077 C 
ATOM      3  C1  PXY d   1       0.563  -3.515   1.039  0.00  0.00    -0.082 A 
ATOM      4  C2  PXY d   1       0.380  -4.033   2.243  0.00  0.00     0.003 A 
ATOM      5  C3  PXY d   1       0.552  -3.261   3.363  0.00  0.00     0.003 A 
ATOM      6  C4  PXY d   1       0.965  -1.960   3.252  0.00  0.00    -0.082 A 
ATOM      7  C5  PXY d   1       1.164  -1.428   2.028  0.00  0.00     0.003 A 
ATOM      8  C6  PXY d   1       0.945  -2.216   0.902  0.00  0.00     0.003 A 
ENDROOT
TORSDOF 0
ENDMDL
