MODEL 1
REMARK minimizedAffinity 2.913831
REMARK minimizedRMSD -1
REMARK  0 active torsions:
REMARK  status: ('A' for Active; 'I' for Inactive)
ROOT
ATOM      1  C4' PXY d   1      -5.275  -2.187  -1.693  0.00  0.00     0.077 C 
ATOM      2  C1' PXY d   1      -4.695  -5.999  -6.000  0.00  0.00     0.077 C 
ATOM      3  C1  PXY d   1      -4.859  -5.005  -4.868  0.00  0.00    -0.082 A 
ATOM      4  C2  PXY d   1      -4.184  -3.867  -4.894  0.00  0.00     0.003 A 
ATOM      5  C3  PXY d   1      -4.296  -2.970  -3.862  0.00  0.00     0.003 A 
ATOM      6  C4  PXY d   1      -5.148  -3.217  -2.819  0.00  0.00    -0.082 A 
ATOM      7  C5  PXY d   1      -5.848  -4.370  -2.791  0.00  0.00     0.003 A 
ATOM      8  C6  PXY d   1      -5.689  -5.286  -3.827  0.00  0.00     0.003 A 
ENDROOT
TORSDOF 0
ENDMDL
