MODEL 1
REMARK minimizedAffinity -1.1332109
REMARK minimizedRMSD -1
REMARK  0 active torsions:
REMARK  status: ('A' for Active; 'I' for Inactive)
ROOT
ATOM      1  C4' PXY d   1      -4.560  -4.032  -6.000  0.00  0.00     0.077 C 
ATOM      2  C1' PXY d   1      -5.530  -5.871  -0.606  0.00  0.00     0.077 C 
ATOM      3  C1  PXY d   1      -5.288  -5.383  -2.021  0.00  0.00    -0.082 A 
ATOM      4  C2  PXY d   1      -4.398  -6.000  -2.782  0.00  0.00     0.003 A 
ATOM      5  C3  PXY d   1      -4.143  -5.553  -4.053  0.00  0.00     0.003 A 
ATOM      6  C4  PXY d   1      -4.844  -4.496  -4.569  0.00  0.00    -0.082 A 
ATOM      7  C5  PXY d   1      -5.762  -3.868  -3.802  0.00  0.00     0.003 A 
ATOM      8  C6  PXY d   1      -5.976  -4.312  -2.501  0.00  0.00     0.003 A 
ENDROOT
TORSDOF 0
ENDMDL
