MODEL 1
REMARK minimizedAffinity 14.447403
REMARK minimizedRMSD -1
REMARK  0 active torsions:
REMARK  status: ('A' for Active; 'I' for Inactive)
ROOT
ATOM      1  C4' PXY d   1      -4.543  -5.802  -0.914  0.00  0.00     0.077 C 
ATOM      2  C1' PXY d   1      -5.728  -3.320  -5.998  0.00  0.00     0.077 C 
ATOM      3  C1  PXY d   1      -5.418  -3.959  -4.659  0.00  0.00    -0.082 A 
ATOM      4  C2  PXY d   1      -4.787  -5.121  -4.619  0.00  0.00     0.003 A 
ATOM      5  C3  PXY d   1      -4.527  -5.729  -3.418  0.00  0.00     0.003 A 
ATOM      6  C4  PXY d   1      -4.869  -5.115  -2.243  0.00  0.00    -0.082 A 
ATOM      7  C5  PXY d   1      -5.503  -3.924  -2.274  0.00  0.00     0.003 A 
ATOM      8  C6  PXY d   1      -5.795  -3.343  -3.505  0.00  0.00     0.003 A 
ENDROOT
TORSDOF 0
ENDMDL
