MODEL 1
REMARK minimizedAffinity 3.68281651
REMARK minimizedRMSD -1
REMARK  0 active torsions:
REMARK  status: ('A' for Active; 'I' for Inactive)
ROOT
ATOM      1  C4' PXY d   1      -4.487  -6.000  -6.000  0.00  0.00     0.077 C 
ATOM      2  C1' PXY d   1      -5.686  -2.884  -1.281  0.00  0.00     0.077 C 
ATOM      3  C1  PXY d   1      -5.377  -3.691  -2.526  0.00  0.00    -0.082 A 
ATOM      4  C2  PXY d   1      -5.239  -5.004  -2.436  0.00  0.00     0.003 A 
ATOM      5  C3  PXY d   1      -4.928  -5.746  -3.547  0.00  0.00     0.003 A 
ATOM      6  C4  PXY d   1      -4.809  -5.145  -4.771  0.00  0.00    -0.082 A 
ATOM      7  C5  PXY d   1      -4.959  -3.807  -4.872  0.00  0.00     0.003 A 
ATOM      8  C6  PXY d   1      -5.234  -3.067  -3.726  0.00  0.00     0.003 A 
ENDROOT
TORSDOF 0
ENDMDL
