MODEL 1
REMARK minimizedAffinity 10.0204191
REMARK minimizedRMSD -1
REMARK  0 active torsions:
REMARK  status: ('A' for Active; 'I' for Inactive)
ROOT
ATOM      1  C4' PXY d   1       4.983  -5.597  -0.460  0.00  0.00     0.077 C 
ATOM      2  C1' PXY d   1       3.282  -5.981  -5.971  0.00  0.00     0.077 C 
ATOM      3  C1  PXY d   1       3.739  -5.886  -4.529  0.00  0.00    -0.082 A 
ATOM      4  C2  PXY d   1       2.841  -5.861  -3.558  0.00  0.00     0.003 A 
ATOM      5  C3  PXY d   1       3.236  -5.743  -2.250  0.00  0.00     0.003 A 
ATOM      6  C4  PXY d   1       4.567  -5.702  -1.930  0.00  0.00    -0.082 A 
ATOM      7  C5  PXY d   1       5.490  -5.737  -2.914  0.00  0.00     0.003 A 
ATOM      8  C6  PXY d   1       5.067  -5.816  -4.238  0.00  0.00     0.003 A 
ENDROOT
TORSDOF 0
ENDMDL
