MODEL 1
REMARK minimizedAffinity -3.96340275
REMARK minimizedRMSD -1
REMARK  0 active torsions:
REMARK  status: ('A' for Active; 'I' for Inactive)
ROOT
ATOM      1  C   UNL d   1      -5.974  -0.763   2.086  0.00  0.00     0.078 C 
ATOM      2  C1  UNL d   1      -5.815  -1.377   3.445  0.00  0.00    -0.077 A 
ATOM      3  C2  UNL d   1      -5.803  -2.767   3.612  0.00  0.00    -0.001 A 
ATOM      4  C3  UNL d   1      -5.664  -3.325   4.884  0.00  0.00     0.003 A 
ATOM      5  C4  UNL d   1      -5.538  -2.499   5.999  0.00  0.00    -0.005 A 
ATOM      6  C5  UNL d   1      -5.551  -1.115   5.844  0.00  0.00     0.003 A 
ATOM      7  C6  UNL d   1      -5.690  -0.556   4.573  0.00  0.00    -0.001 A 
ENDROOT
TORSDOF 0
ENDMDL
