MODEL 1
REMARK minimizedAffinity 5.20008326
REMARK minimizedRMSD -1
REMARK  0 active torsions:
REMARK  status: ('A' for Active; 'I' for Inactive)
ROOT
ATOM      1  C   UNL d   1       0.454  -0.642   1.051  0.00  0.00     0.078 C 
ATOM      2  C1  UNL d   1      -0.575   0.090   0.241  0.00  0.00    -0.077 A 
ATOM      3  C2  UNL d   1      -1.828   0.404   0.782  0.00  0.00    -0.001 A 
ATOM      4  C3  UNL d   1      -2.779   1.077   0.013  0.00  0.00     0.003 A 
ATOM      5  C4  UNL d   1      -2.489   1.439  -1.300  0.00  0.00    -0.005 A 
ATOM      6  C5  UNL d   1      -1.245   1.129  -1.847  0.00  0.00     0.003 A 
ATOM      7  C6  UNL d   1      -0.293   0.456  -1.081  0.00  0.00    -0.001 A 
ENDROOT
TORSDOF 0
ENDMDL
