MODEL 1
REMARK minimizedAffinity -3.53499699
REMARK minimizedRMSD -1
REMARK  0 active torsions:
REMARK  status: ('A' for Active; 'I' for Inactive)
ROOT
ATOM      1  C   UNL d   1       0.705   1.484  -1.760  0.00  0.00     0.078 C 
ATOM      2  C1  UNL d   1       0.707   0.925  -0.369  0.00  0.00    -0.077 A 
ATOM      3  C2  UNL d   1      -0.030   1.534   0.655  0.00  0.00    -0.001 A 
ATOM      4  C3  UNL d   1      -0.010   1.008   1.947  0.00  0.00     0.003 A 
ATOM      5  C4  UNL d   1       0.745  -0.129   2.229  0.00  0.00    -0.005 A 
ATOM      6  C5  UNL d   1       1.483  -0.740   1.218  0.00  0.00     0.003 A 
ATOM      7  C6  UNL d   1       1.465  -0.216  -0.075  0.00  0.00    -0.001 A 
ENDROOT
TORSDOF 0
ENDMDL
