MODEL 1
REMARK minimizedAffinity 2.98037839
REMARK minimizedRMSD -1
REMARK  0 active torsions:
REMARK  status: ('A' for Active; 'I' for Inactive)
ROOT
ATOM      1  C   UNL d   1      -4.331   4.181  -2.874  0.00  0.00     0.078 C 
ATOM      2  C1  UNL d   1      -4.350   2.704  -2.617  0.00  0.00    -0.077 A 
ATOM      3  C2  UNL d   1      -4.964   2.178  -1.475  0.00  0.00    -0.001 A 
ATOM      4  C3  UNL d   1      -4.966   0.801  -1.244  0.00  0.00     0.003 A 
ATOM      5  C4  UNL d   1      -4.353  -0.061  -2.151  0.00  0.00    -0.005 A 
ATOM      6  C5  UNL d   1      -3.737   0.453  -3.290  0.00  0.00     0.003 A 
ATOM      7  C6  UNL d   1      -3.734   1.830  -3.522  0.00  0.00    -0.001 A 
ENDROOT
TORSDOF 0
ENDMDL
