MODEL 1
REMARK minimizedAffinity 1.17731583
REMARK minimizedRMSD -1
REMARK  0 active torsions:
REMARK  status: ('A' for Active; 'I' for Inactive)
ROOT
ATOM      1  C   UNL d   1       0.704   2.996   2.445  0.00  0.00     0.078 C 
ATOM      2  C1  UNL d   1       0.906   1.589   1.967  0.00  0.00    -0.077 A 
ATOM      3  C2  UNL d   1       0.456   1.185   0.704  0.00  0.00    -0.001 A 
ATOM      4  C3  UNL d   1       0.643  -0.130   0.276  0.00  0.00     0.003 A 
ATOM      5  C4  UNL d   1       1.279  -1.052   1.105  0.00  0.00    -0.005 A 
ATOM      6  C5  UNL d   1       1.729  -0.660   2.364  0.00  0.00     0.003 A 
ATOM      7  C6  UNL d   1       1.543   0.655   2.794  0.00  0.00    -0.001 A 
ENDROOT
TORSDOF 0
ENDMDL
