MODEL 1
REMARK minimizedAffinity -4.48146009
REMARK minimizedRMSD -1
REMARK  0 active torsions:
REMARK  status: ('A' for Active; 'I' for Inactive)
ROOT
ATOM      1  C   UNL d   1       1.253  -0.397   1.883  0.00  0.00     0.078 C 
ATOM      2  C1  UNL d   1       0.843   1.010   1.562  0.00  0.00    -0.077 A 
ATOM      3  C2  UNL d   1       0.497   1.380   0.257  0.00  0.00    -0.001 A 
ATOM      4  C3  UNL d   1       0.127   2.695  -0.030  0.00  0.00     0.003 A 
ATOM      5  C4  UNL d   1       0.101   3.651   0.984  0.00  0.00    -0.005 A 
ATOM      6  C5  UNL d   1       0.447   3.292   2.285  0.00  0.00     0.003 A 
ATOM      7  C6  UNL d   1       0.817   1.978   2.573  0.00  0.00    -0.001 A 
ENDROOT
TORSDOF 0
ENDMDL
