MODEL 1
REMARK minimizedAffinity -0.798965573
REMARK minimizedRMSD -1
REMARK  0 active torsions:
REMARK  status: ('A' for Active; 'I' for Inactive)
ROOT
ATOM      1  C   UNL d   1       0.299   0.963   0.759  0.00  0.00     0.078 C 
ATOM      2  C1  UNL d   1       0.716   2.398   0.882  0.00  0.00    -0.077 A 
ATOM      3  C2  UNL d   1       0.369   3.336  -0.098  0.00  0.00    -0.001 A 
ATOM      4  C3  UNL d   1       0.772   4.667   0.024  0.00  0.00     0.003 A 
ATOM      5  C4  UNL d   1       1.525   5.071   1.125  0.00  0.00    -0.005 A 
ATOM      6  C5  UNL d   1       1.877   4.145   2.104  0.00  0.00     0.003 A 
ATOM      7  C6  UNL d   1       1.475   2.814   1.983  0.00  0.00    -0.001 A 
ENDROOT
TORSDOF 0
ENDMDL
