MODEL 1
REMARK minimizedAffinity -2.62784672
REMARK minimizedRMSD -1
REMARK  0 active torsions:
REMARK  status: ('A' for Active; 'I' for Inactive)
ROOT
ATOM      1  C   UNL d   1       1.024   5.687   0.216  0.00  0.00     0.078 C 
ATOM      2  C1  UNL d   1       1.427   4.719   1.288  0.00  0.00    -0.077 A 
ATOM      3  C2  UNL d   1       2.462   5.023   2.182  0.00  0.00    -0.001 A 
ATOM      4  C3  UNL d   1       2.834   4.109   3.168  0.00  0.00     0.003 A 
ATOM      5  C4  UNL d   1       2.177   2.884   3.270  0.00  0.00    -0.005 A 
ATOM      6  C5  UNL d   1       1.148   2.572   2.384  0.00  0.00     0.003 A 
ATOM      7  C6  UNL d   1       0.775   3.485   1.397  0.00  0.00    -0.001 A 
ENDROOT
TORSDOF 0
ENDMDL
