MODEL 1
REMARK minimizedAffinity -1.72243452
REMARK minimizedRMSD -1
REMARK  0 active torsions:
REMARK  status: ('A' for Active; 'I' for Inactive)
ROOT
ATOM      1  C   UNL d   1      -0.008   1.912   2.437  0.00  0.00     0.078 C 
ATOM      2  C1  UNL d   1       0.262   1.028   1.256  0.00  0.00    -0.077 A 
ATOM      3  C2  UNL d   1       1.226   0.014   1.320  0.00  0.00    -0.001 A 
ATOM      4  C3  UNL d   1       1.473  -0.795   0.210  0.00  0.00     0.003 A 
ATOM      5  C4  UNL d   1       0.761  -0.599  -0.972  0.00  0.00    -0.005 A 
ATOM      6  C5  UNL d   1      -0.199   0.408  -1.045  0.00  0.00     0.003 A 
ATOM      7  C6  UNL d   1      -0.448   1.219   0.064  0.00  0.00    -0.001 A 
ENDROOT
TORSDOF 0
ENDMDL
