MODEL 1
REMARK minimizedAffinity -0.481104136
REMARK minimizedRMSD -1
REMARK  0 active torsions:
REMARK  status: ('A' for Active; 'I' for Inactive)
ROOT
ATOM      1  C   UNL d   1       1.568  -1.606   0.053  0.00  0.00     0.078 C 
ATOM      2  C1  UNL d   1       1.178  -0.282   0.639  0.00  0.00    -0.077 A 
ATOM      3  C2  UNL d   1       1.097  -0.103   2.026  0.00  0.00    -0.001 A 
ATOM      4  C3  UNL d   1       0.722   1.132   2.557  0.00  0.00     0.003 A 
ATOM      5  C4  UNL d   1       0.425   2.198   1.709  0.00  0.00    -0.005 A 
ATOM      6  C5  UNL d   1       0.500   2.028   0.328  0.00  0.00     0.003 A 
ATOM      7  C6  UNL d   1       0.874   0.794  -0.205  0.00  0.00    -0.001 A 
ENDROOT
TORSDOF 0
ENDMDL
