MODEL 1
REMARK minimizedAffinity 11.3573704
REMARK minimizedRMSD -1
REMARK  2 active torsions:
REMARK  status: ('A' for Active; 'I' for Inactive)
REMARK    1  A    between atoms: C1_2  and  C2_3 
REMARK    2  A    between atoms: C2_3  and  C3_4 
ROOT
ATOM      1  C3  UNL d   1       2.398   0.038  -1.075  0.00  0.00    -0.075 A 
ATOM      2  C4  UNL d   1       2.451  -0.527  -2.357  0.00  0.00     0.002 A 
ATOM      3  C5  UNL d   1       2.072  -1.855  -2.562  0.00  0.00     0.002 A 
ATOM      4  C6  UNL d   1       1.647  -2.635  -1.489  0.00  0.00    -0.004 A 
ATOM      5  C7  UNL d   1       1.606  -2.088  -0.208  0.00  0.00     0.002 A 
ATOM      6  C8  UNL d   1       1.980  -0.759  -0.001  0.00  0.00     0.002 A 
ENDROOT
BRANCH   1   7
ATOM      7  C2  UNL d   1       2.778   1.482  -0.851  0.00  0.00     0.056 C 
BRANCH   7   8
ATOM      8  C1  UNL d   1       4.045   1.916  -1.595  0.00  0.00     0.007 C 
ATOM      9  C   UNL d   1       5.203   2.249  -0.663  0.00  0.00     0.009 C 
ENDBRANCH   7   8
ENDBRANCH   1   7
TORSDOF 2
ENDMDL
