MODEL 1
REMARK minimizedAffinity 1.28104031
REMARK minimizedRMSD -1
REMARK  2 active torsions:
REMARK  status: ('A' for Active; 'I' for Inactive)
REMARK    1  A    between atoms: C1_2  and  C2_3 
REMARK    2  A    between atoms: C2_3  and  C3_4 
ROOT
ATOM      1  C3  UNL d   1      -3.653   3.558  -4.944  0.00  0.00    -0.075 A 
ATOM      2  C4  UNL d   1      -2.833   2.449  -5.199  0.00  0.00     0.002 A 
ATOM      3  C5  UNL d   1      -1.978   1.958  -4.213  0.00  0.00     0.002 A 
ATOM      4  C6  UNL d   1      -1.923   2.575  -2.964  0.00  0.00    -0.004 A 
ATOM      5  C7  UNL d   1      -2.721   3.687  -2.705  0.00  0.00     0.002 A 
ATOM      6  C8  UNL d   1      -3.581   4.178  -3.689  0.00  0.00     0.002 A 
ENDROOT
BRANCH   1   7
ATOM      7  C2  UNL d   1      -4.602   4.076  -5.998  0.00  0.00     0.056 C 
BRANCH   7   8
ATOM      8  C1  UNL d   1      -6.000   3.450  -5.940  0.00  0.00     0.007 C 
ATOM      9  C   UNL d   1      -5.974   1.940  -5.748  0.00  0.00     0.009 C 
ENDBRANCH   7   8
ENDBRANCH   1   7
TORSDOF 2
ENDMDL
