MODEL 1
REMARK minimizedAffinity -0.181173414
REMARK minimizedRMSD -1
REMARK  2 active torsions:
REMARK  status: ('A' for Active; 'I' for Inactive)
REMARK    1  A    between atoms: C1_2  and  C2_3 
REMARK    2  A    between atoms: C2_3  and  C3_4 
ROOT
ATOM      1  C3  UNL d   1      -4.514   1.467  -3.179  0.00  0.00    -0.075 A 
ATOM      2  C4  UNL d   1      -4.957   0.545  -4.138  0.00  0.00     0.002 A 
ATOM      3  C5  UNL d   1      -4.040  -0.197  -4.884  0.00  0.00     0.002 A 
ATOM      4  C6  UNL d   1      -2.673  -0.020  -4.688  0.00  0.00    -0.004 A 
ATOM      5  C7  UNL d   1      -2.221   0.905  -3.750  0.00  0.00     0.002 A 
ATOM      6  C8  UNL d   1      -3.136   1.646  -2.999  0.00  0.00     0.002 A 
ENDROOT
BRANCH   1   7
ATOM      7  C2  UNL d   1      -5.501   2.252  -2.348  0.00  0.00     0.056 C 
BRANCH   7   8
ATOM      8  C1  UNL d   1      -6.000   1.508  -1.105  0.00  0.00     0.007 C 
ATOM      9  C   UNL d   1      -5.069   0.388  -0.661  0.00  0.00     0.009 C 
ENDBRANCH   7   8
ENDBRANCH   1   7
TORSDOF 2
ENDMDL
