MODEL 1
REMARK minimizedAffinity 0.797062635
REMARK minimizedRMSD -1
REMARK  2 active torsions:
REMARK  status: ('A' for Active; 'I' for Inactive)
REMARK    1  A    between atoms: C1_2  and  C2_3 
REMARK    2  A    between atoms: C2_3  and  C3_4 
ROOT
ATOM      1  C3  UNL d   1      -3.432   1.245  -3.712  0.00  0.00    -0.075 A 
ATOM      2  C4  UNL d   1      -2.905   2.511  -3.415  0.00  0.00     0.002 A 
ATOM      3  C5  UNL d   1      -3.747   3.616  -3.286  0.00  0.00     0.002 A 
ATOM      4  C6  UNL d   1      -5.121   3.473  -3.463  0.00  0.00    -0.004 A 
ATOM      5  C7  UNL d   1      -5.654   2.224  -3.775  0.00  0.00     0.002 A 
ATOM      6  C8  UNL d   1      -4.814   1.115  -3.900  0.00  0.00     0.002 A 
ENDROOT
BRANCH   1   7
ATOM      7  C2  UNL d   1      -2.530   0.039  -3.823  0.00  0.00     0.056 C 
BRANCH   7   8
ATOM      8  C1  UNL d   1      -2.264  -0.666  -2.489  0.00  0.00     0.007 C 
ATOM      9  C   UNL d   1      -3.537  -1.116  -1.784  0.00  0.00     0.009 C 
ENDBRANCH   7   8
ENDBRANCH   1   7
TORSDOF 2
ENDMDL
