MODEL 1
REMARK minimizedAffinity 4.11272383
REMARK minimizedRMSD -1
REMARK  2 active torsions:
REMARK  status: ('A' for Active; 'I' for Inactive)
REMARK    1  A    between atoms: C1_2  and  C2_3 
REMARK    2  A    between atoms: C2_3  and  C3_4 
ROOT
ATOM      1  C3  UNL d   1       3.453   0.746  -0.353  0.00  0.00    -0.075 A 
ATOM      2  C4  UNL d   1       4.689   0.130  -0.107  0.00  0.00     0.002 A 
ATOM      3  C5  UNL d   1       5.852   0.893  -0.007  0.00  0.00     0.002 A 
ATOM      4  C6  UNL d   1       5.798   2.276  -0.162  0.00  0.00    -0.004 A 
ATOM      5  C7  UNL d   1       4.578   2.897  -0.424  0.00  0.00     0.002 A 
ATOM      6  C8  UNL d   1       3.411   2.136  -0.520  0.00  0.00     0.002 A 
ENDROOT
BRANCH   1   7
ATOM      7  C2  UNL d   1       2.185  -0.071  -0.433  0.00  0.00     0.056 C 
BRANCH   7   8
ATOM      8  C1  UNL d   1       2.412  -1.540  -0.804  0.00  0.00     0.007 C 
ATOM      9  C   UNL d   1       2.174  -2.496   0.357  0.00  0.00     0.009 C 
ENDBRANCH   7   8
ENDBRANCH   1   7
TORSDOF 2
ENDMDL
