MODEL 1
REMARK minimizedAffinity -0.722495437
REMARK minimizedRMSD -1
REMARK  2 active torsions:
REMARK  status: ('A' for Active; 'I' for Inactive)
REMARK    1  A    between atoms: C1_2  and  C2_3 
REMARK    2  A    between atoms: C2_3  and  C3_4 
ROOT
ATOM      1  C3  UNL d   1      -5.194   0.807  -3.089  0.00  0.00    -0.075 A 
ATOM      2  C4  UNL d   1      -5.204  -0.183  -2.096  0.00  0.00     0.002 A 
ATOM      3  C5  UNL d   1      -5.608   0.121  -0.796  0.00  0.00     0.002 A 
ATOM      4  C6  UNL d   1      -5.997   1.419  -0.470  0.00  0.00    -0.004 A 
ATOM      5  C7  UNL d   1      -5.975   2.414  -1.445  0.00  0.00     0.002 A 
ATOM      6  C8  UNL d   1      -5.576   2.111  -2.748  0.00  0.00     0.002 A 
ENDROOT
BRANCH   1   7
ATOM      7  C2  UNL d   1      -4.786   0.477  -4.505  0.00  0.00     0.056 C 
BRANCH   7   8
ATOM      8  C1  UNL d   1      -3.271   0.464  -4.731  0.00  0.00     0.007 C 
ATOM      9  C   UNL d   1      -2.472   0.404  -3.436  0.00  0.00     0.009 C 
ENDBRANCH   7   8
ENDBRANCH   1   7
TORSDOF 2
ENDMDL
