MODEL 1
REMARK minimizedAffinity 5.36838102
REMARK minimizedRMSD -1
REMARK  2 active torsions:
REMARK  status: ('A' for Active; 'I' for Inactive)
REMARK    1  A    between atoms: C1_2  and  C2_3 
REMARK    2  A    between atoms: C2_3  and  C3_4 
ROOT
ATOM      1  C3  UNL d   1      -3.613   1.143  -4.018  0.00  0.00    -0.075 A 
ATOM      2  C4  UNL d   1      -3.590   2.398  -3.392  0.00  0.00     0.002 A 
ATOM      3  C5  UNL d   1      -4.763   3.141  -3.251  0.00  0.00     0.002 A 
ATOM      4  C6  UNL d   1      -5.968   2.645  -3.742  0.00  0.00    -0.004 A 
ATOM      5  C7  UNL d   1      -6.000   1.406  -4.380  0.00  0.00     0.002 A 
ATOM      6  C8  UNL d   1      -4.829   0.659  -4.518  0.00  0.00     0.002 A 
ENDROOT
BRANCH   1   7
ATOM      7  C2  UNL d   1      -2.352   0.322  -4.147  0.00  0.00     0.056 C 
BRANCH   7   8
ATOM      8  C1  UNL d   1      -1.939  -0.393  -2.856  0.00  0.00     0.007 C 
ATOM      9  C   UNL d   1      -3.097  -1.097  -2.162  0.00  0.00     0.009 C 
ENDBRANCH   7   8
ENDBRANCH   1   7
TORSDOF 2
ENDMDL
