MODEL 1
REMARK minimizedAffinity -5.08753252
REMARK minimizedRMSD -1
REMARK  0 active torsions:
REMARK  status: ('A' for Active; 'I' for Inactive)
ROOT
ATOM      1  C   UNL d   1      -0.142   1.075   3.670  0.00  0.00    -0.002 A 
ATOM      2  C1  UNL d   1       1.173   0.662   3.506  0.00  0.00     0.010 A 
ATOM      3  C2  UNL d   1       1.579   0.039   2.324  0.00  0.00     0.041 A 
ATOM      4  C3  UNL d   1       0.633  -0.164   1.300  0.00  0.00    -0.075 A 
ATOM      5  S   UNL d   1       0.903  -0.905  -0.233  0.00  0.00     0.015 SA
ATOM      6  C4  UNL d   1      -0.720  -0.691  -0.706  0.00  0.00     0.022 A 
ATOM      7  C5  UNL d   1      -1.464  -0.071   0.270  0.00  0.00     0.026 A 
ATOM      8  C6  UNL d   1      -0.696   0.244   1.442  0.00  0.00    -0.082 A 
ATOM      9  C7  UNL d   1      -1.077   0.873   2.652  0.00  0.00     0.045 A 
ENDROOT
TORSDOF 0
ENDMDL
