MODEL 1
REMARK minimizedAffinity -3.60532093
REMARK minimizedRMSD -1
REMARK  0 active torsions:
REMARK  status: ('A' for Active; 'I' for Inactive)
ROOT
ATOM      1  C   UNL d   1      -0.472   1.158   2.673  0.00  0.00    -0.002 A 
ATOM      2  C1  UNL d   1       0.715   0.581   3.104  0.00  0.00     0.010 A 
ATOM      3  C2  UNL d   1       1.471  -0.216   2.243  0.00  0.00     0.041 A 
ATOM      4  C3  UNL d   1       1.010  -0.425   0.928  0.00  0.00    -0.075 A 
ATOM      5  S   UNL d   1       1.770  -1.364  -0.303  0.00  0.00     0.015 SA
ATOM      6  C4  UNL d   1       0.539  -1.021  -1.430  0.00  0.00     0.022 A 
ATOM      7  C5  UNL d   1      -0.437  -0.212  -0.897  0.00  0.00     0.026 A 
ATOM      8  C6  UNL d   1      -0.181   0.145   0.470  0.00  0.00    -0.082 A 
ATOM      9  C7  UNL d   1      -0.925   0.948   1.368  0.00  0.00     0.045 A 
ENDROOT
TORSDOF 0
ENDMDL
