MODEL 1
REMARK minimizedAffinity -2.68086076
REMARK minimizedRMSD -1
REMARK  0 active torsions:
REMARK  status: ('A' for Active; 'I' for Inactive)
ROOT
ATOM      1  C   UNL d   1       2.165  -0.051   2.122  0.00  0.00    -0.002 A 
ATOM      2  C1  UNL d   1       0.991   0.617   2.443  0.00  0.00     0.010 A 
ATOM      3  C2  UNL d   1      -0.081   0.638   1.549  0.00  0.00     0.041 A 
ATOM      4  C3  UNL d   1       0.047  -0.031   0.315  0.00  0.00    -0.075 A 
ATOM      5  S   UNL d   1      -1.135  -0.141  -0.935  0.00  0.00     0.015 SA
ATOM      6  C4  UNL d   1      -0.110  -1.077  -1.924  0.00  0.00     0.022 A 
ATOM      7  C5  UNL d   1       1.108  -1.309  -1.331  0.00  0.00     0.026 A 
ATOM      8  C6  UNL d   1       1.218  -0.711  -0.030  0.00  0.00    -0.082 A 
ATOM      9  C7  UNL d   1       2.288  -0.713   0.898  0.00  0.00     0.045 A 
ENDROOT
TORSDOF 0
ENDMDL
