MODEL 1
REMARK minimizedAffinity 0.281313181
REMARK minimizedRMSD -1
REMARK  0 active torsions:
REMARK  status: ('A' for Active; 'I' for Inactive)
ROOT
ATOM      1  C   UNL d   1      -2.564   0.947   1.038  0.00  0.00    -0.002 A 
ATOM      2  C1  UNL d   1      -1.830   1.169   2.195  0.00  0.00     0.010 A 
ATOM      3  C2  UNL d   1      -0.507   0.734   2.290  0.00  0.00     0.041 A 
ATOM      4  C3  UNL d   1       0.073   0.068   1.193  0.00  0.00    -0.075 A 
ATOM      5  S   UNL d   1       1.678  -0.552   1.083  0.00  0.00     0.015 SA
ATOM      6  C4  UNL d   1       1.428  -1.125  -0.503  0.00  0.00     0.022 A 
ATOM      7  C5  UNL d   1       0.157  -0.858  -0.953  0.00  0.00     0.026 A 
ATOM      8  C6  UNL d   1      -0.645  -0.165   0.016  0.00  0.00    -0.082 A 
ATOM      9  C7  UNL d   1      -1.985   0.287  -0.049  0.00  0.00     0.045 A 
ENDROOT
TORSDOF 0
ENDMDL
