MODEL 1
REMARK minimizedAffinity 0.11443051
REMARK minimizedRMSD -1
REMARK  0 active torsions:
REMARK  status: ('A' for Active; 'I' for Inactive)
ROOT
ATOM      1  C   UNL d   1      -1.611   0.922   2.387  0.00  0.00    -0.002 A 
ATOM      2  C1  UNL d   1      -0.413   1.604   2.544  0.00  0.00     0.010 A 
ATOM      3  C2  UNL d   1       0.592   1.506   1.580  0.00  0.00     0.041 A 
ATOM      4  C3  UNL d   1       0.369   0.703   0.444  0.00  0.00    -0.075 A 
ATOM      5  S   UNL d   1       1.456   0.433  -0.867  0.00  0.00     0.015 SA
ATOM      6  C4  UNL d   1       0.356  -0.594  -1.666  0.00  0.00     0.022 A 
ATOM      7  C5  UNL d   1      -0.817  -0.739  -0.964  0.00  0.00     0.026 A 
ATOM      8  C6  UNL d   1      -0.829   0.007   0.263  0.00  0.00    -0.082 A 
ATOM      9  C7  UNL d   1      -1.828   0.127   1.259  0.00  0.00     0.045 A 
ENDROOT
TORSDOF 0
ENDMDL
