MODEL 1
REMARK minimizedAffinity 0.33224389
REMARK minimizedRMSD -1
REMARK  0 active torsions:
REMARK  status: ('A' for Active; 'I' for Inactive)
ROOT
ATOM      1  C   UNL d   1      -2.017  -0.007   0.243  0.00  0.00    -0.002 A 
ATOM      2  C1  UNL d   1      -1.936   0.462   1.546  0.00  0.00     0.010 A 
ATOM      3  C2  UNL d   1      -0.711   0.487   2.217  0.00  0.00     0.041 A 
ATOM      4  C3  UNL d   1       0.442   0.032   1.548  0.00  0.00    -0.075 A 
ATOM      5  S   UNL d   1       2.049  -0.029   2.170  0.00  0.00     0.015 SA
ATOM      6  C4  UNL d   1       2.665  -0.677   0.720  0.00  0.00     0.022 A 
ATOM      7  C5  UNL d   1       1.683  -0.850  -0.227  0.00  0.00     0.026 A 
ATOM      8  C6  UNL d   1       0.385  -0.444   0.235  0.00  0.00    -0.082 A 
ATOM      9  C7  UNL d   1      -0.871  -0.458  -0.417  0.00  0.00     0.045 A 
ENDROOT
TORSDOF 0
ENDMDL
