MODEL 1
REMARK minimizedAffinity -5.52141809
REMARK minimizedRMSD -1
REMARK  1 active torsions:
REMARK  status: ('A' for Active; 'I' for Inactive)
REMARK    1  A    between atoms: C1_2  and  C2_3 
ROOT
ATOM      1  C2  UNL d   1       0.129   0.632  -0.378  0.00  0.00    -0.081 A 
ATOM      2  C3  UNL d   1       1.116   1.475   0.146  0.00  0.00     0.006 A 
ATOM      3  C4  UNL d   1       2.337   0.952   0.579  0.00  0.00     0.002 A 
ATOM      4  C5  UNL d   1       2.594  -0.420   0.488  0.00  0.00    -0.080 A 
ATOM      5  C6  UNL d   1       3.911  -0.991   0.922  0.00  0.00     0.076 C 
ATOM      6  C7  UNL d   1       1.600  -1.265  -0.019  0.00  0.00     0.002 A 
ATOM      7  C8  UNL d   1       0.379  -0.743  -0.451  0.00  0.00     0.006 A 
ENDROOT
BRANCH   1   8
ATOM      8  C1  UNL d   1      -1.164   1.200  -0.906  0.00  0.00     0.054 C 
ATOM      9  C   UNL d   1      -2.306   0.983   0.077  0.00  0.00     0.018 C 
ENDBRANCH   1   8
TORSDOF 1
ENDMDL
