MODEL 1
REMARK minimizedAffinity -5.23676825
REMARK minimizedRMSD -1
REMARK  1 active torsions:
REMARK  status: ('A' for Active; 'I' for Inactive)
REMARK    1  A    between atoms: C1_2  and  C2_3 
ROOT
ATOM      1  C2  UNL d   1      -1.174   0.442  -0.160  0.00  0.00    -0.081 A 
ATOM      2  C3  UNL d   1      -0.345   1.531   0.138  0.00  0.00     0.006 A 
ATOM      3  C4  UNL d   1       1.039   1.364   0.228  0.00  0.00     0.002 A 
ATOM      4  C5  UNL d   1       1.617   0.108   0.014  0.00  0.00    -0.080 A 
ATOM      5  C6  UNL d   1       3.104  -0.078   0.078  0.00  0.00     0.076 C 
ATOM      6  C7  UNL d   1       0.788  -0.983  -0.266  0.00  0.00     0.002 A 
ATOM      7  C8  UNL d   1      -0.595  -0.817  -0.356  0.00  0.00     0.006 A 
ENDROOT
BRANCH   1   8
ATOM      8  C1  UNL d   1      -2.660   0.632  -0.322  0.00  0.00     0.054 C 
ATOM      9  C   UNL d   1      -3.308   1.066   0.985  0.00  0.00     0.018 C 
ENDBRANCH   1   8
TORSDOF 1
ENDMDL
