MODEL 1
REMARK minimizedAffinity -3.84348488
REMARK minimizedRMSD -1
REMARK  1 active torsions:
REMARK  status: ('A' for Active; 'I' for Inactive)
REMARK    1  A    between atoms: C1_2  and  C2_3 
ROOT
ATOM      1  C2  UNL d   1      -0.217   0.111  -0.122  0.00  0.00    -0.081 A 
ATOM      2  C3  UNL d   1       0.193  -1.210   0.099  0.00  0.00     0.006 A 
ATOM      3  C4  UNL d   1       1.539  -1.504   0.333  0.00  0.00     0.002 A 
ATOM      4  C5  UNL d   1       2.495  -0.483   0.358  0.00  0.00    -0.080 A 
ATOM      5  C6  UNL d   1       3.938  -0.781   0.638  0.00  0.00     0.076 C 
ATOM      6  C7  UNL d   1       2.088   0.834   0.119  0.00  0.00     0.002 A 
ATOM      7  C8  UNL d   1       0.743   1.129  -0.115  0.00  0.00     0.006 A 
ENDROOT
BRANCH   1   8
ATOM      8  C1  UNL d   1      -1.676   0.439  -0.311  0.00  0.00     0.054 C 
ATOM      9  C   UNL d   1      -2.445   0.309   0.996  0.00  0.00     0.018 C 
ENDBRANCH   1   8
TORSDOF 1
ENDMDL
