MODEL 1
REMARK minimizedAffinity -5.10527992
REMARK minimizedRMSD -1
REMARK  1 active torsions:
REMARK  status: ('A' for Active; 'I' for Inactive)
REMARK    1  A    between atoms: C1_2  and  C2_3 
ROOT
ATOM      1  C2  UNL d   1      -0.027  -0.004  -0.242  0.00  0.00    -0.081 A 
ATOM      2  C3  UNL d   1       0.514  -1.261  -0.539  0.00  0.00     0.006 A 
ATOM      3  C4  UNL d   1       1.835  -1.561  -0.198  0.00  0.00     0.002 A 
ATOM      4  C5  UNL d   1       2.633  -0.614   0.452  0.00  0.00    -0.080 A 
ATOM      5  C6  UNL d   1       4.043  -0.935   0.851  0.00  0.00     0.076 C 
ATOM      6  C7  UNL d   1       2.098   0.647   0.733  0.00  0.00     0.002 A 
ATOM      7  C8  UNL d   1       0.778   0.949   0.392  0.00  0.00     0.006 A 
ENDROOT
BRANCH   1   8
ATOM      8  C1  UNL d   1      -1.471   0.301  -0.550  0.00  0.00     0.054 C 
ATOM      9  C   UNL d   1      -2.285   0.469   0.725  0.00  0.00     0.018 C 
ENDBRANCH   1   8
TORSDOF 1
ENDMDL
