MODEL 1
REMARK minimizedAffinity 0.955707014
REMARK minimizedRMSD -1
REMARK  1 active torsions:
REMARK  status: ('A' for Active; 'I' for Inactive)
REMARK    1  A    between atoms: C1_2  and  C2_3 
ROOT
ATOM      1  C2  UNL d   1      -0.227   0.578  -0.262  0.00  0.00    -0.081 A 
ATOM      2  C3  UNL d   1       0.721   1.580  -0.020  0.00  0.00     0.006 A 
ATOM      3  C4  UNL d   1       2.076   1.260   0.092  0.00  0.00     0.002 A 
ATOM      4  C5  UNL d   1       2.507  -0.064  -0.042  0.00  0.00    -0.080 A 
ATOM      5  C6  UNL d   1       3.962  -0.416   0.047  0.00  0.00     0.076 C 
ATOM      6  C7  UNL d   1       1.558  -1.067  -0.265  0.00  0.00     0.002 A 
ATOM      7  C8  UNL d   1       0.203  -0.748  -0.378  0.00  0.00     0.006 A 
ENDROOT
BRANCH   1   8
ATOM      8  C1  UNL d   1      -1.681   0.928  -0.448  0.00  0.00     0.054 C 
ATOM      9  C   UNL d   1      -2.540   0.332   0.658  0.00  0.00     0.018 C 
ENDBRANCH   1   8
TORSDOF 1
ENDMDL
