MODEL 1
REMARK minimizedAffinity -4.41459703
REMARK minimizedRMSD -1
REMARK  0 active torsions:
REMARK  status: ('A' for Active; 'I' for Inactive)
ROOT
ATOM      1  C   UNL d   1      -0.704   3.366   0.408  0.00  0.00     0.023 A 
ATOM      2  C1  UNL d   1       0.262   3.037  -0.542  0.00  0.00     0.003 A 
ATOM      3  C2  UNL d   1       0.534   1.698  -0.829  0.00  0.00     0.048 A 
ATOM      4  C3  UNL d   1      -0.165   0.692  -0.162  0.00  0.00     0.023 A 
ATOM      5  C4  UNL d   1      -1.133   1.017   0.789  0.00  0.00     0.048 A 
ATOM      6  C5  UNL d   1      -1.401   2.357   1.073  0.00  0.00     0.003 A 
ATOM      7  I   UNL d   1       0.238  -1.302  -0.587  0.00  0.00    -0.146 I 
ENDROOT
TORSDOF 0
ENDMDL
