MODEL 1
REMARK minimizedAffinity 0.146812275
REMARK minimizedRMSD -1
REMARK  0 active torsions:
REMARK  status: ('A' for Active; 'I' for Inactive)
ROOT
ATOM      1  C   UNL d   1      -0.090  -0.708  -0.373  0.00  0.00     0.023 A 
ATOM      2  C1  UNL d   1      -1.146  -0.717   0.538  0.00  0.00     0.003 A 
ATOM      3  C2  UNL d   1      -1.412   0.415   1.312  0.00  0.00     0.048 A 
ATOM      4  C3  UNL d   1      -0.618   1.552   1.169  0.00  0.00     0.023 A 
ATOM      5  C4  UNL d   1       0.439   1.566   0.258  0.00  0.00     0.048 A 
ATOM      6  C5  UNL d   1       0.702   0.432  -0.512  0.00  0.00     0.003 A 
ATOM      7  I   UNL d   1      -1.012   3.238   2.320  0.00  0.00    -0.146 I 
ENDROOT
TORSDOF 0
ENDMDL
