MODEL 1
REMARK minimizedAffinity -2.74110198
REMARK minimizedRMSD -1
REMARK  0 active torsions:
REMARK  status: ('A' for Active; 'I' for Inactive)
ROOT
ATOM      1  C   UNL d   1       0.021   2.967   0.552  0.00  0.00     0.023 A 
ATOM      2  C1  UNL d   1       1.191   2.315   0.163  0.00  0.00     0.003 A 
ATOM      3  C2  UNL d   1       1.200   0.926   0.013  0.00  0.00     0.048 A 
ATOM      4  C3  UNL d   1       0.037   0.197   0.254  0.00  0.00     0.023 A 
ATOM      5  C4  UNL d   1      -1.136   0.846   0.642  0.00  0.00     0.048 A 
ATOM      6  C5  UNL d   1      -1.141   2.234   0.791  0.00  0.00     0.003 A 
ATOM      7  I   UNL d   1       0.049  -1.870   0.032  0.00  0.00    -0.146 I 
ENDROOT
TORSDOF 0
ENDMDL
