MODEL 1
REMARK minimizedAffinity -4.25432253
REMARK minimizedRMSD -1
REMARK  0 active torsions:
REMARK  status: ('A' for Active; 'I' for Inactive)
ROOT
ATOM      1  C   UNL d   1      -0.561   2.591   0.532  0.00  0.00     0.023 A 
ATOM      2  C1  UNL d   1       0.461   2.139  -0.304  0.00  0.00     0.003 A 
ATOM      3  C2  UNL d   1       0.592   0.775  -0.573  0.00  0.00     0.048 A 
ATOM      4  C3  UNL d   1      -0.302  -0.132  -0.004  0.00  0.00     0.023 A 
ATOM      5  C4  UNL d   1      -1.326   0.316   0.832  0.00  0.00     0.048 A 
ATOM      6  C5  UNL d   1      -1.453   1.680   1.099  0.00  0.00     0.003 A 
ATOM      7  I   UNL d   1      -0.108  -2.162  -0.404  0.00  0.00    -0.146 I 
ENDROOT
TORSDOF 0
ENDMDL
