MODEL 1
REMARK minimizedAffinity -3.5872221
REMARK minimizedRMSD -1
REMARK  0 active torsions:
REMARK  status: ('A' for Active; 'I' for Inactive)
ROOT
ATOM      1  C   UNL d   1       0.368  -1.981  -1.759  0.00  0.00     0.023 A 
ATOM      2  C1  UNL d   1       0.020  -2.048  -0.409  0.00  0.00     0.003 A 
ATOM      3  C2  UNL d   1      -1.060  -2.833  -0.003  0.00  0.00     0.048 A 
ATOM      4  C3  UNL d   1      -1.788  -3.551  -0.952  0.00  0.00     0.023 A 
ATOM      5  C4  UNL d   1      -1.443  -3.489  -2.303  0.00  0.00     0.048 A 
ATOM      6  C5  UNL d   1      -0.363  -2.701  -2.704  0.00  0.00     0.003 A 
ATOM      7  I   UNL d   1      -3.397  -4.722  -0.350  0.00  0.00    -0.146 I 
ENDROOT
TORSDOF 0
ENDMDL
