MODEL 1
REMARK minimizedAffinity -3.23378396
REMARK minimizedRMSD -1
REMARK  0 active torsions:
REMARK  status: ('A' for Active; 'I' for Inactive)
ROOT
ATOM      1  C   UNL d   1       1.429  -0.483   0.642  0.00  0.00     0.023 A 
ATOM      2  C1  UNL d   1       0.726   0.151  -0.382  0.00  0.00     0.003 A 
ATOM      3  C2  UNL d   1      -0.015  -0.605  -1.293  0.00  0.00     0.048 A 
ATOM      4  C3  UNL d   1      -0.049  -1.994  -1.174  0.00  0.00     0.023 A 
ATOM      5  C4  UNL d   1       0.653  -2.632  -0.150  0.00  0.00     0.048 A 
ATOM      6  C5  UNL d   1       1.393  -1.873   0.758  0.00  0.00     0.003 A 
ATOM      7  I   UNL d   1      -1.151  -3.120  -2.529  0.00  0.00    -0.146 I 
ENDROOT
TORSDOF 0
ENDMDL
