MODEL 1
REMARK minimizedAffinity -2.71153116
REMARK minimizedRMSD -1
REMARK  0 active torsions:
REMARK  status: ('A' for Active; 'I' for Inactive)
ROOT
ATOM      1  C   UNL d   1      -0.248   2.445   0.325  0.00  0.00     0.023 A 
ATOM      2  C1  UNL d   1      -1.199   1.591   0.883  0.00  0.00     0.003 A 
ATOM      3  C2  UNL d   1      -1.147   0.220   0.621  0.00  0.00     0.048 A 
ATOM      4  C3  UNL d   1      -0.141  -0.290  -0.199  0.00  0.00     0.023 A 
ATOM      5  C4  UNL d   1       0.813   0.561  -0.759  0.00  0.00     0.048 A 
ATOM      6  C5  UNL d   1       0.757   1.931  -0.495  0.00  0.00     0.003 A 
ATOM      7  I   UNL d   1      -0.062  -2.329  -0.590  0.00  0.00    -0.146 I 
ENDROOT
TORSDOF 0
ENDMDL
