MODEL 1
REMARK minimizedAffinity -2.87402487
REMARK minimizedRMSD -1
REMARK  0 active torsions:
REMARK  status: ('A' for Active; 'I' for Inactive)
ROOT
ATOM      1  C   UNL d   1      -0.326  -3.892  -2.185  0.00  0.00     0.023 A 
ATOM      2  C1  UNL d   1       0.342  -2.718  -2.533  0.00  0.00     0.003 A 
ATOM      3  C2  UNL d   1       0.221  -1.580  -1.732  0.00  0.00     0.048 A 
ATOM      4  C3  UNL d   1      -0.570  -1.624  -0.584  0.00  0.00     0.023 A 
ATOM      5  C4  UNL d   1      -1.240  -2.796  -0.232  0.00  0.00     0.048 A 
ATOM      6  C5  UNL d   1      -1.117  -3.931  -1.036  0.00  0.00     0.003 A 
ATOM      7  I   UNL d   1      -0.752   0.068   0.609  0.00  0.00    -0.146 I 
ENDROOT
TORSDOF 0
ENDMDL
