MODEL 1
REMARK minimizedAffinity -3.82758522
REMARK minimizedRMSD -1
REMARK  0 active torsions:
REMARK  status: ('A' for Active; 'I' for Inactive)
ROOT
ATOM      1  C   UNL d   1      -0.356   2.609   0.368  0.00  0.00     0.023 A 
ATOM      2  C1  UNL d   1       0.909   2.021   0.356  0.00  0.00     0.003 A 
ATOM      3  C2  UNL d   1       1.048   0.668   0.039  0.00  0.00     0.048 A 
ATOM      4  C3  UNL d   1      -0.082  -0.091  -0.265  0.00  0.00     0.023 A 
ATOM      5  C4  UNL d   1      -1.349   0.494  -0.254  0.00  0.00     0.048 A 
ATOM      6  C5  UNL d   1      -1.484   1.846   0.064  0.00  0.00     0.003 A 
ATOM      7  I   UNL d   1       0.123  -2.104  -0.737  0.00  0.00    -0.146 I 
ENDROOT
TORSDOF 0
ENDMDL
