MODEL 1
REMARK minimizedAffinity -1.86734104
REMARK minimizedRMSD -1
REMARK  0 active torsions:
REMARK  status: ('A' for Active; 'I' for Inactive)
ROOT
ATOM      1  C   UNL d   1       0.524  -3.558  -1.637  0.00  0.00     0.023 A 
ATOM      2  C1  UNL d   1      -0.506  -2.786  -2.174  0.00  0.00     0.003 A 
ATOM      3  C2  UNL d   1      -0.915  -1.618  -1.528  0.00  0.00     0.048 A 
ATOM      4  C3  UNL d   1      -0.289  -1.227  -0.345  0.00  0.00     0.023 A 
ATOM      5  C4  UNL d   1       0.744  -1.995   0.195  0.00  0.00     0.048 A 
ATOM      6  C5  UNL d   1       1.149  -3.163  -0.454  0.00  0.00     0.003 A 
ATOM      7  I   UNL d   1      -0.895   0.512   0.618  0.00  0.00    -0.146 I 
ENDROOT
TORSDOF 0
ENDMDL
