MODEL 1
REMARK minimizedAffinity -1.67594612
REMARK minimizedRMSD -1
REMARK  0 active torsions:
REMARK  status: ('A' for Active; 'I' for Inactive)
ROOT
ATOM      1  C   UNL d   1       2.134   2.257  -0.333  0.00  0.00     0.023 A 
ATOM      2  C1  UNL d   1       0.780   2.223  -0.665  0.00  0.00     0.003 A 
ATOM      3  C2  UNL d   1       0.076   1.018  -0.612  0.00  0.00     0.048 A 
ATOM      4  C3  UNL d   1       0.734  -0.150  -0.226  0.00  0.00     0.023 A 
ATOM      5  C4  UNL d   1       2.089  -0.121   0.108  0.00  0.00     0.048 A 
ATOM      6  C5  UNL d   1       2.788   1.086   0.053  0.00  0.00     0.003 A 
ATOM      7  I   UNL d   1      -0.311  -1.945  -0.147  0.00  0.00    -0.146 I 
ENDROOT
TORSDOF 0
ENDMDL
