MODEL 1
REMARK minimizedAffinity -2.92776132
REMARK minimizedRMSD -1
REMARK  0 active torsions:
REMARK  status: ('A' for Active; 'I' for Inactive)
ROOT
ATOM      1  C   UNL d   1       0.061   3.215   0.076  0.00  0.00     0.023 A 
ATOM      2  C1  UNL d   1       0.779   2.545  -0.914  0.00  0.00     0.003 A 
ATOM      3  C2  UNL d   1       0.685   1.157  -1.029  0.00  0.00     0.048 A 
ATOM      4  C3  UNL d   1      -0.131   0.444  -0.151  0.00  0.00     0.023 A 
ATOM      5  C4  UNL d   1      -0.852   1.110   0.841  0.00  0.00     0.048 A 
ATOM      6  C5  UNL d   1      -0.754   2.498   0.953  0.00  0.00     0.003 A 
ATOM      7  I   UNL d   1      -0.273  -1.622  -0.320  0.00  0.00    -0.146 I 
ENDROOT
TORSDOF 0
ENDMDL
