MODEL 1
REMARK minimizedAffinity 13.5272264
REMARK minimizedRMSD -1
REMARK  0 active torsions:
REMARK  status: ('A' for Active; 'I' for Inactive)
ROOT
ATOM      1  O1  BZF d   1      -0.589   5.161  -3.375  0.00  0.00    -0.204 OA
ATOM      2  C2  BZF d   1      -1.965   5.282  -3.400  0.00  0.00     0.174 A 
ATOM      3  C3  BZF d   1      -2.521   4.646  -2.349  0.00  0.00    -0.012 A 
ATOM      4  C3A BZF d   1      -1.418   4.170  -1.571  0.00  0.00    -0.107 A 
ATOM      5  C4  BZF d   1      -1.327   3.476  -0.399  0.00  0.00     0.055 A 
ATOM      6  C5  BZF d   1      -0.101   3.104   0.054  0.00  0.00    -0.016 A 
ATOM      7  C6  BZF d   1       1.053   3.406  -0.640  0.00  0.00     0.022 A 
ATOM      8  C7  BZF d   1       1.012   4.097  -1.805  0.00  0.00     0.029 A 
ATOM      9  C7A BZF d   1      -0.223   4.503  -2.249  0.00  0.00     0.058 A 
ENDROOT
TORSDOF 0
ENDMDL
