MODEL 1
REMARK minimizedAffinity 8.37462616
REMARK minimizedRMSD -1
REMARK  0 active torsions:
REMARK  status: ('A' for Active; 'I' for Inactive)
ROOT
ATOM      1  O1  BZF d   1       2.761   2.854   0.371  0.00  0.00    -0.204 OA
ATOM      2  C2  BZF d   1       2.407   2.082   1.460  0.00  0.00     0.174 A 
ATOM      3  C3  BZF d   1       1.069   2.079   1.631  0.00  0.00    -0.012 A 
ATOM      4  C3A BZF d   1       0.548   2.826   0.528  0.00  0.00    -0.107 A 
ATOM      5  C4  BZF d   1      -0.717   3.161   0.135  0.00  0.00     0.055 A 
ATOM      6  C5  BZF d   1      -0.880   3.963  -0.950  0.00  0.00    -0.016 A 
ATOM      7  C6  BZF d   1       0.196   4.451  -1.661  0.00  0.00     0.022 A 
ATOM      8  C7  BZF d   1       1.469   4.143  -1.312  0.00  0.00     0.029 A 
ATOM      9  C7A BZF d   1       1.637   3.306  -0.236  0.00  0.00     0.058 A 
ENDROOT
TORSDOF 0
ENDMDL
