MODEL 1
REMARK minimizedAffinity 15.0169668
REMARK minimizedRMSD -1
REMARK  0 active torsions:
REMARK  status: ('A' for Active; 'I' for Inactive)
ROOT
ATOM      1  O1  BZF d   1       0.910   2.680  -1.238  0.00  0.00    -0.204 OA
ATOM      2  C2  BZF d   1      -0.006   1.748  -0.790  0.00  0.00     0.174 A 
ATOM      3  C3  BZF d   1      -1.248   2.273  -0.761  0.00  0.00    -0.012 A 
ATOM      4  C3A BZF d   1      -1.113   3.588  -1.308  0.00  0.00    -0.107 A 
ATOM      5  C4  BZF d   1      -1.999   4.598  -1.555  0.00  0.00     0.055 A 
ATOM      6  C5  BZF d   1      -1.535   5.784  -2.026  0.00  0.00    -0.016 A 
ATOM      7  C6  BZF d   1      -0.191   5.998  -2.256  0.00  0.00     0.022 A 
ATOM      8  C7  BZF d   1       0.725   5.025  -2.031  0.00  0.00     0.029 A 
ATOM      9  C7A BZF d   1       0.255   3.814  -1.586  0.00  0.00     0.058 A 
ENDROOT
TORSDOF 0
ENDMDL
