MODEL 1
REMARK minimizedAffinity 7.92994928
REMARK minimizedRMSD -1
REMARK  0 active torsions:
REMARK  status: ('A' for Active; 'I' for Inactive)
ROOT
ATOM      1  O1  BZF d   1      -2.631   5.399  -2.088  0.00  0.00    -0.204 OA
ATOM      2  C2  BZF d   1      -3.829   5.253  -2.760  0.00  0.00     0.174 A 
ATOM      3  C3  BZF d   1      -4.869   5.318  -1.904  0.00  0.00    -0.012 A 
ATOM      4  C3A BZF d   1      -4.289   5.609  -0.629  0.00  0.00    -0.107 A 
ATOM      5  C4  BZF d   1      -4.812   5.809   0.617  0.00  0.00     0.055 A 
ATOM      6  C5  BZF d   1      -3.968   6.000   1.664  0.00  0.00    -0.016 A 
ATOM      7  C6  BZF d   1      -2.598   5.992   1.504  0.00  0.00     0.022 A 
ATOM      8  C7  BZF d   1      -2.032   5.803   0.287  0.00  0.00     0.029 A 
ATOM      9  C7A BZF d   1      -2.883   5.642  -0.780  0.00  0.00     0.058 A 
ENDROOT
TORSDOF 0
ENDMDL
