MODEL 1
REMARK minimizedAffinity 9.51364422
REMARK minimizedRMSD -1
REMARK  0 active torsions:
REMARK  status: ('A' for Active; 'I' for Inactive)
ROOT
ATOM      1  O1  BZF d   1      -0.517  -2.346  -0.538  0.00  0.00    -0.204 OA
ATOM      2  C2  BZF d   1       0.754  -2.860  -0.711  0.00  0.00     0.174 A 
ATOM      3  C3  BZF d   1       1.675  -1.875  -0.693  0.00  0.00    -0.012 A 
ATOM      4  C3A BZF d   1       0.943  -0.680  -0.404  0.00  0.00    -0.107 A 
ATOM      5  C4  BZF d   1       1.305   0.626  -0.240  0.00  0.00     0.055 A 
ATOM      6  C5  BZF d   1       0.338   1.559  -0.038  0.00  0.00    -0.016 A 
ATOM      7  C6  BZF d   1      -0.999   1.223   0.001  0.00  0.00     0.022 A 
ATOM      8  C7  BZF d   1      -1.407  -0.061  -0.151  0.00  0.00     0.029 A 
ATOM      9  C7A BZF d   1      -0.430  -1.011  -0.323  0.00  0.00     0.058 A 
ENDROOT
TORSDOF 0
ENDMDL
