MODEL 1
REMARK minimizedAffinity 8.73291016
REMARK minimizedRMSD -1
REMARK  0 active torsions:
REMARK  status: ('A' for Active; 'I' for Inactive)
ROOT
ATOM      1  O1  BZF d   1      -0.380   3.412   1.139  0.00  0.00    -0.204 OA
ATOM      2  C2  BZF d   1      -1.108   3.651  -0.011  0.00  0.00     0.174 A 
ATOM      3  C3  BZF d   1      -0.681   2.864  -1.020  0.00  0.00    -0.012 A 
ATOM      4  C3A BZF d   1       0.318   2.019  -0.441  0.00  0.00    -0.107 A 
ATOM      5  C4  BZF d   1       1.100   1.015  -0.936  0.00  0.00     0.055 A 
ATOM      6  C5  BZF d   1       2.029   0.441  -0.126  0.00  0.00    -0.016 A 
ATOM      7  C6  BZF d   1       2.205   0.849   1.180  0.00  0.00     0.022 A 
ATOM      8  C7  BZF d   1       1.450   1.838   1.717  0.00  0.00     0.029 A 
ATOM      9  C7A BZF d   1       0.488   2.398   0.911  0.00  0.00     0.058 A 
ENDROOT
TORSDOF 0
ENDMDL
