MODEL 1
REMARK minimizedAffinity 11.0675926
REMARK minimizedRMSD -1
REMARK  0 active torsions:
REMARK  status: ('A' for Active; 'I' for Inactive)
ROOT
ATOM      1  O1  BZF d   1       1.840   4.010  -0.900  0.00  0.00    -0.204 OA
ATOM      2  C2  BZF d   1       1.358   5.124  -1.561  0.00  0.00     0.174 A 
ATOM      3  C3  BZF d   1       0.013   5.180  -1.486  0.00  0.00    -0.012 A 
ATOM      4  C3A BZF d   1      -0.364   4.080  -0.654  0.00  0.00    -0.107 A 
ATOM      5  C4  BZF d   1      -1.565   3.617  -0.196  0.00  0.00     0.055 A 
ATOM      6  C5  BZF d   1      -1.596   2.475   0.539  0.00  0.00    -0.016 A 
ATOM      7  C6  BZF d   1      -0.448   1.767   0.830  0.00  0.00     0.022 A 
ATOM      8  C7  BZF d   1       0.767   2.190   0.403  0.00  0.00     0.029 A 
ATOM      9  C7A BZF d   1       0.805   3.362  -0.313  0.00  0.00     0.058 A 
ENDROOT
TORSDOF 0
ENDMDL
