MODEL 1
REMARK minimizedAffinity -3.88347268
REMARK minimizedRMSD -1
REMARK  0 active torsions:
REMARK  status: ('A' for Active; 'I' for Inactive)
ROOT
ATOM      1  C1  DEN d   1      -0.692  -0.633  -1.260  0.00  0.00     0.130 A 
ATOM      2  C2  DEN d   1       0.656  -0.575  -1.820  0.00  0.00    -0.031 A 
ATOM      3  C3  DEN d   1       1.545   0.031  -0.809  0.00  0.00     0.027 A 
ATOM      4  C4  DEN d   1       0.971   0.876   1.559  0.00  0.00     0.027 A 
ATOM      5  C5  DEN d   1      -0.044   1.048   2.474  0.00  0.00    -0.003 A 
ATOM      6  C6  DEN d   1      -1.341   0.705   2.199  0.00  0.00     0.001 A 
ATOM      7  C7  DEN d   1      -1.651   0.131   0.994  0.00  0.00     0.017 A 
ATOM      8  C8  DEN d   1      -0.634  -0.038   0.063  0.00  0.00    -0.094 A 
ATOM      9  C9  DEN d   1       0.673   0.303   0.365  0.00  0.00    -0.072 A 
ENDROOT
TORSDOF 0
ENDMDL
