MODEL 1
REMARK minimizedAffinity -5.55471373
REMARK minimizedRMSD -1
REMARK  0 active torsions:
REMARK  status: ('A' for Active; 'I' for Inactive)
ROOT
ATOM      1  C1  DEN d   1      -0.817  -0.436  -0.648  0.00  0.00     0.130 A 
ATOM      2  C2  DEN d   1       0.492  -0.913  -1.086  0.00  0.00    -0.031 A 
ATOM      3  C3  DEN d   1       1.495  -0.462  -0.100  0.00  0.00     0.027 A 
ATOM      4  C4  DEN d   1       1.149   0.915   2.054  0.00  0.00     0.027 A 
ATOM      5  C5  DEN d   1       0.216   1.558   2.837  0.00  0.00    -0.003 A 
ATOM      6  C6  DEN d   1      -1.110   1.610   2.499  0.00  0.00     0.001 A 
ATOM      7  C7  DEN d   1      -1.548   0.969   1.370  0.00  0.00     0.017 A 
ATOM      8  C8  DEN d   1      -0.613   0.325   0.571  0.00  0.00    -0.094 A 
ATOM      9  C9  DEN d   1       0.722   0.273   0.937  0.00  0.00    -0.072 A 
ENDROOT
TORSDOF 0
ENDMDL
