MODEL 1
REMARK minimizedAffinity -1.98722017
REMARK minimizedRMSD -1
REMARK  0 active torsions:
REMARK  status: ('A' for Active; 'I' for Inactive)
ROOT
ATOM      1  C1  DEN d   1       1.164   0.480  -0.037  0.00  0.00     0.130 A 
ATOM      2  C2  DEN d   1      -0.086  -0.078   0.472  0.00  0.00    -0.031 A 
ATOM      3  C3  DEN d   1      -0.887  -0.532  -0.682  0.00  0.00     0.027 A 
ATOM      4  C4  DEN d   1      -0.314  -0.430  -3.195  0.00  0.00     0.027 A 
ATOM      5  C5  DEN d   1       0.629  -0.032  -4.116  0.00  0.00    -0.003 A 
ATOM      6  C6  DEN d   1       1.793   0.590  -3.747  0.00  0.00     0.001 A 
ATOM      7  C7  DEN d   1       2.063   0.792  -2.420  0.00  0.00     0.017 A 
ATOM      8  C8  DEN d   1       1.113   0.400  -1.485  0.00  0.00    -0.094 A 
ATOM      9  C9  DEN d   1      -0.051  -0.239  -1.877  0.00  0.00    -0.072 A 
ENDROOT
TORSDOF 0
ENDMDL
