MODEL 1
REMARK minimizedAffinity -4.02019405
REMARK minimizedRMSD -1
REMARK  0 active torsions:
REMARK  status: ('A' for Active; 'I' for Inactive)
ROOT
ATOM      1  C1  DEN d   1      -1.080  -0.670  -0.344  0.00  0.00     0.130 A 
ATOM      2  C2  DEN d   1       0.252  -0.830  -0.923  0.00  0.00    -0.031 A 
ATOM      3  C3  DEN d   1       1.226  -0.204  -0.006  0.00  0.00     0.027 A 
ATOM      4  C4  DEN d   1       0.805   0.985   2.243  0.00  0.00     0.027 A 
ATOM      5  C5  DEN d   1      -0.163   1.379   3.141  0.00  0.00    -0.003 A 
ATOM      6  C6  DEN d   1      -1.496   1.149   2.926  0.00  0.00     0.001 A 
ATOM      7  C7  DEN d   1      -1.895   0.467   1.806  0.00  0.00     0.017 A 
ATOM      8  C8  DEN d   1      -0.926   0.074   0.893  0.00  0.00    -0.094 A 
ATOM      9  C9  DEN d   1       0.418   0.305   1.135  0.00  0.00    -0.072 A 
ENDROOT
TORSDOF 0
ENDMDL
