MODEL 1
REMARK minimizedAffinity -2.27884698
REMARK minimizedRMSD -1
REMARK  0 active torsions:
REMARK  status: ('A' for Active; 'I' for Inactive)
ROOT
ATOM      1  C   UNL d   1       0.459  -2.245   0.327  0.00  0.00    -0.002 A 
ATOM      2  C1  UNL d   1       1.523  -2.244  -0.564  0.00  0.00     0.010 A 
ATOM      3  C2  UNL d   1       1.719  -1.170  -1.434  0.00  0.00     0.041 A 
ATOM      4  C3  UNL d   1       0.820  -0.086  -1.392  0.00  0.00    -0.075 A 
ATOM      5  S   UNL d   1       0.864   1.339  -2.362  0.00  0.00     0.015 SA
ATOM      6  C4  UNL d   1      -0.528   1.979  -1.617  0.00  0.00     0.022 A 
ATOM      7  C5  UNL d   1      -1.027   1.140  -0.649  0.00  0.00     0.026 A 
ATOM      8  C6  UNL d   1      -0.258  -0.064  -0.503  0.00  0.00    -0.082 A 
ATOM      9  C7  UNL d   1      -0.431  -1.168   0.366  0.00  0.00     0.045 A 
ENDROOT
TORSDOF 0
ENDMDL
