MODEL 1
REMARK minimizedAffinity 1.11573327
REMARK minimizedRMSD -1
REMARK  0 active torsions:
REMARK  status: ('A' for Active; 'I' for Inactive)
ROOT
ATOM      1  C   UNL d   1       0.899  -2.172   0.259  0.00  0.00    -0.002 A 
ATOM      2  C1  UNL d   1       0.005  -1.387   0.973  0.00  0.00     0.010 A 
ATOM      3  C2  UNL d   1      -0.325  -0.104   0.531  0.00  0.00     0.041 A 
ATOM      4  C3  UNL d   1       0.263   0.380  -0.655  0.00  0.00    -0.075 A 
ATOM      5  S   UNL d   1       0.008   1.919  -1.388  0.00  0.00     0.015 SA
ATOM      6  C4  UNL d   1       1.078   1.570  -2.668  0.00  0.00     0.022 A 
ATOM      7  C5  UNL d   1       1.626   0.314  -2.554  0.00  0.00     0.026 A 
ATOM      8  C6  UNL d   1       1.165  -0.392  -1.392  0.00  0.00    -0.082 A 
ATOM      9  C7  UNL d   1       1.480  -1.688  -0.916  0.00  0.00     0.045 A 
ENDROOT
TORSDOF 0
ENDMDL
