MODEL 1
REMARK minimizedAffinity -3.04166698
REMARK minimizedRMSD -1
REMARK  0 active torsions:
REMARK  status: ('A' for Active; 'I' for Inactive)
ROOT
ATOM      1  C   UNL d   1       3.091   0.029  -2.188  0.00  0.00    -0.002 A 
ATOM      2  C1  UNL d   1       2.809   1.308  -1.731  0.00  0.00     0.010 A 
ATOM      3  C2  UNL d   1       1.732   1.534  -0.871  0.00  0.00     0.041 A 
ATOM      4  C3  UNL d   1       0.936   0.441  -0.474  0.00  0.00    -0.075 A 
ATOM      5  S   UNL d   1      -0.433   0.478   0.572  0.00  0.00     0.015 SA
ATOM      6  C4  UNL d   1      -0.676  -1.204   0.437  0.00  0.00     0.022 A 
ATOM      7  C5  UNL d   1       0.256  -1.795  -0.383  0.00  0.00     0.026 A 
ATOM      8  C6  UNL d   1       1.201  -0.857  -0.921  0.00  0.00    -0.082 A 
ATOM      9  C7  UNL d   1       2.300  -1.053  -1.792  0.00  0.00     0.045 A 
ENDROOT
TORSDOF 0
ENDMDL
