MODEL 1
REMARK minimizedAffinity -3.2951498
REMARK minimizedRMSD -1
REMARK  0 active torsions:
REMARK  status: ('A' for Active; 'I' for Inactive)
ROOT
ATOM      1  C   UNL d   1      -0.301  -0.664   0.595  0.00  0.00    -0.002 A 
ATOM      2  C1  UNL d   1      -0.616   0.600   0.114  0.00  0.00     0.010 A 
ATOM      3  C2  UNL d   1       0.073   1.138  -0.974  0.00  0.00     0.041 A 
ATOM      4  C3  UNL d   1       1.093   0.377  -1.578  0.00  0.00    -0.075 A 
ATOM      5  S   UNL d   1       2.071   0.832  -2.923  0.00  0.00     0.015 SA
ATOM      6  C4  UNL d   1       2.930  -0.640  -2.892  0.00  0.00     0.022 A 
ATOM      7  C5  UNL d   1       2.494  -1.470  -1.887  0.00  0.00     0.026 A 
ATOM      8  C6  UNL d   1       1.428  -0.897  -1.113  0.00  0.00    -0.082 A 
ATOM      9  C7  UNL d   1       0.711  -1.415  -0.007  0.00  0.00     0.045 A 
ENDROOT
TORSDOF 0
ENDMDL
