MODEL 1
REMARK minimizedAffinity -1.04219747
REMARK minimizedRMSD -1
REMARK  0 active torsions:
REMARK  status: ('A' for Active; 'I' for Inactive)
ROOT
ATOM      1  C   UNL d   1       0.569   1.876  -2.439  0.00  0.00    -0.002 A 
ATOM      2  C1  UNL d   1      -0.409   2.138  -1.490  0.00  0.00     0.010 A 
ATOM      3  C2  UNL d   1      -0.753   1.175  -0.539  0.00  0.00     0.041 A 
ATOM      4  C3  UNL d   1      -0.089  -0.068  -0.558  0.00  0.00    -0.075 A 
ATOM      5  S   UNL d   1      -0.344  -1.399   0.509  0.00  0.00     0.015 SA
ATOM      6  C4  UNL d   1       0.839  -2.346  -0.270  0.00  0.00     0.022 A 
ATOM      7  C5  UNL d   1       1.424  -1.679  -1.321  0.00  0.00     0.026 A 
ATOM      8  C6  UNL d   1       0.899  -0.355  -1.503  0.00  0.00    -0.082 A 
ATOM      9  C7  UNL d   1       1.225   0.642  -2.454  0.00  0.00     0.045 A 
ENDROOT
TORSDOF 0
ENDMDL
