MODEL 1
REMARK minimizedAffinity 14.5841665
REMARK minimizedRMSD -1
REMARK  0 active torsions:
REMARK  status: ('A' for Active; 'I' for Inactive)
ROOT
ATOM      1  C   UNL d   1      -4.266  -2.456   4.567  0.00  0.00    -0.002 A 
ATOM      2  C1  UNL d   1      -4.461  -2.479   3.194  0.00  0.00     0.010 A 
ATOM      3  C2  UNL d   1      -3.832  -1.543   2.371  0.00  0.00     0.041 A 
ATOM      4  C3  UNL d   1      -2.993  -0.575   2.958  0.00  0.00    -0.075 A 
ATOM      5  S   UNL d   1      -2.118   0.670   2.148  0.00  0.00     0.015 SA
ATOM      6  C4  UNL d   1      -1.462   1.261   3.606  0.00  0.00     0.022 A 
ATOM      7  C5  UNL d   1      -1.891   0.538   4.694  0.00  0.00     0.026 A 
ATOM      8  C6  UNL d   1      -2.779  -0.532   4.338  0.00  0.00    -0.082 A 
ATOM      9  C7  UNL d   1      -3.433  -1.495   5.146  0.00  0.00     0.045 A 
ENDROOT
TORSDOF 0
ENDMDL
