MODEL 1
REMARK minimizedAffinity -1.63551295
REMARK minimizedRMSD -1
REMARK  0 active torsions:
REMARK  status: ('A' for Active; 'I' for Inactive)
ROOT
ATOM      1  C   UNL d   1       2.450  -1.755  -0.822  0.00  0.00    -0.002 A 
ATOM      2  C1  UNL d   1       1.719  -2.520   0.077  0.00  0.00     0.010 A 
ATOM      3  C2  UNL d   1       0.492  -2.065   0.563  0.00  0.00     0.041 A 
ATOM      4  C3  UNL d   1       0.006  -0.817   0.126  0.00  0.00    -0.075 A 
ATOM      5  S   UNL d   1      -1.472  -0.058   0.586  0.00  0.00     0.015 SA
ATOM      6  C4  UNL d   1      -1.169   1.299  -0.400  0.00  0.00     0.022 A 
ATOM      7  C5  UNL d   1       0.026   1.192  -1.071  0.00  0.00     0.026 A 
ATOM      8  C6  UNL d   1       0.723  -0.029  -0.779  0.00  0.00    -0.082 A 
ATOM      9  C7  UNL d   1       1.964  -0.518  -1.253  0.00  0.00     0.045 A 
ENDROOT
TORSDOF 0
ENDMDL
