MODEL 1
REMARK minimizedAffinity -1.3342402
REMARK minimizedRMSD -1
REMARK  0 active torsions:
REMARK  status: ('A' for Active; 'I' for Inactive)
ROOT
ATOM      1  C   UNL d   1       0.379  -1.975   0.003  0.00  0.00    -0.002 A 
ATOM      2  C1  UNL d   1       1.487  -1.891  -0.828  0.00  0.00     0.010 A 
ATOM      3  C2  UNL d   1       1.748  -0.723  -1.548  0.00  0.00     0.041 A 
ATOM      4  C3  UNL d   1       0.869   0.370  -1.415  0.00  0.00    -0.075 A 
ATOM      5  S   UNL d   1       0.988   1.901  -2.199  0.00  0.00     0.015 SA
ATOM      6  C4  UNL d   1      -0.428   2.479  -1.448  0.00  0.00     0.022 A 
ATOM      7  C5  UNL d   1      -0.992   1.540  -0.617  0.00  0.00     0.026 A 
ATOM      8  C6  UNL d   1      -0.253   0.309  -0.584  0.00  0.00    -0.082 A 
ATOM      9  C7  UNL d   1      -0.491  -0.889   0.132  0.00  0.00     0.045 A 
ENDROOT
TORSDOF 0
ENDMDL
