MODEL 1
REMARK minimizedAffinity -2.33263016
REMARK minimizedRMSD -1
REMARK  0 active torsions:
REMARK  status: ('A' for Active; 'I' for Inactive)
ROOT
ATOM      1  C   UNL d   1      -1.390   1.133  -0.079  0.00  0.00    -0.002 A 
ATOM      2  C1  UNL d   1      -1.039  -0.016   0.614  0.00  0.00     0.010 A 
ATOM      3  C2  UNL d   1      -0.040  -0.862   0.128  0.00  0.00     0.041 A 
ATOM      4  C3  UNL d   1       0.608  -0.528  -1.078  0.00  0.00    -0.075 A 
ATOM      5  S   UNL d   1       1.861  -1.413  -1.864  0.00  0.00     0.015 SA
ATOM      6  C4  UNL d   1       1.960  -0.285  -3.138  0.00  0.00     0.022 A 
ATOM      7  C5  UNL d   1       1.066   0.747  -2.984  0.00  0.00     0.026 A 
ATOM      8  C6  UNL d   1       0.272   0.625  -1.794  0.00  0.00    -0.082 A 
ATOM      9  C7  UNL d   1      -0.746   1.461  -1.275  0.00  0.00     0.045 A 
ENDROOT
TORSDOF 0
ENDMDL
