MODEL 1
REMARK minimizedAffinity -4.8207078
REMARK minimizedRMSD -1
REMARK  0 active torsions:
REMARK  status: ('A' for Active; 'I' for Inactive)
ROOT
ATOM      1  C   UNL d   1      -1.231  -0.045   0.733  0.00  0.00    -0.002 A 
ATOM      2  C1  UNL d   1      -1.385   1.226   0.197  0.00  0.00     0.010 A 
ATOM      3  C2  UNL d   1      -0.563   1.661  -0.845  0.00  0.00     0.041 A 
ATOM      4  C3  UNL d   1       0.423   0.788  -1.345  0.00  0.00    -0.075 A 
ATOM      5  S   UNL d   1       1.542   1.105  -2.618  0.00  0.00     0.015 SA
ATOM      6  C4  UNL d   1       2.249  -0.440  -2.480  0.00  0.00     0.022 A 
ATOM      7  C5  UNL d   1       1.659  -1.192  -1.493  0.00  0.00     0.026 A 
ATOM      8  C6  UNL d   1       0.596  -0.497  -0.822  0.00  0.00    -0.082 A 
ATOM      9  C7  UNL d   1      -0.252  -0.908   0.234  0.00  0.00     0.045 A 
ENDROOT
TORSDOF 0
ENDMDL
