MODEL 1
REMARK minimizedAffinity -1.95780003
REMARK minimizedRMSD -1
REMARK  0 active torsions:
REMARK  status: ('A' for Active; 'I' for Inactive)
ROOT
ATOM      1  C   UNL d   1       3.085   0.257  -1.781  0.00  0.00    -0.002 A 
ATOM      2  C1  UNL d   1       2.286   1.380  -1.945  0.00  0.00     0.010 A 
ATOM      3  C2  UNL d   1       0.995   1.417  -1.414  0.00  0.00     0.041 A 
ATOM      4  C3  UNL d   1       0.516   0.297  -0.708  0.00  0.00    -0.075 A 
ATOM      5  S   UNL d   1      -1.032   0.116   0.029  0.00  0.00     0.015 SA
ATOM      6  C4  UNL d   1      -0.669  -1.455   0.580  0.00  0.00     0.022 A 
ATOM      7  C5  UNL d   1       0.598  -1.849   0.218  0.00  0.00     0.026 A 
ATOM      8  C6  UNL d   1       1.302  -0.846  -0.529  0.00  0.00    -0.082 A 
ATOM      9  C7  UNL d   1       2.606  -0.853  -1.080  0.00  0.00     0.045 A 
ENDROOT
TORSDOF 0
ENDMDL
