MODEL 1
REMARK minimizedAffinity -4.41880703
REMARK minimizedRMSD -1
REMARK  0 active torsions:
REMARK  status: ('A' for Active; 'I' for Inactive)
ROOT
ATOM      1  C   UNL d   1       3.267   0.701  -1.990  0.00  0.00    -0.002 A 
ATOM      2  C1  UNL d   1       2.453   1.819  -2.105  0.00  0.00     0.010 A 
ATOM      3  C2  UNL d   1       1.180   1.833  -1.531  0.00  0.00     0.041 A 
ATOM      4  C3  UNL d   1       0.736   0.694  -0.831  0.00  0.00    -0.075 A 
ATOM      5  S   UNL d   1      -0.784   0.485  -0.045  0.00  0.00     0.015 SA
ATOM      6  C4  UNL d   1      -0.389  -1.093   0.462  0.00  0.00     0.022 A 
ATOM      7  C5  UNL d   1       0.868  -1.467   0.051  0.00  0.00     0.026 A 
ATOM      8  C6  UNL d   1       1.537  -0.443  -0.701  0.00  0.00    -0.082 A 
ATOM      9  C7  UNL d   1       2.822  -0.427  -1.295  0.00  0.00     0.045 A 
ENDROOT
TORSDOF 0
ENDMDL
