MODEL 1
REMARK minimizedAffinity -2.5312593
REMARK minimizedRMSD -1
REMARK  0 active torsions:
REMARK  status: ('A' for Active; 'I' for Inactive)
ROOT
ATOM      1  C   UNL d   1       3.356   0.940  -4.099  0.00  0.00    -0.002 A 
ATOM      2  C1  UNL d   1       3.697  -0.347  -3.705  0.00  0.00     0.010 A 
ATOM      3  C2  UNL d   1       3.100  -0.928  -2.584  0.00  0.00     0.041 A 
ATOM      4  C3  UNL d   1       2.145  -0.187  -1.860  0.00  0.00    -0.075 A 
ATOM      5  S   UNL d   1       1.284  -0.695  -0.455  0.00  0.00     0.015 SA
ATOM      6  C4  UNL d   1       0.443   0.784  -0.345  0.00  0.00     0.022 A 
ATOM      7  C5  UNL d   1       0.799   1.655  -1.347  0.00  0.00     0.026 A 
ATOM      8  C6  UNL d   1       1.785   1.110  -2.237  0.00  0.00    -0.082 A 
ATOM      9  C7  UNL d   1       2.409   1.671  -3.378  0.00  0.00     0.045 A 
ENDROOT
TORSDOF 0
ENDMDL
