MODEL 1
REMARK minimizedAffinity -0.324367046
REMARK minimizedRMSD -1
REMARK  0 active torsions:
REMARK  status: ('A' for Active; 'I' for Inactive)
ROOT
ATOM      1  C   UNL d   1       5.996  -2.423   1.581  0.00  0.00     0.124 A 
ATOM      2  C1  UNL d   1       5.993  -1.943   2.883  0.00  0.00     0.062 A 
ATOM      3  C2  UNL d   1       5.989  -2.829   3.956  0.00  0.00     0.162 A 
ATOM      4  C3  UNL d   1       5.989  -4.205   3.732  0.00  0.00    -0.034 A 
ATOM      5  C4  UNL d   1       5.991  -4.682   2.420  0.00  0.00     0.162 A 
ATOM      6  C5  UNL d   1       5.995  -3.792   1.351  0.00  0.00     0.062 A 
ATOM      7  F   UNL d   1       5.998  -4.258   0.093  0.00  0.00    -0.097 F 
ATOM      8  F1  UNL d   1       5.991  -5.999   2.169  0.00  0.00    -0.096 F 
ATOM      9  I   UNL d   1       5.984  -5.534   5.335  0.00  0.00    -0.060 I 
ATOM     10  F2  UNL d   1       5.986  -2.336   5.204  0.00  0.00    -0.096 F 
ATOM     11  F3  UNL d   1       5.993  -0.621   3.108  0.00  0.00    -0.097 F 
ATOM     12  F4  UNL d   1       5.998  -1.569   0.550  0.00  0.00    -0.092 F 
ENDROOT
TORSDOF 0
ENDMDL
