MODEL 1
REMARK minimizedAffinity 6.9616828
REMARK minimizedRMSD -1
REMARK  0 active torsions:
REMARK  status: ('A' for Active; 'I' for Inactive)
ROOT
ATOM      1  C   UNL d   1       2.427  -3.191  -2.248  0.00  0.00     0.124 A 
ATOM      2  C1  UNL d   1       3.730  -3.192  -1.770  0.00  0.00     0.062 A 
ATOM      3  C2  UNL d   1       4.750  -3.773  -2.519  0.00  0.00     0.162 A 
ATOM      4  C3  UNL d   1       4.471  -4.358  -3.754  0.00  0.00    -0.034 A 
ATOM      5  C4  UNL d   1       3.157  -4.354  -4.227  0.00  0.00     0.162 A 
ATOM      6  C5  UNL d   1       2.142  -3.772  -3.476  0.00  0.00     0.062 A 
ATOM      7  F   UNL d   1       0.883  -3.773  -3.939  0.00  0.00    -0.097 F 
ATOM      8  F1  UNL d   1       2.854  -4.907  -5.411  0.00  0.00    -0.096 F 
ATOM      9  I   UNL d   1       5.993  -5.227  -4.876  0.00  0.00    -0.060 I 
ATOM     10  F2  UNL d   1       6.000  -3.759  -2.032  0.00  0.00    -0.096 F 
ATOM     11  F3  UNL d   1       4.008  -2.632  -0.584  0.00  0.00    -0.097 F 
ATOM     12  F4  UNL d   1       1.448  -2.633  -1.525  0.00  0.00    -0.092 F 
ENDROOT
TORSDOF 0
ENDMDL
