MODEL 1
REMARK minimizedAffinity 7.09695435
REMARK minimizedRMSD -1
REMARK  0 active torsions:
REMARK  status: ('A' for Active; 'I' for Inactive)
ROOT
ATOM      1  C   UNL d   1       5.020  -3.738  -3.952  0.00  0.00     0.124 A 
ATOM      2  C1  UNL d   1       5.443  -4.883  -3.291  0.00  0.00     0.062 A 
ATOM      3  C2  UNL d   1       5.589  -4.879  -1.907  0.00  0.00     0.162 A 
ATOM      4  C3  UNL d   1       5.312  -3.725  -1.174  0.00  0.00    -0.034 A 
ATOM      5  C4  UNL d   1       4.887  -2.577  -1.845  0.00  0.00     0.162 A 
ATOM      6  C5  UNL d   1       4.743  -2.587  -3.229  0.00  0.00     0.062 A 
ATOM      7  F   UNL d   1       4.334  -1.480  -3.865  0.00  0.00    -0.097 F 
ATOM      8  F1  UNL d   1       4.612  -1.451  -1.171  0.00  0.00    -0.096 F 
ATOM      9  I   UNL d   1       5.529  -3.715   0.896  0.00  0.00    -0.060 I 
ATOM     10  F2  UNL d   1       6.000  -6.000  -1.295  0.00  0.00    -0.096 F 
ATOM     11  F3  UNL d   1       5.712  -5.997  -3.988  0.00  0.00    -0.097 F 
ATOM     12  F4  UNL d   1       4.881  -3.745  -5.284  0.00  0.00    -0.092 F 
ENDROOT
TORSDOF 0
ENDMDL
