MODEL 1
REMARK minimizedAffinity 2.41662669
REMARK minimizedRMSD -1
REMARK  0 active torsions:
REMARK  status: ('A' for Active; 'I' for Inactive)
ROOT
ATOM      1  C   UNL d   1       5.997  -2.462  -1.171  0.00  0.00     0.124 A 
ATOM      2  C1  UNL d   1       5.998  -3.827  -0.921  0.00  0.00     0.062 A 
ATOM      3  C2  UNL d   1       5.999  -4.299   0.388  0.00  0.00     0.162 A 
ATOM      4  C3  UNL d   1       5.998  -3.405   1.459  0.00  0.00    -0.034 A 
ATOM      5  C4  UNL d   1       5.998  -2.033   1.200  0.00  0.00     0.162 A 
ATOM      6  C5  UNL d   1       5.997  -1.566  -0.111  0.00  0.00     0.062 A 
ATOM      7  F   UNL d   1       5.996  -0.247  -0.350  0.00  0.00    -0.097 F 
ATOM      8  F1  UNL d   1       5.997  -1.146   2.205  0.00  0.00    -0.096 F 
ATOM      9  I   UNL d   1       5.999  -4.107   3.418  0.00  0.00    -0.060 I 
ATOM     10  F2  UNL d   1       6.000  -5.624   0.600  0.00  0.00    -0.096 F 
ATOM     11  F3  UNL d   1       5.999  -4.694  -1.944  0.00  0.00    -0.097 F 
ATOM     12  F4  UNL d   1       5.998  -2.010  -2.432  0.00  0.00    -0.092 F 
ENDROOT
TORSDOF 0
ENDMDL
