MODEL 1
REMARK minimizedAffinity -2.32744241
REMARK minimizedRMSD -1
REMARK  0 active torsions:
REMARK  status: ('A' for Active; 'I' for Inactive)
ROOT
ATOM      1  C   UNL d   1       5.665  -3.267   4.674  0.00  0.00     0.124 A 
ATOM      2  C1  UNL d   1       5.628  -4.551   4.148  0.00  0.00     0.062 A 
ATOM      3  C2  UNL d   1       5.716  -4.747   2.773  0.00  0.00     0.162 A 
ATOM      4  C3  UNL d   1       5.843  -3.657   1.913  0.00  0.00    -0.034 A 
ATOM      5  C4  UNL d   1       5.879  -2.368   2.449  0.00  0.00     0.162 A 
ATOM      6  C5  UNL d   1       5.790  -2.177   3.824  0.00  0.00     0.062 A 
ATOM      7  F   UNL d   1       5.827  -0.935   4.330  0.00  0.00    -0.097 F 
ATOM      8  F1  UNL d   1       6.000  -1.297   1.650  0.00  0.00    -0.096 F 
ATOM      9  I   UNL d   1       5.974  -3.946  -0.144  0.00  0.00    -0.060 I 
ATOM     10  F2  UNL d   1       5.677  -5.999   2.293  0.00  0.00    -0.096 F 
ATOM     11  F3  UNL d   1       5.506  -5.606   4.967  0.00  0.00    -0.097 F 
ATOM     12  F4  UNL d   1       5.579  -3.081   5.997  0.00  0.00    -0.092 F 
ENDROOT
TORSDOF 0
ENDMDL
