MODEL 1
REMARK minimizedAffinity 4.75381613
REMARK minimizedRMSD -1
REMARK  0 active torsions:
REMARK  status: ('A' for Active; 'I' for Inactive)
ROOT
ATOM      1  C   UNL d   1       5.959  -2.382   2.259  0.00  0.00     0.124 A 
ATOM      2  C1  UNL d   1       5.937  -3.718   1.883  0.00  0.00     0.062 A 
ATOM      3  C2  UNL d   1       5.914  -4.717   2.852  0.00  0.00     0.162 A 
ATOM      4  C3  UNL d   1       5.912  -4.384   4.206  0.00  0.00    -0.034 A 
ATOM      5  C4  UNL d   1       5.935  -3.038   4.576  0.00  0.00     0.162 A 
ATOM      6  C5  UNL d   1       5.957  -2.043   3.604  0.00  0.00     0.062 A 
ATOM      7  F   UNL d   1       5.978  -0.753   3.969  0.00  0.00    -0.097 F 
ATOM      8  F1  UNL d   1       5.933  -2.683   5.870  0.00  0.00    -0.096 F 
ATOM      9  I   UNL d   1       5.878  -5.875   5.658  0.00  0.00    -0.060 I 
ATOM     10  F2  UNL d   1       5.894  -6.000   2.460  0.00  0.00    -0.096 F 
ATOM     11  F3  UNL d   1       5.939  -4.047   0.583  0.00  0.00    -0.097 F 
ATOM     12  F4  UNL d   1       5.981  -1.422   1.325  0.00  0.00    -0.092 F 
ENDROOT
TORSDOF 0
ENDMDL
