MODEL 1
REMARK minimizedAffinity 20.7090168
REMARK minimizedRMSD -1
REMARK  0 active torsions:
REMARK  status: ('A' for Active; 'I' for Inactive)
ROOT
ATOM      1  C   UNL d   1       3.418  -2.579   1.882  0.00  0.00     0.124 A 
ATOM      2  C1  UNL d   1       4.545  -2.191   2.594  0.00  0.00     0.062 A 
ATOM      3  C2  UNL d   1       4.906  -2.867   3.756  0.00  0.00     0.162 A 
ATOM      4  C3  UNL d   1       4.140  -3.939   4.213  0.00  0.00    -0.034 A 
ATOM      5  C4  UNL d   1       3.008  -4.323   3.493  0.00  0.00     0.162 A 
ATOM      6  C5  UNL d   1       2.651  -3.644   2.332  0.00  0.00     0.062 A 
ATOM      7  F   UNL d   1       1.562  -4.020   1.646  0.00  0.00    -0.097 F 
ATOM      8  F1  UNL d   1       2.249  -5.349   3.904  0.00  0.00    -0.096 F 
ATOM      9  I   UNL d   1       4.677  -4.952   5.950  0.00  0.00    -0.060 I 
ATOM     10  F2  UNL d   1       6.000  -2.470   4.423  0.00  0.00    -0.096 F 
ATOM     11  F3  UNL d   1       5.288  -1.161   2.162  0.00  0.00    -0.097 F 
ATOM     12  F4  UNL d   1       3.073  -1.926   0.765  0.00  0.00    -0.092 F 
ENDROOT
TORSDOF 0
ENDMDL
