MODEL 1
REMARK minimizedAffinity 9.3501749
REMARK minimizedRMSD -1
REMARK  0 active torsions:
REMARK  status: ('A' for Active; 'I' for Inactive)
ROOT
ATOM      1  C   UNL d   1       2.403   2.410   0.094  0.00  0.00     0.124 A 
ATOM      2  C1  UNL d   1       2.822   1.445  -0.812  0.00  0.00     0.062 A 
ATOM      3  C2  UNL d   1       2.227   0.186  -0.819  0.00  0.00     0.162 A 
ATOM      4  C3  UNL d   1       1.205  -0.114   0.081  0.00  0.00    -0.034 A 
ATOM      5  C4  UNL d   1       0.790   0.861   0.989  0.00  0.00     0.162 A 
ATOM      6  C5  UNL d   1       1.388   2.117   0.993  0.00  0.00     0.062 A 
ATOM      7  F   UNL d   1       0.981   3.048   1.869  0.00  0.00    -0.097 F 
ATOM      8  F1  UNL d   1      -0.190   0.605   1.869  0.00  0.00    -0.096 F 
ATOM      9  I   UNL d   1       0.313  -1.995   0.073  0.00  0.00    -0.060 I 
ATOM     10  F2  UNL d   1       2.652  -0.727  -1.705  0.00  0.00    -0.096 F 
ATOM     11  F3  UNL d   1       3.804   1.725  -1.681  0.00  0.00    -0.097 F 
ATOM     12  F4  UNL d   1       2.978   3.619   0.099  0.00  0.00    -0.092 F 
ENDROOT
TORSDOF 0
ENDMDL
