MODEL 1
REMARK minimizedAffinity 10.3350935
REMARK minimizedRMSD -1
REMARK  0 active torsions:
REMARK  status: ('A' for Active; 'I' for Inactive)
ROOT
ATOM      1  C   UNL d   1       5.878  -3.652   4.331  0.00  0.00     0.124 A 
ATOM      2  C1  UNL d   1       5.866  -4.778   3.519  0.00  0.00     0.062 A 
ATOM      3  C2  UNL d   1       5.899  -4.643   2.134  0.00  0.00     0.162 A 
ATOM      4  C3  UNL d   1       5.945  -3.376   1.552  0.00  0.00    -0.034 A 
ATOM      5  C4  UNL d   1       5.955  -2.249   2.374  0.00  0.00     0.162 A 
ATOM      6  C5  UNL d   1       5.922  -2.389   3.758  0.00  0.00     0.062 A 
ATOM      7  F   UNL d   1       5.933  -1.300   4.541  0.00  0.00    -0.097 F 
ATOM      8  F1  UNL d   1       5.999  -1.016   1.848  0.00  0.00    -0.096 F 
ATOM      9  I   UNL d   1       5.995  -3.170  -0.519  0.00  0.00    -0.060 I 
ATOM     10  F2  UNL d   1       5.887  -5.748   1.374  0.00  0.00    -0.096 F 
ATOM     11  F3  UNL d   1       5.823  -6.000   4.070  0.00  0.00    -0.097 F 
ATOM     12  F4  UNL d   1       5.845  -3.785   5.663  0.00  0.00    -0.092 F 
ENDROOT
TORSDOF 0
ENDMDL
