MODEL 1
REMARK minimizedAffinity 4.71782112
REMARK minimizedRMSD -1
REMARK  0 active torsions:
REMARK  status: ('A' for Active; 'I' for Inactive)
ROOT
ATOM      1  C   UNL d   1       5.976  -2.371   2.379  0.00  0.00     0.124 A 
ATOM      2  C1  UNL d   1       5.972  -3.703   1.989  0.00  0.00     0.062 A 
ATOM      3  C2  UNL d   1       5.955  -4.712   2.948  0.00  0.00     0.162 A 
ATOM      4  C3  UNL d   1       5.941  -4.393   4.306  0.00  0.00    -0.034 A 
ATOM      5  C4  UNL d   1       5.946  -3.051   4.689  0.00  0.00     0.162 A 
ATOM      6  C5  UNL d   1       5.963  -2.046   3.728  0.00  0.00     0.062 A 
ATOM      7  F   UNL d   1       5.967  -0.759   4.105  0.00  0.00    -0.097 F 
ATOM      8  F1  UNL d   1       5.933  -2.709   5.986  0.00  0.00    -0.096 F 
ATOM      9  I   UNL d   1       5.915  -5.899   5.742  0.00  0.00    -0.060 I 
ATOM     10  F2  UNL d   1       5.951  -5.991   2.543  0.00  0.00    -0.096 F 
ATOM     11  F3  UNL d   1       5.985  -4.020   0.687  0.00  0.00    -0.097 F 
ATOM     12  F4  UNL d   1       5.994  -1.402   1.454  0.00  0.00    -0.092 F 
ENDROOT
TORSDOF 0
ENDMDL
