MODEL 1
REMARK minimizedAffinity 18.1849403
REMARK minimizedRMSD -1
REMARK  0 active torsions:
REMARK  status: ('A' for Active; 'I' for Inactive)
ROOT
ATOM      1  C   UNL d   1      -1.317   3.655   0.027  0.00  0.00     0.124 A 
ATOM      2  C1  UNL d   1       0.000   3.360   0.350  0.00  0.00     0.062 A 
ATOM      3  C2  UNL d   1       0.370   2.053   0.652  0.00  0.00     0.162 A 
ATOM      4  C3  UNL d   1      -0.578   1.030   0.632  0.00  0.00    -0.034 A 
ATOM      5  C4  UNL d   1      -1.901   1.335   0.308  0.00  0.00     0.162 A 
ATOM      6  C5  UNL d   1      -2.266   2.643   0.006  0.00  0.00     0.062 A 
ATOM      7  F   UNL d   1      -3.539   2.927  -0.305  0.00  0.00    -0.097 F 
ATOM      8  F1  UNL d   1      -2.839   0.376   0.279  0.00  0.00    -0.096 F 
ATOM      9  I   UNL d   1      -0.029  -0.926   1.084  0.00  0.00    -0.060 I 
ATOM     10  F2  UNL d   1       1.650   1.796   0.961  0.00  0.00    -0.096 F 
ATOM     11  F3  UNL d   1       0.919   4.336   0.372  0.00  0.00    -0.097 F 
ATOM     12  F4  UNL d   1      -1.671   4.914  -0.262  0.00  0.00    -0.092 F 
ENDROOT
TORSDOF 0
ENDMDL
