MODEL 1
REMARK minimizedAffinity 15.7084093
REMARK minimizedRMSD -1
REMARK  0 active torsions:
REMARK  status: ('A' for Active; 'I' for Inactive)
ROOT
ATOM      1  C   UNL d   1       3.938  -4.159   4.825  0.00  0.00     0.124 A 
ATOM      2  C1  UNL d   1       3.781  -4.866   3.642  0.00  0.00     0.062 A 
ATOM      3  C2  UNL d   1       4.364  -4.402   2.466  0.00  0.00     0.162 A 
ATOM      4  C3  UNL d   1       5.112  -3.225   2.469  0.00  0.00    -0.034 A 
ATOM      5  C4  UNL d   1       5.265  -2.518   3.663  0.00  0.00     0.162 A 
ATOM      6  C5  UNL d   1       4.680  -2.986   4.835  0.00  0.00     0.062 A 
ATOM      7  F   UNL d   1       4.833  -2.301   5.978  0.00  0.00    -0.097 F 
ATOM      8  F1  UNL d   1       5.978  -1.382   3.701  0.00  0.00    -0.096 F 
ATOM      9  I   UNL d   1       5.986  -2.528   0.713  0.00  0.00    -0.060 I 
ATOM     10  F2  UNL d   1       4.196  -5.106   1.337  0.00  0.00    -0.096 F 
ATOM     11  F3  UNL d   1       3.064  -5.999   3.630  0.00  0.00    -0.097 F 
ATOM     12  F4  UNL d   1       3.375  -4.607   5.955  0.00  0.00    -0.092 F 
ENDROOT
TORSDOF 0
ENDMDL
