MODEL 1
REMARK minimizedAffinity 7.6619935
REMARK minimizedRMSD -1
REMARK  0 active torsions:
REMARK  status: ('A' for Active; 'I' for Inactive)
ROOT
ATOM      1  C   UNL d   1       5.822  -2.893  -0.807  0.00  0.00     0.124 A 
ATOM      2  C1  UNL d   1       5.911  -1.856   0.110  0.00  0.00     0.062 A 
ATOM      3  C2  UNL d   1       5.910  -2.126   1.475  0.00  0.00     0.162 A 
ATOM      4  C3  UNL d   1       5.819  -3.441   1.932  0.00  0.00    -0.034 A 
ATOM      5  C4  UNL d   1       5.728  -4.479   1.004  0.00  0.00     0.162 A 
ATOM      6  C5  UNL d   1       5.730  -4.204  -0.360  0.00  0.00     0.062 A 
ATOM      7  F   UNL d   1       5.643  -5.208  -1.244  0.00  0.00    -0.097 F 
ATOM      8  F1  UNL d   1       5.640  -5.755   1.409  0.00  0.00    -0.096 F 
ATOM      9  I   UNL d   1       5.816  -3.849   3.973  0.00  0.00    -0.060 I 
ATOM     10  F2  UNL d   1       5.997  -1.103   2.339  0.00  0.00    -0.096 F 
ATOM     11  F3  UNL d   1       5.999  -0.589  -0.320  0.00  0.00    -0.097 F 
ATOM     12  F4  UNL d   1       5.822  -2.630  -2.121  0.00  0.00    -0.092 F 
ENDROOT
TORSDOF 0
ENDMDL
