MODEL 1
REMARK minimizedAffinity -3.72188783
REMARK minimizedRMSD -1
REMARK  0 active torsions:
REMARK  status: ('A' for Active; 'I' for Inactive)
ROOT
ATOM      1  C   UNL d   1       5.974  -3.099  -0.055  0.00  0.00     0.124 A 
ATOM      2  C1  UNL d   1       5.963  -4.415   0.387  0.00  0.00     0.062 A 
ATOM      3  C2  UNL d   1       5.964  -4.695   1.751  0.00  0.00     0.162 A 
ATOM      4  C3  UNL d   1       5.976  -3.657   2.682  0.00  0.00    -0.034 A 
ATOM      5  C4  UNL d   1       5.988  -2.337   2.230  0.00  0.00     0.162 A 
ATOM      6  C5  UNL d   1       5.987  -2.062   0.866  0.00  0.00     0.062 A 
ATOM      7  F   UNL d   1       5.997  -0.790   0.441  0.00  0.00    -0.097 F 
ATOM      8  F1  UNL d   1       5.999  -1.315   3.099  0.00  0.00    -0.096 F 
ATOM      9  I   UNL d   1       5.978  -4.072   4.722  0.00  0.00    -0.060 I 
ATOM     10  F2  UNL d   1       5.953  -5.976   2.150  0.00  0.00    -0.096 F 
ATOM     11  F3  UNL d   1       5.952  -5.419  -0.501  0.00  0.00    -0.097 F 
ATOM     12  F4  UNL d   1       5.974  -2.833  -1.367  0.00  0.00    -0.092 F 
ENDROOT
TORSDOF 0
ENDMDL
