MODEL 1
REMARK minimizedAffinity 3.102772
REMARK minimizedRMSD -1
REMARK  0 active torsions:
REMARK  status: ('A' for Active; 'I' for Inactive)
ROOT
ATOM      1  C   UNL d   1       5.333  -2.621   4.804  0.00  0.00     0.124 A 
ATOM      2  C1  UNL d   1       5.287  -4.003   4.683  0.00  0.00     0.062 A 
ATOM      3  C2  UNL d   1       5.477  -4.604   3.442  0.00  0.00     0.162 A 
ATOM      4  C3  UNL d   1       5.715  -3.822   2.311  0.00  0.00    -0.034 A 
ATOM      5  C4  UNL d   1       5.760  -2.433   2.441  0.00  0.00     0.162 A 
ATOM      6  C5  UNL d   1       5.570  -1.838   3.684  0.00  0.00     0.062 A 
ATOM      7  F   UNL d   1       5.615  -0.502   3.799  0.00  0.00    -0.097 F 
ATOM      8  F1  UNL d   1       5.987  -1.652   1.374  0.00  0.00    -0.096 F 
ATOM      9  I   UNL d   1       5.999  -4.716   0.453  0.00  0.00    -0.060 I 
ATOM     10  F2  UNL d   1       5.427  -5.941   3.354  0.00  0.00    -0.096 F 
ATOM     11  F3  UNL d   1       5.058  -4.762   5.764  0.00  0.00    -0.097 F 
ATOM     12  F4  UNL d   1       5.150  -2.046   6.000  0.00  0.00    -0.092 F 
ENDROOT
TORSDOF 0
ENDMDL
