MODEL 1
REMARK minimizedAffinity 19.7579784
REMARK minimizedRMSD -1
REMARK  0 active torsions:
REMARK  status: ('A' for Active; 'I' for Inactive)
ROOT
ATOM      1  C   UNL d   1       5.620  -4.789  -2.533  0.00  0.00     0.124 A 
ATOM      2  C1  UNL d   1       5.404  -3.596  -1.858  0.00  0.00     0.062 A 
ATOM      3  C2  UNL d   1       5.010  -2.458  -2.555  0.00  0.00     0.162 A 
ATOM      4  C3  UNL d   1       4.829  -2.507  -3.938  0.00  0.00    -0.034 A 
ATOM      5  C4  UNL d   1       5.049  -3.710  -4.610  0.00  0.00     0.162 A 
ATOM      6  C5  UNL d   1       5.442  -4.845  -3.909  0.00  0.00     0.062 A 
ATOM      7  F   UNL d   1       5.651  -5.997  -4.563  0.00  0.00    -0.097 F 
ATOM      8  F1  UNL d   1       4.884  -3.793  -5.939  0.00  0.00    -0.096 F 
ATOM      9  I   UNL d   1       4.240  -0.807  -4.984  0.00  0.00    -0.060 I 
ATOM     10  F2  UNL d   1       4.809  -1.318  -1.877  0.00  0.00    -0.096 F 
ATOM     11  F3  UNL d   1       5.576  -3.539  -0.529  0.00  0.00    -0.097 F 
ATOM     12  F4  UNL d   1       6.000  -5.882  -1.860  0.00  0.00    -0.092 F 
ENDROOT
TORSDOF 0
ENDMDL
