MODEL 1
REMARK minimizedAffinity 5.97308779
REMARK minimizedRMSD -1
REMARK  0 active torsions:
REMARK  status: ('A' for Active; 'I' for Inactive)
ROOT
ATOM      1  C   UNL d   1       5.976  -3.211   1.015  0.00  0.00     0.124 A 
ATOM      2  C1  UNL d   1       5.970  -4.366   1.786  0.00  0.00     0.062 A 
ATOM      3  C2  UNL d   1       5.967  -4.280   3.175  0.00  0.00     0.162 A 
ATOM      4  C3  UNL d   1       5.968  -3.035   3.804  0.00  0.00    -0.034 A 
ATOM      5  C4  UNL d   1       5.974  -1.878   3.022  0.00  0.00     0.162 A 
ATOM      6  C5  UNL d   1       5.978  -1.969   1.634  0.00  0.00     0.062 A 
ATOM      7  F   UNL d   1       5.983  -0.852   0.891  0.00  0.00    -0.097 F 
ATOM      8  F1  UNL d   1       5.975  -0.665   3.594  0.00  0.00    -0.096 F 
ATOM      9  I   UNL d   1       5.962  -2.903   5.881  0.00  0.00    -0.060 I 
ATOM     10  F2  UNL d   1       5.962  -5.413   3.894  0.00  0.00    -0.096 F 
ATOM     11  F3  UNL d   1       5.970  -5.567   1.190  0.00  0.00    -0.097 F 
ATOM     12  F4  UNL d   1       5.980  -3.296  -0.321  0.00  0.00    -0.092 F 
ENDROOT
TORSDOF 0
ENDMDL
