MODEL 1
REMARK minimizedAffinity 11.8996277
REMARK minimizedRMSD -1
REMARK  0 active torsions:
REMARK  status: ('A' for Active; 'I' for Inactive)
ROOT
ATOM      1  C   UNL d   1      -0.508   4.137   1.027  0.00  0.00     0.124 A 
ATOM      2  C1  UNL d   1       0.085   3.255   1.919  0.00  0.00     0.062 A 
ATOM      3  C2  UNL d   1      -0.042   1.882   1.735  0.00  0.00     0.162 A 
ATOM      4  C3  UNL d   1      -0.764   1.380   0.652  0.00  0.00    -0.034 A 
ATOM      5  C4  UNL d   1      -1.359   2.273  -0.241  0.00  0.00     0.162 A 
ATOM      6  C5  UNL d   1      -1.230   3.646  -0.052  0.00  0.00     0.062 A 
ATOM      7  F   UNL d   1      -1.804   4.496  -0.916  0.00  0.00    -0.097 F 
ATOM      8  F1  UNL d   1      -2.060   1.826  -1.293  0.00  0.00    -0.096 F 
ATOM      9  I   UNL d   1      -0.955  -0.673   0.373  0.00  0.00    -0.060 I 
ATOM     10  F2  UNL d   1       0.542   1.053   2.613  0.00  0.00    -0.096 F 
ATOM     11  F3  UNL d   1       0.781   3.728   2.963  0.00  0.00    -0.097 F 
ATOM     12  F4  UNL d   1      -0.386   5.459   1.207  0.00  0.00    -0.092 F 
ENDROOT
TORSDOF 0
ENDMDL
