MODEL 1
REMARK minimizedAffinity 4.05446672
REMARK minimizedRMSD -1
REMARK  0 active torsions:
REMARK  status: ('A' for Active; 'I' for Inactive)
ROOT
ATOM      1  C   UNL d   1       5.955  -3.639   2.111  0.00  0.00     0.124 A 
ATOM      2  C1  UNL d   1       5.944  -4.820   1.382  0.00  0.00     0.062 A 
ATOM      3  C2  UNL d   1       5.949  -4.784  -0.010  0.00  0.00     0.162 A 
ATOM      4  C3  UNL d   1       5.966  -3.562  -0.682  0.00  0.00    -0.034 A 
ATOM      5  C4  UNL d   1       5.976  -2.378   0.058  0.00  0.00     0.162 A 
ATOM      6  C5  UNL d   1       5.971  -2.420   1.449  0.00  0.00     0.062 A 
ATOM      7  F   UNL d   1       5.982  -1.278   2.151  0.00  0.00    -0.097 F 
ATOM      8  F1  UNL d   1       5.993  -1.186  -0.556  0.00  0.00    -0.096 F 
ATOM      9  I   UNL d   1       5.974  -3.504  -2.762  0.00  0.00    -0.060 I 
ATOM     10  F2  UNL d   1       5.938  -5.941  -0.689  0.00  0.00    -0.096 F 
ATOM     11  F3  UNL d   1       5.928  -6.000   2.019  0.00  0.00    -0.097 F 
ATOM     12  F4  UNL d   1       5.949  -3.677   3.449  0.00  0.00    -0.092 F 
ENDROOT
TORSDOF 0
ENDMDL
