MODEL 1
REMARK minimizedAffinity -3.07692194
REMARK minimizedRMSD -1
REMARK  0 active torsions:
REMARK  status: ('A' for Active; 'I' for Inactive)
ROOT
ATOM      1  C4' PXY d   1      -3.291  -2.265   4.503  0.00  0.00     0.077 C 
ATOM      2  C1' PXY d   1      -1.667   2.496   1.654  0.00  0.00     0.077 C 
ATOM      3  C1  PXY d   1      -2.104   1.247   2.395  0.00  0.00    -0.082 A 
ATOM      4  C2  PXY d   1      -1.566   0.962   3.570  0.00  0.00     0.003 A 
ATOM      5  C3  PXY d   1      -1.927  -0.180   4.238  0.00  0.00     0.003 A 
ATOM      6  C4  PXY d   1      -2.887  -1.010   3.724  0.00  0.00    -0.082 A 
ATOM      7  C5  PXY d   1      -3.448  -0.720   2.531  0.00  0.00     0.003 A 
ATOM      8  C6  PXY d   1      -3.038   0.422   1.849  0.00  0.00     0.003 A 
ENDROOT
TORSDOF 0
ENDMDL
