MODEL 1
REMARK minimizedAffinity -5.39725065
REMARK minimizedRMSD -1
REMARK  0 active torsions:
REMARK  status: ('A' for Active; 'I' for Inactive)
ROOT
ATOM      1  C4' PXY d   1      -1.593   2.030   3.126  0.00  0.00     0.077 C 
ATOM      2  C1' PXY d   1      -4.993  -2.632   2.789  0.00  0.00     0.077 C 
ATOM      3  C1  PXY d   1      -4.107  -1.406   2.888  0.00  0.00    -0.082 A 
ATOM      4  C2  PXY d   1      -3.577  -0.891   1.791  0.00  0.00     0.003 A 
ATOM      5  C3  PXY d   1      -2.748   0.198   1.866  0.00  0.00     0.003 A 
ATOM      6  C4  PXY d   1      -2.501   0.799   3.072  0.00  0.00    -0.082 A 
ATOM      7  C5  PXY d   1      -3.046   0.286   4.195  0.00  0.00     0.003 A 
ATOM      8  C6  PXY d   1      -3.852  -0.845   4.102  0.00  0.00     0.003 A 
ENDROOT
TORSDOF 0
ENDMDL
