MODEL 1
REMARK minimizedAffinity -3.92157626
REMARK minimizedRMSD -1
REMARK  0 active torsions:
REMARK  status: ('A' for Active; 'I' for Inactive)
ROOT
ATOM      1  C4' PXY d   1      -2.612   1.019   4.450  0.00  0.00     0.077 C 
ATOM      2  C1' PXY d   1      -5.486  -3.838   3.199  0.00  0.00     0.077 C 
ATOM      3  C1  PXY d   1      -4.726  -2.564   3.515  0.00  0.00    -0.082 A 
ATOM      4  C2  PXY d   1      -4.530  -2.217   4.777  0.00  0.00     0.003 A 
ATOM      5  C3  PXY d   1      -3.873  -1.052   5.081  0.00  0.00     0.003 A 
ATOM      6  C4  PXY d   1      -3.366  -0.262   4.084  0.00  0.00    -0.082 A 
ATOM      7  C5  PXY d   1      -3.553  -0.616   2.794  0.00  0.00     0.003 A 
ATOM      8  C6  PXY d   1      -4.258  -1.781   2.506  0.00  0.00     0.003 A 
ENDROOT
TORSDOF 0
ENDMDL
