MODEL 1
REMARK minimizedAffinity -1.41280138
REMARK minimizedRMSD -1
REMARK  0 active torsions:
REMARK  status: ('A' for Active; 'I' for Inactive)
ROOT
ATOM      1  C4' PXY d   1      -1.645   0.961  -0.022  0.00  0.00     0.077 C 
ATOM      2  C1' PXY d   1       3.629  -0.091  -2.143  0.00  0.00     0.077 C 
ATOM      3  C1  PXY d   1       2.249   0.198  -1.586  0.00  0.00    -0.082 A 
ATOM      4  C2  PXY d   1       1.595  -0.750  -0.934  0.00  0.00     0.003 A 
ATOM      5  C3  PXY d   1       0.333  -0.516  -0.452  0.00  0.00     0.003 A 
ATOM      6  C4  PXY d   1      -0.245   0.717  -0.593  0.00  0.00    -0.082 A 
ATOM      7  C5  PXY d   1       0.420   1.693  -1.248  0.00  0.00     0.003 A 
ATOM      8  C6  PXY d   1       1.683   1.422  -1.766  0.00  0.00     0.003 A 
ENDROOT
TORSDOF 0
ENDMDL
