MODEL 1
REMARK minimizedAffinity -1.70719206
REMARK minimizedRMSD -1
REMARK  0 active torsions:
REMARK  status: ('A' for Active; 'I' for Inactive)
ROOT
ATOM      1  C4' PXY d   1      -2.166  -0.646   2.028  0.00  0.00     0.077 C 
ATOM      2  C1' PXY d   1       0.718   2.051  -2.193  0.00  0.00     0.077 C 
ATOM      3  C1  PXY d   1      -0.029   1.334  -1.086  0.00  0.00    -0.082 A 
ATOM      4  C2  PXY d   1      -1.319   1.570  -0.909  0.00  0.00     0.003 A 
ATOM      5  C3  PXY d   1      -2.003   0.954   0.107  0.00  0.00     0.003 A 
ATOM      6  C4  PXY d   1      -1.373   0.048   0.917  0.00  0.00    -0.082 A 
ATOM      7  C5  PXY d   1      -0.060  -0.206   0.736  0.00  0.00     0.003 A 
ATOM      8  C6  PXY d   1       0.626   0.460  -0.275  0.00  0.00     0.003 A 
ENDROOT
TORSDOF 0
ENDMDL
