MODEL 1
REMARK minimizedAffinity 8.10816193
REMARK minimizedRMSD -1
REMARK  0 active torsions:
REMARK  status: ('A' for Active; 'I' for Inactive)
ROOT
ATOM      1  C4' PXY d   1       2.261   0.368  -1.281  0.00  0.00     0.077 C 
ATOM      2  C1' PXY d   1      -2.458  -2.965  -1.094  0.00  0.00     0.077 C 
ATOM      3  C1  PXY d   1      -1.213  -2.102  -1.143  0.00  0.00    -0.082 A 
ATOM      4  C2  PXY d   1      -1.248  -0.874  -0.651  0.00  0.00     0.003 A 
ATOM      5  C3  PXY d   1      -0.140  -0.068  -0.717  0.00  0.00     0.003 A 
ATOM      6  C4  PXY d   1       1.031  -0.543  -1.244  0.00  0.00    -0.082 A 
ATOM      7  C5  PXY d   1       1.077  -1.798  -1.739  0.00  0.00     0.003 A 
ATOM      8  C6  PXY d   1      -0.070  -2.585  -1.700  0.00  0.00     0.003 A 
ENDROOT
TORSDOF 0
ENDMDL
