MODEL 1
REMARK minimizedAffinity -3.31027126
REMARK minimizedRMSD -1
REMARK  0 active torsions:
REMARK  status: ('A' for Active; 'I' for Inactive)
ROOT
ATOM      1  C4' PXY d   1       2.940  -0.237  -1.538  0.00  0.00     0.077 C 
ATOM      2  C1' PXY d   1      -2.393   0.822   0.424  0.00  0.00     0.077 C 
ATOM      3  C1  PXY d   1      -0.996   0.554  -0.100  0.00  0.00    -0.082 A 
ATOM      4  C2  PXY d   1      -0.434  -0.626   0.109  0.00  0.00     0.003 A 
ATOM      5  C3  PXY d   1       0.841  -0.875  -0.330  0.00  0.00     0.003 A 
ATOM      6  C4  PXY d   1       1.528   0.075  -1.036  0.00  0.00    -0.082 A 
ATOM      7  C5  PXY d   1       0.958   1.278  -1.262  0.00  0.00     0.003 A 
ATOM      8  C6  PXY d   1      -0.321   1.525  -0.773  0.00  0.00     0.003 A 
ENDROOT
TORSDOF 0
ENDMDL
