MODEL 1
REMARK minimizedAffinity 0.47125259
REMARK minimizedRMSD -1
REMARK  0 active torsions:
REMARK  status: ('A' for Active; 'I' for Inactive)
ROOT
ATOM      1  C4' PXY d   1       3.848  -1.912   1.586  0.00  0.00     0.077 C 
ATOM      2  C1' PXY d   1       0.228  -3.211  -2.729  0.00  0.00     0.077 C 
ATOM      3  C1  PXY d   1       1.171  -2.879  -1.590  0.00  0.00    -0.082 A 
ATOM      4  C2  PXY d   1       1.813  -1.722  -1.588  0.00  0.00     0.003 A 
ATOM      5  C3  PXY d   1       2.693  -1.418  -0.582  0.00  0.00     0.003 A 
ATOM      6  C4  PXY d   1       2.879  -2.286   0.461  0.00  0.00    -0.082 A 
ATOM      7  C5  PXY d   1       2.220  -3.463   0.473  0.00  0.00     0.003 A 
ATOM      8  C6  PXY d   1       1.361  -3.770  -0.579  0.00  0.00     0.003 A 
ENDROOT
TORSDOF 0
ENDMDL
