MODEL 1
REMARK minimizedAffinity -2.44278502
REMARK minimizedRMSD -1
REMARK  0 active torsions:
REMARK  status: ('A' for Active; 'I' for Inactive)
ROOT
ATOM      1  C4' PXY d   1       1.237   0.733  -4.195  0.00  0.00     0.077 C 
ATOM      2  C1' PXY d   1      -0.706  -0.412   1.127  0.00  0.00     0.077 C 
ATOM      3  C1  PXY d   1      -0.188  -0.122  -0.267  0.00  0.00    -0.082 A 
ATOM      4  C2  PXY d   1      -0.336   1.089  -0.781  0.00  0.00     0.003 A 
ATOM      5  C3  PXY d   1       0.098   1.360  -2.053  0.00  0.00     0.003 A 
ATOM      6  C4  PXY d   1       0.738   0.397  -2.787  0.00  0.00    -0.082 A 
ATOM      7  C5  PXY d   1       0.903  -0.837  -2.265  0.00  0.00     0.003 A 
ATOM      8  C6  PXY d   1       0.418  -1.104  -0.988  0.00  0.00     0.003 A 
ENDROOT
TORSDOF 0
ENDMDL
