MODEL 1
REMARK minimizedAffinity -3.77502108
REMARK minimizedRMSD -1
REMARK  0 active torsions:
REMARK  status: ('A' for Active; 'I' for Inactive)
ROOT
ATOM      1  C4' PXY d   1       1.922   2.897  -0.501  0.00  0.00     0.077 C 
ATOM      2  C1' PXY d   1      -0.035  -2.542  -0.505  0.00  0.00     0.077 C 
ATOM      3  C1  PXY d   1       0.467  -1.112  -0.510  0.00  0.00    -0.082 A 
ATOM      4  C2  PXY d   1       1.765  -0.874  -0.411  0.00  0.00     0.003 A 
ATOM      5  C3  PXY d   1       2.234   0.414  -0.382  0.00  0.00     0.003 A 
ATOM      6  C4  PXY d   1       1.370   1.469  -0.509  0.00  0.00    -0.082 A 
ATOM      7  C5  PXY d   1       0.045   1.234  -0.622  0.00  0.00     0.003 A 
ATOM      8  C6  PXY d   1      -0.414  -0.080  -0.608  0.00  0.00     0.003 A 
ENDROOT
TORSDOF 0
ENDMDL
