MODEL 1
REMARK minimizedAffinity 3.95782423
REMARK minimizedRMSD -1
REMARK  0 active torsions:
REMARK  status: ('A' for Active; 'I' for Inactive)
ROOT
ATOM      1  C4' PXY d   1      -2.022   1.481   3.631  0.00  0.00     0.077 C 
ATOM      2  C1' PXY d   1      -4.766  -3.606   3.695  0.00  0.00     0.077 C 
ATOM      3  C1  PXY d   1      -4.038  -2.276   3.670  0.00  0.00    -0.082 A 
ATOM      4  C2  PXY d   1      -4.130  -1.460   4.707  0.00  0.00     0.003 A 
ATOM      5  C3  PXY d   1      -3.504  -0.240   4.687  0.00  0.00     0.003 A 
ATOM      6  C4  PXY d   1      -2.732   0.125   3.617  0.00  0.00    -0.082 A 
ATOM      7  C5  PXY d   1      -2.624  -0.707   2.560  0.00  0.00     0.003 A 
ATOM      8  C6  PXY d   1      -3.301  -1.923   2.582  0.00  0.00     0.003 A 
ENDROOT
TORSDOF 0
ENDMDL
