MODEL 1
REMARK minimizedAffinity 1.9971329
REMARK minimizedRMSD -1
REMARK  0 active torsions:
REMARK  status: ('A' for Active; 'I' for Inactive)
ROOT
ATOM      1  C4' PXY d   1       2.333  -2.063  -0.158  0.00  0.00     0.077 C 
ATOM      2  C1' PXY d   1       1.120   2.352  -3.686  0.00  0.00     0.077 C 
ATOM      3  C1  PXY d   1       1.433   1.201  -2.751  0.00  0.00    -0.082 A 
ATOM      4  C2  PXY d   1       2.431   0.380  -3.034  0.00  0.00     0.003 A 
ATOM      5  C3  PXY d   1       2.707  -0.685  -2.216  0.00  0.00     0.003 A 
ATOM      6  C4  PXY d   1       1.987  -0.882  -1.068  0.00  0.00    -0.082 A 
ATOM      7  C5  PXY d   1       0.974  -0.043  -0.766  0.00  0.00     0.003 A 
ATOM      8  C6  PXY d   1       0.683   1.008  -1.631  0.00  0.00     0.003 A 
ENDROOT
TORSDOF 0
ENDMDL
