MODEL 1
REMARK minimizedAffinity -4.07317972
REMARK minimizedRMSD -1
REMARK  0 active torsions:
REMARK  status: ('A' for Active; 'I' for Inactive)
ROOT
ATOM      1  C4' PXY d   1      -1.801   1.532  -0.894  0.00  0.00     0.077 C 
ATOM      2  C1' PXY d   1       3.663  -0.230  -1.568  0.00  0.00     0.077 C 
ATOM      3  C1  PXY d   1       2.226   0.220  -1.388  0.00  0.00    -0.082 A 
ATOM      4  C2  PXY d   1       1.794   1.298  -2.022  0.00  0.00     0.003 A 
ATOM      5  C3  PXY d   1       0.507   1.737  -1.845  0.00  0.00     0.003 A 
ATOM      6  C4  PXY d   1      -0.362   1.035  -1.053  0.00  0.00    -0.082 A 
ATOM      7  C5  PXY d   1       0.068  -0.071  -0.411  0.00  0.00     0.003 A 
ATOM      8  C6  PXY d   1       1.390  -0.477  -0.571  0.00  0.00     0.003 A 
ENDROOT
TORSDOF 0
ENDMDL
