MODEL 1
REMARK minimizedAffinity -0.0291576684
REMARK minimizedRMSD -1
REMARK  0 active torsions:
REMARK  status: ('A' for Active; 'I' for Inactive)
ROOT
ATOM      1  C4' PXY d   1      -0.734   2.237  -1.230  0.00  0.00     0.077 C 
ATOM      2  C1' PXY d   1      -3.914   1.684   3.565  0.00  0.00     0.077 C 
ATOM      3  C1  PXY d   1      -3.083   1.817   2.305  0.00  0.00    -0.082 A 
ATOM      4  C2  PXY d   1      -2.137   2.740   2.239  0.00  0.00     0.003 A 
ATOM      5  C3  PXY d   1      -1.397   2.894   1.095  0.00  0.00     0.003 A 
ATOM      6  C4  PXY d   1      -1.591   2.061   0.026  0.00  0.00    -0.082 A 
ATOM      7  C5  PXY d   1      -2.548   1.110   0.089  0.00  0.00     0.003 A 
ATOM      8  C6  PXY d   1      -3.316   0.997   1.244  0.00  0.00     0.003 A 
ENDROOT
TORSDOF 0
ENDMDL
