MODEL 1
REMARK minimizedAffinity -1.70690429
REMARK minimizedRMSD -1
REMARK  0 active torsions:
REMARK  status: ('A' for Active; 'I' for Inactive)
ROOT
ATOM      1  C4' PXY d   1       1.263   0.004  -1.483  0.00  0.00     0.077 C 
ATOM      2  C1' PXY d   1      -2.457  -0.200   2.937  0.00  0.00     0.077 C 
ATOM      3  C1  PXY d   1      -1.473  -0.140   1.786  0.00  0.00    -0.082 A 
ATOM      4  C2  PXY d   1      -1.918  -0.193   0.541  0.00  0.00     0.003 A 
ATOM      5  C3  PXY d   1      -1.040  -0.173  -0.512  0.00  0.00     0.003 A 
ATOM      6  C4  PXY d   1       0.305  -0.044  -0.289  0.00  0.00    -0.082 A 
ATOM      7  C5  PXY d   1       0.767   0.022   0.978  0.00  0.00     0.003 A 
ATOM      8  C6  PXY d   1      -0.139  -0.042   2.033  0.00  0.00     0.003 A 
ENDROOT
TORSDOF 0
ENDMDL
