MODEL 1
REMARK minimizedAffinity -4.18538904
REMARK minimizedRMSD -1
REMARK  0 active torsions:
REMARK  status: ('A' for Active; 'I' for Inactive)
ROOT
ATOM      1  C4' PXY d   1      -2.082   0.483   0.401  0.00  0.00     0.077 C 
ATOM      2  C1' PXY d   1       3.222  -0.101  -1.821  0.00  0.00     0.077 C 
ATOM      3  C1  PXY d   1       1.832   0.065  -1.239  0.00  0.00    -0.082 A 
ATOM      4  C2  PXY d   1       1.318  -0.895  -0.488  0.00  0.00     0.003 A 
ATOM      5  C3  PXY d   1       0.050  -0.775   0.020  0.00  0.00     0.003 A 
ATOM      6  C4  PXY d   1      -0.679   0.362  -0.200  0.00  0.00    -0.082 A 
ATOM      7  C5  PXY d   1      -0.158   1.351  -0.956  0.00  0.00     0.003 A 
ATOM      8  C6  PXY d   1       1.115   1.193  -1.497  0.00  0.00     0.003 A 
ENDROOT
TORSDOF 0
ENDMDL
