MODEL 1
REMARK minimizedAffinity -1.12699187
REMARK minimizedRMSD -1
REMARK  0 active torsions:
REMARK  status: ('A' for Active; 'I' for Inactive)
ROOT
ATOM      1  C4' PXY d   1      -2.228   0.337   0.707  0.00  0.00     0.077 C 
ATOM      2  C1' PXY d   1       3.020  -0.751  -1.458  0.00  0.00     0.077 C 
ATOM      3  C1  PXY d   1       1.648  -0.453  -0.888  0.00  0.00    -0.082 A 
ATOM      4  C2  PXY d   1       0.921  -1.437  -0.383  0.00  0.00     0.003 A 
ATOM      5  C3  PXY d   1      -0.335  -1.191   0.108  0.00  0.00     0.003 A 
ATOM      6  C4  PXY d   1      -0.832   0.085   0.130  0.00  0.00    -0.082 A 
ATOM      7  C5  PXY d   1      -0.093   1.096  -0.374  0.00  0.00     0.003 A 
ATOM      8  C6  PXY d   1       1.163   0.818  -0.905  0.00  0.00     0.003 A 
ENDROOT
TORSDOF 0
ENDMDL
