MODEL 1
REMARK minimizedAffinity -3.50818777
REMARK minimizedRMSD -1
REMARK  0 active torsions:
REMARK  status: ('A' for Active; 'I' for Inactive)
ROOT
ATOM      1  C4' PXY d   1      -1.828   0.826   0.378  0.00  0.00     0.077 C 
ATOM      2  C1' PXY d   1       3.368  -0.413  -1.831  0.00  0.00     0.077 C 
ATOM      3  C1  PXY d   1       2.002  -0.101  -1.254  0.00  0.00    -0.082 A 
ATOM      4  C2  PXY d   1       1.562   1.147  -1.253  0.00  0.00     0.003 A 
ATOM      5  C3  PXY d   1       0.342   1.453  -0.706  0.00  0.00     0.003 A 
ATOM      6  C4  PXY d   1      -0.459   0.463  -0.203  0.00  0.00    -0.082 A 
ATOM      7  C5  PXY d   1      -0.022  -0.815  -0.210  0.00  0.00     0.003 A 
ATOM      8  C6  PXY d   1       1.237  -1.098  -0.732  0.00  0.00     0.003 A 
ENDROOT
TORSDOF 0
ENDMDL
