MODEL 1
REMARK minimizedAffinity -1.41619921
REMARK minimizedRMSD -1
REMARK  0 active torsions:
REMARK  status: ('A' for Active; 'I' for Inactive)
ROOT
ATOM      1  C4' PXY d   1      -2.113   0.483   1.773  0.00  0.00     0.077 C 
ATOM      2  C1' PXY d   1       2.013  -1.175  -1.921  0.00  0.00     0.077 C 
ATOM      3  C1  PXY d   1       0.935  -0.728  -0.954  0.00  0.00    -0.082 A 
ATOM      4  C2  PXY d   1       0.465  -1.581  -0.058  0.00  0.00     0.003 A 
ATOM      5  C3  PXY d   1      -0.533  -1.203   0.803  0.00  0.00     0.003 A 
ATOM      6  C4  PXY d   1      -1.018   0.078   0.782  0.00  0.00    -0.082 A 
ATOM      7  C5  PXY d   1      -0.536   0.957  -0.121  0.00  0.00     0.003 A 
ATOM      8  C6  PXY d   1       0.448   0.542  -1.014  0.00  0.00     0.003 A 
ENDROOT
TORSDOF 0
ENDMDL
