MODEL 1
REMARK minimizedAffinity -0.140720397
REMARK minimizedRMSD -1
REMARK  0 active torsions:
REMARK  status: ('A' for Active; 'I' for Inactive)
ROOT
ATOM      1  C4' PXY d   1       1.271   2.977  -2.959  0.00  0.00     0.077 C 
ATOM      2  C1' PXY d   1       2.255  -2.189  -0.558  0.00  0.00     0.077 C 
ATOM      3  C1  PXY d   1       1.984  -0.836  -1.187  0.00  0.00    -0.082 A 
ATOM      4  C2  PXY d   1       2.907  -0.273  -1.949  0.00  0.00     0.003 A 
ATOM      5  C3  PXY d   1       2.691   0.964  -2.499  0.00  0.00     0.003 A 
ATOM      6  C4  PXY d   1       1.498   1.608  -2.311  0.00  0.00    -0.082 A 
ATOM      7  C5  PXY d   1       0.547   1.035  -1.543  0.00  0.00     0.003 A 
ATOM      8  C6  PXY d   1       0.801  -0.203  -0.960  0.00  0.00     0.003 A 
ENDROOT
TORSDOF 0
ENDMDL
