MODEL 1
REMARK minimizedAffinity -2.46614122
REMARK minimizedRMSD -1
REMARK  1 active torsions:
REMARK  status: ('A' for Active; 'I' for Inactive)
REMARK    1  A    between atoms: C1_2  and  C2_3 
ROOT
ATOM      1  C2  UNL d   1       0.669   3.961  -3.791  0.00  0.00    -0.077 A 
ATOM      2  C3  UNL d   1       1.567   4.170  -4.846  0.00  0.00     0.002 A 
ATOM      3  C4  UNL d   1       1.199   4.951  -5.943  0.00  0.00     0.002 A 
ATOM      4  C5  UNL d   1      -0.067   5.532  -5.993  0.00  0.00    -0.004 A 
ATOM      5  C6  UNL d   1      -0.968   5.328  -4.950  0.00  0.00     0.002 A 
ATOM      6  C7  UNL d   1      -0.602   4.547  -3.853  0.00  0.00     0.002 A 
ENDROOT
BRANCH   1   7
ATOM      7  C1  UNL d   1       1.082   3.159  -2.584  0.00  0.00     0.055 C 
ATOM      8  C   UNL d   1       0.680   1.699  -2.725  0.00  0.00     0.019 C 
ENDBRANCH   1   7
TORSDOF 1
ENDMDL
