MODEL 1
REMARK minimizedAffinity -0.146849036
REMARK minimizedRMSD -1
REMARK  1 active torsions:
REMARK  status: ('A' for Active; 'I' for Inactive)
REMARK    1  A    between atoms: C1_2  and  C2_3 
ROOT
ATOM      1  C2  UNL d   1       1.233   4.360  -3.756  0.00  0.00    -0.077 A 
ATOM      2  C3  UNL d   1      -0.043   4.906  -3.553  0.00  0.00     0.002 A 
ATOM      3  C4  UNL d   1      -0.667   5.636  -4.566  0.00  0.00     0.002 A 
ATOM      4  C5  UNL d   1      -0.027   5.823  -5.789  0.00  0.00    -0.004 A 
ATOM      5  C6  UNL d   1       1.243   5.285  -6.000  0.00  0.00     0.002 A 
ATOM      6  C7  UNL d   1       1.869   4.556  -4.988  0.00  0.00     0.002 A 
ENDROOT
BRANCH   1   7
ATOM      7  C1  UNL d   1       1.887   3.530  -2.682  0.00  0.00     0.055 C 
ATOM      8  C   UNL d   1       1.577   2.051  -2.860  0.00  0.00     0.019 C 
ENDBRANCH   1   7
TORSDOF 1
ENDMDL
