MODEL 1
REMARK minimizedAffinity 7.9918704
REMARK minimizedRMSD -1
REMARK  1 active torsions:
REMARK  status: ('A' for Active; 'I' for Inactive)
REMARK    1  A    between atoms: C1_2  and  C2_3 
ROOT
ATOM      1  C2  UNL d   1       1.904   4.595  -4.508  0.00  0.00    -0.077 A 
ATOM      2  C3  UNL d   1       0.821   4.134  -3.748  0.00  0.00     0.002 A 
ATOM      3  C4  UNL d   1      -0.487   4.462  -4.111  0.00  0.00     0.002 A 
ATOM      4  C5  UNL d   1      -0.723   5.248  -5.236  0.00  0.00    -0.004 A 
ATOM      5  C6  UNL d   1       0.348   5.714  -5.998  0.00  0.00     0.002 A 
ATOM      6  C7  UNL d   1       1.656   5.388  -5.636  0.00  0.00     0.002 A 
ENDROOT
BRANCH   1   7
ATOM      7  C1  UNL d   1       3.313   4.202  -4.147  0.00  0.00     0.055 C 
ATOM      8  C   UNL d   1       3.891   3.223  -5.158  0.00  0.00     0.019 C 
ENDBRANCH   1   7
TORSDOF 1
ENDMDL
