MODEL 1
REMARK minimizedAffinity -1.35256326
REMARK minimizedRMSD -1
REMARK  1 active torsions:
REMARK  status: ('A' for Active; 'I' for Inactive)
REMARK    1  A    between atoms: C1_2  and  C2_3 
ROOT
ATOM      1  C2  UNL d   1      -3.797  -4.326   0.667  0.00  0.00    -0.077 A 
ATOM      2  C3  UNL d   1      -4.351  -3.288  -0.097  0.00  0.00     0.002 A 
ATOM      3  C4  UNL d   1      -3.835  -2.989  -1.360  0.00  0.00     0.002 A 
ATOM      4  C5  UNL d   1      -2.768  -3.724  -1.871  0.00  0.00    -0.004 A 
ATOM      5  C6  UNL d   1      -2.210  -4.756  -1.118  0.00  0.00     0.002 A 
ATOM      6  C7  UNL d   1      -2.722  -5.056   0.144  0.00  0.00     0.002 A 
ENDROOT
BRANCH   1   7
ATOM      7  C1  UNL d   1      -4.383  -4.683   2.008  0.00  0.00     0.055 C 
ATOM      8  C   UNL d   1      -5.417  -5.793   1.882  0.00  0.00     0.019 C 
ENDBRANCH   1   7
TORSDOF 1
ENDMDL
