MODEL 1
REMARK minimizedAffinity 6.81240177
REMARK minimizedRMSD -1
REMARK  1 active torsions:
REMARK  status: ('A' for Active; 'I' for Inactive)
REMARK    1  A    between atoms: C1_2  and  C2_3 
ROOT
ATOM      1  C2  UNL d   1      -5.931   1.772  -3.962  0.00  0.00    -0.077 A 
ATOM      2  C3  UNL d   1      -5.919   1.634  -5.357  0.00  0.00     0.002 A 
ATOM      3  C4  UNL d   1      -5.903   0.366  -5.941  0.00  0.00     0.002 A 
ATOM      4  C5  UNL d   1      -5.902  -0.773  -5.139  0.00  0.00    -0.004 A 
ATOM      5  C6  UNL d   1      -5.912  -0.646  -3.750  0.00  0.00     0.002 A 
ATOM      6  C7  UNL d   1      -5.927   0.620  -3.164  0.00  0.00     0.002 A 
ENDROOT
BRANCH   1   7
ATOM      7  C1  UNL d   1      -5.999   3.138  -3.330  0.00  0.00     0.055 C 
ATOM      8  C   UNL d   1      -5.971   3.047  -1.811  0.00  0.00     0.019 C 
ENDBRANCH   1   7
TORSDOF 1
ENDMDL
