MODEL 1
REMARK minimizedAffinity 5.93611908
REMARK minimizedRMSD -1
REMARK  1 active torsions:
REMARK  status: ('A' for Active; 'I' for Inactive)
REMARK    1  A    between atoms: C1_2  and  C2_3 
ROOT
ATOM      1  C2  UNL d   1      -3.060  -5.957  -4.365  0.00  0.00    -0.077 A 
ATOM      2  C3  UNL d   1      -4.001  -5.953  -3.326  0.00  0.00     0.002 A 
ATOM      3  C4  UNL d   1      -5.368  -5.969  -3.611  0.00  0.00     0.002 A 
ATOM      4  C5  UNL d   1      -5.805  -5.993  -4.933  0.00  0.00    -0.004 A 
ATOM      5  C6  UNL d   1      -4.877  -5.995  -5.974  0.00  0.00     0.002 A 
ATOM      6  C7  UNL d   1      -3.510  -5.978  -5.691  0.00  0.00     0.002 A 
ENDROOT
BRANCH   1   7
ATOM      7  C1  UNL d   1      -1.585  -5.990  -4.059  0.00  0.00     0.055 C 
ATOM      8  C   UNL d   1      -0.757  -5.653  -5.290  0.00  0.00     0.019 C 
ENDBRANCH   1   7
TORSDOF 1
ENDMDL
