MODEL 1
REMARK minimizedAffinity 3.07934117
REMARK minimizedRMSD -1
REMARK  1 active torsions:
REMARK  status: ('A' for Active; 'I' for Inactive)
REMARK    1  A    between atoms: C1_2  and  C2_3 
ROOT
ATOM      1  C2  UNL d   1      -3.546  -0.279   2.544  0.00  0.00    -0.077 A 
ATOM      2  C3  UNL d   1      -3.665   0.288   3.821  0.00  0.00     0.002 A 
ATOM      3  C4  UNL d   1      -2.628   0.163   4.748  0.00  0.00     0.002 A 
ATOM      4  C5  UNL d   1      -1.466  -0.525   4.408  0.00  0.00    -0.004 A 
ATOM      5  C6  UNL d   1      -1.339  -1.095   3.141  0.00  0.00     0.002 A 
ATOM      6  C7  UNL d   1      -2.374  -0.972   2.213  0.00  0.00     0.002 A 
ENDROOT
BRANCH   1   7
ATOM      7  C1  UNL d   1      -4.642  -0.103   1.526  0.00  0.00     0.055 C 
ATOM      8  C   UNL d   1      -5.445   1.163   1.790  0.00  0.00     0.019 C 
ENDBRANCH   1   7
TORSDOF 1
ENDMDL
