MODEL 1
REMARK minimizedAffinity 1.64123452
REMARK minimizedRMSD -1
REMARK  1 active torsions:
REMARK  status: ('A' for Active; 'I' for Inactive)
REMARK    1  A    between atoms: C1_2  and  C2_3 
ROOT
ATOM      1  C2  UNL d   1      -5.927   0.963  -4.301  0.00  0.00    -0.077 A 
ATOM      2  C3  UNL d   1      -5.867  -0.023  -3.306  0.00  0.00     0.002 A 
ATOM      3  C4  UNL d   1      -5.872   0.335  -1.957  0.00  0.00     0.002 A 
ATOM      4  C5  UNL d   1      -5.941   1.677  -1.590  0.00  0.00    -0.004 A 
ATOM      5  C6  UNL d   1      -5.999   2.665  -2.572  0.00  0.00     0.002 A 
ATOM      6  C7  UNL d   1      -5.993   2.310  -3.921  0.00  0.00     0.002 A 
ENDROOT
BRANCH   1   7
ATOM      7  C1  UNL d   1      -5.971   0.578  -5.757  0.00  0.00     0.055 C 
ATOM      8  C   UNL d   1      -5.924  -0.933  -5.931  0.00  0.00     0.019 C 
ENDBRANCH   1   7
TORSDOF 1
ENDMDL
