MODEL 1
REMARK minimizedAffinity -1.09235787
REMARK minimizedRMSD -1
REMARK  1 active torsions:
REMARK  status: ('A' for Active; 'I' for Inactive)
REMARK    1  A    between atoms: C1_2  and  C2_3 
ROOT
ATOM      1  C2  UNL d   1      -3.284  -0.997   3.054  0.00  0.00    -0.077 A 
ATOM      2  C3  UNL d   1      -2.051  -0.382   3.314  0.00  0.00     0.002 A 
ATOM      3  C4  UNL d   1      -1.706  -0.014   4.616  0.00  0.00     0.002 A 
ATOM      4  C5  UNL d   1      -2.586  -0.260   5.668  0.00  0.00    -0.004 A 
ATOM      5  C6  UNL d   1      -3.816  -0.869   5.419  0.00  0.00     0.002 A 
ATOM      6  C7  UNL d   1      -4.162  -1.237   4.118  0.00  0.00     0.002 A 
ENDROOT
BRANCH   1   7
ATOM      7  C1  UNL d   1      -3.636  -1.439   1.658  0.00  0.00     0.055 C 
ATOM      8  C   UNL d   1      -2.793  -2.630   1.225  0.00  0.00     0.019 C 
ENDBRANCH   1   7
TORSDOF 1
ENDMDL
