MODEL 1
REMARK minimizedAffinity -0.663659632
REMARK minimizedRMSD -1
REMARK  1 active torsions:
REMARK  status: ('A' for Active; 'I' for Inactive)
REMARK    1  A    between atoms: C1_2  and  C2_3 
ROOT
ATOM      1  C2  UNL d   1      -2.415  -0.533   3.132  0.00  0.00    -0.077 A 
ATOM      2  C3  UNL d   1      -1.870  -0.000   4.308  0.00  0.00     0.002 A 
ATOM      3  C4  UNL d   1      -2.671   0.186   5.437  0.00  0.00     0.002 A 
ATOM      4  C5  UNL d   1      -4.019  -0.161   5.401  0.00  0.00    -0.004 A 
ATOM      5  C6  UNL d   1      -4.571  -0.690   4.235  0.00  0.00     0.002 A 
ATOM      6  C7  UNL d   1      -3.773  -0.876   3.106  0.00  0.00     0.002 A 
ENDROOT
BRANCH   1   7
ATOM      7  C1  UNL d   1      -1.542  -0.781   1.930  0.00  0.00     0.055 C 
ATOM      8  C   UNL d   1      -0.843  -2.130   2.022  0.00  0.00     0.019 C 
ENDBRANCH   1   7
TORSDOF 1
ENDMDL
