MODEL 1
REMARK minimizedAffinity 8.34256458
REMARK minimizedRMSD -1
REMARK  1 active torsions:
REMARK  status: ('A' for Active; 'I' for Inactive)
REMARK    1  A    between atoms: C1_2  and  C2_3 
ROOT
ATOM      1  C2  UNL d   1       0.634   3.773  -3.630  0.00  0.00    -0.077 A 
ATOM      2  C3  UNL d   1      -0.607   4.423  -3.646  0.00  0.00     0.002 A 
ATOM      3  C4  UNL d   1      -1.093   4.988  -4.827  0.00  0.00     0.002 A 
ATOM      4  C5  UNL d   1      -0.346   4.905  -6.000  0.00  0.00    -0.004 A 
ATOM      5  C6  UNL d   1       0.891   4.262  -5.993  0.00  0.00     0.002 A 
ATOM      6  C7  UNL d   1       1.379   3.697  -4.814  0.00  0.00     0.002 A 
ENDROOT
BRANCH   1   7
ATOM      7  C1  UNL d   1       1.138   3.119  -2.369  0.00  0.00     0.055 C 
ATOM      8  C   UNL d   1       1.603   1.695  -2.632  0.00  0.00     0.019 C 
ENDBRANCH   1   7
TORSDOF 1
ENDMDL
