MODEL 1
REMARK minimizedAffinity 1.72602153
REMARK minimizedRMSD -1
REMARK  1 active torsions:
REMARK  status: ('A' for Active; 'I' for Inactive)
REMARK    1  A    between atoms: C1_2  and  C2_3 
ROOT
ATOM      1  C2  UNL d   1      -5.995   0.092  -2.965  0.00  0.00    -0.077 A 
ATOM      2  C3  UNL d   1      -5.971  -1.307  -3.059  0.00  0.00     0.002 A 
ATOM      3  C4  UNL d   1      -5.952  -1.930  -4.308  0.00  0.00     0.002 A 
ATOM      4  C5  UNL d   1      -5.952  -1.164  -5.471  0.00  0.00    -0.004 A 
ATOM      5  C6  UNL d   1      -5.978   0.228  -5.388  0.00  0.00     0.002 A 
ATOM      6  C7  UNL d   1      -5.999   0.853  -4.141  0.00  0.00     0.002 A 
ENDROOT
BRANCH   1   7
ATOM      7  C1  UNL d   1      -5.967   0.767  -1.618  0.00  0.00     0.055 C 
ATOM      8  C   UNL d   1      -5.683   2.256  -1.752  0.00  0.00     0.019 C 
ENDBRANCH   1   7
TORSDOF 1
ENDMDL
