MODEL 1
REMARK minimizedAffinity 0.150854111
REMARK minimizedRMSD -1
REMARK  1 active torsions:
REMARK  status: ('A' for Active; 'I' for Inactive)
REMARK    1  A    between atoms: C1_2  and  C2_3 
ROOT
ATOM      1  C2  UNL d   1      -6.000  -0.080  -3.110  0.00  0.00    -0.077 A 
ATOM      2  C3  UNL d   1      -5.987   1.297  -3.371  0.00  0.00     0.002 A 
ATOM      3  C4  UNL d   1      -5.975   2.216  -2.320  0.00  0.00     0.002 A 
ATOM      4  C5  UNL d   1      -5.971   1.767  -1.001  0.00  0.00    -0.004 A 
ATOM      5  C6  UNL d   1      -5.986   0.399  -0.730  0.00  0.00     0.002 A 
ATOM      6  C7  UNL d   1      -5.999  -0.520  -1.780  0.00  0.00     0.002 A 
ENDROOT
BRANCH   1   7
ATOM      7  C1  UNL d   1      -5.963  -1.073  -4.243  0.00  0.00     0.055 C 
ATOM      8  C   UNL d   1      -5.687  -0.385  -5.572  0.00  0.00     0.019 C 
ENDBRANCH   1   7
TORSDOF 1
ENDMDL
