MODEL 1
REMARK minimizedAffinity 8.25585938
REMARK minimizedRMSD -1
REMARK  1 active torsions:
REMARK  status: ('A' for Active; 'I' for Inactive)
REMARK    1  A    between atoms: C1_2  and  C2_3 
ROOT
ATOM      1  C2  UNL d   1       5.324   2.830   2.706  0.00  0.00    -0.077 A 
ATOM      2  C3  UNL d   1       6.000   3.947   3.218  0.00  0.00     0.002 A 
ATOM      3  C4  UNL d   1       5.358   5.184   3.300  0.00  0.00     0.002 A 
ATOM      4  C5  UNL d   1       4.037   5.315   2.876  0.00  0.00    -0.004 A 
ATOM      5  C6  UNL d   1       3.358   4.211   2.363  0.00  0.00     0.002 A 
ATOM      6  C7  UNL d   1       3.998   2.974   2.279  0.00  0.00     0.002 A 
ENDROOT
BRANCH   1   7
ATOM      7  C1  UNL d   1       5.999   1.484   2.662  0.00  0.00     0.055 C 
ATOM      8  C   UNL d   1       4.981   0.353   2.712  0.00  0.00     0.019 C 
ENDBRANCH   1   7
TORSDOF 1
ENDMDL
