MODEL 1
REMARK minimizedAffinity 8.59962845
REMARK minimizedRMSD -1
REMARK  0 active torsions:
REMARK  status: ('A' for Active; 'I' for Inactive)
ROOT
ATOM      1  C   UNL d   1       1.676  -1.295   3.866  0.00  0.00    -0.002 A 
ATOM      2  C1  UNL d   1       1.281  -0.738   2.657  0.00  0.00     0.010 A 
ATOM      3  C2  UNL d   1       2.202  -0.559   1.623  0.00  0.00     0.041 A 
ATOM      4  C3  UNL d   1       3.539  -0.954   1.826  0.00  0.00    -0.075 A 
ATOM      5  S   UNL d   1       4.841  -0.832   0.701  0.00  0.00     0.015 SA
ATOM      6  C4  UNL d   1       5.951  -1.515   1.798  0.00  0.00     0.022 A 
ATOM      7  C5  UNL d   1       5.361  -1.835   2.998  0.00  0.00     0.026 A 
ATOM      8  C6  UNL d   1       3.961  -1.517   3.033  0.00  0.00    -0.082 A 
ATOM      9  C7  UNL d   1       3.003  -1.685   4.063  0.00  0.00     0.045 A 
ENDROOT
TORSDOF 0
ENDMDL
