MODEL 1
REMARK minimizedAffinity 14.5546694
REMARK minimizedRMSD -1
REMARK  0 active torsions:
REMARK  status: ('A' for Active; 'I' for Inactive)
ROOT
ATOM      1  C   UNL d   1       2.240  -1.551   3.561  0.00  0.00    -0.002 A 
ATOM      2  C1  UNL d   1       2.050  -0.911   4.778  0.00  0.00     0.010 A 
ATOM      3  C2  UNL d   1       2.188   0.474   4.881  0.00  0.00     0.041 A 
ATOM      4  C3  UNL d   1       2.521   1.213   3.729  0.00  0.00    -0.075 A 
ATOM      5  S   UNL d   1       2.742   2.920   3.617  0.00  0.00     0.015 SA
ATOM      6  C4  UNL d   1       3.092   2.840   1.951  0.00  0.00     0.022 A 
ATOM      7  C5  UNL d   1       3.047   1.551   1.475  0.00  0.00     0.026 A 
ATOM      8  C6  UNL d   1       2.717   0.592   2.492  0.00  0.00    -0.082 A 
ATOM      9  C7  UNL d   1       2.570  -0.814   2.420  0.00  0.00     0.045 A 
ENDROOT
TORSDOF 0
ENDMDL
