MODEL 1
REMARK minimizedAffinity 17.1916389
REMARK minimizedRMSD -1
REMARK  0 active torsions:
REMARK  status: ('A' for Active; 'I' for Inactive)
ROOT
ATOM      1  C   UNL d   1       2.339  -0.011   2.923  0.00  0.00    -0.002 A 
ATOM      2  C1  UNL d   1       2.725  -0.677   1.768  0.00  0.00     0.010 A 
ATOM      3  C2  UNL d   1       2.775  -2.071   1.735  0.00  0.00     0.041 A 
ATOM      4  C3  UNL d   1       2.425  -2.794   2.893  0.00  0.00    -0.075 A 
ATOM      5  S   UNL d   1       2.411  -4.507   3.084  0.00  0.00     0.015 SA
ATOM      6  C4  UNL d   1       1.891  -4.397   4.704  0.00  0.00     0.022 A 
ATOM      7  C5  UNL d   1       1.727  -3.092   5.105  0.00  0.00     0.026 A 
ATOM      8  C6  UNL d   1       2.032  -2.147   4.067  0.00  0.00    -0.082 A 
ATOM      9  C7  UNL d   1       1.992  -0.731   4.070  0.00  0.00     0.045 A 
ENDROOT
TORSDOF 0
ENDMDL
