MODEL 1
REMARK minimizedAffinity 10.0684128
REMARK minimizedRMSD -1
REMARK  0 active torsions:
REMARK  status: ('A' for Active; 'I' for Inactive)
ROOT
ATOM      1  C   UNL d   1       1.520  -4.100   5.069  0.00  0.00    -0.002 A 
ATOM      2  C1  UNL d   1       2.825  -4.531   4.872  0.00  0.00     0.010 A 
ATOM      3  C2  UNL d   1       3.736  -3.737   4.173  0.00  0.00     0.041 A 
ATOM      4  C3  UNL d   1       3.311  -2.491   3.671  0.00  0.00    -0.075 A 
ATOM      5  S   UNL d   1       4.254  -1.351   2.786  0.00  0.00     0.015 SA
ATOM      6  C4  UNL d   1       2.947  -0.265   2.649  0.00  0.00     0.022 A 
ATOM      7  C5  UNL d   1       1.812  -0.745   3.258  0.00  0.00     0.026 A 
ATOM      8  C6  UNL d   1       2.003  -2.036   3.858  0.00  0.00    -0.082 A 
ATOM      9  C7  UNL d   1       1.102  -2.864   4.570  0.00  0.00     0.045 A 
ENDROOT
TORSDOF 0
ENDMDL
