MODEL 1
REMARK minimizedAffinity 13.9568567
REMARK minimizedRMSD -1
REMARK  0 active torsions:
REMARK  status: ('A' for Active; 'I' for Inactive)
ROOT
ATOM      1  C   UNL d   1       2.116  -1.875   3.478  0.00  0.00    -0.002 A 
ATOM      2  C1  UNL d   1       1.965  -1.177   4.668  0.00  0.00     0.010 A 
ATOM      3  C2  UNL d   1       2.163   0.204   4.711  0.00  0.00     0.041 A 
ATOM      4  C3  UNL d   1       2.517   0.879   3.527  0.00  0.00    -0.075 A 
ATOM      5  S   UNL d   1       2.809   2.568   3.341  0.00  0.00     0.015 SA
ATOM      6  C4  UNL d   1       3.140   2.404   1.677  0.00  0.00     0.022 A 
ATOM      7  C5  UNL d   1       3.035   1.099   1.257  0.00  0.00     0.026 A 
ATOM      8  C6  UNL d   1       2.674   0.199   2.316  0.00  0.00    -0.082 A 
ATOM      9  C7  UNL d   1       2.467  -1.201   2.305  0.00  0.00     0.045 A 
ENDROOT
TORSDOF 0
ENDMDL
