MODEL 1
REMARK minimizedAffinity 19.6321888
REMARK minimizedRMSD -1
REMARK  0 active torsions:
REMARK  status: ('A' for Active; 'I' for Inactive)
ROOT
ATOM      1  C   UNL d   1      -6.000   3.410   1.794  0.00  0.00    -0.002 A 
ATOM      2  C1  UNL d   1      -5.447   2.647   2.813  0.00  0.00     0.010 A 
ATOM      3  C2  UNL d   1      -4.070   2.421   2.864  0.00  0.00     0.041 A 
ATOM      4  C3  UNL d   1      -3.250   2.983   1.866  0.00  0.00    -0.075 A 
ATOM      5  S   UNL d   1      -1.537   2.842   1.727  0.00  0.00     0.015 SA
ATOM      6  C4  UNL d   1      -1.498   3.792   0.313  0.00  0.00     0.022 A 
ATOM      7  C5  UNL d   1      -2.753   4.215  -0.059  0.00  0.00     0.026 A 
ATOM      8  C6  UNL d   1      -3.783   3.756   0.831  0.00  0.00    -0.082 A 
ATOM      9  C7  UNL d   1      -5.183   3.965   0.806  0.00  0.00     0.045 A 
ENDROOT
TORSDOF 0
ENDMDL
