MODEL 1
REMARK minimizedAffinity 14.1612291
REMARK minimizedRMSD -1
REMARK  0 active torsions:
REMARK  status: ('A' for Active; 'I' for Inactive)
ROOT
ATOM      1  C   UNL d   1      -5.994   3.175   1.946  0.00  0.00    -0.002 A 
ATOM      2  C1  UNL d   1      -5.414   2.674   3.102  0.00  0.00     0.010 A 
ATOM      3  C2  UNL d   1      -4.025   2.642   3.244  0.00  0.00     0.041 A 
ATOM      4  C3  UNL d   1      -3.222   3.130   2.194  0.00  0.00    -0.075 A 
ATOM      5  S   UNL d   1      -1.499   3.192   2.146  0.00  0.00     0.015 SA
ATOM      6  C4  UNL d   1      -1.494   3.886   0.589  0.00  0.00     0.022 A 
ATOM      7  C5  UNL d   1      -2.766   4.073   0.103  0.00  0.00     0.026 A 
ATOM      8  C6  UNL d   1      -3.783   3.641   1.020  0.00  0.00    -0.082 A 
ATOM      9  C7  UNL d   1      -5.194   3.658   0.907  0.00  0.00     0.045 A 
ENDROOT
TORSDOF 0
ENDMDL
