MODEL 1
REMARK minimizedAffinity -3.71996832
REMARK minimizedRMSD -1
REMARK  0 active torsions:
REMARK  status: ('A' for Active; 'I' for Inactive)
ROOT
ATOM      1  C   UNL d   1      -0.115  -0.424  -0.840  0.00  0.00     0.172 C 
ATOM      2  N   UNL d   1      -0.251   0.593   0.176  0.00  0.00    -0.070 N 
ATOM      3  C1  UNL d   1      -0.086   0.403   1.522  0.00  0.00    -0.004 A 
ATOM      4  C2  UNL d   1      -0.300   1.612   2.148  0.00  0.00    -0.047 A 
ATOM      5  C3  UNL d   1      -0.606   2.561   1.144  0.00  0.00    -0.047 A 
ATOM      6  C4  UNL d   1      -0.568   1.903  -0.067  0.00  0.00    -0.004 A 
ENDROOT
TORSDOF 0
ENDMDL
