MODEL 1
REMARK minimizedAffinity -4.06705856
REMARK minimizedRMSD -1
REMARK  0 active torsions:
REMARK  status: ('A' for Active; 'I' for Inactive)
ROOT
ATOM      1  C   UNL d   1       0.068  -0.417  -0.342  0.00  0.00     0.172 C 
ATOM      2  N   UNL d   1      -0.202   0.593   0.655  0.00  0.00    -0.070 N 
ATOM      3  C1  UNL d   1       0.189   0.546   1.966  0.00  0.00    -0.004 A 
ATOM      4  C2  UNL d   1      -0.261   1.693   2.583  0.00  0.00    -0.047 A 
ATOM      5  C3  UNL d   1      -0.947   2.457   1.608  0.00  0.00    -0.047 A 
ATOM      6  C4  UNL d   1      -0.895   1.752   0.424  0.00  0.00    -0.004 A 
ENDROOT
TORSDOF 0
ENDMDL
