MODEL 1
REMARK minimizedAffinity -3.72460246
REMARK minimizedRMSD -1
REMARK  0 active torsions:
REMARK  status: ('A' for Active; 'I' for Inactive)
ROOT
ATOM      1  C   UNL d   1      -0.781   0.320   0.981  0.00  0.00     0.172 C 
ATOM      2  N   UNL d   1      -0.382   1.678   1.270  0.00  0.00    -0.070 N 
ATOM      3  C1  UNL d   1      -0.855   2.800   0.644  0.00  0.00    -0.004 A 
ATOM      4  C2  UNL d   1      -0.230   3.892   1.205  0.00  0.00    -0.047 A 
ATOM      5  C3  UNL d   1       0.652   3.410   2.202  0.00  0.00    -0.047 A 
ATOM      6  C4  UNL d   1       0.537   2.036   2.221  0.00  0.00    -0.004 A 
ENDROOT
TORSDOF 0
ENDMDL
