MODEL 1
REMARK minimizedAffinity -2.90287638
REMARK minimizedRMSD -1
REMARK  0 active torsions:
REMARK  status: ('A' for Active; 'I' for Inactive)
ROOT
ATOM      1  C   UNL d   1       0.701  -0.945  -1.416  0.00  0.00     0.172 C 
ATOM      2  N   UNL d   1       0.414  -0.309  -0.152  0.00  0.00    -0.070 N 
ATOM      3  C1  UNL d   1       1.057  -0.560   1.031  0.00  0.00    -0.004 A 
ATOM      4  C2  UNL d   1       0.493   0.246   1.996  0.00  0.00    -0.047 A 
ATOM      5  C3  UNL d   1      -0.524   1.007   1.372  0.00  0.00    -0.047 A 
ATOM      6  C4  UNL d   1      -0.551   0.643   0.042  0.00  0.00    -0.004 A 
ENDROOT
TORSDOF 0
ENDMDL
