MODEL 1
REMARK minimizedAffinity -3.02446604
REMARK minimizedRMSD -1
REMARK  0 active torsions:
REMARK  status: ('A' for Active; 'I' for Inactive)
ROOT
ATOM      1  C   UNL d   1      -0.123   0.260  -1.424  0.00  0.00     0.172 C 
ATOM      2  N   UNL d   1      -0.438   0.946  -0.192  0.00  0.00    -0.070 N 
ATOM      3  C1  UNL d   1       0.171   0.737   1.016  0.00  0.00    -0.004 A 
ATOM      4  C2  UNL d   1      -0.411   1.583   1.934  0.00  0.00    -0.047 A 
ATOM      5  C3  UNL d   1      -1.406   2.326   1.255  0.00  0.00    -0.047 A 
ATOM      6  C4  UNL d   1      -1.401   1.911  -0.060  0.00  0.00    -0.004 A 
ENDROOT
TORSDOF 0
ENDMDL
