MODEL 1
REMARK minimizedAffinity -3.14656448
REMARK minimizedRMSD -1
REMARK  0 active torsions:
REMARK  status: ('A' for Active; 'I' for Inactive)
ROOT
ATOM      1  C   UNL d   1       1.217  -0.365   1.063  0.00  0.00     0.172 C 
ATOM      2  N   UNL d   1       0.152   0.438   0.510  0.00  0.00    -0.070 N 
ATOM      3  C1  UNL d   1      -0.174   0.528  -0.817  0.00  0.00    -0.004 A 
ATOM      4  C2  UNL d   1      -1.241   1.392  -0.932  0.00  0.00    -0.047 A 
ATOM      5  C3  UNL d   1      -1.567   1.838   0.371  0.00  0.00    -0.047 A 
ATOM      6  C4  UNL d   1      -0.689   1.233   1.244  0.00  0.00    -0.004 A 
ENDROOT
TORSDOF 0
ENDMDL
