MODEL 1
REMARK minimizedAffinity -0.316236138
REMARK minimizedRMSD -1
REMARK  1 active torsions:
REMARK  status: ('A' for Active; 'I' for Inactive)
REMARK    1  A    between atoms: C1_2  and  C2_3 
ROOT
ATOM      1  C2  UNL d   1      -1.006   1.995   1.327  0.00  0.00    -0.076 A 
ATOM      2  C3  UNL d   1      -1.163   0.630   1.627  0.00  0.00     0.004 A 
ATOM      3  C4  UNL d   1      -0.351  -0.333   1.032  0.00  0.00    -0.003 A 
ATOM      4  C5  UNL d   1       0.631   0.051   0.126  0.00  0.00     0.000 A 
ATOM      5  C6  UNL d   1       0.813   1.402  -0.170  0.00  0.00     0.000 A 
ATOM      6  C7  UNL d   1       0.014   2.388   0.434  0.00  0.00    -0.073 A 
ATOM      7  C8  UNL d   1       0.249   3.829   0.073  0.00  0.00     0.078 C 
ENDROOT
BRANCH   1   8
ATOM      8  C1  UNL d   1      -1.933   2.992   1.984  0.00  0.00     0.053 C 
ATOM      9  C   UNL d   1      -1.354   3.569   3.267  0.00  0.00     0.018 C 
ENDBRANCH   1   8
TORSDOF 1
ENDMDL
