MODEL 1
REMARK minimizedAffinity -3.0218308
REMARK minimizedRMSD -1
REMARK  1 active torsions:
REMARK  status: ('A' for Active; 'I' for Inactive)
REMARK    1  A    between atoms: C1_2  and  C2_3 
ROOT
ATOM      1  C2  UNL d   1       0.106  -0.445  -0.001  0.00  0.00    -0.076 A 
ATOM      2  C3  UNL d   1      -1.222   0.013  -0.043  0.00  0.00     0.004 A 
ATOM      3  C4  UNL d   1      -1.524   1.358   0.162  0.00  0.00    -0.003 A 
ATOM      4  C5  UNL d   1      -0.502   2.268   0.411  0.00  0.00     0.000 A 
ATOM      5  C6  UNL d   1       0.823   1.834   0.438  0.00  0.00     0.000 A 
ATOM      6  C7  UNL d   1       1.146   0.484   0.217  0.00  0.00    -0.073 A 
ATOM      7  C8  UNL d   1       2.591   0.071   0.263  0.00  0.00     0.078 C 
ENDROOT
BRANCH   1   8
ATOM      8  C1  UNL d   1       0.370  -1.920  -0.204  0.00  0.00     0.053 C 
ATOM      9  C   UNL d   1      -0.416  -2.498  -1.370  0.00  0.00     0.018 C 
ENDBRANCH   1   8
TORSDOF 1
ENDMDL
