MODEL 1
REMARK minimizedAffinity -5.38746166
REMARK minimizedRMSD -1
REMARK  1 active torsions:
REMARK  status: ('A' for Active; 'I' for Inactive)
REMARK    1  A    between atoms: C1_2  and  C2_3 
ROOT
ATOM      1  C2  UNL d   1       0.186   0.005   0.272  0.00  0.00    -0.076 A 
ATOM      2  C3  UNL d   1      -1.151   0.410   0.431  0.00  0.00     0.004 A 
ATOM      3  C4  UNL d   1      -1.503   1.758   0.384  0.00  0.00    -0.003 A 
ATOM      4  C5  UNL d   1      -0.523   2.723   0.176  0.00  0.00     0.000 A 
ATOM      5  C6  UNL d   1       0.805   2.339  -0.001  0.00  0.00     0.000 A 
ATOM      6  C7  UNL d   1       1.174   0.983   0.027  0.00  0.00    -0.073 A 
ATOM      7  C8  UNL d   1       2.623   0.625  -0.165  0.00  0.00     0.078 C 
ENDROOT
BRANCH   1   8
ATOM      8  C1  UNL d   1       0.512  -1.468   0.359  0.00  0.00     0.053 C 
ATOM      9  C   UNL d   1      -0.409  -2.321  -0.500  0.00  0.00     0.018 C 
ENDBRANCH   1   8
TORSDOF 1
ENDMDL
