MODEL 1
REMARK minimizedAffinity -4.09542751
REMARK minimizedRMSD -1
REMARK  1 active torsions:
REMARK  status: ('A' for Active; 'I' for Inactive)
REMARK    1  A    between atoms: C1_2  and  C2_3 
ROOT
ATOM      1  C2  UNL d   1       0.025  -0.380  -0.010  0.00  0.00    -0.076 A 
ATOM      2  C3  UNL d   1      -0.697   0.694  -0.561  0.00  0.00     0.004 A 
ATOM      3  C4  UNL d   1      -0.178   1.987  -0.550  0.00  0.00    -0.003 A 
ATOM      4  C5  UNL d   1       1.071   2.229   0.011  0.00  0.00     0.000 A 
ATOM      5  C6  UNL d   1       1.808   1.173   0.547  0.00  0.00     0.000 A 
ATOM      6  C7  UNL d   1       1.307  -0.140   0.529  0.00  0.00    -0.073 A 
ATOM      7  C8  UNL d   1       2.141  -1.240   1.126  0.00  0.00     0.078 C 
ENDROOT
BRANCH   1   8
ATOM      8  C1  UNL d   1      -0.601  -1.756  -0.026  0.00  0.00     0.053 C 
ATOM      9  C   UNL d   1      -0.661  -2.353  -1.424  0.00  0.00     0.018 C 
ENDBRANCH   1   8
TORSDOF 1
ENDMDL
