MODEL 1
REMARK minimizedAffinity -5.33223152
REMARK minimizedRMSD -1
REMARK  1 active torsions:
REMARK  status: ('A' for Active; 'I' for Inactive)
REMARK    1  A    between atoms: C1_2  and  C2_3 
ROOT
ATOM      1  C2  UNL d   1      -0.312   0.914  -0.568  0.00  0.00    -0.076 A 
ATOM      2  C3  UNL d   1       0.878   1.529  -0.997  0.00  0.00     0.004 A 
ATOM      3  C4  UNL d   1       1.224   2.806  -0.558  0.00  0.00    -0.003 A 
ATOM      4  C5  UNL d   1       0.386   3.489   0.317  0.00  0.00     0.000 A 
ATOM      5  C6  UNL d   1      -0.789   2.888   0.766  0.00  0.00     0.000 A 
ATOM      6  C7  UNL d   1      -1.145   1.594   0.346  0.00  0.00    -0.073 A 
ATOM      7  C8  UNL d   1      -2.427   0.996   0.857  0.00  0.00     0.078 C 
ENDROOT
BRANCH   1   8
ATOM      8  C1  UNL d   1      -0.648  -0.461  -1.099  0.00  0.00     0.053 C 
ATOM      9  C   UNL d   1       0.036  -1.571  -0.316  0.00  0.00     0.018 C 
ENDBRANCH   1   8
TORSDOF 1
ENDMDL
