MODEL 1
REMARK minimizedAffinity -2.41960168
REMARK minimizedRMSD -1
REMARK  1 active torsions:
REMARK  status: ('A' for Active; 'I' for Inactive)
REMARK    1  A    between atoms: C1_2  and  C2_3 
ROOT
ATOM      1  C2  UNL d   1       0.279   0.848   0.071  0.00  0.00    -0.076 A 
ATOM      2  C3  UNL d   1      -0.935   0.148   0.178  0.00  0.00     0.004 A 
ATOM      3  C4  UNL d   1      -0.954  -1.234   0.357  0.00  0.00    -0.003 A 
ATOM      4  C5  UNL d   1       0.242  -1.939   0.432  0.00  0.00     0.000 A 
ATOM      5  C6  UNL d   1       1.456  -1.260   0.345  0.00  0.00     0.000 A 
ATOM      6  C7  UNL d   1       1.493   0.136   0.181  0.00  0.00    -0.073 A 
ATOM      7  C8  UNL d   1       2.831   0.817   0.087  0.00  0.00     0.078 C 
ENDROOT
BRANCH   1   8
ATOM      8  C1  UNL d   1       0.237   2.343  -0.150  0.00  0.00     0.053 C 
ATOM      9  C   UNL d   1      -0.292   3.096   1.062  0.00  0.00     0.018 C 
ENDBRANCH   1   8
TORSDOF 1
ENDMDL
