MODEL 1
REMARK minimizedAffinity -3.95418906
REMARK minimizedRMSD -1
REMARK  1 active torsions:
REMARK  status: ('A' for Active; 'I' for Inactive)
REMARK    1  A    between atoms: C1_2  and  C2_3 
ROOT
ATOM      1  C2  UNL d   1      -0.529   1.294   0.314  0.00  0.00    -0.076 A 
ATOM      2  C3  UNL d   1       0.279   2.430   0.132  0.00  0.00     0.004 A 
ATOM      3  C4  UNL d   1       0.118   3.559   0.934  0.00  0.00    -0.003 A 
ATOM      4  C5  UNL d   1      -0.852   3.570   1.930  0.00  0.00     0.000 A 
ATOM      5  C6  UNL d   1      -1.650   2.445   2.135  0.00  0.00     0.000 A 
ATOM      6  C7  UNL d   1      -1.490   1.293   1.347  0.00  0.00    -0.073 A 
ATOM      7  C8  UNL d   1      -2.382   0.110   1.608  0.00  0.00     0.078 C 
ENDROOT
BRANCH   1   8
ATOM      8  C1  UNL d   1      -0.327   0.108  -0.603  0.00  0.00     0.053 C 
ATOM      9  C   UNL d   1       0.786  -0.812  -0.129  0.00  0.00     0.018 C 
ENDBRANCH   1   8
TORSDOF 1
ENDMDL
