MODEL 1
REMARK minimizedAffinity -4.73562145
REMARK minimizedRMSD -1
REMARK  1 active torsions:
REMARK  status: ('A' for Active; 'I' for Inactive)
REMARK    1  A    between atoms: C1_2  and  C2_3 
ROOT
ATOM      1  C2  UNL d   1       0.434   0.876   0.157  0.00  0.00    -0.076 A 
ATOM      2  C3  UNL d   1      -0.323  -0.196   0.660  0.00  0.00     0.004 A 
ATOM      3  C4  UNL d   1      -1.464   0.028   1.428  0.00  0.00    -0.003 A 
ATOM      4  C5  UNL d   1      -1.868   1.330   1.706  0.00  0.00     0.000 A 
ATOM      5  C6  UNL d   1      -1.139   2.406   1.201  0.00  0.00     0.000 A 
ATOM      6  C7  UNL d   1       0.005   2.197   0.411  0.00  0.00    -0.073 A 
ATOM      7  C8  UNL d   1       0.757   3.394  -0.102  0.00  0.00     0.078 C 
ENDROOT
BRANCH   1   8
ATOM      8  C1  UNL d   1       1.677   0.571  -0.647  0.00  0.00     0.053 C 
ATOM      9  C   UNL d   1       2.875   0.248   0.232  0.00  0.00     0.018 C 
ENDBRANCH   1   8
TORSDOF 1
ENDMDL
