MODEL 1
REMARK minimizedAffinity -4.92886543
REMARK minimizedRMSD -1
REMARK  1 active torsions:
REMARK  status: ('A' for Active; 'I' for Inactive)
REMARK    1  A    between atoms: C1_2  and  C2_3 
ROOT
ATOM      1  C2  UNL d   1       0.111   0.125   0.032  0.00  0.00    -0.076 A 
ATOM      2  C3  UNL d   1      -0.985   1.005   0.012  0.00  0.00     0.004 A 
ATOM      3  C4  UNL d   1      -0.830   2.352   0.332  0.00  0.00    -0.003 A 
ATOM      4  C5  UNL d   1       0.425   2.843   0.676  0.00  0.00     0.000 A 
ATOM      5  C6  UNL d   1       1.527   1.988   0.684  0.00  0.00     0.000 A 
ATOM      6  C7  UNL d   1       1.390   0.630   0.348  0.00  0.00    -0.073 A 
ATOM      7  C8  UNL d   1       2.612  -0.247   0.379  0.00  0.00     0.078 C 
ENDROOT
BRANCH   1   8
ATOM      8  C1  UNL d   1      -0.123  -1.332  -0.297  0.00  0.00     0.053 C 
ATOM      9  C   UNL d   1      -0.475  -1.549  -1.761  0.00  0.00     0.018 C 
ENDBRANCH   1   8
TORSDOF 1
ENDMDL
