MODEL 1
REMARK minimizedAffinity -3.32559085
REMARK minimizedRMSD -1
REMARK  1 active torsions:
REMARK  status: ('A' for Active; 'I' for Inactive)
REMARK    1  A    between atoms: C1_2  and  C2_3 
ROOT
ATOM      1  C2  UNL d   1      -1.028   1.364   0.495  0.00  0.00    -0.076 A 
ATOM      2  C3  UNL d   1      -1.971   0.769   1.350  0.00  0.00     0.004 A 
ATOM      3  C4  UNL d   1      -2.211   1.284   2.623  0.00  0.00    -0.003 A 
ATOM      4  C5  UNL d   1      -1.512   2.403   3.061  0.00  0.00     0.000 A 
ATOM      5  C6  UNL d   1      -0.585   3.017   2.219  0.00  0.00     0.000 A 
ATOM      6  C7  UNL d   1      -0.343   2.520   0.927  0.00  0.00    -0.073 A 
ATOM      7  C8  UNL d   1       0.672   3.218   0.064  0.00  0.00     0.078 C 
ENDROOT
BRANCH   1   8
ATOM      8  C1  UNL d   1      -0.791   0.745  -0.864  0.00  0.00     0.053 C 
ATOM      9  C   UNL d   1      -0.138  -0.625  -0.774  0.00  0.00     0.018 C 
ENDBRANCH   1   8
TORSDOF 1
ENDMDL
