MODEL 1
REMARK minimizedAffinity -2.35536075
REMARK minimizedRMSD -1
REMARK  1 active torsions:
REMARK  status: ('A' for Active; 'I' for Inactive)
REMARK    1  A    between atoms: C1_2  and  C2_3 
ROOT
ATOM      1  C2  UNL d   1      -0.741   2.123   1.093  0.00  0.00    -0.076 A 
ATOM      2  C3  UNL d   1       0.066   2.958   0.301  0.00  0.00     0.004 A 
ATOM      3  C4  UNL d   1       0.911   2.428  -0.672  0.00  0.00    -0.003 A 
ATOM      4  C5  UNL d   1       0.964   1.052  -0.868  0.00  0.00     0.000 A 
ATOM      5  C6  UNL d   1       0.158   0.209  -0.104  0.00  0.00     0.000 A 
ATOM      6  C7  UNL d   1      -0.712   0.729   0.870  0.00  0.00    -0.073 A 
ATOM      7  C8  UNL d   1      -1.554  -0.226   1.670  0.00  0.00     0.078 C 
ENDROOT
BRANCH   1   8
ATOM      8  C1  UNL d   1      -1.618   2.753   2.151  0.00  0.00     0.053 C 
ATOM      9  C   UNL d   1      -0.812   3.373   3.282  0.00  0.00     0.018 C 
ENDBRANCH   1   8
TORSDOF 1
ENDMDL
