MODEL 1
REMARK minimizedAffinity -3.52803183
REMARK minimizedRMSD -1
REMARK  1 active torsions:
REMARK  status: ('A' for Active; 'I' for Inactive)
REMARK    1  A    between atoms: C1_2  and  C2_3 
ROOT
ATOM      1  C2  UNL d   1      -0.070  -1.160   0.546  0.00  0.00    -0.076 A 
ATOM      2  C3  UNL d   1       1.334  -1.148   0.480  0.00  0.00     0.004 A 
ATOM      3  C4  UNL d   1       2.054   0.021   0.722  0.00  0.00    -0.003 A 
ATOM      4  C5  UNL d   1       1.381   1.197   1.034  0.00  0.00     0.000 A 
ATOM      5  C6  UNL d   1      -0.011   1.199   1.121  0.00  0.00     0.000 A 
ATOM      6  C7  UNL d   1      -0.751   0.025   0.896  0.00  0.00    -0.073 A 
ATOM      7  C8  UNL d   1      -2.250   0.087   0.998  0.00  0.00     0.078 C 
ENDROOT
BRANCH   1   8
ATOM      8  C1  UNL d   1      -0.798  -2.451   0.247  0.00  0.00     0.053 C 
ATOM      9  C   UNL d   1      -0.806  -2.786  -1.237  0.00  0.00     0.018 C 
ENDBRANCH   1   8
TORSDOF 1
ENDMDL
