MODEL 1
REMARK minimizedAffinity -2.10950136
REMARK minimizedRMSD -1
REMARK  1 active torsions:
REMARK  status: ('A' for Active; 'I' for Inactive)
REMARK    1  A    between atoms: C1_2  and  C2_3 
ROOT
ATOM      1  C2  UNL d   1       0.634   0.559   0.571  0.00  0.00    -0.076 A 
ATOM      2  C3  UNL d   1       0.606   1.817   1.196  0.00  0.00     0.004 A 
ATOM      3  C4  UNL d   1      -0.527   2.627   1.127  0.00  0.00    -0.003 A 
ATOM      4  C5  UNL d   1      -1.649   2.191   0.432  0.00  0.00     0.000 A 
ATOM      5  C6  UNL d   1      -1.645   0.937  -0.179  0.00  0.00     0.000 A 
ATOM      6  C7  UNL d   1      -0.517   0.102  -0.105  0.00  0.00    -0.073 A 
ATOM      7  C8  UNL d   1      -0.565  -1.238  -0.788  0.00  0.00     0.078 C 
ENDROOT
BRANCH   1   8
ATOM      8  C1  UNL d   1       1.900  -0.264   0.657  0.00  0.00     0.053 C 
ATOM      9  C   UNL d   1       3.132   0.515   0.222  0.00  0.00     0.018 C 
ENDBRANCH   1   8
TORSDOF 1
ENDMDL
