MODEL 1
REMARK minimizedAffinity -3.03697228
REMARK minimizedRMSD -1
REMARK  1 active torsions:
REMARK  status: ('A' for Active; 'I' for Inactive)
REMARK    1  A    between atoms: N_2  and  C1_3 
ROOT
ATOM      1  C1  UNL d   1      -0.399  -0.285   0.547  0.00  0.00     0.143 A 
ATOM      2  C2  UNL d   1      -1.663   0.178   0.166  0.00  0.00    -0.057 A 
ATOM      3  C3  UNL d   1      -2.812  -0.596   0.371  0.00  0.00     0.033 A 
ATOM      4  C4  UNL d   1      -2.713  -1.863   0.935  0.00  0.00    -0.042 A 
ATOM      5  C5  UNL d   1      -1.463  -2.354   1.298  0.00  0.00     0.033 A 
ATOM      6  C6  UNL d   1      -0.321  -1.574   1.098  0.00  0.00    -0.057 A 
ENDROOT
BRANCH   1   7
ATOM      7  N   UNL d   1       0.791   0.396   0.281  0.00  0.00    -0.732 N 
ATOM      8  C   UNL d   1       1.128   1.603   1.005  0.00  0.00     0.284 C 
ATOM      9  H3  UNL d   1       1.576  -0.235   0.137  0.00  0.00     0.395 HD
ENDBRANCH   1   7
TORSDOF 1
ENDMDL
