MODEL 1
REMARK minimizedAffinity -2.84209824
REMARK minimizedRMSD -1
REMARK  1 active torsions:
REMARK  status: ('A' for Active; 'I' for Inactive)
REMARK    1  A    between atoms: N_2  and  C1_3 
ROOT
ATOM      1  C1  UNL d   1      -0.180   0.099  -0.309  0.00  0.00     0.143 A 
ATOM      2  C2  UNL d   1      -0.689  -0.651  -1.374  0.00  0.00    -0.057 A 
ATOM      3  C3  UNL d   1      -2.048  -0.980  -1.446  0.00  0.00     0.033 A 
ATOM      4  C4  UNL d   1      -2.920  -0.588  -0.435  0.00  0.00    -0.042 A 
ATOM      5  C5  UNL d   1      -2.431   0.137   0.646  0.00  0.00     0.033 A 
ATOM      6  C6  UNL d   1      -1.074   0.468   0.709  0.00  0.00    -0.057 A 
ENDROOT
BRANCH   1   7
ATOM      7  N   UNL d   1       1.178   0.374  -0.130  0.00  0.00    -0.732 N 
ATOM      8  C   UNL d   1       1.603   1.563   0.577  0.00  0.00     0.284 C 
ATOM      9  H3  UNL d   1       1.717  -0.459   0.097  0.00  0.00     0.395 HD
ENDBRANCH   1   7
TORSDOF 1
ENDMDL
