MODEL 1
REMARK minimizedAffinity 1.18052173
REMARK minimizedRMSD -1
REMARK  1 active torsions:
REMARK  status: ('A' for Active; 'I' for Inactive)
REMARK    1  A    between atoms: N_2  and  C1_3 
ROOT
ATOM      1  C1  UNL d   1      -2.237  -1.238  -1.335  0.00  0.00     0.143 A 
ATOM      2  C2  UNL d   1      -3.023  -1.859  -0.358  0.00  0.00    -0.057 A 
ATOM      3  C3  UNL d   1      -2.761  -1.681   1.006  0.00  0.00     0.033 A 
ATOM      4  C4  UNL d   1      -1.686  -0.899   1.417  0.00  0.00    -0.042 A 
ATOM      5  C5  UNL d   1      -0.876  -0.293   0.463  0.00  0.00     0.033 A 
ATOM      6  C6  UNL d   1      -1.147  -0.469  -0.897  0.00  0.00    -0.057 A 
ENDROOT
BRANCH   1   7
ATOM      7  N   UNL d   1      -2.387  -1.455  -2.707  0.00  0.00    -0.732 N 
ATOM      8  C   UNL d   1      -2.157  -2.766  -3.275  0.00  0.00     0.284 C 
ATOM      9  H3  UNL d   1      -3.195  -0.971  -3.091  0.00  0.00     0.395 HD
ENDBRANCH   1   7
TORSDOF 1
ENDMDL
