MODEL 1
REMARK minimizedAffinity -4.48922634
REMARK minimizedRMSD -1
REMARK  1 active torsions:
REMARK  status: ('A' for Active; 'I' for Inactive)
REMARK    1  A    between atoms: N_2  and  C1_3 
ROOT
ATOM      1  C1  UNL d   1      -0.912  -0.418   0.538  0.00  0.00     0.143 A 
ATOM      2  C2  UNL d   1      -0.900  -1.577   1.321  0.00  0.00    -0.057 A 
ATOM      3  C3  UNL d   1      -1.978  -2.471   1.314  0.00  0.00     0.033 A 
ATOM      4  C4  UNL d   1      -3.104  -2.204   0.542  0.00  0.00    -0.042 A 
ATOM      5  C5  UNL d   1      -3.149  -1.045  -0.225  0.00  0.00     0.033 A 
ATOM      6  C6  UNL d   1      -2.066  -0.161  -0.218  0.00  0.00    -0.057 A 
ENDROOT
BRANCH   1   7
ATOM      7  N   UNL d   1       0.086   0.558   0.578  0.00  0.00    -0.732 N 
ATOM      8  C   UNL d   1       1.474   0.202   0.372  0.00  0.00     0.284 C 
ATOM      9  H3  UNL d   1      -0.195   1.420   0.116  0.00  0.00     0.395 HD
ENDBRANCH   1   7
TORSDOF 1
ENDMDL
