MODEL 1
REMARK minimizedAffinity -3.66279316
REMARK minimizedRMSD -1
REMARK  1 active torsions:
REMARK  status: ('A' for Active; 'I' for Inactive)
REMARK    1  A    between atoms: N_2  and  C1_3 
ROOT
ATOM      1  C1  UNL d   1      -0.451  -0.643  -0.547  0.00  0.00     0.143 A 
ATOM      2  C2  UNL d   1      -1.476  -1.553  -0.272  0.00  0.00    -0.057 A 
ATOM      3  C3  UNL d   1      -2.742  -1.420  -0.857  0.00  0.00     0.033 A 
ATOM      4  C4  UNL d   1      -3.012  -0.353  -1.708  0.00  0.00    -0.042 A 
ATOM      5  C5  UNL d   1      -2.015   0.578  -1.976  0.00  0.00     0.033 A 
ATOM      6  C6  UNL d   1      -0.752   0.436  -1.393  0.00  0.00    -0.057 A 
ENDROOT
BRANCH   1   7
ATOM      7  N   UNL d   1       0.798  -0.665   0.080  0.00  0.00    -0.732 N 
ATOM      8  C   UNL d   1       1.569   0.550   0.230  0.00  0.00     0.284 C 
ATOM      9  H3  UNL d   1       0.811  -1.270   0.898  0.00  0.00     0.395 HD
ENDBRANCH   1   7
TORSDOF 1
ENDMDL
