MODEL 1
REMARK minimizedAffinity -3.02802062
REMARK minimizedRMSD -1
REMARK  1 active torsions:
REMARK  status: ('A' for Active; 'I' for Inactive)
REMARK    1  A    between atoms: N_2  and  C1_3 
ROOT
ATOM      1  C1  UNL d   1      -1.176  -0.475   0.090  0.00  0.00     0.143 A 
ATOM      2  C2  UNL d   1      -2.404  -0.841  -0.471  0.00  0.00    -0.057 A 
ATOM      3  C3  UNL d   1      -3.089  -1.983  -0.037  0.00  0.00     0.033 A 
ATOM      4  C4  UNL d   1      -2.541  -2.798   0.948  0.00  0.00    -0.042 A 
ATOM      5  C5  UNL d   1      -1.310  -2.466   1.503  0.00  0.00     0.033 A 
ATOM      6  C6  UNL d   1      -0.634  -1.321   1.070  0.00  0.00    -0.057 A 
ENDROOT
BRANCH   1   7
ATOM      7  N   UNL d   1      -0.400   0.594  -0.366  0.00  0.00    -0.732 N 
ATOM      8  C   UNL d   1       0.907   0.850   0.199  0.00  0.00     0.284 C 
ATOM      9  H3  UNL d   1      -0.444   0.702  -1.377  0.00  0.00     0.395 HD
ENDBRANCH   1   7
TORSDOF 1
ENDMDL
