MODEL 1
REMARK minimizedAffinity -4.77139616
REMARK minimizedRMSD -1
REMARK  1 active torsions:
REMARK  status: ('A' for Active; 'I' for Inactive)
REMARK    1  A    between atoms: N_2  and  C1_3 
ROOT
ATOM      1  C1  UNL d   1      -0.256  -0.447   0.085  0.00  0.00     0.143 A 
ATOM      2  C2  UNL d   1      -1.207  -0.075  -0.871  0.00  0.00    -0.057 A 
ATOM      3  C3  UNL d   1      -2.513  -0.577  -0.830  0.00  0.00     0.033 A 
ATOM      4  C4  UNL d   1      -2.884  -1.487   0.155  0.00  0.00    -0.042 A 
ATOM      5  C5  UNL d   1      -1.948  -1.891   1.101  0.00  0.00     0.033 A 
ATOM      6  C6  UNL d   1      -0.647  -1.380   1.058  0.00  0.00    -0.057 A 
ENDROOT
BRANCH   1   7
ATOM      7  N   UNL d   1       1.085  -0.059   0.041  0.00  0.00    -0.732 N 
ATOM      8  C   UNL d   1       1.542   1.100   0.777  0.00  0.00     0.284 C 
ATOM      9  H3  UNL d   1       1.721  -0.852   0.078  0.00  0.00     0.395 HD
ENDBRANCH   1   7
TORSDOF 1
ENDMDL
