MODEL 1
REMARK minimizedAffinity -5.51005554
REMARK minimizedRMSD -1
REMARK  1 active torsions:
REMARK  status: ('A' for Active; 'I' for Inactive)
REMARK    1  A    between atoms: N_2  and  C1_3 
ROOT
ATOM      1  C1  UNL d   1      -0.429  -0.735   0.256  0.00  0.00     0.143 A 
ATOM      2  C2  UNL d   1      -1.304  -0.201  -0.696  0.00  0.00    -0.057 A 
ATOM      3  C3  UNL d   1      -2.622  -0.658  -0.807  0.00  0.00     0.033 A 
ATOM      4  C4  UNL d   1      -3.082  -1.681   0.016  0.00  0.00    -0.042 A 
ATOM      5  C5  UNL d   1      -2.223  -2.244   0.952  0.00  0.00     0.033 A 
ATOM      6  C6  UNL d   1      -0.909  -1.779   1.063  0.00  0.00    -0.057 A 
ENDROOT
BRANCH   1   7
ATOM      7  N   UNL d   1       0.922  -0.392   0.350  0.00  0.00    -0.732 N 
ATOM      8  C   UNL d   1       1.321   0.984   0.558  0.00  0.00     0.284 C 
ATOM      9  H3  UNL d   1       1.457  -1.066   0.893  0.00  0.00     0.395 HD
ENDBRANCH   1   7
TORSDOF 1
ENDMDL
