MODEL 1
REMARK minimizedAffinity -3.82380009
REMARK minimizedRMSD -1
REMARK  1 active torsions:
REMARK  status: ('A' for Active; 'I' for Inactive)
REMARK    1  A    between atoms: N_2  and  C1_3 
ROOT
ATOM      1  C1  UNL d   1      -0.047   0.231  -0.133  0.00  0.00     0.143 A 
ATOM      2  C2  UNL d   1      -0.530   0.355  -1.440  0.00  0.00    -0.057 A 
ATOM      3  C3  UNL d   1      -1.867   0.079  -1.749  0.00  0.00     0.033 A 
ATOM      4  C4  UNL d   1      -2.741  -0.355  -0.758  0.00  0.00    -0.042 A 
ATOM      5  C5  UNL d   1      -2.277  -0.509   0.543  0.00  0.00     0.033 A 
ATOM      6  C6  UNL d   1      -0.942  -0.226   0.847  0.00  0.00    -0.057 A 
ENDROOT
BRANCH   1   7
ATOM      7  N   UNL d   1       1.295   0.396   0.219  0.00  0.00    -0.732 N 
ATOM      8  C   UNL d   1       1.722   1.556   0.971  0.00  0.00     0.284 C 
ATOM      9  H3  UNL d   1       1.728  -0.476   0.517  0.00  0.00     0.395 HD
ENDBRANCH   1   7
TORSDOF 1
ENDMDL
