MODEL 1
REMARK minimizedAffinity -5.10431767
REMARK minimizedRMSD -1
REMARK  1 active torsions:
REMARK  status: ('A' for Active; 'I' for Inactive)
REMARK    1  A    between atoms: N_2  and  C1_3 
ROOT
ATOM      1  C1  UNL d   1      -1.105  -0.868  -0.180  0.00  0.00     0.143 A 
ATOM      2  C2  UNL d   1      -2.424  -1.146  -0.554  0.00  0.00    -0.057 A 
ATOM      3  C3  UNL d   1      -3.162  -2.152   0.081  0.00  0.00     0.033 A 
ATOM      4  C4  UNL d   1      -2.582  -2.919   1.086  0.00  0.00    -0.042 A 
ATOM      5  C5  UNL d   1      -1.264  -2.677   1.457  0.00  0.00     0.033 A 
ATOM      6  C6  UNL d   1      -0.534  -1.667   0.823  0.00  0.00    -0.057 A 
ENDROOT
BRANCH   1   7
ATOM      7  N   UNL d   1      -0.287   0.053  -0.840  0.00  0.00    -0.732 N 
ATOM      8  C   UNL d   1       0.762   0.751  -0.128  0.00  0.00     0.284 C 
ATOM      9  H3  UNL d   1      -0.019  -0.263  -1.770  0.00  0.00     0.395 HD
ENDBRANCH   1   7
TORSDOF 1
ENDMDL
