MODEL 1
REMARK minimizedAffinity -3.17643499
REMARK minimizedRMSD -1
REMARK  1 active torsions:
REMARK  status: ('A' for Active; 'I' for Inactive)
REMARK    1  A    between atoms: N_2  and  C1_3 
ROOT
ATOM      1  C1  UNL d   1      -1.262  -0.274  -0.849  0.00  0.00     0.143 A 
ATOM      2  C2  UNL d   1      -0.552  -0.621   0.305  0.00  0.00    -0.057 A 
ATOM      3  C3  UNL d   1       0.712  -0.080   0.570  0.00  0.00     0.033 A 
ATOM      4  C4  UNL d   1       1.303   0.798  -0.333  0.00  0.00    -0.042 A 
ATOM      5  C5  UNL d   1       0.626   1.137  -1.499  0.00  0.00     0.033 A 
ATOM      6  C6  UNL d   1      -0.639   0.599  -1.755  0.00  0.00    -0.057 A 
ENDROOT
BRANCH   1   7
ATOM      7  N   UNL d   1      -2.479  -0.853  -1.217  0.00  0.00    -0.732 N 
ATOM      8  C   UNL d   1      -3.341  -1.452  -0.221  0.00  0.00     0.284 C 
ATOM      9  H3  UNL d   1      -2.972  -0.307  -1.920  0.00  0.00     0.395 HD
ENDBRANCH   1   7
TORSDOF 1
ENDMDL
