MODEL 1
REMARK minimizedAffinity -3.52567863
REMARK minimizedRMSD -1
REMARK  1 active torsions:
REMARK  status: ('A' for Active; 'I' for Inactive)
REMARK    1  A    between atoms: C1_2  and  C2_3 
ROOT
ATOM      1  C2  UNL d   1      -1.095  -0.370  -0.558  0.00  0.00    -0.073 A 
ATOM      2  C3  UNL d   1      -1.357  -1.503   0.221  0.00  0.00    -0.002 A 
ATOM      3  C4  UNL d   1      -0.390  -1.992   1.100  0.00  0.00     0.004 A 
ATOM      4  C5  UNL d   1       0.843  -1.351   1.215  0.00  0.00    -0.004 A 
ATOM      5  C6  UNL d   1       1.119  -0.211   0.453  0.00  0.00    -0.075 A 
ATOM      6  C7  UNL d   1       2.442   0.488   0.563  0.00  0.00     0.076 C 
ATOM      7  C8  UNL d   1       0.144   0.273  -0.430  0.00  0.00     0.001 A 
ENDROOT
BRANCH   1   8
ATOM      8  C1  UNL d   1      -2.138   0.166  -1.505  0.00  0.00     0.053 C 
ATOM      9  C   UNL d   1      -2.476  -0.829  -2.604  0.00  0.00     0.018 C 
ENDBRANCH   1   8
TORSDOF 1
ENDMDL
