MODEL 1
REMARK minimizedAffinity -3.97885776
REMARK minimizedRMSD -1
REMARK  1 active torsions:
REMARK  status: ('A' for Active; 'I' for Inactive)
REMARK    1  A    between atoms: C1_2  and  C2_3 
ROOT
ATOM      1  C2  UNL d   1       1.332  -0.990   0.579  0.00  0.00    -0.073 A 
ATOM      2  C3  UNL d   1       0.984  -2.096   1.362  0.00  0.00    -0.002 A 
ATOM      3  C4  UNL d   1      -0.328  -2.259   1.808  0.00  0.00     0.004 A 
ATOM      4  C5  UNL d   1      -1.306  -1.324   1.470  0.00  0.00    -0.004 A 
ATOM      5  C6  UNL d   1      -0.980  -0.218   0.678  0.00  0.00    -0.075 A 
ATOM      6  C7  UNL d   1      -2.019   0.799   0.308  0.00  0.00     0.076 C 
ATOM      7  C8  UNL d   1       0.341  -0.059   0.237  0.00  0.00     0.001 A 
ENDROOT
BRANCH   1   8
ATOM      8  C1  UNL d   1       2.747  -0.813   0.090  0.00  0.00     0.053 C 
ATOM      9  C   UNL d   1       3.756  -0.885   1.225  0.00  0.00     0.018 C 
ENDBRANCH   1   8
TORSDOF 1
ENDMDL
