MODEL 1
REMARK minimizedAffinity -2.29564095
REMARK minimizedRMSD -1
REMARK  1 active torsions:
REMARK  status: ('A' for Active; 'I' for Inactive)
REMARK    1  A    between atoms: C1_2  and  C2_3 
ROOT
ATOM      1  C2  UNL d   1       1.523  -0.685   0.503  0.00  0.00    -0.073 A 
ATOM      2  C3  UNL d   1       1.044  -1.852   1.109  0.00  0.00    -0.002 A 
ATOM      3  C4  UNL d   1      -0.284  -2.242   0.934  0.00  0.00     0.004 A 
ATOM      4  C5  UNL d   1      -1.143  -1.476   0.147  0.00  0.00    -0.004 A 
ATOM      5  C6  UNL d   1      -0.680  -0.313  -0.476  0.00  0.00    -0.075 A 
ATOM      6  C7  UNL d   1      -1.592   0.524  -1.324  0.00  0.00     0.076 C 
ATOM      7  C8  UNL d   1       0.655   0.074  -0.293  0.00  0.00     0.001 A 
ENDROOT
BRANCH   1   8
ATOM      8  C1  UNL d   1       2.958  -0.263   0.685  0.00  0.00     0.053 C 
ATOM      9  C   UNL d   1       3.103   0.833   1.729  0.00  0.00     0.018 C 
ENDBRANCH   1   8
TORSDOF 1
ENDMDL
