MODEL 1
REMARK minimizedAffinity -4.4660759
REMARK minimizedRMSD -1
REMARK  1 active torsions:
REMARK  status: ('A' for Active; 'I' for Inactive)
REMARK    1  A    between atoms: C1_2  and  C2_3 
ROOT
ATOM      1  C2  UNL d   1      -0.276   0.348   0.016  0.00  0.00    -0.073 A 
ATOM      2  C3  UNL d   1      -0.242   1.723  -0.243  0.00  0.00    -0.002 A 
ATOM      3  C4  UNL d   1       0.959   2.427  -0.156  0.00  0.00     0.004 A 
ATOM      4  C5  UNL d   1       2.139   1.764   0.184  0.00  0.00    -0.004 A 
ATOM      5  C6  UNL d   1       2.127   0.388   0.434  0.00  0.00    -0.075 A 
ATOM      6  C7  UNL d   1       3.387  -0.340   0.803  0.00  0.00     0.076 C 
ATOM      7  C8  UNL d   1       0.916  -0.312   0.348  0.00  0.00     0.001 A 
ENDROOT
BRANCH   1   8
ATOM      8  C1  UNL d   1      -1.570  -0.418  -0.083  0.00  0.00     0.053 C 
ATOM      9  C   UNL d   1      -2.384  -0.008  -1.300  0.00  0.00     0.018 C 
ENDBRANCH   1   8
TORSDOF 1
ENDMDL
