MODEL 1
REMARK minimizedAffinity 0.263729662
REMARK minimizedRMSD -1
REMARK  0 active torsions:
REMARK  status: ('A' for Active; 'I' for Inactive)
ROOT
ATOM      1  C   UNL d   1       3.810  -5.897   3.006  0.00  0.00     0.020 A 
ATOM      2  C1  UNL d   1       4.040  -5.267   1.783  0.00  0.00     0.020 A 
ATOM      3  C2  UNL d   1       2.969  -4.738   1.059  0.00  0.00     0.034 A 
ATOM      4  C3  UNL d   1       1.665  -4.838   1.556  0.00  0.00     0.017 A 
ATOM      5  C4  UNL d   1       1.435  -5.472   2.783  0.00  0.00     0.017 A 
ATOM      6  C5  UNL d   1       2.511  -5.999   3.504  0.00  0.00     0.034 A 
ATOM      7 Cl   UNL d   1      -0.146  -5.634   3.461  0.00  0.00    -0.070 Cl
ATOM      8 Cl1  UNL d   1       0.389  -4.162   0.607  0.00  0.00    -0.070 Cl
ENDROOT
TORSDOF 0
ENDMDL
