MODEL 1
REMARK minimizedAffinity 3.2326808
REMARK minimizedRMSD -1
REMARK  0 active torsions:
REMARK  status: ('A' for Active; 'I' for Inactive)
ROOT
ATOM      1  C   UNL d   1       1.712  -5.672   1.566  0.00  0.00     0.020 A 
ATOM      2  C1  UNL d   1       1.346  -5.901   2.892  0.00  0.00     0.020 A 
ATOM      3  C2  UNL d   1       2.328  -5.998   3.880  0.00  0.00     0.034 A 
ATOM      4  C3  UNL d   1       3.680  -5.867   3.544  0.00  0.00     0.017 A 
ATOM      5  C4  UNL d   1       4.047  -5.638   2.213  0.00  0.00     0.017 A 
ATOM      6  C5  UNL d   1       3.060  -5.541   1.228  0.00  0.00     0.034 A 
ATOM      7 Cl   UNL d   1       5.695  -5.465   1.722  0.00  0.00    -0.070 Cl
ATOM      8 Cl1  UNL d   1       4.841  -5.999   4.818  0.00  0.00    -0.070 Cl
ENDROOT
TORSDOF 0
ENDMDL
