MODEL 1
REMARK minimizedAffinity 2.79204321
REMARK minimizedRMSD -1
REMARK  0 active torsions:
REMARK  status: ('A' for Active; 'I' for Inactive)
ROOT
ATOM      1  C   UNL d   1      -4.408  -2.893   6.000  0.00  0.00     0.020 A 
ATOM      2  C1  UNL d   1      -4.202  -1.536   5.755  0.00  0.00     0.020 A 
ATOM      3  C2  UNL d   1      -4.250  -1.047   4.448  0.00  0.00     0.034 A 
ATOM      4  C3  UNL d   1      -4.505  -1.915   3.380  0.00  0.00     0.017 A 
ATOM      5  C4  UNL d   1      -4.711  -3.277   3.627  0.00  0.00     0.017 A 
ATOM      6  C5  UNL d   1      -4.662  -3.762   4.938  0.00  0.00     0.034 A 
ATOM      7 Cl   UNL d   1      -5.030  -4.411   2.361  0.00  0.00    -0.070 Cl
ATOM      8 Cl1  UNL d   1      -4.550  -1.242   1.790  0.00  0.00    -0.070 Cl
ENDROOT
TORSDOF 0
ENDMDL
