MODEL 1
REMARK minimizedAffinity 16.0172367
REMARK minimizedRMSD -1
REMARK  0 active torsions:
REMARK  status: ('A' for Active; 'I' for Inactive)
ROOT
ATOM      1  C   UNL d   1       3.782  -0.763  -5.958  0.00  0.00     0.020 A 
ATOM      2  C1  UNL d   1       3.065  -1.254  -4.867  0.00  0.00     0.020 A 
ATOM      3  C2  UNL d   1       2.721  -0.401  -3.817  0.00  0.00     0.034 A 
ATOM      4  C3  UNL d   1       3.094   0.948  -3.855  0.00  0.00     0.017 A 
ATOM      5  C4  UNL d   1       3.813   1.440  -4.950  0.00  0.00     0.017 A 
ATOM      6  C5  UNL d   1       4.155   0.581  -6.000  0.00  0.00     0.034 A 
ATOM      7 Cl   UNL d   1       4.308   3.091  -5.069  0.00  0.00    -0.070 Cl
ATOM      8 Cl1  UNL d   1       2.635   1.946  -2.522  0.00  0.00    -0.070 Cl
ENDROOT
TORSDOF 0
ENDMDL
