MODEL 1
REMARK minimizedAffinity -1.06688964
REMARK minimizedRMSD -1
REMARK  0 active torsions:
REMARK  status: ('A' for Active; 'I' for Inactive)
ROOT
ATOM      1  C   UNL d   1       5.995  -4.933   4.468  0.00  0.00     0.020 A 
ATOM      2  C1  UNL d   1       5.079  -5.978   4.356  0.00  0.00     0.020 A 
ATOM      3  C2  UNL d   1       4.167  -5.997   3.298  0.00  0.00     0.034 A 
ATOM      4  C3  UNL d   1       4.169  -4.969   2.349  0.00  0.00     0.017 A 
ATOM      5  C4  UNL d   1       5.089  -3.920   2.462  0.00  0.00     0.017 A 
ATOM      6  C5  UNL d   1       6.000  -3.906   3.523  0.00  0.00     0.034 A 
ATOM      7 Cl   UNL d   1       5.152  -2.616   1.329  0.00  0.00    -0.070 Cl
ATOM      8 Cl1  UNL d   1       3.014  -5.057   1.067  0.00  0.00    -0.070 Cl
ENDROOT
TORSDOF 0
ENDMDL
