MODEL 1
REMARK minimizedAffinity 4.98117971
REMARK minimizedRMSD -1
REMARK  0 active torsions:
REMARK  status: ('A' for Active; 'I' for Inactive)
ROOT
ATOM      1  C   UNL d   1       5.769  -5.770   5.448  0.00  0.00     0.020 A 
ATOM      2  C1  UNL d   1       5.765  -5.999   4.073  0.00  0.00     0.020 A 
ATOM      3  C2  UNL d   1       5.834  -4.923   3.186  0.00  0.00     0.034 A 
ATOM      4  C3  UNL d   1       5.907  -3.613   3.673  0.00  0.00     0.017 A 
ATOM      5  C4  UNL d   1       5.911  -3.384   5.053  0.00  0.00     0.017 A 
ATOM      6  C5  UNL d   1       5.842  -4.465   5.937  0.00  0.00     0.034 A 
ATOM      7 Cl   UNL d   1       5.999  -1.796   5.729  0.00  0.00    -0.070 Cl
ATOM      8 Cl1  UNL d   1       5.989  -2.330   2.518  0.00  0.00    -0.070 Cl
ENDROOT
TORSDOF 0
ENDMDL
