MODEL 1
REMARK minimizedAffinity -2.36617041
REMARK minimizedRMSD -1
REMARK  0 active torsions:
REMARK  status: ('A' for Active; 'I' for Inactive)
ROOT
ATOM      1  C   UNL d   1       5.999  -0.788   4.603  0.00  0.00     0.020 A 
ATOM      2  C1  UNL d   1       5.997  -0.610   3.220  0.00  0.00     0.020 A 
ATOM      3  C2  UNL d   1       5.995  -1.720   2.372  0.00  0.00     0.034 A 
ATOM      4  C3  UNL d   1       5.997  -3.013   2.907  0.00  0.00     0.017 A 
ATOM      5  C4  UNL d   1       5.999  -3.191   4.295  0.00  0.00     0.017 A 
ATOM      6  C5  UNL d   1       6.000  -2.076   5.139  0.00  0.00     0.034 A 
ATOM      7 Cl   UNL d   1       6.000  -4.756   5.029  0.00  0.00    -0.070 Cl
ATOM      8 Cl1  UNL d   1       5.995  -4.340   1.800  0.00  0.00    -0.070 Cl
ENDROOT
TORSDOF 0
ENDMDL
