MODEL 1
REMARK minimizedAffinity 0.103692561
REMARK minimizedRMSD -1
REMARK  0 active torsions:
REMARK  status: ('A' for Active; 'I' for Inactive)
ROOT
ATOM      1  C   UNL d   1      -5.153   4.379   2.349  0.00  0.00     0.020 A 
ATOM      2  C1  UNL d   1      -3.759   4.384   2.313  0.00  0.00     0.020 A 
ATOM      3  C2  UNL d   1      -3.034   4.886   3.396  0.00  0.00     0.034 A 
ATOM      4  C3  UNL d   1      -3.702   5.385   4.520  0.00  0.00     0.017 A 
ATOM      5  C4  UNL d   1      -5.101   5.380   4.555  0.00  0.00     0.017 A 
ATOM      6  C5  UNL d   1      -5.822   4.876   3.468  0.00  0.00     0.034 A 
ATOM      7 Cl   UNL d   1      -5.996   5.979   5.907  0.00  0.00    -0.070 Cl
ATOM      8 Cl1  UNL d   1      -2.742   5.990   5.823  0.00  0.00    -0.070 Cl
ENDROOT
TORSDOF 0
ENDMDL
