MODEL 1
REMARK minimizedAffinity 0.63288039
REMARK minimizedRMSD -1
REMARK  0 active torsions:
REMARK  status: ('A' for Active; 'I' for Inactive)
ROOT
ATOM      1  C   UNL d   1      -1.121   1.269   1.131  0.00  0.00     0.020 A 
ATOM      2  C1  UNL d   1       0.057   1.871   1.572  0.00  0.00     0.020 A 
ATOM      3  C2  UNL d   1      -0.000   3.027   2.353  0.00  0.00     0.034 A 
ATOM      4  C3  UNL d   1      -1.237   3.584   2.696  0.00  0.00     0.017 A 
ATOM      5  C4  UNL d   1      -2.419   2.979   2.253  0.00  0.00     0.017 A 
ATOM      6  C5  UNL d   1      -2.356   1.822   1.471  0.00  0.00     0.034 A 
ATOM      7 Cl   UNL d   1      -3.982   3.609   2.636  0.00  0.00    -0.070 Cl
ATOM      8 Cl1  UNL d   1      -1.233   5.014   3.666  0.00  0.00    -0.070 Cl
ENDROOT
TORSDOF 0
ENDMDL
