MODEL 1
REMARK minimizedAffinity 2.79832053
REMARK minimizedRMSD -1
REMARK  0 active torsions:
REMARK  status: ('A' for Active; 'I' for Inactive)
ROOT
ATOM      1  C   UNL d   1      -6.000  -4.719   0.897  0.00  0.00     0.020 A 
ATOM      2  C1  UNL d   1      -5.609  -5.856   1.604  0.00  0.00     0.020 A 
ATOM      3  C2  UNL d   1      -4.283  -6.000   2.017  0.00  0.00     0.034 A 
ATOM      4  C3  UNL d   1      -3.343  -5.006   1.724  0.00  0.00     0.017 A 
ATOM      5  C4  UNL d   1      -3.735  -3.865   1.014  0.00  0.00     0.017 A 
ATOM      6  C5  UNL d   1      -5.065  -3.726   0.603  0.00  0.00     0.034 A 
ATOM      7 Cl   UNL d   1      -2.632  -2.596   0.614  0.00  0.00    -0.070 Cl
ATOM      8 Cl1  UNL d   1      -1.720  -5.249   2.266  0.00  0.00    -0.070 Cl
ENDROOT
TORSDOF 0
ENDMDL
