MODEL 1
REMARK minimizedAffinity 6.27603674
REMARK minimizedRMSD -1
REMARK  0 active torsions:
REMARK  status: ('A' for Active; 'I' for Inactive)
ROOT
ATOM      1  C   UNL d   1      -0.982  -6.000   1.094  0.00  0.00     0.020 A 
ATOM      2  C1  UNL d   1       0.134  -5.181   1.259  0.00  0.00     0.020 A 
ATOM      3  C2  UNL d   1       0.024  -3.802   1.066  0.00  0.00     0.034 A 
ATOM      4  C3  UNL d   1      -1.206  -3.239   0.705  0.00  0.00     0.017 A 
ATOM      5  C4  UNL d   1      -2.326  -4.062   0.539  0.00  0.00     0.017 A 
ATOM      6  C5  UNL d   1      -2.209  -5.441   0.734  0.00  0.00     0.034 A 
ATOM      7 Cl   UNL d   1      -3.876  -3.439   0.096  0.00  0.00    -0.070 Cl
ATOM      8 Cl1  UNL d   1      -1.270  -1.526   0.483  0.00  0.00    -0.070 Cl
ENDROOT
TORSDOF 0
ENDMDL
