MODEL 1
REMARK minimizedAffinity 6.71021605
REMARK minimizedRMSD -1
REMARK  0 active torsions:
REMARK  status: ('A' for Active; 'I' for Inactive)
ROOT
ATOM      1  C   UNL d   1       0.515  -0.858   1.869  0.00  0.00     0.020 A 
ATOM      2  C1  UNL d   1       0.472   0.535   1.910  0.00  0.00     0.020 A 
ATOM      3  C2  UNL d   1      -0.641   1.214   1.411  0.00  0.00     0.034 A 
ATOM      4  C3  UNL d   1      -1.717   0.501   0.869  0.00  0.00     0.017 A 
ATOM      5  C4  UNL d   1      -1.673  -0.897   0.829  0.00  0.00     0.017 A 
ATOM      6  C5  UNL d   1      -0.555  -1.573   1.329  0.00  0.00     0.034 A 
ATOM      7 Cl   UNL d   1      -2.961  -1.846   0.175  0.00  0.00    -0.070 Cl
ATOM      8 Cl1  UNL d   1      -3.061   1.406   0.271  0.00  0.00    -0.070 Cl
ENDROOT
TORSDOF 0
ENDMDL
