MODEL 1
REMARK minimizedAffinity 3.95351338
REMARK minimizedRMSD -1
REMARK  0 active torsions:
REMARK  status: ('A' for Active; 'I' for Inactive)
ROOT
ATOM      1  C   UNL d   1      -5.998   0.037   5.998  0.00  0.00     0.020 A 
ATOM      2  C1  UNL d   1      -5.999   1.430   5.944  0.00  0.00     0.020 A 
ATOM      3  C2  UNL d   1      -5.999   2.081   4.708  0.00  0.00     0.034 A 
ATOM      4  C3  UNL d   1      -5.998   1.338   3.522  0.00  0.00     0.017 A 
ATOM      5  C4  UNL d   1      -5.998  -0.061   3.577  0.00  0.00     0.017 A 
ATOM      6  C5  UNL d   1      -5.997  -0.707   4.818  0.00  0.00     0.034 A 
ATOM      7 Cl   UNL d   1      -5.997  -1.045   2.157  0.00  0.00    -0.070 Cl
ATOM      8 Cl1  UNL d   1      -5.999   2.208   2.029  0.00  0.00    -0.070 Cl
ENDROOT
TORSDOF 0
ENDMDL
