MODEL 1
REMARK minimizedAffinity 10.6483574
REMARK minimizedRMSD -1
REMARK  0 active torsions:
REMARK  status: ('A' for Active; 'I' for Inactive)
ROOT
ATOM      1  C   UNL d   1      -1.302   0.727   0.956  0.00  0.00     0.020 A 
ATOM      2  C1  UNL d   1      -2.542   1.193   1.391  0.00  0.00     0.020 A 
ATOM      3  C2  UNL d   1      -2.609   2.180   2.378  0.00  0.00     0.034 A 
ATOM      4  C3  UNL d   1      -1.435   2.703   2.932  0.00  0.00     0.017 A 
ATOM      5  C4  UNL d   1      -0.191   2.234   2.493  0.00  0.00     0.017 A 
ATOM      6  C5  UNL d   1      -0.130   1.246   1.505  0.00  0.00     0.034 A 
ATOM      7 Cl   UNL d   1       1.301   2.831   3.129  0.00  0.00    -0.070 Cl
ATOM      8 Cl1  UNL d   1      -1.593   3.921   4.147  0.00  0.00    -0.070 Cl
ENDROOT
TORSDOF 0
ENDMDL
