MODEL 1
REMARK minimizedAffinity 11.1934443
REMARK minimizedRMSD -1
REMARK  0 active torsions:
REMARK  status: ('A' for Active; 'I' for Inactive)
ROOT
ATOM      1  C   UNL d   1       1.931   0.846   1.722  0.00  0.00     0.020 A 
ATOM      2  C1  UNL d   1       1.641   1.859   0.809  0.00  0.00     0.020 A 
ATOM      3  C2  UNL d   1       2.679   2.576   0.208  0.00  0.00     0.034 A 
ATOM      4  C3  UNL d   1       4.011   2.281   0.521  0.00  0.00     0.017 A 
ATOM      5  C4  UNL d   1       4.301   1.265   1.439  0.00  0.00     0.017 A 
ATOM      6  C5  UNL d   1       3.258   0.550   2.037  0.00  0.00     0.034 A 
ATOM      7 Cl   UNL d   1       5.919   0.844   1.875  0.00  0.00    -0.070 Cl
ATOM      8 Cl1  UNL d   1       5.243   3.208  -0.259  0.00  0.00    -0.070 Cl
ENDROOT
TORSDOF 0
ENDMDL
