MODEL 1
REMARK minimizedAffinity 12.2990751
REMARK minimizedRMSD -1
REMARK  0 active torsions:
REMARK  status: ('A' for Active; 'I' for Inactive)
ROOT
ATOM      1  C   UNL d   1       4.155  -0.394  -5.999  0.00  0.00     0.020 A 
ATOM      2  C1  UNL d   1       4.809  -0.143  -4.793  0.00  0.00     0.020 A 
ATOM      3  C2  UNL d   1       4.228  -0.543  -3.587  0.00  0.00     0.034 A 
ATOM      4  C3  UNL d   1       2.990  -1.195  -3.585  0.00  0.00     0.017 A 
ATOM      5  C4  UNL d   1       2.334  -1.446  -4.795  0.00  0.00     0.017 A 
ATOM      6  C5  UNL d   1       2.920  -1.044  -6.000  0.00  0.00     0.034 A 
ATOM      7 Cl   UNL d   1       0.804  -2.246  -4.872  0.00  0.00    -0.070 Cl
ATOM      8 Cl1  UNL d   1       2.331  -1.662  -2.057  0.00  0.00    -0.070 Cl
ENDROOT
TORSDOF 0
ENDMDL
