MODEL 1
REMARK minimizedAffinity 14.2769976
REMARK minimizedRMSD -1
REMARK  0 active torsions:
REMARK  status: ('A' for Active; 'I' for Inactive)
ROOT
ATOM      1  C   UNL d   1       5.961   2.010  -1.606  0.00  0.00     0.020 A 
ATOM      2  C1  UNL d   1       5.873   1.921  -2.995  0.00  0.00     0.020 A 
ATOM      3  C2  UNL d   1       5.820   3.084  -3.767  0.00  0.00     0.034 A 
ATOM      4  C3  UNL d   1       5.856   4.340  -3.151  0.00  0.00     0.017 A 
ATOM      5  C4  UNL d   1       5.945   4.428  -1.757  0.00  0.00     0.017 A 
ATOM      6  C5  UNL d   1       5.997   3.261  -0.989  0.00  0.00     0.034 A 
ATOM      7 Cl   UNL d   1       5.995   5.943  -0.926  0.00  0.00    -0.070 Cl
ATOM      8 Cl1  UNL d   1       5.788   5.736  -4.168  0.00  0.00    -0.070 Cl
ENDROOT
TORSDOF 0
ENDMDL
