MODEL 1
REMARK minimizedAffinity 8.96010971
REMARK minimizedRMSD -1
REMARK  0 active torsions:
REMARK  status: ('A' for Active; 'I' for Inactive)
ROOT
ATOM      1  C   UNL d   1       2.975  -0.001  -1.526  0.00  0.00     0.020 A 
ATOM      2  C1  UNL d   1       3.006  -0.038  -0.132  0.00  0.00     0.020 A 
ATOM      3  C2  UNL d   1       3.948   0.721   0.566  0.00  0.00     0.034 A 
ATOM      4  C3  UNL d   1       4.863   1.520  -0.129  0.00  0.00     0.017 A 
ATOM      5  C4  UNL d   1       4.831   1.557  -1.528  0.00  0.00     0.017 A 
ATOM      6  C5  UNL d   1       3.886   0.795  -2.222  0.00  0.00     0.034 A 
ATOM      7 Cl   UNL d   1       5.927   2.519  -2.455  0.00  0.00    -0.070 Cl
ATOM      8 Cl1  UNL d   1       6.000   2.433   0.798  0.00  0.00    -0.070 Cl
ENDROOT
TORSDOF 0
ENDMDL
