MODEL 1
REMARK minimizedAffinity 18.025919
REMARK minimizedRMSD -1
REMARK  0 active torsions:
REMARK  status: ('A' for Active; 'I' for Inactive)
ROOT
ATOM      1  C   UNL d   1      -0.044   4.221   1.368  0.00  0.00     0.020 A 
ATOM      2  C1  UNL d   1      -0.680   4.147   2.606  0.00  0.00     0.020 A 
ATOM      3  C2  UNL d   1      -0.092   3.429   3.650  0.00  0.00     0.034 A 
ATOM      4  C3  UNL d   1       1.134   2.783   3.457  0.00  0.00     0.017 A 
ATOM      5  C4  UNL d   1       1.771   2.858   2.213  0.00  0.00     0.017 A 
ATOM      6  C5  UNL d   1       1.179   3.579   1.171  0.00  0.00     0.034 A 
ATOM      7 Cl   UNL d   1       3.286   2.087   1.899  0.00  0.00    -0.070 Cl
ATOM      8 Cl1  UNL d   1       1.803   1.913   4.792  0.00  0.00    -0.070 Cl
ENDROOT
TORSDOF 0
ENDMDL
