MODEL 1
REMARK minimizedAffinity 12.4552698
REMARK minimizedRMSD -1
REMARK  0 active torsions:
REMARK  status: ('A' for Active; 'I' for Inactive)
ROOT
ATOM      1  C   UNL d   1       0.327   4.414   1.622  0.00  0.00     0.020 A 
ATOM      2  C1  UNL d   1      -0.470   3.667   2.489  0.00  0.00     0.020 A 
ATOM      3  C2  UNL d   1       0.105   3.029   3.590  0.00  0.00     0.034 A 
ATOM      4  C3  UNL d   1       1.480   3.136   3.827  0.00  0.00     0.017 A 
ATOM      5  C4  UNL d   1       2.279   3.886   2.956  0.00  0.00     0.017 A 
ATOM      6  C5  UNL d   1       1.698   4.523   1.855  0.00  0.00     0.034 A 
ATOM      7 Cl   UNL d   1       3.983   4.064   3.183  0.00  0.00    -0.070 Cl
ATOM      8 Cl1  UNL d   1       2.123   2.320   5.208  0.00  0.00    -0.070 Cl
ENDROOT
TORSDOF 0
ENDMDL
