MODEL 1
REMARK minimizedAffinity 9.22244358
REMARK minimizedRMSD -1
REMARK  0 active torsions:
REMARK  status: ('A' for Active; 'I' for Inactive)
ROOT
ATOM      1  C   UNL d   1       3.277   0.166  -1.856  0.00  0.00     0.020 A 
ATOM      2  C1  UNL d   1       3.277   0.085  -0.464  0.00  0.00     0.020 A 
ATOM      3  C2  UNL d   1       4.126   0.905   0.283  0.00  0.00     0.034 A 
ATOM      4  C3  UNL d   1       4.978   1.809  -0.361  0.00  0.00     0.017 A 
ATOM      5  C4  UNL d   1       4.977   1.890  -1.759  0.00  0.00     0.017 A 
ATOM      6  C5  UNL d   1       4.125   1.067  -2.502  0.00  0.00     0.034 A 
ATOM      7 Cl   UNL d   1       6.000   2.981  -2.625  0.00  0.00    -0.070 Cl
ATOM      8 Cl1  UNL d   1       6.000   2.793   0.625  0.00  0.00    -0.070 Cl
ENDROOT
TORSDOF 0
ENDMDL
