MODEL 1
REMARK minimizedAffinity 6.44251633
REMARK minimizedRMSD -1
REMARK  0 active torsions:
REMARK  status: ('A' for Active; 'I' for Inactive)
ROOT
ATOM      1  C   UNL d   1       1.757  -0.175   0.238  0.00  0.00     0.020 A 
ATOM      2  C1  UNL d   1       2.329   0.333   1.404  0.00  0.00     0.020 A 
ATOM      3  C2  UNL d   1       3.542   1.023   1.343  0.00  0.00     0.034 A 
ATOM      4  C3  UNL d   1       4.186   1.208   0.114  0.00  0.00     0.017 A 
ATOM      5  C4  UNL d   1       3.610   0.698  -1.056  0.00  0.00     0.017 A 
ATOM      6  C5  UNL d   1       2.396   0.008  -0.989  0.00  0.00     0.034 A 
ATOM      7 Cl   UNL d   1       4.346   0.886  -2.608  0.00  0.00    -0.070 Cl
ATOM      8 Cl1  UNL d   1       5.682   2.071   0.113  0.00  0.00    -0.070 Cl
ENDROOT
TORSDOF 0
ENDMDL
