MODEL 1
REMARK minimizedAffinity 18.4023418
REMARK minimizedRMSD -1
REMARK  0 active torsions:
REMARK  status: ('A' for Active; 'I' for Inactive)
ROOT
ATOM      1  C   UNL d   1       2.145  -0.533   0.004  0.00  0.00     0.020 A 
ATOM      2  C1  UNL d   1       2.614  -0.360   1.305  0.00  0.00     0.020 A 
ATOM      3  C2  UNL d   1       3.776   0.381   1.535  0.00  0.00     0.034 A 
ATOM      4  C3  UNL d   1       4.471   0.950   0.463  0.00  0.00     0.017 A 
ATOM      5  C4  UNL d   1       3.999   0.776  -0.843  0.00  0.00     0.017 A 
ATOM      6  C5  UNL d   1       2.835   0.033  -1.068  0.00  0.00     0.034 A 
ATOM      7 Cl   UNL d   1       4.803   1.449  -2.217  0.00  0.00    -0.070 Cl
ATOM      8 Cl1  UNL d   1       5.900   1.854   0.821  0.00  0.00    -0.070 Cl
ENDROOT
TORSDOF 0
ENDMDL
