MODEL 1
REMARK minimizedAffinity 4.70420218
REMARK minimizedRMSD -1
REMARK  0 active torsions:
REMARK  status: ('A' for Active; 'I' for Inactive)
ROOT
ATOM      1  C   UNL d   1       3.925   1.501   0.468  0.00  0.00     0.020 A 
ATOM      2  C1  UNL d   1       3.007   0.520   0.097  0.00  0.00     0.020 A 
ATOM      3  C2  UNL d   1       3.002   0.027  -1.210  0.00  0.00     0.034 A 
ATOM      4  C3  UNL d   1       3.917   0.514  -2.150  0.00  0.00     0.017 A 
ATOM      5  C4  UNL d   1       4.839   1.498  -1.776  0.00  0.00     0.017 A 
ATOM      6  C5  UNL d   1       4.840   1.989  -0.466  0.00  0.00     0.034 A 
ATOM      7 Cl   UNL d   1       6.000   2.148  -2.880  0.00  0.00    -0.070 Cl
ATOM      8 Cl1  UNL d   1       3.854  -0.142  -3.747  0.00  0.00    -0.070 Cl
ENDROOT
TORSDOF 0
ENDMDL
