MODEL 1
REMARK minimizedAffinity 7.92047691
REMARK minimizedRMSD -1
REMARK  0 active torsions:
REMARK  status: ('A' for Active; 'I' for Inactive)
ROOT
ATOM      1  C   UNL d   1       2.832   0.337   0.374  0.00  0.00     0.020 A 
ATOM      2  C1  UNL d   1       2.971   0.215  -1.008  0.00  0.00     0.020 A 
ATOM      3  C2  UNL d   1       3.955   0.944  -1.678  0.00  0.00     0.034 A 
ATOM      4  C3  UNL d   1       4.804   1.799  -0.966  0.00  0.00     0.017 A 
ATOM      5  C4  UNL d   1       4.664   1.921   0.421  0.00  0.00     0.017 A 
ATOM      6  C5  UNL d   1       3.677   1.188   1.087  0.00  0.00     0.034 A 
ATOM      7 Cl   UNL d   1       5.675   2.956   1.367  0.00  0.00    -0.070 Cl
ATOM      8 Cl1  UNL d   1       5.999   2.671  -1.860  0.00  0.00    -0.070 Cl
ENDROOT
TORSDOF 0
ENDMDL
