MODEL 1
REMARK minimizedAffinity 3.74018383
REMARK minimizedRMSD -1
REMARK  1 active torsions:
REMARK  status: ('A' for Active; 'I' for Inactive)
REMARK    1  A    between atoms: C1_2  and  C2_3 
ROOT
ATOM      1  C2  UNL d   1      -0.425   2.494  -0.024  0.00  0.00    -0.076 A 
ATOM      2  C3  UNL d   1      -0.375   1.151  -0.435  0.00  0.00     0.004 A 
ATOM      3  C4  UNL d   1      -0.416   0.811  -1.786  0.00  0.00    -0.003 A 
ATOM      4  C5  UNL d   1      -0.508   1.810  -2.749  0.00  0.00     0.000 A 
ATOM      5  C6  UNL d   1      -0.540   3.149  -2.361  0.00  0.00     0.000 A 
ATOM      6  C7  UNL d   1      -0.483   3.509  -1.003  0.00  0.00    -0.073 A 
ATOM      7  C8  UNL d   1      -0.528   4.968  -0.641  0.00  0.00     0.078 C 
ENDROOT
BRANCH   1   8
ATOM      8  C1  UNL d   1      -0.404   2.801   1.456  0.00  0.00     0.053 C 
ATOM      9  C   UNL d   1      -0.338   1.544   2.310  0.00  0.00     0.018 C 
ENDBRANCH   1   8
TORSDOF 1
ENDMDL
