MODEL 1
REMARK minimizedAffinity 3.28449512
REMARK minimizedRMSD -1
REMARK  1 active torsions:
REMARK  status: ('A' for Active; 'I' for Inactive)
REMARK    1  A    between atoms: C1_2  and  C2_3 
ROOT
ATOM      1  C2  UNL d   1       0.186   1.147   0.501  0.00  0.00    -0.076 A 
ATOM      2  C3  UNL d   1      -0.348   2.241  -0.201  0.00  0.00     0.004 A 
ATOM      3  C4  UNL d   1      -0.914   3.320   0.475  0.00  0.00    -0.003 A 
ATOM      4  C5  UNL d   1      -0.953   3.324   1.865  0.00  0.00     0.000 A 
ATOM      5  C6  UNL d   1      -0.411   2.255   2.579  0.00  0.00     0.000 A 
ATOM      6  C7  UNL d   1       0.177   1.166   1.913  0.00  0.00    -0.073 A 
ATOM      7  C8  UNL d   1       0.740   0.038   2.732  0.00  0.00     0.078 C 
ENDROOT
BRANCH   1   8
ATOM      8  C1  UNL d   1       0.762  -0.008  -0.286  0.00  0.00     0.053 C 
ATOM      9  C   UNL d   1       2.268  -0.136  -0.117  0.00  0.00     0.018 C 
ENDBRANCH   1   8
TORSDOF 1
ENDMDL
