MODEL 1
REMARK minimizedAffinity -1.91242802
REMARK minimizedRMSD -1
REMARK  1 active torsions:
REMARK  status: ('A' for Active; 'I' for Inactive)
REMARK    1  A    between atoms: C1_2  and  C2_3 
ROOT
ATOM      1  C2  UNL d   1      -0.829   2.168   0.539  0.00  0.00    -0.076 A 
ATOM      2  C3  UNL d   1      -0.574   0.977  -0.163  0.00  0.00     0.004 A 
ATOM      3  C4  UNL d   1      -0.699   0.921  -1.550  0.00  0.00    -0.003 A 
ATOM      4  C5  UNL d   1      -1.080   2.056  -2.258  0.00  0.00     0.000 A 
ATOM      5  C6  UNL d   1      -1.320   3.250  -1.580  0.00  0.00     0.000 A 
ATOM      6  C7  UNL d   1      -1.183   3.328  -0.183  0.00  0.00    -0.073 A 
ATOM      7  C8  UNL d   1      -1.460   4.640   0.498  0.00  0.00     0.078 C 
ENDROOT
BRANCH   1   8
ATOM      8  C1  UNL d   1      -0.704   2.161   2.046  0.00  0.00     0.053 C 
ATOM      9  C   UNL d   1       0.100   0.976   2.558  0.00  0.00     0.018 C 
ENDBRANCH   1   8
TORSDOF 1
ENDMDL
