MODEL 1
REMARK minimizedAffinity -1.37778008
REMARK minimizedRMSD -1
REMARK  1 active torsions:
REMARK  status: ('A' for Active; 'I' for Inactive)
REMARK    1  A    between atoms: C1_2  and  C2_3 
ROOT
ATOM      1  C2  UNL d   1      -0.952   3.907   1.318  0.00  0.00    -0.076 A 
ATOM      2  C3  UNL d   1       0.224   4.579   0.941  0.00  0.00     0.004 A 
ATOM      3  C4  UNL d   1       1.454   4.243   1.505  0.00  0.00    -0.003 A 
ATOM      4  C5  UNL d   1       1.528   3.230   2.454  0.00  0.00     0.000 A 
ATOM      5  C6  UNL d   1       0.374   2.541   2.827  0.00  0.00     0.000 A 
ATOM      6  C7  UNL d   1      -0.871   2.856   2.257  0.00  0.00    -0.073 A 
ATOM      7  C8  UNL d   1      -2.084   2.085   2.700  0.00  0.00     0.078 C 
ENDROOT
BRANCH   1   8
ATOM      8  C1  UNL d   1      -2.261   4.333   0.693  0.00  0.00     0.053 C 
ATOM      9  C   UNL d   1      -3.011   5.346   1.544  0.00  0.00     0.018 C 
ENDBRANCH   1   8
TORSDOF 1
ENDMDL
