MODEL 1
REMARK minimizedAffinity 1.900002
REMARK minimizedRMSD -1
REMARK  1 active torsions:
REMARK  status: ('A' for Active; 'I' for Inactive)
REMARK    1  A    between atoms: C1_2  and  C2_3 
ROOT
ATOM      1  C2  UNL d   1      -0.438   3.133   1.325  0.00  0.00    -0.076 A 
ATOM      2  C3  UNL d   1       0.237   2.359   0.365  0.00  0.00     0.004 A 
ATOM      3  C4  UNL d   1      -0.340   2.091  -0.875  0.00  0.00    -0.003 A 
ATOM      4  C5  UNL d   1      -1.601   2.593  -1.176  0.00  0.00     0.000 A 
ATOM      5  C6  UNL d   1      -2.278   3.377  -0.243  0.00  0.00     0.000 A 
ATOM      6  C7  UNL d   1      -1.704   3.671   1.006  0.00  0.00    -0.073 A 
ATOM      7  C8  UNL d   1      -2.481   4.517   1.977  0.00  0.00     0.078 C 
ENDROOT
BRANCH   1   8
ATOM      8  C1  UNL d   1       0.225   3.369   2.663  0.00  0.00     0.053 C 
ATOM      9  C   UNL d   1       1.681   3.788   2.526  0.00  0.00     0.018 C 
ENDBRANCH   1   8
TORSDOF 1
ENDMDL
