MODEL 1
REMARK minimizedAffinity -1.19769323
REMARK minimizedRMSD -1
REMARK  1 active torsions:
REMARK  status: ('A' for Active; 'I' for Inactive)
REMARK    1  A    between atoms: C1_2  and  C2_3 
ROOT
ATOM      1  C2  UNL d   1       4.685  -3.507   5.513  0.00  0.00    -0.073 A 
ATOM      2  C3  UNL d   1       4.217  -4.734   5.997  0.00  0.00    -0.002 A 
ATOM      3  C4  UNL d   1       3.005  -5.255   5.542  0.00  0.00     0.004 A 
ATOM      4  C5  UNL d   1       2.253  -4.560   4.595  0.00  0.00    -0.004 A 
ATOM      5  C6  UNL d   1       2.710  -3.338   4.091  0.00  0.00    -0.075 A 
ATOM      6  C7  UNL d   1       1.911  -2.576   3.074  0.00  0.00     0.076 C 
ATOM      7  C8  UNL d   1       3.926  -2.819   4.555  0.00  0.00     0.001 A 
ENDROOT
BRANCH   1   8
ATOM      8  C1  UNL d   1       5.996  -2.943   5.997  0.00  0.00     0.053 C 
ATOM      9  C   UNL d   1       5.997  -1.422   5.996  0.00  0.00     0.018 C 
ENDBRANCH   1   8
TORSDOF 1
ENDMDL
