MODEL 1
REMARK minimizedAffinity 7.59241772
REMARK minimizedRMSD -1
REMARK  1 active torsions:
REMARK  status: ('A' for Active; 'I' for Inactive)
REMARK    1  A    between atoms: C1_2  and  C2_3 
ROOT
ATOM      1  C2  UNL d   1       5.030   5.370  -2.730  0.00  0.00    -0.073 A 
ATOM      2  C3  UNL d   1       3.815   5.998  -3.029  0.00  0.00    -0.002 A 
ATOM      3  C4  UNL d   1       2.919   5.411  -3.923  0.00  0.00     0.004 A 
ATOM      4  C5  UNL d   1       3.224   4.189  -4.521  0.00  0.00    -0.004 A 
ATOM      5  C6  UNL d   1       4.428   3.540  -4.227  0.00  0.00    -0.075 A 
ATOM      6  C7  UNL d   1       4.772   2.226  -4.865  0.00  0.00     0.076 C 
ATOM      7  C8  UNL d   1       5.324   4.138  -3.330  0.00  0.00     0.001 A 
ENDROOT
BRANCH   1   8
ATOM      8  C1  UNL d   1       5.998   5.998  -1.761  0.00  0.00     0.053 C 
ATOM      9  C   UNL d   1       5.879   5.398  -0.369  0.00  0.00     0.018 C 
ENDBRANCH   1   8
TORSDOF 1
ENDMDL
