MODEL 1
REMARK minimizedAffinity 5.01824284
REMARK minimizedRMSD -1
REMARK  1 active torsions:
REMARK  status: ('A' for Active; 'I' for Inactive)
REMARK    1  A    between atoms: C1_2  and  C2_3 
ROOT
ATOM      1  C2  UNL d   1       3.519  -2.607   3.372  0.00  0.00    -0.073 A 
ATOM      2  C3  UNL d   1       3.046  -1.598   4.218  0.00  0.00    -0.002 A 
ATOM      3  C4  UNL d   1       3.520  -1.495   5.526  0.00  0.00     0.004 A 
ATOM      4  C5  UNL d   1       4.477  -2.393   5.999  0.00  0.00    -0.004 A 
ATOM      5  C6  UNL d   1       4.972  -3.401   5.165  0.00  0.00    -0.075 A 
ATOM      6  C7  UNL d   1       5.999  -4.376   5.659  0.00  0.00     0.076 C 
ATOM      7  C8  UNL d   1       4.488  -3.500   3.853  0.00  0.00     0.001 A 
ENDROOT
BRANCH   1   8
ATOM      8  C1  UNL d   1       3.015  -2.719   1.957  0.00  0.00     0.053 C 
ATOM      9  C   UNL d   1       3.562  -1.614   1.067  0.00  0.00     0.018 C 
ENDBRANCH   1   8
TORSDOF 1
ENDMDL
