MODEL 1
REMARK minimizedAffinity 20.5870647
REMARK minimizedRMSD -1
REMARK  1 active torsions:
REMARK  status: ('A' for Active; 'I' for Inactive)
REMARK    1  A    between atoms: C1_2  and  C2_3 
ROOT
ATOM      1  C2  UNL d   1       1.981   4.719   0.763  0.00  0.00    -0.073 A 
ATOM      2  C3  UNL d   1       1.911   5.778   1.675  0.00  0.00    -0.002 A 
ATOM      3  C4  UNL d   1       0.746   6.000   2.410  0.00  0.00     0.004 A 
ATOM      4  C5  UNL d   1      -0.358   5.163   2.246  0.00  0.00    -0.004 A 
ATOM      5  C6  UNL d   1      -0.304   4.092   1.348  0.00  0.00    -0.075 A 
ATOM      6  C7  UNL d   1      -1.483   3.184   1.158  0.00  0.00     0.076 C 
ATOM      7  C8  UNL d   1       0.869   3.878   0.611  0.00  0.00     0.001 A 
ENDROOT
BRANCH   1   8
ATOM      8  C1  UNL d   1       3.239   4.472  -0.028  0.00  0.00     0.053 C 
ATOM      9  C   UNL d   1       4.108   5.716  -0.120  0.00  0.00     0.018 C 
ENDBRANCH   1   8
TORSDOF 1
ENDMDL
