MODEL 1
REMARK minimizedAffinity 7.78028822
REMARK minimizedRMSD -1
REMARK  1 active torsions:
REMARK  status: ('A' for Active; 'I' for Inactive)
REMARK    1  A    between atoms: C1_2  and  C2_3 
ROOT
ATOM      1  C2  UNL d   1       5.313   5.528  -2.915  0.00  0.00    -0.073 A 
ATOM      2  C3  UNL d   1       4.036   6.000  -3.239  0.00  0.00    -0.002 A 
ATOM      3  C4  UNL d   1       3.402   5.571  -4.406  0.00  0.00     0.004 A 
ATOM      4  C5  UNL d   1       4.033   4.662  -5.255  0.00  0.00    -0.004 A 
ATOM      5  C6  UNL d   1       5.304   4.170  -4.941  0.00  0.00    -0.075 A 
ATOM      6  C7  UNL d   1       5.998   3.193  -5.845  0.00  0.00     0.076 C 
ATOM      7  C8  UNL d   1       5.936   4.608  -3.770  0.00  0.00     0.001 A 
ENDROOT
BRANCH   1   8
ATOM      8  C1  UNL d   1       6.000   5.984  -1.653  0.00  0.00     0.053 C 
ATOM      9  C   UNL d   1       5.600   5.143  -0.451  0.00  0.00     0.018 C 
ENDBRANCH   1   8
TORSDOF 1
ENDMDL
