MODEL 1
REMARK minimizedAffinity -2.72416878
REMARK minimizedRMSD -1
REMARK  1 active torsions:
REMARK  status: ('A' for Active; 'I' for Inactive)
REMARK    1  A    between atoms: C1_2  and  C2_3 
ROOT
ATOM      1  C2  UNL d   1       4.849  -2.587   4.857  0.00  0.00    -0.073 A 
ATOM      2  C3  UNL d   1       5.093  -3.385   5.981  0.00  0.00    -0.002 A 
ATOM      3  C4  UNL d   1       5.620  -4.669   5.832  0.00  0.00     0.004 A 
ATOM      4  C5  UNL d   1       5.915  -5.164   4.562  0.00  0.00    -0.004 A 
ATOM      5  C6  UNL d   1       5.689  -4.377   3.428  0.00  0.00    -0.075 A 
ATOM      6  C7  UNL d   1       5.999  -4.896   2.055  0.00  0.00     0.076 C 
ATOM      7  C8  UNL d   1       5.157  -3.090   3.585  0.00  0.00     0.001 A 
ENDROOT
BRANCH   1   8
ATOM      8  C1  UNL d   1       4.286  -1.198   5.013  0.00  0.00     0.053 C 
ATOM      9  C   UNL d   1       3.087  -1.171   5.947  0.00  0.00     0.018 C 
ENDBRANCH   1   8
TORSDOF 1
ENDMDL
