MODEL 1
REMARK minimizedAffinity 10.0123653
REMARK minimizedRMSD -1
REMARK  1 active torsions:
REMARK  status: ('A' for Active; 'I' for Inactive)
REMARK    1  A    between atoms: C1_2  and  C2_3 
ROOT
ATOM      1  C2  UNL d   1       4.827   4.950  -1.737  0.00  0.00    -0.073 A 
ATOM      2  C3  UNL d   1       3.452   5.149  -1.904  0.00  0.00    -0.002 A 
ATOM      3  C4  UNL d   1       2.855   4.935  -3.147  0.00  0.00     0.004 A 
ATOM      4  C5  UNL d   1       3.623   4.514  -4.232  0.00  0.00    -0.004 A 
ATOM      5  C6  UNL d   1       4.997   4.298  -4.082  0.00  0.00    -0.075 A 
ATOM      6  C7  UNL d   1       5.838   3.848  -5.239  0.00  0.00     0.076 C 
ATOM      7  C8  UNL d   1       5.590   4.518  -2.831  0.00  0.00     0.001 A 
ENDROOT
BRANCH   1   8
ATOM      8  C1  UNL d   1       5.475   5.174  -0.395  0.00  0.00     0.053 C 
ATOM      9  C   UNL d   1       4.448   5.360   0.711  0.00  0.00     0.018 C 
ENDBRANCH   1   8
TORSDOF 1
ENDMDL
