MODEL 1
REMARK minimizedAffinity -2.98173261
REMARK minimizedRMSD -1
REMARK  1 active torsions:
REMARK  status: ('A' for Active; 'I' for Inactive)
REMARK    1  A    between atoms: C1_2  and  C2_3 
ROOT
ATOM      1  C2  UNL d   1       4.242  -2.652   5.235  0.00  0.00    -0.073 A 
ATOM      2  C3  UNL d   1       3.842  -2.799   3.902  0.00  0.00    -0.002 A 
ATOM      3  C4  UNL d   1       4.146  -3.966   3.199  0.00  0.00     0.004 A 
ATOM      4  C5  UNL d   1       4.846  -4.999   3.823  0.00  0.00    -0.004 A 
ATOM      5  C6  UNL d   1       5.244  -4.876   5.159  0.00  0.00    -0.075 A 
ATOM      6  C7  UNL d   1       5.999  -5.977   5.843  0.00  0.00     0.076 C 
ATOM      7  C8  UNL d   1       4.936  -3.700   5.857  0.00  0.00     0.001 A 
ENDROOT
BRANCH   1   8
ATOM      8  C1  UNL d   1       3.910  -1.397   6.000  0.00  0.00     0.053 C 
ATOM      9  C   UNL d   1       2.418  -1.104   5.994  0.00  0.00     0.018 C 
ENDBRANCH   1   8
TORSDOF 1
ENDMDL
