MODEL 1
REMARK minimizedAffinity 2.9908936
REMARK minimizedRMSD -1
REMARK  1 active torsions:
REMARK  status: ('A' for Active; 'I' for Inactive)
REMARK    1  A    between atoms: C1_2  and  C2_3 
ROOT
ATOM      1  C2  UNL d   1       5.161   4.342  -4.160  0.00  0.00    -0.073 A 
ATOM      2  C3  UNL d   1       3.900   4.782  -4.577  0.00  0.00    -0.002 A 
ATOM      3  C4  UNL d   1       3.131   5.604  -3.751  0.00  0.00     0.004 A 
ATOM      4  C5  UNL d   1       3.618   5.999  -2.505  0.00  0.00    -0.004 A 
ATOM      5  C6  UNL d   1       4.881   5.579  -2.076  0.00  0.00    -0.075 A 
ATOM      6  C7  UNL d   1       5.418   5.993  -0.737  0.00  0.00     0.076 C 
ATOM      7  C8  UNL d   1       5.645   4.752  -2.909  0.00  0.00     0.001 A 
ENDROOT
BRANCH   1   8
ATOM      8  C1  UNL d   1       5.997   3.460  -5.051  0.00  0.00     0.053 C 
ATOM      9  C   UNL d   1       5.142   2.621  -5.986  0.00  0.00     0.018 C 
ENDBRANCH   1   8
TORSDOF 1
ENDMDL
