MODEL 1
REMARK minimizedAffinity -2.65048504
REMARK minimizedRMSD -1
REMARK  1 active torsions:
REMARK  status: ('A' for Active; 'I' for Inactive)
REMARK    1  A    between atoms: C1_2  and  C2_3 
ROOT
ATOM      1  C2  UNL d   1       5.064  -3.706   4.814  0.00  0.00    -0.073 A 
ATOM      2  C3  UNL d   1       4.877  -2.964   5.986  0.00  0.00    -0.002 A 
ATOM      3  C4  UNL d   1       4.005  -1.875   5.999  0.00  0.00     0.004 A 
ATOM      4  C5  UNL d   1       3.307  -1.520   4.845  0.00  0.00    -0.004 A 
ATOM      5  C6  UNL d   1       3.472  -2.256   3.667  0.00  0.00    -0.075 A 
ATOM      6  C7  UNL d   1       2.730  -1.887   2.416  0.00  0.00     0.076 C 
ATOM      7  C8  UNL d   1       4.351  -3.347   3.661  0.00  0.00     0.001 A 
ENDROOT
BRANCH   1   8
ATOM      8  C1  UNL d   1       6.000  -4.887   4.797  0.00  0.00     0.053 C 
ATOM      9  C   UNL d   1       5.794  -5.795   5.999  0.00  0.00     0.018 C 
ENDBRANCH   1   8
TORSDOF 1
ENDMDL
