MODEL 1
REMARK minimizedAffinity -1.42055702
REMARK minimizedRMSD -1
REMARK  1 active torsions:
REMARK  status: ('A' for Active; 'I' for Inactive)
REMARK    1  A    between atoms: C1_2  and  C2_3 
ROOT
ATOM      1  C2  UNL d   1       5.049  -3.767   5.081  0.00  0.00    -0.073 A 
ATOM      2  C3  UNL d   1       4.869  -4.197   3.761  0.00  0.00    -0.002 A 
ATOM      3  C4  UNL d   1       3.994  -3.518   2.912  0.00  0.00     0.004 A 
ATOM      4  C5  UNL d   1       3.295  -2.402   3.371  0.00  0.00    -0.004 A 
ATOM      5  C6  UNL d   1       3.471  -1.950   4.683  0.00  0.00    -0.075 A 
ATOM      6  C7  UNL d   1       2.725  -0.752   5.193  0.00  0.00     0.076 C 
ATOM      7  C8  UNL d   1       4.350  -2.638   5.530  0.00  0.00     0.001 A 
ENDROOT
BRANCH   1   8
ATOM      8  C1  UNL d   1       5.999  -4.492   5.999  0.00  0.00     0.053 C 
ATOM      9  C   UNL d   1       5.802  -5.999   5.948  0.00  0.00     0.018 C 
ENDBRANCH   1   8
TORSDOF 1
ENDMDL
