MODEL 1
REMARK minimizedAffinity 12.1685305
REMARK minimizedRMSD -1
REMARK  1 active torsions:
REMARK  status: ('A' for Active; 'I' for Inactive)
REMARK    1  A    between atoms: C1_2  and  C2_3 
ROOT
ATOM      1  C2  UNL d   1       3.618   5.345  -3.458  0.00  0.00    -0.073 A 
ATOM      2  C3  UNL d   1       4.245   5.769  -2.281  0.00  0.00    -0.002 A 
ATOM      3  C4  UNL d   1       5.428   5.164  -1.854  0.00  0.00     0.004 A 
ATOM      4  C5  UNL d   1       6.000   4.136  -2.603  0.00  0.00    -0.004 A 
ATOM      5  C6  UNL d   1       5.395   3.706  -3.789  0.00  0.00    -0.075 A 
ATOM      6  C7  UNL d   1       5.996   2.599  -4.605  0.00  0.00     0.076 C 
ATOM      7  C8  UNL d   1       4.205   4.317  -4.209  0.00  0.00     0.001 A 
ENDROOT
BRANCH   1   8
ATOM      8  C1  UNL d   1       2.344   5.999  -3.925  0.00  0.00     0.053 C 
ATOM      9  C   UNL d   1       1.220   5.847  -2.913  0.00  0.00     0.018 C 
ENDBRANCH   1   8
TORSDOF 1
ENDMDL
