MODEL 1
REMARK minimizedAffinity 8.18861198
REMARK minimizedRMSD -1
REMARK  1 active torsions:
REMARK  status: ('A' for Active; 'I' for Inactive)
REMARK    1  A    between atoms: C1_2  and  C2_3 
ROOT
ATOM      1  C2  UNL d   1       4.704  -2.589   5.209  0.00  0.00    -0.073 A 
ATOM      2  C3  UNL d   1       4.105  -1.588   5.984  0.00  0.00    -0.002 A 
ATOM      3  C4  UNL d   1       2.909  -1.000   5.572  0.00  0.00     0.004 A 
ATOM      4  C5  UNL d   1       2.296  -1.409   4.387  0.00  0.00    -0.004 A 
ATOM      5  C6  UNL d   1       2.873  -2.415   3.606  0.00  0.00    -0.075 A 
ATOM      6  C7  UNL d   1       2.228  -2.865   2.328  0.00  0.00     0.076 C 
ATOM      7  C8  UNL d   1       4.076  -2.999   4.025  0.00  0.00     0.001 A 
ENDROOT
BRANCH   1   8
ATOM      8  C1  UNL d   1       5.992  -3.232   5.653  0.00  0.00     0.053 C 
ATOM      9  C   UNL d   1       5.987  -4.735   5.426  0.00  0.00     0.018 C 
ENDBRANCH   1   8
TORSDOF 1
ENDMDL
