MODEL 1
REMARK minimizedAffinity -0.992142022
REMARK minimizedRMSD -1
REMARK  1 active torsions:
REMARK  status: ('A' for Active; 'I' for Inactive)
REMARK    1  A    between atoms: N_2  and  C1_3 
ROOT
ATOM      1  C1  UNL d   1       0.797  -0.601  -1.795  0.00  0.00     0.143 A 
ATOM      2  C2  UNL d   1      -0.293  -0.373  -2.642  0.00  0.00    -0.057 A 
ATOM      3  C3  UNL d   1      -0.109  -0.005  -3.980  0.00  0.00     0.033 A 
ATOM      4  C4  UNL d   1       1.173   0.170  -4.489  0.00  0.00    -0.042 A 
ATOM      5  C5  UNL d   1       2.271  -0.027  -3.660  0.00  0.00     0.033 A 
ATOM      6  C6  UNL d   1       2.081  -0.400  -2.326  0.00  0.00    -0.057 A 
ENDROOT
BRANCH   1   7
ATOM      7  N   UNL d   1       0.679  -0.872  -0.430  0.00  0.00    -0.732 N 
ATOM      8  C   UNL d   1      -0.206  -0.088   0.403  0.00  0.00     0.284 C 
ATOM      9  H3  UNL d   1       0.659  -1.870  -0.233  0.00  0.00     0.395 HD
ENDBRANCH   1   7
TORSDOF 1
ENDMDL
