MODEL 1
REMARK minimizedAffinity -5.1174202
REMARK minimizedRMSD -1
REMARK  1 active torsions:
REMARK  status: ('A' for Active; 'I' for Inactive)
REMARK    1  A    between atoms: N_2  and  C1_3 
ROOT
ATOM      1  C1  UNL d   1       0.170  -0.079   0.075  0.00  0.00     0.143 A 
ATOM      2  C2  UNL d   1      -1.100   0.371   0.450  0.00  0.00    -0.057 A 
ATOM      3  C3  UNL d   1      -1.383   0.727   1.774  0.00  0.00     0.033 A 
ATOM      4  C4  UNL d   1      -0.405   0.610   2.756  0.00  0.00    -0.042 A 
ATOM      5  C5  UNL d   1       0.858   0.141   2.411  0.00  0.00     0.033 A 
ATOM      6  C6  UNL d   1       1.136  -0.206   1.085  0.00  0.00    -0.057 A 
ENDROOT
BRANCH   1   7
ATOM      7  N   UNL d   1       0.485  -0.541  -1.206  0.00  0.00    -0.732 N 
ATOM      8  C   UNL d   1       1.405   0.193  -2.048  0.00  0.00     0.284 C 
ATOM      9  H3  UNL d   1       0.609  -1.550  -1.235  0.00  0.00     0.395 HD
ENDBRANCH   1   7
TORSDOF 1
ENDMDL
