MODEL 1
REMARK minimizedAffinity -2.56030059
REMARK minimizedRMSD -1
REMARK  1 active torsions:
REMARK  status: ('A' for Active; 'I' for Inactive)
REMARK    1  A    between atoms: N_2  and  C1_3 
ROOT
ATOM      1  C1  UNL d   1       0.169  -0.140   0.808  0.00  0.00     0.143 A 
ATOM      2  C2  UNL d   1       1.302  -0.424   1.578  0.00  0.00    -0.057 A 
ATOM      3  C3  UNL d   1       1.245  -0.436   2.977  0.00  0.00     0.033 A 
ATOM      4  C4  UNL d   1       0.056  -0.134   3.633  0.00  0.00    -0.042 A 
ATOM      5  C5  UNL d   1      -1.076   0.177   2.889  0.00  0.00     0.033 A 
ATOM      6  C6  UNL d   1      -1.015   0.180   1.492  0.00  0.00    -0.057 A 
ENDROOT
BRANCH   1   7
ATOM      7  N   UNL d   1       0.185  -0.016  -0.583  0.00  0.00    -0.732 N 
ATOM      8  C   UNL d   1       1.236   0.727  -1.245  0.00  0.00     0.284 C 
ATOM      9  H3  UNL d   1      -0.071  -0.881  -1.053  0.00  0.00     0.395 HD
ENDBRANCH   1   7
TORSDOF 1
ENDMDL
