MODEL 1
REMARK minimizedAffinity -1.79481363
REMARK minimizedRMSD -1
REMARK  1 active torsions:
REMARK  status: ('A' for Active; 'I' for Inactive)
REMARK    1  A    between atoms: N_2  and  C1_3 
ROOT
ATOM      1  C1  UNL d   1      -0.089  -0.006   0.030  0.00  0.00     0.143 A 
ATOM      2  C2  UNL d   1      -1.355   0.460   0.402  0.00  0.00    -0.057 A 
ATOM      3  C3  UNL d   1      -1.648   0.782   1.732  0.00  0.00     0.033 A 
ATOM      4  C4  UNL d   1      -0.686   0.616   2.723  0.00  0.00    -0.042 A 
ATOM      5  C5  UNL d   1       0.571   0.131   2.380  0.00  0.00     0.033 A 
ATOM      6  C6  UNL d   1       0.860  -0.182   1.049  0.00  0.00    -0.057 A 
ENDROOT
BRANCH   1   7
ATOM      7  N   UNL d   1       0.233  -0.436  -1.259  0.00  0.00    -0.732 N 
ATOM      8  C   UNL d   1       1.016   0.402  -2.142  0.00  0.00     0.284 C 
ATOM      9  H3  UNL d   1       0.487  -1.421  -1.288  0.00  0.00     0.395 HD
ENDBRANCH   1   7
TORSDOF 1
ENDMDL
