MODEL 1
REMARK minimizedAffinity 0.00388762006
REMARK minimizedRMSD -1
REMARK  1 active torsions:
REMARK  status: ('A' for Active; 'I' for Inactive)
REMARK    1  A    between atoms: C1_2  and  C2_3 
ROOT
ATOM      1  C2  UNL d   1       5.294  -0.802   2.480  0.00  0.00    -0.081 A 
ATOM      2  C3  UNL d   1       4.342  -1.097   1.496  0.00  0.00     0.006 A 
ATOM      3  C4  UNL d   1       4.109  -0.204   0.447  0.00  0.00     0.002 A 
ATOM      4  C5  UNL d   1       4.829   0.992   0.360  0.00  0.00    -0.080 A 
ATOM      5  C6  UNL d   1       4.610   1.945  -0.778  0.00  0.00     0.076 C 
ATOM      6  C7  UNL d   1       5.767   1.295   1.353  0.00  0.00     0.002 A 
ATOM      7  C8  UNL d   1       6.000   0.403   2.402  0.00  0.00     0.006 A 
ENDROOT
BRANCH   1   8
ATOM      8  C1  UNL d   1       5.594  -1.792   3.577  0.00  0.00     0.054 C 
ATOM      9  C   UNL d   1       5.928  -1.086   4.883  0.00  0.00     0.018 C 
ENDBRANCH   1   8
TORSDOF 1
ENDMDL
