MODEL 1
REMARK minimizedAffinity 4.25816441
REMARK minimizedRMSD -1
REMARK  1 active torsions:
REMARK  status: ('A' for Active; 'I' for Inactive)
REMARK    1  A    between atoms: C1_2  and  C2_3 
ROOT
ATOM      1  C2  UNL d   1       4.871  -0.204   1.947  0.00  0.00    -0.081 A 
ATOM      2  C3  UNL d   1       6.000   0.623   1.896  0.00  0.00     0.006 A 
ATOM      3  C4  UNL d   1       6.000   1.773   1.103  0.00  0.00     0.002 A 
ATOM      4  C5  UNL d   1       4.869   2.119   0.355  0.00  0.00    -0.080 A 
ATOM      5  C6  UNL d   1       4.845   3.368  -0.477  0.00  0.00     0.076 C 
ATOM      6  C7  UNL d   1       3.748   1.284   0.392  0.00  0.00     0.002 A 
ATOM      7  C8  UNL d   1       3.748   0.133   1.184  0.00  0.00     0.006 A 
ENDROOT
BRANCH   1   8
ATOM      8  C1  UNL d   1       4.845  -1.410   2.851  0.00  0.00     0.054 C 
ATOM      9  C   UNL d   1       4.106  -1.113   4.148  0.00  0.00     0.018 C 
ENDBRANCH   1   8
TORSDOF 1
ENDMDL
