MODEL 1
REMARK minimizedAffinity -2.31830955
REMARK minimizedRMSD -1
REMARK  1 active torsions:
REMARK  status: ('A' for Active; 'I' for Inactive)
REMARK    1  A    between atoms: C1_2  and  C2_3 
ROOT
ATOM      1  C2  UNL d   1      -3.467   1.742   3.437  0.00  0.00    -0.081 A 
ATOM      2  C3  UNL d   1      -3.169   0.728   2.519  0.00  0.00     0.006 A 
ATOM      3  C4  UNL d   1      -1.862   0.548   2.062  0.00  0.00     0.002 A 
ATOM      4  C5  UNL d   1      -0.829   1.372   2.522  0.00  0.00    -0.080 A 
ATOM      5  C6  UNL d   1       0.584   1.170   2.063  0.00  0.00     0.076 C 
ATOM      6  C7  UNL d   1      -1.130   2.397   3.427  0.00  0.00     0.002 A 
ATOM      7  C8  UNL d   1      -2.437   2.578   3.883  0.00  0.00     0.006 A 
ENDROOT
BRANCH   1   8
ATOM      8  C1  UNL d   1      -4.865   1.898   3.981  0.00  0.00     0.054 C 
ATOM      9  C   UNL d   1      -5.851   1.014   3.232  0.00  0.00     0.018 C 
ENDBRANCH   1   8
TORSDOF 1
ENDMDL
