MODEL 1
REMARK minimizedAffinity -0.736217022
REMARK minimizedRMSD -1
REMARK  1 active torsions:
REMARK  status: ('A' for Active; 'I' for Inactive)
REMARK    1  A    between atoms: C1_2  and  C2_3 
ROOT
ATOM      1  C2  UNL d   1      -2.857   1.650   3.069  0.00  0.00    -0.081 A 
ATOM      2  C3  UNL d   1      -1.921   2.666   2.839  0.00  0.00     0.006 A 
ATOM      3  C4  UNL d   1      -0.730   2.393   2.163  0.00  0.00     0.002 A 
ATOM      4  C5  UNL d   1      -0.458   1.101   1.698  0.00  0.00    -0.080 A 
ATOM      5  C6  UNL d   1       0.803   0.801   0.944  0.00  0.00     0.076 C 
ATOM      6  C7  UNL d   1      -1.385   0.082   1.943  0.00  0.00     0.002 A 
ATOM      7  C8  UNL d   1      -2.575   0.355   2.620  0.00  0.00     0.006 A 
ENDROOT
BRANCH   1   8
ATOM      8  C1  UNL d   1      -4.171   1.956   3.741  0.00  0.00     0.054 C 
ATOM      9  C   UNL d   1      -3.959   2.618   5.095  0.00  0.00     0.018 C 
ENDBRANCH   1   8
TORSDOF 1
ENDMDL
