MODEL 1
REMARK minimizedAffinity 1.64134717
REMARK minimizedRMSD -1
REMARK  1 active torsions:
REMARK  status: ('A' for Active; 'I' for Inactive)
REMARK    1  A    between atoms: C1_2  and  C2_3 
ROOT
ATOM      1  C2  UNL d   1      -3.318   1.636   3.681  0.00  0.00    -0.081 A 
ATOM      2  C3  UNL d   1      -2.338   2.615   3.889  0.00  0.00     0.006 A 
ATOM      3  C4  UNL d   1      -1.076   2.489   3.303  0.00  0.00     0.002 A 
ATOM      4  C5  UNL d   1      -0.775   1.387   2.495  0.00  0.00    -0.080 A 
ATOM      5  C6  UNL d   1       0.565   1.255   1.836  0.00  0.00     0.076 C 
ATOM      6  C7  UNL d   1      -1.748   0.401   2.302  0.00  0.00     0.002 A 
ATOM      7  C8  UNL d   1      -3.010   0.525   2.888  0.00  0.00     0.006 A 
ENDROOT
BRANCH   1   8
ATOM      8  C1  UNL d   1      -4.701   1.801   4.258  0.00  0.00     0.054 C 
ATOM      9  C   UNL d   1      -4.664   2.573   5.570  0.00  0.00     0.018 C 
ENDBRANCH   1   8
TORSDOF 1
ENDMDL
