MODEL 1
REMARK minimizedAffinity 5.59401846
REMARK minimizedRMSD -1
REMARK  1 active torsions:
REMARK  status: ('A' for Active; 'I' for Inactive)
REMARK    1  A    between atoms: C1_2  and  C2_3 
ROOT
ATOM      1  C2  UNL d   1      -5.000   2.168   4.992  0.00  0.00    -0.081 A 
ATOM      2  C3  UNL d   1      -5.086   0.837   4.565  0.00  0.00     0.006 A 
ATOM      3  C4  UNL d   1      -4.142   0.316   3.677  0.00  0.00     0.002 A 
ATOM      4  C5  UNL d   1      -3.092   1.114   3.208  0.00  0.00    -0.080 A 
ATOM      5  C6  UNL d   1      -2.055   0.558   2.279  0.00  0.00     0.076 C 
ATOM      6  C7  UNL d   1      -3.017   2.449   3.621  0.00  0.00     0.002 A 
ATOM      7  C8  UNL d   1      -3.961   2.970   4.508  0.00  0.00     0.006 A 
ENDROOT
BRANCH   1   8
ATOM      8  C1  UNL d   1      -5.979   2.714   6.000  0.00  0.00     0.054 C 
ATOM      9  C   UNL d   1      -5.982   4.236   6.000  0.00  0.00     0.018 C 
ENDBRANCH   1   8
TORSDOF 1
ENDMDL
