MODEL 1
REMARK minimizedAffinity -0.505659759
REMARK minimizedRMSD -1
REMARK  1 active torsions:
REMARK  status: ('A' for Active; 'I' for Inactive)
REMARK    1  A    between atoms: C1_2  and  C2_3 
ROOT
ATOM      1  C2  UNL d   1      -3.365   2.256   3.743  0.00  0.00    -0.081 A 
ATOM      2  C3  UNL d   1      -2.168   1.874   4.361  0.00  0.00     0.006 A 
ATOM      3  C4  UNL d   1      -0.970   1.868   3.643  0.00  0.00     0.002 A 
ATOM      4  C5  UNL d   1      -0.948   2.251   2.297  0.00  0.00    -0.080 A 
ATOM      5  C6  UNL d   1       0.336   2.277   1.523  0.00  0.00     0.076 C 
ATOM      6  C7  UNL d   1      -2.146   2.615   1.674  0.00  0.00     0.002 A 
ATOM      7  C8  UNL d   1      -3.344   2.621   2.392  0.00  0.00     0.006 A 
ENDROOT
BRANCH   1   8
ATOM      8  C1  UNL d   1      -4.647   2.326   4.532  0.00  0.00     0.054 C 
ATOM      9  C   UNL d   1      -4.378   2.625   6.000  0.00  0.00     0.018 C 
ENDBRANCH   1   8
TORSDOF 1
ENDMDL
