MODEL 1
REMARK minimizedAffinity 2.14591956
REMARK minimizedRMSD -1
REMARK  1 active torsions:
REMARK  status: ('A' for Active; 'I' for Inactive)
REMARK    1  A    between atoms: C1_2  and  C2_3 
ROOT
ATOM      1  C2  UNL d   1      -0.128  -4.021  -1.859  0.00  0.00    -0.081 A 
ATOM      2  C3  UNL d   1      -0.964  -3.259  -2.684  0.00  0.00     0.006 A 
ATOM      3  C4  UNL d   1      -2.277  -2.980  -2.297  0.00  0.00     0.002 A 
ATOM      4  C5  UNL d   1      -2.773  -3.452  -1.077  0.00  0.00    -0.080 A 
ATOM      5  C6  UNL d   1      -4.171  -3.135  -0.637  0.00  0.00     0.076 C 
ATOM      6  C7  UNL d   1      -1.944  -4.228  -0.261  0.00  0.00     0.002 A 
ATOM      7  C8  UNL d   1      -0.631  -4.508  -0.647  0.00  0.00     0.006 A 
ENDROOT
BRANCH   1   8
ATOM      8  C1  UNL d   1       1.309  -4.269  -2.242  0.00  0.00     0.054 C 
ATOM      9  C   UNL d   1       1.557  -3.929  -3.705  0.00  0.00     0.018 C 
ENDBRANCH   1   8
TORSDOF 1
ENDMDL
