MODEL 1
REMARK minimizedAffinity 9.31524944
REMARK minimizedRMSD -1
REMARK  1 active torsions:
REMARK  status: ('A' for Active; 'I' for Inactive)
REMARK    1  A    between atoms: C1_2  and  C2_3 
ROOT
ATOM      1  C2  UNL d   1      -0.303   1.873   3.420  0.00  0.00    -0.081 A 
ATOM      2  C3  UNL d   1       0.162   2.517   2.267  0.00  0.00     0.006 A 
ATOM      3  C4  UNL d   1      -0.722   3.215   1.441  0.00  0.00     0.002 A 
ATOM      4  C5  UNL d   1      -2.082   3.288   1.758  0.00  0.00    -0.080 A 
ATOM      5  C6  UNL d   1      -3.037   4.060   0.896  0.00  0.00     0.076 C 
ATOM      6  C7  UNL d   1      -2.550   2.630   2.901  0.00  0.00     0.002 A 
ATOM      7  C8  UNL d   1      -1.667   1.931   3.726  0.00  0.00     0.006 A 
ENDROOT
BRANCH   1   8
ATOM      8  C1  UNL d   1       0.658   1.173   4.348  0.00  0.00     0.054 C 
ATOM      9  C   UNL d   1       1.341   0.002   3.656  0.00  0.00     0.018 C 
ENDBRANCH   1   8
TORSDOF 1
ENDMDL
