MODEL 1
REMARK minimizedAffinity 8.83090401
REMARK minimizedRMSD -1
REMARK  1 active torsions:
REMARK  status: ('A' for Active; 'I' for Inactive)
REMARK    1  A    between atoms: C1_2  and  C2_3 
ROOT
ATOM      1  C2  UNL d   1      -4.115  -1.496  -0.080  0.00  0.00    -0.081 A 
ATOM      2  C3  UNL d   1      -3.851  -0.315  -0.784  0.00  0.00     0.006 A 
ATOM      3  C4  UNL d   1      -3.395  -0.364  -2.104  0.00  0.00     0.002 A 
ATOM      4  C5  UNL d   1      -3.204  -1.593  -2.743  0.00  0.00    -0.080 A 
ATOM      5  C6  UNL d   1      -2.745  -1.659  -4.170  0.00  0.00     0.076 C 
ATOM      6  C7  UNL d   1      -3.451  -2.774  -2.034  0.00  0.00     0.002 A 
ATOM      7  C8  UNL d   1      -3.906  -2.725  -0.715  0.00  0.00     0.006 A 
ENDROOT
BRANCH   1   8
ATOM      8  C1  UNL d   1      -4.668  -1.445   1.321  0.00  0.00     0.054 C 
ATOM      9  C   UNL d   1      -6.000  -2.175   1.417  0.00  0.00     0.018 C 
ENDBRANCH   1   8
TORSDOF 1
ENDMDL
