MODEL 1
REMARK minimizedAffinity 6.25053167
REMARK minimizedRMSD -1
REMARK  1 active torsions:
REMARK  status: ('A' for Active; 'I' for Inactive)
REMARK    1  A    between atoms: C1_2  and  C2_3 
ROOT
ATOM      1  C2  UNL d   1       3.457   3.819  -4.509  0.00  0.00    -0.081 A 
ATOM      2  C3  UNL d   1       4.643   3.075  -4.496  0.00  0.00     0.006 A 
ATOM      3  C4  UNL d   1       4.633   1.734  -4.105  0.00  0.00     0.002 A 
ATOM      4  C5  UNL d   1       3.437   1.113  -3.728  0.00  0.00    -0.080 A 
ATOM      5  C6  UNL d   1       3.408  -0.334  -3.335  0.00  0.00     0.076 C 
ATOM      6  C7  UNL d   1       2.255   1.861  -3.724  0.00  0.00     0.002 A 
ATOM      7  C8  UNL d   1       2.264   3.202  -4.114  0.00  0.00     0.006 A 
ENDROOT
BRANCH   1   8
ATOM      8  C1  UNL d   1       3.453   5.247  -4.992  0.00  0.00     0.054 C 
ATOM      9  C   UNL d   1       4.567   5.493  -6.000  0.00  0.00     0.018 C 
ENDBRANCH   1   8
TORSDOF 1
ENDMDL
