MODEL 1
REMARK minimizedAffinity 10.4135561
REMARK minimizedRMSD -1
REMARK  1 active torsions:
REMARK  status: ('A' for Active; 'I' for Inactive)
REMARK    1  A    between atoms: C1_2  and  C2_3 
ROOT
ATOM      1  C2  UNL d   1      -3.833   1.952   3.815  0.00  0.00    -0.081 A 
ATOM      2  C3  UNL d   1      -2.833   1.014   3.531  0.00  0.00     0.006 A 
ATOM      3  C4  UNL d   1      -1.738   1.365   2.737  0.00  0.00     0.002 A 
ATOM      4  C5  UNL d   1      -1.621   2.660   2.222  0.00  0.00    -0.080 A 
ATOM      5  C6  UNL d   1      -0.435   3.058   1.394  0.00  0.00     0.076 C 
ATOM      6  C7  UNL d   1      -2.628   3.592   2.492  0.00  0.00     0.002 A 
ATOM      7  C8  UNL d   1      -3.724   3.242   3.284  0.00  0.00     0.006 A 
ENDROOT
BRANCH   1   8
ATOM      8  C1  UNL d   1      -4.982   1.596   4.724  0.00  0.00     0.054 C 
ATOM      9  C   UNL d   1      -4.989   2.466   5.973  0.00  0.00     0.018 C 
ENDBRANCH   1   8
TORSDOF 1
ENDMDL
