MODEL 1
REMARK minimizedAffinity -5.45740604
REMARK minimizedRMSD -1
REMARK  0 active torsions:
REMARK  status: ('A' for Active; 'I' for Inactive)
ROOT
ATOM      1  C   UNL d   1       0.382   1.261   0.352  0.00  0.00     0.078 C 
ATOM      2  C1  UNL d   1       1.267   0.162   0.858  0.00  0.00    -0.077 A 
ATOM      3  C2  UNL d   1       0.743  -0.897   1.611  0.00  0.00    -0.001 A 
ATOM      4  C3  UNL d   1       1.580  -1.909   2.084  0.00  0.00     0.003 A 
ATOM      5  C4  UNL d   1       2.946  -1.872   1.810  0.00  0.00    -0.005 A 
ATOM      6  C5  UNL d   1       3.477  -0.821   1.064  0.00  0.00     0.003 A 
ATOM      7  C6  UNL d   1       2.641   0.191   0.590  0.00  0.00    -0.001 A 
ENDROOT
TORSDOF 0
ENDMDL
