MODEL 1
REMARK minimizedAffinity -4.73099184
REMARK minimizedRMSD -1
REMARK  0 active torsions:
REMARK  status: ('A' for Active; 'I' for Inactive)
ROOT
ATOM      1  C   UNL d   1       3.343  -0.371   0.743  0.00  0.00     0.078 C 
ATOM      2  C1  UNL d   1       1.929   0.002   0.413  0.00  0.00    -0.077 A 
ATOM      3  C2  UNL d   1       0.921  -0.969   0.356  0.00  0.00    -0.001 A 
ATOM      4  C3  UNL d   1      -0.389  -0.609   0.038  0.00  0.00     0.003 A 
ATOM      5  C4  UNL d   1      -0.704   0.722  -0.227  0.00  0.00    -0.005 A 
ATOM      6  C5  UNL d   1       0.292   1.695  -0.176  0.00  0.00     0.003 A 
ATOM      7  C6  UNL d   1       1.603   1.337   0.142  0.00  0.00    -0.001 A 
ENDROOT
TORSDOF 0
ENDMDL
