MODEL 1
REMARK minimizedAffinity -5.15172768
REMARK minimizedRMSD -1
REMARK  0 active torsions:
REMARK  status: ('A' for Active; 'I' for Inactive)
ROOT
ATOM      1  C   UNL d   1      -1.402  -0.114   0.324  0.00  0.00     0.078 C 
ATOM      2  C1  UNL d   1       0.084   0.084   0.299  0.00  0.00    -0.077 A 
ATOM      3  C2  UNL d   1       0.952  -0.907   0.772  0.00  0.00    -0.001 A 
ATOM      4  C3  UNL d   1       2.333  -0.705   0.752  0.00  0.00     0.003 A 
ATOM      5  C4  UNL d   1       2.858   0.489   0.261  0.00  0.00    -0.005 A 
ATOM      6  C5  UNL d   1       2.002   1.482  -0.210  0.00  0.00     0.003 A 
ATOM      7  C6  UNL d   1       0.621   1.282  -0.191  0.00  0.00    -0.001 A 
ENDROOT
TORSDOF 0
ENDMDL
