MODEL 1
REMARK minimizedAffinity -2.53148866
REMARK minimizedRMSD -1
REMARK  0 active torsions:
REMARK  status: ('A' for Active; 'I' for Inactive)
ROOT
ATOM      1  C   UNL d   1      -1.421  -5.826  -5.272  0.00  0.00     0.172 C 
ATOM      2  N   UNL d   1      -2.701  -5.163  -5.193  0.00  0.00    -0.070 N 
ATOM      3  C1  UNL d   1      -3.033  -4.171  -4.309  0.00  0.00    -0.004 A 
ATOM      4  C2  UNL d   1      -4.339  -3.805  -4.556  0.00  0.00    -0.047 A 
ATOM      5  C3  UNL d   1      -4.808  -4.605  -5.625  0.00  0.00    -0.047 A 
ATOM      6  C4  UNL d   1      -3.774  -5.437  -6.000  0.00  0.00    -0.004 A 
ENDROOT
TORSDOF 0
ENDMDL
