MODEL 1
REMARK minimizedAffinity -0.723570108
REMARK minimizedRMSD -1
REMARK  0 active torsions:
REMARK  status: ('A' for Active; 'I' for Inactive)
ROOT
ATOM      1  C   UNL d   1      -3.755  -5.570  -5.303  0.00  0.00     0.172 C 
ATOM      2  N   UNL d   1      -4.667  -4.481  -5.044  0.00  0.00    -0.070 N 
ATOM      3  C1  UNL d   1      -5.162  -4.129  -3.816  0.00  0.00    -0.004 A 
ATOM      4  C2  UNL d   1      -5.993  -3.044  -3.991  0.00  0.00    -0.047 A 
ATOM      5  C3  UNL d   1      -6.000  -2.734  -5.372  0.00  0.00    -0.047 A 
ATOM      6  C4  UNL d   1      -5.170  -3.639  -6.000  0.00  0.00    -0.004 A 
ENDROOT
TORSDOF 0
ENDMDL
