MODEL 1
REMARK minimizedAffinity -2.00820398
REMARK minimizedRMSD -1
REMARK  0 active torsions:
REMARK  status: ('A' for Active; 'I' for Inactive)
ROOT
ATOM      1  C   UNL d   1      -5.617  -2.984  -5.944  0.00  0.00     0.172 C 
ATOM      2  N   UNL d   1      -4.599  -4.008  -5.958  0.00  0.00    -0.070 N 
ATOM      3  C1  UNL d   1      -4.825  -5.358  -5.998  0.00  0.00    -0.004 A 
ATOM      4  C2  UNL d   1      -3.601  -5.991  -6.000  0.00  0.00    -0.047 A 
ATOM      5  C3  UNL d   1      -2.605  -4.987  -5.958  0.00  0.00    -0.047 A 
ATOM      6  C4  UNL d   1      -3.250  -3.768  -5.933  0.00  0.00    -0.004 A 
ENDROOT
TORSDOF 0
ENDMDL
