MODEL 1
REMARK minimizedAffinity -2.64627385
REMARK minimizedRMSD -1
REMARK  0 active torsions:
REMARK  status: ('A' for Active; 'I' for Inactive)
ROOT
ATOM      1  C   UNL d   1      -5.977  -3.356  -4.049  0.00  0.00     0.172 C 
ATOM      2  N   UNL d   1      -4.747  -3.955  -4.513  0.00  0.00    -0.070 N 
ATOM      3  C1  UNL d   1      -4.486  -4.349  -5.799  0.00  0.00    -0.004 A 
ATOM      4  C2  UNL d   1      -3.210  -4.868  -5.830  0.00  0.00    -0.047 A 
ATOM      5  C3  UNL d   1      -2.686  -4.784  -4.518  0.00  0.00    -0.047 A 
ATOM      6  C4  UNL d   1      -3.658  -4.215  -3.723  0.00  0.00    -0.004 A 
ENDROOT
TORSDOF 0
ENDMDL
