MODEL 1
REMARK minimizedAffinity -2.42263651
REMARK minimizedRMSD -1
REMARK  0 active torsions:
REMARK  status: ('A' for Active; 'I' for Inactive)
ROOT
ATOM      1  C   UNL d   1      -2.990  -5.897  -5.433  0.00  0.00     0.172 C 
ATOM      2  N   UNL d   1      -4.062  -4.953  -5.219  0.00  0.00    -0.070 N 
ATOM      3  C1  UNL d   1      -5.246  -4.921  -5.907  0.00  0.00    -0.004 A 
ATOM      4  C2  UNL d   1      -5.996  -3.879  -5.407  0.00  0.00    -0.047 A 
ATOM      5  C3  UNL d   1      -5.237  -3.263  -4.383  0.00  0.00    -0.047 A 
ATOM      6  C4  UNL d   1      -4.044  -3.948  -4.288  0.00  0.00    -0.004 A 
ENDROOT
TORSDOF 0
ENDMDL
