MODEL 1
REMARK minimizedAffinity -2.04003024
REMARK minimizedRMSD -1
REMARK  0 active torsions:
REMARK  status: ('A' for Active; 'I' for Inactive)
ROOT
ATOM      1  C   UNL d   1      -3.990  -3.009  -4.899  0.00  0.00     0.172 C 
ATOM      2  N   UNL d   1      -3.106  -4.148  -4.984  0.00  0.00    -0.070 N 
ATOM      3  C1  UNL d   1      -2.139  -4.478  -4.073  0.00  0.00    -0.004 A 
ATOM      4  C2  UNL d   1      -1.518  -5.627  -4.513  0.00  0.00    -0.047 A 
ATOM      5  C3  UNL d   1      -2.133  -6.000  -5.732  0.00  0.00    -0.047 A 
ATOM      6  C4  UNL d   1      -3.113  -5.067  -6.000  0.00  0.00    -0.004 A 
ENDROOT
TORSDOF 0
ENDMDL
