MODEL 1
REMARK minimizedAffinity -2.4718442
REMARK minimizedRMSD -1
REMARK  0 active torsions:
REMARK  status: ('A' for Active; 'I' for Inactive)
ROOT
ATOM      1  C   UNL d   1      -5.182  -3.744  -4.850  0.00  0.00     0.172 C 
ATOM      2  N   UNL d   1      -3.868  -4.330  -4.979  0.00  0.00    -0.070 N 
ATOM      3  C1  UNL d   1      -3.317  -5.250  -4.128  0.00  0.00    -0.004 A 
ATOM      4  C2  UNL d   1      -2.058  -5.557  -4.596  0.00  0.00    -0.047 A 
ATOM      5  C3  UNL d   1      -1.844  -4.794  -5.769  0.00  0.00    -0.047 A 
ATOM      6  C4  UNL d   1      -2.981  -4.043  -5.983  0.00  0.00    -0.004 A 
ENDROOT
TORSDOF 0
ENDMDL
