MODEL 1
REMARK minimizedAffinity -2.54835343
REMARK minimizedRMSD -1
REMARK  0 active torsions:
REMARK  status: ('A' for Active; 'I' for Inactive)
ROOT
ATOM      1  C   UNL d   1      -4.104  -1.741  -5.268  0.00  0.00     0.172 C 
ATOM      2  N   UNL d   1      -4.424  -3.016  -4.671  0.00  0.00    -0.070 N 
ATOM      3  C1  UNL d   1      -3.522  -3.892  -4.129  0.00  0.00    -0.004 A 
ATOM      4  C2  UNL d   1      -4.221  -4.986  -3.667  0.00  0.00    -0.047 A 
ATOM      5  C3  UNL d   1      -5.591  -4.760  -3.941  0.00  0.00    -0.047 A 
ATOM      6  C4  UNL d   1      -5.688  -3.533  -4.563  0.00  0.00    -0.004 A 
ENDROOT
TORSDOF 0
ENDMDL
