MODEL 1
REMARK minimizedAffinity -2.68483925
REMARK minimizedRMSD -1
REMARK  0 active torsions:
REMARK  status: ('A' for Active; 'I' for Inactive)
ROOT
ATOM      1  C   UNL d   1      -3.791  -3.357  -5.995  0.00  0.00     0.172 C 
ATOM      2  N   UNL d   1      -2.978  -4.382  -5.385  0.00  0.00    -0.070 N 
ATOM      3  C1  UNL d   1      -3.171  -4.918  -4.140  0.00  0.00    -0.004 A 
ATOM      4  C2  UNL d   1      -2.189  -5.862  -3.930  0.00  0.00    -0.047 A 
ATOM      5  C3  UNL d   1      -1.377  -5.894  -5.089  0.00  0.00    -0.047 A 
ATOM      6  C4  UNL d   1      -1.888  -4.968  -5.973  0.00  0.00    -0.004 A 
ENDROOT
TORSDOF 0
ENDMDL
