MODEL 1
REMARK minimizedAffinity -0.742677331
REMARK minimizedRMSD -1
REMARK  0 active torsions:
REMARK  status: ('A' for Active; 'I' for Inactive)
ROOT
ATOM      1  C   UNL d   1      -5.932  -2.580  -5.932  0.00  0.00     0.172 C 
ATOM      2  N   UNL d   1      -5.207  -3.829  -5.959  0.00  0.00    -0.070 N 
ATOM      3  C1  UNL d   1      -5.768  -5.077  -5.975  0.00  0.00    -0.004 A 
ATOM      4  C2  UNL d   1      -4.744  -6.000  -6.000  0.00  0.00    -0.047 A 
ATOM      5  C3  UNL d   1      -3.526  -5.281  -5.998  0.00  0.00    -0.047 A 
ATOM      6  C4  UNL d   1      -3.841  -3.938  -5.973  0.00  0.00    -0.004 A 
ENDROOT
TORSDOF 0
ENDMDL
