MODEL 1
REMARK minimizedAffinity -0.833356082
REMARK minimizedRMSD -1
REMARK  0 active torsions:
REMARK  status: ('A' for Active; 'I' for Inactive)
ROOT
ATOM      1  C   UNL d   1      -4.502  -5.067  -5.243  0.00  0.00     0.172 C 
ATOM      2  N   UNL d   1      -3.310  -5.304  -4.463  0.00  0.00    -0.070 N 
ATOM      3  C1  UNL d   1      -3.253  -5.996  -3.283  0.00  0.00    -0.004 A 
ATOM      4  C2  UNL d   1      -1.942  -6.000  -2.859  0.00  0.00    -0.047 A 
ATOM      5  C3  UNL d   1      -1.184  -5.285  -3.817  0.00  0.00    -0.047 A 
ATOM      6  C4  UNL d   1      -2.056  -4.865  -4.800  0.00  0.00    -0.004 A 
ENDROOT
TORSDOF 0
ENDMDL
