MODEL 1
REMARK minimizedAffinity 0.11148797
REMARK minimizedRMSD -1
REMARK  0 active torsions:
REMARK  status: ('A' for Active; 'I' for Inactive)
ROOT
ATOM      1  C   UNL d   1      -5.069  -3.239  -5.935  0.00  0.00     0.172 C 
ATOM      2  N   UNL d   1      -3.945  -4.144  -5.888  0.00  0.00    -0.070 N 
ATOM      3  C1  UNL d   1      -4.020  -5.502  -5.728  0.00  0.00    -0.004 A 
ATOM      4  C2  UNL d   1      -2.735  -6.000  -5.737  0.00  0.00    -0.047 A 
ATOM      5  C3  UNL d   1      -1.857  -4.903  -5.908  0.00  0.00    -0.047 A 
ATOM      6  C4  UNL d   1      -2.633  -3.767  -5.999  0.00  0.00    -0.004 A 
ENDROOT
TORSDOF 0
ENDMDL
