MODEL 1
REMARK minimizedAffinity -1.16526949
REMARK minimizedRMSD -1
REMARK  0 active torsions:
REMARK  status: ('A' for Active; 'I' for Inactive)
ROOT
ATOM      1  C   UNL d   1      -4.899  -3.335  -5.242  0.00  0.00     0.172 C 
ATOM      2  N   UNL d   1      -3.742  -4.183  -5.410  0.00  0.00    -0.070 N 
ATOM      3  C1  UNL d   1      -3.645  -5.489  -5.012  0.00  0.00    -0.004 A 
ATOM      4  C2  UNL d   1      -2.389  -5.942  -5.352  0.00  0.00    -0.047 A 
ATOM      5  C3  UNL d   1      -1.707  -4.871  -5.976  0.00  0.00    -0.047 A 
ATOM      6  C4  UNL d   1      -2.568  -3.794  -5.999  0.00  0.00    -0.004 A 
ENDROOT
TORSDOF 0
ENDMDL
