MODEL 1
REMARK minimizedAffinity 3.74076939
REMARK minimizedRMSD -1
REMARK  0 active torsions:
REMARK  status: ('A' for Active; 'I' for Inactive)
ROOT
ATOM      1  C1  BNZ d   1       0.055   5.057  -2.767  0.00  0.00     0.000 A 
ATOM      2  C2  BNZ d   1       0.748   4.358  -1.815  0.00  0.00     0.000 A 
ATOM      3  C3  BNZ d   1       0.204   4.126  -0.582  0.00  0.00     0.000 A 
ATOM      4  C4  BNZ d   1      -1.013   4.626  -0.290  0.00  0.00     0.000 A 
ATOM      5  C5  BNZ d   1      -1.721   5.341  -1.236  0.00  0.00     0.000 A 
ATOM      6  C6  BNZ d   1      -1.187   5.539  -2.488  0.00  0.00     0.000 A 
ENDROOT
TORSDOF 0
ENDMDL
