MODEL 1
REMARK minimizedAffinity 1.69519782
REMARK minimizedRMSD -1
REMARK  0 active torsions:
REMARK  status: ('A' for Active; 'I' for Inactive)
ROOT
ATOM      1  C1  BNZ d   1      -0.752   3.516  -1.937  0.00  0.00     0.000 A 
ATOM      2  C2  BNZ d   1      -0.546   4.706  -2.584  0.00  0.00     0.000 A 
ATOM      3  C3  BNZ d   1       0.367   5.608  -2.114  0.00  0.00     0.000 A 
ATOM      4  C4  BNZ d   1       1.042   5.339  -0.978  0.00  0.00     0.000 A 
ATOM      5  C5  BNZ d   1       0.838   4.148  -0.310  0.00  0.00     0.000 A 
ATOM      6  C6  BNZ d   1      -0.053   3.225  -0.807  0.00  0.00     0.000 A 
ENDROOT
TORSDOF 0
ENDMDL
