MODEL 1
REMARK minimizedAffinity 7.50905943
REMARK minimizedRMSD -1
REMARK  0 active torsions:
REMARK  status: ('A' for Active; 'I' for Inactive)
ROOT
ATOM      1  C1  BNZ d   1      -0.081   3.534   0.121  0.00  0.00     0.000 A 
ATOM      2  C2  BNZ d   1       1.188   4.042   0.183  0.00  0.00     0.000 A 
ATOM      3  C3  BNZ d   1       1.596   5.014  -0.688  0.00  0.00     0.000 A 
ATOM      4  C4  BNZ d   1       0.749   5.446  -1.644  0.00  0.00     0.000 A 
ATOM      5  C5  BNZ d   1      -0.532   4.937  -1.725  0.00  0.00     0.000 A 
ATOM      6  C6  BNZ d   1      -0.952   3.987  -0.822  0.00  0.00     0.000 A 
ENDROOT
TORSDOF 0
ENDMDL
