MODEL 1
REMARK minimizedAffinity 1.27823889
REMARK minimizedRMSD -1
REMARK  0 active torsions:
REMARK  status: ('A' for Active; 'I' for Inactive)
ROOT
ATOM      1  C1  BNZ d   1       0.989   4.752  -1.708  0.00  0.00     0.000 A 
ATOM      2  C2  BNZ d   1       0.149   4.503  -2.760  0.00  0.00     0.000 A 
ATOM      3  C3  BNZ d   1      -1.168   4.862  -2.704  0.00  0.00     0.000 A 
ATOM      4  C4  BNZ d   1      -1.653   5.432  -1.582  0.00  0.00     0.000 A 
ATOM      5  C5  BNZ d   1      -0.821   5.682  -0.509  0.00  0.00     0.000 A 
ATOM      6  C6  BNZ d   1       0.514   5.354  -0.584  0.00  0.00     0.000 A 
ENDROOT
TORSDOF 0
ENDMDL
