MODEL 1
REMARK minimizedAffinity 6.6850996
REMARK minimizedRMSD -1
REMARK  0 active torsions:
REMARK  status: ('A' for Active; 'I' for Inactive)
ROOT
ATOM      1  C1  BNZ d   1       4.876  -5.985  -1.182  0.00  0.00     0.000 A 
ATOM      2  C2  BNZ d   1       4.497  -6.000  -2.498  0.00  0.00     0.000 A 
ATOM      3  C3  BNZ d   1       4.711  -4.915  -3.301  0.00  0.00     0.000 A 
ATOM      4  C4  BNZ d   1       5.268  -3.803  -2.778  0.00  0.00     0.000 A 
ATOM      5  C5  BNZ d   1       5.647  -3.769  -1.451  0.00  0.00     0.000 A 
ATOM      6  C6  BNZ d   1       5.465  -4.877  -0.655  0.00  0.00     0.000 A 
ENDROOT
TORSDOF 0
ENDMDL
