MODEL 1
REMARK minimizedAffinity 5.06745481
REMARK minimizedRMSD -1
REMARK  0 active torsions:
REMARK  status: ('A' for Active; 'I' for Inactive)
ROOT
ATOM      1  C1  BNZ d   1       0.009   3.660  -0.578  0.00  0.00     0.000 A 
ATOM      2  C2  BNZ d   1      -0.706   3.675  -1.746  0.00  0.00     0.000 A 
ATOM      3  C3  BNZ d   1      -1.181   4.849  -2.261  0.00  0.00     0.000 A 
ATOM      4  C4  BNZ d   1      -0.975   5.999  -1.588  0.00  0.00     0.000 A 
ATOM      5  C5  BNZ d   1      -0.264   6.000  -0.404  0.00  0.00     0.000 A 
ATOM      6  C6  BNZ d   1       0.246   4.822   0.091  0.00  0.00     0.000 A 
ENDROOT
TORSDOF 0
ENDMDL
