MODEL 1
REMARK minimizedAffinity 1.37158823
REMARK minimizedRMSD -1
REMARK  0 active torsions:
REMARK  status: ('A' for Active; 'I' for Inactive)
ROOT
ATOM      1  C1  BNZ d   1       1.186  -2.037   5.999  0.00  0.00     0.000 A 
ATOM      2  C2  BNZ d   1       1.832  -1.290   5.050  0.00  0.00     0.000 A 
ATOM      3  C3  BNZ d   1       1.127  -0.604   4.100  0.00  0.00     0.000 A 
ATOM      4  C4  BNZ d   1      -0.218  -0.697   4.076  0.00  0.00     0.000 A 
ATOM      5  C5  BNZ d   1      -0.883  -1.453   5.021  0.00  0.00     0.000 A 
ATOM      6  C6  BNZ d   1      -0.173  -2.111   5.999  0.00  0.00     0.000 A 
ENDROOT
TORSDOF 0
ENDMDL
