MODEL 1
REMARK minimizedAffinity 1.86595273
REMARK minimizedRMSD -1
REMARK  0 active torsions:
REMARK  status: ('A' for Active; 'I' for Inactive)
ROOT
ATOM      1  C1  BNZ d   1       0.319   1.450   2.976  0.00  0.00     0.000 A 
ATOM      2  C2  BNZ d   1      -0.440   0.716   3.848  0.00  0.00     0.000 A 
ATOM      3  C3  BNZ d   1       0.046  -0.435   4.401  0.00  0.00     0.000 A 
ATOM      4  C4  BNZ d   1       1.273  -0.872   4.052  0.00  0.00     0.000 A 
ATOM      5  C5  BNZ d   1       2.047  -0.148   3.168  0.00  0.00     0.000 A 
ATOM      6  C6  BNZ d   1       1.570   1.031   2.643  0.00  0.00     0.000 A 
ENDROOT
TORSDOF 0
ENDMDL
