MODEL 1
REMARK minimizedAffinity 0.242549315
REMARK minimizedRMSD -1
REMARK  0 active torsions:
REMARK  status: ('A' for Active; 'I' for Inactive)
ROOT
ATOM      1  C1  BNZ d   1       0.325   4.042  -1.954  0.00  0.00     0.000 A 
ATOM      2  C2  BNZ d   1       1.050   3.660  -0.857  0.00  0.00     0.000 A 
ATOM      3  C3  BNZ d   1       0.522   3.760   0.400  0.00  0.00     0.000 A 
ATOM      4  C4  BNZ d   1      -0.712   4.279   0.562  0.00  0.00     0.000 A 
ATOM      5  C5  BNZ d   1      -1.452   4.678  -0.533  0.00  0.00     0.000 A 
ATOM      6  C6  BNZ d   1      -0.933   4.539  -1.800  0.00  0.00     0.000 A 
ENDROOT
TORSDOF 0
ENDMDL
