MODEL 1
REMARK minimizedAffinity 7.70609999
REMARK minimizedRMSD -1
REMARK  0 active torsions:
REMARK  status: ('A' for Active; 'I' for Inactive)
ROOT
ATOM      1  C1  BNZ d   1       0.024   3.668  -0.807  0.00  0.00     0.000 A 
ATOM      2  C2  BNZ d   1      -1.050   3.684  -1.657  0.00  0.00     0.000 A 
ATOM      3  C3  BNZ d   1      -1.696   4.854  -1.948  0.00  0.00     0.000 A 
ATOM      4  C4  BNZ d   1      -1.292   5.998  -1.358  0.00  0.00     0.000 A 
ATOM      5  C5  BNZ d   1      -0.217   5.996  -0.491  0.00  0.00     0.000 A 
ATOM      6  C6  BNZ d   1       0.454   4.824  -0.232  0.00  0.00     0.000 A 
ENDROOT
TORSDOF 0
ENDMDL
