MODEL 1
REMARK minimizedAffinity 5.77001381
REMARK minimizedRMSD -1
REMARK  1 active torsions:
REMARK  status: ('A' for Active; 'I' for Inactive)
REMARK    1  A    between atoms: C1_2  and  C2_3 
ROOT
ATOM      1  C2  UNL d   1       0.902  -1.575   4.234  0.00  0.00    -0.081 A 
ATOM      2  C3  UNL d   1       1.860  -1.250   3.266  0.00  0.00     0.006 A 
ATOM      3  C4  UNL d   1       1.472  -0.711   2.038  0.00  0.00     0.002 A 
ATOM      4  C5  UNL d   1       0.121  -0.480   1.759  0.00  0.00    -0.080 A 
ATOM      5  C6  UNL d   1      -0.307   0.127   0.456  0.00  0.00     0.076 C 
ATOM      6  C7  UNL d   1      -0.838  -0.820   2.719  0.00  0.00     0.002 A 
ATOM      7  C8  UNL d   1      -0.451  -1.360   3.947  0.00  0.00     0.006 A 
ENDROOT
BRANCH   1   8
ATOM      8  C1  UNL d   1       1.321  -2.096   5.584  0.00  0.00     0.054 C 
ATOM      9  C   UNL d   1       2.830  -2.009   5.767  0.00  0.00     0.018 C 
ENDBRANCH   1   8
TORSDOF 1
ENDMDL
