MODEL 1
REMARK minimizedAffinity -5.25206089
REMARK minimizedRMSD -1
REMARK  1 active torsions:
REMARK  status: ('A' for Active; 'I' for Inactive)
REMARK    1  A    between atoms: C1_2  and  C2_3 
ROOT
ATOM      1  C2  UNL d   1       1.151  -0.304   2.535  0.00  0.00    -0.081 A 
ATOM      2  C3  UNL d   1       1.711  -1.228   3.426  0.00  0.00     0.006 A 
ATOM      3  C4  UNL d   1       0.911  -1.875   4.371  0.00  0.00     0.002 A 
ATOM      4  C5  UNL d   1      -0.462  -1.615   4.436  0.00  0.00    -0.080 A 
ATOM      5  C6  UNL d   1      -1.337  -2.325   5.426  0.00  0.00     0.076 C 
ATOM      6  C7  UNL d   1      -1.018  -0.679   3.558  0.00  0.00     0.002 A 
ATOM      7  C8  UNL d   1      -0.219  -0.031   2.613  0.00  0.00     0.006 A 
ENDROOT
BRANCH   1   8
ATOM      8  C1  UNL d   1       2.000   0.347   1.473  0.00  0.00     0.054 C 
ATOM      9  C   UNL d   1       1.589   1.795   1.247  0.00  0.00     0.018 C 
ENDBRANCH   1   8
TORSDOF 1
ENDMDL
