MODEL 1
REMARK minimizedAffinity 0.644529998
REMARK minimizedRMSD -1
REMARK  1 active torsions:
REMARK  status: ('A' for Active; 'I' for Inactive)
REMARK    1  A    between atoms: C1_2  and  C2_3 
ROOT
ATOM      1  C2  UNL d   1       0.702  -1.443   3.856  0.00  0.00    -0.081 A 
ATOM      2  C3  UNL d   1      -0.188  -2.372   4.410  0.00  0.00     0.006 A 
ATOM      3  C4  UNL d   1      -1.544  -2.338   4.078  0.00  0.00     0.002 A 
ATOM      4  C5  UNL d   1      -2.031  -1.381   3.180  0.00  0.00    -0.080 A 
ATOM      5  C6  UNL d   1      -3.480  -1.353   2.792  0.00  0.00     0.076 C 
ATOM      6  C7  UNL d   1      -1.145  -0.443   2.640  0.00  0.00     0.002 A 
ATOM      7  C8  UNL d   1       0.211  -0.476   2.973  0.00  0.00     0.006 A 
ENDROOT
BRANCH   1   8
ATOM      8  C1  UNL d   1       2.177  -1.518   4.162  0.00  0.00     0.054 C 
ATOM      9  C   UNL d   1       2.427  -1.596   5.662  0.00  0.00     0.018 C 
ENDBRANCH   1   8
TORSDOF 1
ENDMDL
