MODEL 1
REMARK minimizedAffinity 1.01270676
REMARK minimizedRMSD -1
REMARK  1 active torsions:
REMARK  status: ('A' for Active; 'I' for Inactive)
REMARK    1  A    between atoms: C1_2  and  C2_3 
ROOT
ATOM      1  C2  UNL d   1      -0.105  -0.744   3.495  0.00  0.00    -0.081 A 
ATOM      2  C3  UNL d   1      -0.234  -0.732   4.889  0.00  0.00     0.006 A 
ATOM      3  C4  UNL d   1       0.849  -1.075   5.703  0.00  0.00     0.002 A 
ATOM      4  C5  UNL d   1       2.079  -1.428   5.137  0.00  0.00    -0.080 A 
ATOM      5  C6  UNL d   1       3.257  -1.768   5.999  0.00  0.00     0.076 C 
ATOM      6  C7  UNL d   1       2.202  -1.456   3.743  0.00  0.00     0.002 A 
ATOM      7  C8  UNL d   1       1.120  -1.114   2.929  0.00  0.00     0.006 A 
ENDROOT
BRANCH   1   8
ATOM      8  C1  UNL d   1      -1.251  -0.313   2.616  0.00  0.00     0.054 C 
ATOM      9  C   UNL d   1      -2.487  -1.168   2.857  0.00  0.00     0.018 C 
ENDBRANCH   1   8
TORSDOF 1
ENDMDL
