MODEL 1
REMARK minimizedAffinity 1.54572058
REMARK minimizedRMSD -1
REMARK  1 active torsions:
REMARK  status: ('A' for Active; 'I' for Inactive)
REMARK    1  A    between atoms: C1_2  and  C2_3 
ROOT
ATOM      1  C2  UNL d   1      -0.309  -0.253   1.132  0.00  0.00    -0.081 A 
ATOM      2  C3  UNL d   1       1.083  -0.405   1.147  0.00  0.00     0.006 A 
ATOM      3  C4  UNL d   1       1.719  -1.009   2.234  0.00  0.00     0.002 A 
ATOM      4  C5  UNL d   1       0.973  -1.478   3.321  0.00  0.00    -0.080 A 
ATOM      5  C6  UNL d   1       1.640  -2.155   4.481  0.00  0.00     0.076 C 
ATOM      6  C7  UNL d   1      -0.416  -1.310   3.315  0.00  0.00     0.002 A 
ATOM      7  C8  UNL d   1      -1.052  -0.706   2.228  0.00  0.00     0.006 A 
ENDROOT
BRANCH   1   8
ATOM      8  C1  UNL d   1      -1.003   0.339  -0.068  0.00  0.00     0.054 C 
ATOM      9  C   UNL d   1      -1.629  -0.744  -0.935  0.00  0.00     0.018 C 
ENDBRANCH   1   8
TORSDOF 1
ENDMDL
