MODEL 1
REMARK minimizedAffinity 5.20637178
REMARK minimizedRMSD -1
REMARK  1 active torsions:
REMARK  status: ('A' for Active; 'I' for Inactive)
REMARK    1  A    between atoms: C1_2  and  C2_3 
ROOT
ATOM      1  C2  UNL d   1       2.174  -1.508   4.080  0.00  0.00    -0.081 A 
ATOM      2  C3  UNL d   1       1.110  -0.787   4.637  0.00  0.00     0.006 A 
ATOM      3  C4  UNL d   1       0.211  -0.104   3.815  0.00  0.00     0.002 A 
ATOM      4  C5  UNL d   1       0.355  -0.136   2.424  0.00  0.00    -0.080 A 
ATOM      5  C6  UNL d   1      -0.621   0.569   1.530  0.00  0.00     0.076 C 
ATOM      6  C7  UNL d   1       1.428  -0.841   1.868  0.00  0.00     0.002 A 
ATOM      7  C8  UNL d   1       2.328  -1.524   2.689  0.00  0.00     0.006 A 
ENDROOT
BRANCH   1   8
ATOM      8  C1  UNL d   1       3.108  -2.299   4.960  0.00  0.00     0.054 C 
ATOM      9  C   UNL d   1       3.775  -1.409   6.000  0.00  0.00     0.018 C 
ENDBRANCH   1   8
TORSDOF 1
ENDMDL
