MODEL 1
REMARK minimizedAffinity 1.99111438
REMARK minimizedRMSD -1
REMARK  0 active torsions:
REMARK  status: ('A' for Active; 'I' for Inactive)
ROOT
ATOM      1  C   UNL d   1      -3.703   0.387  -2.720  0.00  0.00    -0.002 A 
ATOM      2  C1  UNL d   1      -3.015  -0.733  -3.165  0.00  0.00     0.010 A 
ATOM      3  C2  UNL d   1      -1.781  -1.075  -2.610  0.00  0.00     0.041 A 
ATOM      4  C3  UNL d   1      -1.245  -0.266  -1.588  0.00  0.00    -0.075 A 
ATOM      5  S   UNL d   1       0.250  -0.492  -0.760  0.00  0.00     0.015 SA
ATOM      6  C4  UNL d   1       0.010   0.892   0.205  0.00  0.00     0.022 A 
ATOM      7  C5  UNL d   1      -1.177   1.523  -0.084  0.00  0.00     0.026 A 
ATOM      8  C6  UNL d   1      -1.920   0.866  -1.122  0.00  0.00    -0.082 A 
ATOM      9  C7  UNL d   1      -3.169   1.187  -1.706  0.00  0.00     0.045 A 
ENDROOT
TORSDOF 0
ENDMDL
