MODEL 1
REMARK minimizedAffinity -6.06258535
REMARK minimizedRMSD -1
REMARK  0 active torsions:
REMARK  status: ('A' for Active; 'I' for Inactive)
ROOT
ATOM      1  C   UNL d   1       2.762  -0.013   0.335  0.00  0.00    -0.002 A 
ATOM      2  C1  UNL d   1       2.615  -1.156   1.108  0.00  0.00     0.010 A 
ATOM      3  C2  UNL d   1       1.348  -1.686   1.359  0.00  0.00     0.041 A 
ATOM      4  C3  UNL d   1       0.220  -1.042   0.813  0.00  0.00    -0.075 A 
ATOM      5  S   UNL d   1      -1.430  -1.511   0.987  0.00  0.00     0.015 SA
ATOM      6  C4  UNL d   1      -1.979  -0.205   0.038  0.00  0.00     0.022 A 
ATOM      7  C5  UNL d   1      -0.942   0.580  -0.408  0.00  0.00     0.026 A 
ATOM      8  C6  UNL d   1       0.342   0.110   0.031  0.00  0.00    -0.082 A 
ATOM      9  C7  UNL d   1       1.641   0.623  -0.204  0.00  0.00     0.045 A 
ENDROOT
TORSDOF 0
ENDMDL
