MODEL 1
REMARK minimizedAffinity -4.19465637
REMARK minimizedRMSD -1
REMARK  0 active torsions:
REMARK  status: ('A' for Active; 'I' for Inactive)
ROOT
ATOM      1  C   UNL d   1       2.920   0.392   0.871  0.00  0.00    -0.002 A 
ATOM      2  C1  UNL d   1       2.728  -0.966   0.660  0.00  0.00     0.010 A 
ATOM      3  C2  UNL d   1       1.517  -1.443   0.155  0.00  0.00     0.041 A 
ATOM      4  C3  UNL d   1       0.492  -0.522  -0.139  0.00  0.00    -0.075 A 
ATOM      5  S   UNL d   1      -1.075  -0.876  -0.766  0.00  0.00     0.015 SA
ATOM      6  C4  UNL d   1      -1.526   0.768  -0.770  0.00  0.00     0.022 A 
ATOM      7  C5  UNL d   1      -0.519   1.580  -0.307  0.00  0.00     0.026 A 
ATOM      8  C6  UNL d   1       0.661   0.851   0.064  0.00  0.00    -0.082 A 
ATOM      9  C7  UNL d   1       1.901   1.302   0.578  0.00  0.00     0.045 A 
ENDROOT
TORSDOF 0
ENDMDL
