MODEL 1
REMARK minimizedAffinity -4.89904404
REMARK minimizedRMSD -1
REMARK  0 active torsions:
REMARK  status: ('A' for Active; 'I' for Inactive)
ROOT
ATOM      1  C   UNL d   1       2.748  -1.085   2.145  0.00  0.00    -0.002 A 
ATOM      2  C1  UNL d   1       1.810  -2.108   2.151  0.00  0.00     0.010 A 
ATOM      3  C2  UNL d   1       0.612  -1.978   1.447  0.00  0.00     0.041 A 
ATOM      4  C3  UNL d   1       0.370  -0.791   0.728  0.00  0.00    -0.075 A 
ATOM      5  S   UNL d   1      -1.026  -0.409  -0.209  0.00  0.00     0.015 SA
ATOM      6  C4  UNL d   1      -0.411   1.121  -0.639  0.00  0.00     0.022 A 
ATOM      7  C5  UNL d   1       0.828   1.352  -0.090  0.00  0.00     0.026 A 
ATOM      8  C6  UNL d   1       1.299   0.253   0.706  0.00  0.00    -0.082 A 
ATOM      9  C7  UNL d   1       2.504   0.091   1.431  0.00  0.00     0.045 A 
ENDROOT
TORSDOF 0
ENDMDL
