MODEL 1
REMARK minimizedAffinity -3.74097824
REMARK minimizedRMSD -1
REMARK  0 active torsions:
REMARK  status: ('A' for Active; 'I' for Inactive)
ROOT
ATOM      1  C   UNL d   1       2.796   0.575   0.842  0.00  0.00    -0.002 A 
ATOM      2  C1  UNL d   1       2.563  -0.669   1.410  0.00  0.00     0.010 A 
ATOM      3  C2  UNL d   1       1.371  -1.352   1.160  0.00  0.00     0.041 A 
ATOM      4  C3  UNL d   1       0.409  -0.758   0.320  0.00  0.00    -0.075 A 
ATOM      5  S   UNL d   1      -1.123  -1.409  -0.129  0.00  0.00     0.015 SA
ATOM      6  C4  UNL d   1      -1.504  -0.051  -1.085  0.00  0.00     0.022 A 
ATOM      7  C5  UNL d   1      -0.499   0.887  -1.073  0.00  0.00     0.026 A 
ATOM      8  C6  UNL d   1       0.621   0.494  -0.264  0.00  0.00    -0.082 A 
ATOM      9  C7  UNL d   1       1.839   1.162   0.010  0.00  0.00     0.045 A 
ENDROOT
TORSDOF 0
ENDMDL
