MODEL 1
REMARK minimizedAffinity -4.63439989
REMARK minimizedRMSD -1
REMARK  0 active torsions:
REMARK  status: ('A' for Active; 'I' for Inactive)
ROOT
ATOM      1  C   UNL d   1       3.272  -0.398   0.884  0.00  0.00    -0.002 A 
ATOM      2  C1  UNL d   1       2.473  -1.515   0.687  0.00  0.00     0.010 A 
ATOM      3  C2  UNL d   1       1.114  -1.375   0.400  0.00  0.00     0.041 A 
ATOM      4  C3  UNL d   1       0.566  -0.080   0.311  0.00  0.00    -0.075 A 
ATOM      5  S   UNL d   1      -1.072   0.335  -0.031  0.00  0.00     0.015 SA
ATOM      6  C4  UNL d   1      -0.750   2.005   0.075  0.00  0.00     0.022 A 
ATOM      7  C5  UNL d   1       0.570   2.258   0.364  0.00  0.00     0.026 A 
ATOM      8  C6  UNL d   1       1.351   1.061   0.504  0.00  0.00    -0.082 A 
ATOM      9  C7  UNL d   1       2.725   0.885   0.795  0.00  0.00     0.045 A 
ENDROOT
TORSDOF 0
ENDMDL
