MODEL 1
REMARK minimizedAffinity -0.642586887
REMARK minimizedRMSD -1
REMARK  0 active torsions:
REMARK  status: ('A' for Active; 'I' for Inactive)
ROOT
ATOM      1  C   UNL d   1       2.117   1.223   1.492  0.00  0.00    -0.002 A 
ATOM      2  C1  UNL d   1       2.565  -0.044   1.148  0.00  0.00     0.010 A 
ATOM      3  C2  UNL d   1       1.774  -0.890   0.369  0.00  0.00     0.041 A 
ATOM      4  C3  UNL d   1       0.512  -0.436  -0.064  0.00  0.00    -0.075 A 
ATOM      5  S   UNL d   1      -0.628  -1.299  -1.027  0.00  0.00     0.015 SA
ATOM      6  C4  UNL d   1      -1.737  -0.005  -1.005  0.00  0.00     0.022 A 
ATOM      7  C5  UNL d   1      -1.265   1.067  -0.285  0.00  0.00     0.026 A 
ATOM      8  C6  UNL d   1       0.039   0.836   0.269  0.00  0.00    -0.082 A 
ATOM      9  C7  UNL d   1       0.865   1.670   1.061  0.00  0.00     0.045 A 
ENDROOT
TORSDOF 0
ENDMDL
