MODEL 1
REMARK minimizedAffinity -4.26984787
REMARK minimizedRMSD -1
REMARK  0 active torsions:
REMARK  status: ('A' for Active; 'I' for Inactive)
ROOT
ATOM      1  C   UNL d   1       3.502  -0.301   1.521  0.00  0.00    -0.002 A 
ATOM      2  C1  UNL d   1       2.885  -1.454   1.986  0.00  0.00     0.010 A 
ATOM      3  C2  UNL d   1       1.582  -1.768   1.595  0.00  0.00     0.041 A 
ATOM      4  C3  UNL d   1       0.904  -0.897   0.720  0.00  0.00    -0.075 A 
ATOM      5  S   UNL d   1      -0.697  -1.079   0.106  0.00  0.00     0.015 SA
ATOM      6  C4  UNL d   1      -0.599   0.369  -0.788  0.00  0.00     0.022 A 
ATOM      7  C5  UNL d   1       0.618   0.989  -0.633  0.00  0.00     0.026 A 
ATOM      8  C6  UNL d   1       1.505   0.269   0.238  0.00  0.00    -0.082 A 
ATOM      9  C7  UNL d   1       2.826   0.561   0.653  0.00  0.00     0.045 A 
ENDROOT
TORSDOF 0
ENDMDL
