MODEL 1
REMARK minimizedAffinity -4.70649052
REMARK minimizedRMSD -1
REMARK  0 active torsions:
REMARK  status: ('A' for Active; 'I' for Inactive)
ROOT
ATOM      1  C1  BNZ d   1       0.850  -1.541  -1.712  0.00  0.00     0.000 A 
ATOM      2  C2  BNZ d   1       0.524  -0.236  -1.453  0.00  0.00     0.000 A 
ATOM      3  C3  BNZ d   1      -0.238   0.092  -0.367  0.00  0.00     0.000 A 
ATOM      4  C4  BNZ d   1      -0.707  -0.887   0.434  0.00  0.00     0.000 A 
ATOM      5  C5  BNZ d   1      -0.395  -2.207   0.180  0.00  0.00     0.000 A 
ATOM      6  C6  BNZ d   1       0.405  -2.530  -0.891  0.00  0.00     0.000 A 
ENDROOT
TORSDOF 0
ENDMDL
