MODEL 1
REMARK minimizedAffinity -5.3881259
REMARK minimizedRMSD -1
REMARK  0 active torsions:
REMARK  status: ('A' for Active; 'I' for Inactive)
ROOT
ATOM      1  C1  BNZ d   1      -0.321  -2.583   0.674  0.00  0.00     0.000 A 
ATOM      2  C2  BNZ d   1      -0.385  -3.353  -0.457  0.00  0.00     0.000 A 
ATOM      3  C3  BNZ d   1       0.013  -2.855  -1.666  0.00  0.00     0.000 A 
ATOM      4  C4  BNZ d   1       0.436  -1.577  -1.750  0.00  0.00     0.000 A 
ATOM      5  C5  BNZ d   1       0.497  -0.785  -0.620  0.00  0.00     0.000 A 
ATOM      6  C6  BNZ d   1       0.133  -1.302   0.602  0.00  0.00     0.000 A 
ENDROOT
TORSDOF 0
ENDMDL
