MODEL 1
REMARK minimizedAffinity -4.97406578
REMARK minimizedRMSD -1
REMARK  0 active torsions:
REMARK  status: ('A' for Active; 'I' for Inactive)
ROOT
ATOM      1  C1  BNZ d   1       0.358  -3.003   0.032  0.00  0.00     0.000 A 
ATOM      2  C2  BNZ d   1      -0.090  -2.532   1.238  0.00  0.00     0.000 A 
ATOM      3  C3  BNZ d   1      -0.396  -1.211   1.403  0.00  0.00     0.000 A 
ATOM      4  C4  BNZ d   1      -0.217  -0.355   0.376  0.00  0.00     0.000 A 
ATOM      5  C5  BNZ d   1       0.243  -0.812  -0.843  0.00  0.00     0.000 A 
ATOM      6  C6  BNZ d   1       0.513  -2.150  -1.017  0.00  0.00     0.000 A 
ENDROOT
TORSDOF 0
ENDMDL
