MODEL 1
REMARK minimizedAffinity -3.25623798
REMARK minimizedRMSD -1
REMARK  0 active torsions:
REMARK  status: ('A' for Active; 'I' for Inactive)
ROOT
ATOM      1  C1  BNZ d   1      -0.819   0.326   0.925  0.00  0.00     0.000 A 
ATOM      2  C2  BNZ d   1      -0.640  -1.023   1.078  0.00  0.00     0.000 A 
ATOM      3  C3  BNZ d   1       0.134  -1.731   0.201  0.00  0.00     0.000 A 
ATOM      4  C4  BNZ d   1       0.694  -1.096  -0.849  0.00  0.00     0.000 A 
ATOM      5  C5  BNZ d   1       0.515   0.262  -1.023  0.00  0.00     0.000 A 
ATOM      6  C6  BNZ d   1      -0.233   0.977  -0.116  0.00  0.00     0.000 A 
ENDROOT
TORSDOF 0
ENDMDL
