MODEL 1
REMARK minimizedAffinity -3.97866845
REMARK minimizedRMSD -1
REMARK  0 active torsions:
REMARK  status: ('A' for Active; 'I' for Inactive)
ROOT
ATOM      1  C1  BNZ d   1       0.691  -1.987  -0.378  0.00  0.00     0.000 A 
ATOM      2  C2  BNZ d   1       0.442  -0.655  -0.575  0.00  0.00     0.000 A 
ATOM      3  C3  BNZ d   1      -0.505  -0.002   0.163  0.00  0.00     0.000 A 
ATOM      4  C4  BNZ d   1      -1.229  -0.691   1.069  0.00  0.00     0.000 A 
ATOM      5  C5  BNZ d   1      -0.997  -2.036   1.273  0.00  0.00     0.000 A 
ATOM      6  C6  BNZ d   1      -0.016  -2.681   0.555  0.00  0.00     0.000 A 
ENDROOT
TORSDOF 0
ENDMDL
