MODEL 1
REMARK minimizedAffinity -2.51062799
REMARK minimizedRMSD -1
REMARK  0 active torsions:
REMARK  status: ('A' for Active; 'I' for Inactive)
ROOT
ATOM      1  C1  BNZ d   1       0.200   0.556  -1.422  0.00  0.00     0.000 A 
ATOM      2  C2  BNZ d   1      -0.192   0.920  -0.162  0.00  0.00     0.000 A 
ATOM      3  C3  BNZ d   1      -0.598  -0.019   0.744  0.00  0.00     0.000 A 
ATOM      4  C4  BNZ d   1      -0.649  -1.316   0.377  0.00  0.00     0.000 A 
ATOM      5  C5  BNZ d   1      -0.266  -1.698  -0.893  0.00  0.00     0.000 A 
ATOM      6  C6  BNZ d   1       0.179  -0.754  -1.790  0.00  0.00     0.000 A 
ENDROOT
TORSDOF 0
ENDMDL
