MODEL 1
REMARK minimizedAffinity -4.67436028
REMARK minimizedRMSD -1
REMARK  0 active torsions:
REMARK  status: ('A' for Active; 'I' for Inactive)
ROOT
ATOM      1  C1  BNZ d   1       0.613  -2.012  -1.496  0.00  0.00     0.000 A 
ATOM      2  C2  BNZ d   1       0.613  -1.332  -0.308  0.00  0.00     0.000 A 
ATOM      3  C3  BNZ d   1       0.056  -1.883   0.813  0.00  0.00     0.000 A 
ATOM      4  C4  BNZ d   1      -0.533  -3.093   0.734  0.00  0.00     0.000 A 
ATOM      5  C5  BNZ d   1      -0.549  -3.787  -0.459  0.00  0.00     0.000 A 
ATOM      6  C6  BNZ d   1       0.047  -3.247  -1.576  0.00  0.00     0.000 A 
ENDROOT
TORSDOF 0
ENDMDL
