MODEL 1
REMARK minimizedAffinity -3.87936282
REMARK minimizedRMSD -1
REMARK  0 active torsions:
REMARK  status: ('A' for Active; 'I' for Inactive)
ROOT
ATOM      1  C1  BNZ d   1       0.085   0.485  -1.626  0.00  0.00     0.000 A 
ATOM      2  C2  BNZ d   1      -0.298   0.841  -0.360  0.00  0.00     0.000 A 
ATOM      3  C3  BNZ d   1      -0.674  -0.107   0.550  0.00  0.00     0.000 A 
ATOM      4  C4  BNZ d   1      -0.707  -1.404   0.182  0.00  0.00     0.000 A 
ATOM      5  C5  BNZ d   1      -0.333  -1.778  -1.094  0.00  0.00     0.000 A 
ATOM      6  C6  BNZ d   1       0.083  -0.825  -1.995  0.00  0.00     0.000 A 
ENDROOT
TORSDOF 0
ENDMDL
