MODEL 1
REMARK minimizedAffinity -5.32586527
REMARK minimizedRMSD -1
REMARK  0 active torsions:
REMARK  status: ('A' for Active; 'I' for Inactive)
ROOT
ATOM      1  C1  BNZ d   1      -0.102  -3.555  -0.341  0.00  0.00     0.000 A 
ATOM      2  C2  BNZ d   1      -0.083  -2.696   0.725  0.00  0.00     0.000 A 
ATOM      3  C3  BNZ d   1       0.070  -1.351   0.538  0.00  0.00     0.000 A 
ATOM      4  C4  BNZ d   1       0.244  -0.870  -0.710  0.00  0.00     0.000 A 
ATOM      5  C5  BNZ d   1       0.237  -1.724  -1.795  0.00  0.00     0.000 A 
ATOM      6  C6  BNZ d   1       0.044  -3.074  -1.606  0.00  0.00     0.000 A 
ENDROOT
TORSDOF 0
ENDMDL
