MODEL 1
REMARK minimizedAffinity -2.15786409
REMARK minimizedRMSD -1
REMARK  0 active torsions:
REMARK  status: ('A' for Active; 'I' for Inactive)
ROOT
ATOM      1  C1  BNZ d   1       0.152  -2.968  -2.077  0.00  0.00     0.000 A 
ATOM      2  C2  BNZ d   1      -0.281  -3.630  -0.959  0.00  0.00     0.000 A 
ATOM      3  C3  BNZ d   1      -0.520  -2.955   0.205  0.00  0.00     0.000 A 
ATOM      4  C4  BNZ d   1      -0.289  -1.628   0.262  0.00  0.00     0.000 A 
ATOM      5  C5  BNZ d   1       0.156  -0.948  -0.854  0.00  0.00     0.000 A 
ATOM      6  C6  BNZ d   1       0.359  -1.623  -2.035  0.00  0.00     0.000 A 
ENDROOT
TORSDOF 0
ENDMDL
