MODEL 1
REMARK minimizedAffinity -4.97854805
REMARK minimizedRMSD -1
REMARK  0 active torsions:
REMARK  status: ('A' for Active; 'I' for Inactive)
ROOT
ATOM      1  C1  BNZ d   1      -0.228  -0.179  -0.158  0.00  0.00     0.000 A 
ATOM      2  C2  BNZ d   1       0.307  -1.415  -0.407  0.00  0.00     0.000 A 
ATOM      3  C3  BNZ d   1       0.180  -2.429   0.502  0.00  0.00     0.000 A 
ATOM      4  C4  BNZ d   1      -0.445  -2.194   1.674  0.00  0.00     0.000 A 
ATOM      5  C5  BNZ d   1      -0.981  -0.951   1.944  0.00  0.00     0.000 A 
ATOM      6  C6  BNZ d   1      -0.886   0.056   1.010  0.00  0.00     0.000 A 
ENDROOT
TORSDOF 0
ENDMDL
