MODEL 1
REMARK minimizedAffinity -5.1256485
REMARK minimizedRMSD -1
REMARK  0 active torsions:
REMARK  status: ('A' for Active; 'I' for Inactive)
ROOT
ATOM      1  C1  BNZ d   1      -0.058  -0.529  -0.353  0.00  0.00     0.000 A 
ATOM      2  C2  BNZ d   1      -0.053  -1.209  -1.542  0.00  0.00     0.000 A 
ATOM      3  C3  BNZ d   1      -0.011  -2.575  -1.566  0.00  0.00     0.000 A 
ATOM      4  C4  BNZ d   1       0.067  -3.257  -0.404  0.00  0.00     0.000 A 
ATOM      5  C5  BNZ d   1       0.073  -2.585   0.802  0.00  0.00     0.000 A 
ATOM      6  C6  BNZ d   1      -0.009  -1.211   0.823  0.00  0.00     0.000 A 
ENDROOT
TORSDOF 0
ENDMDL
