MODEL 1
REMARK minimizedAffinity -4.81585836
REMARK minimizedRMSD -1
REMARK  0 active torsions:
REMARK  status: ('A' for Active; 'I' for Inactive)
ROOT
ATOM      1  C1  BNZ d   1      -0.768  -1.565   0.511  0.00  0.00     0.000 A 
ATOM      2  C2  BNZ d   1      -0.230  -0.993  -0.611  0.00  0.00     0.000 A 
ATOM      3  C3  BNZ d   1       0.386  -1.758  -1.561  0.00  0.00     0.000 A 
ATOM      4  C4  BNZ d   1       0.500  -3.089  -1.369  0.00  0.00     0.000 A 
ATOM      5  C5  BNZ d   1      -0.029  -3.679  -0.238  0.00  0.00     0.000 A 
ATOM      6  C6  BNZ d   1      -0.683  -2.910   0.697  0.00  0.00     0.000 A 
ENDROOT
TORSDOF 0
ENDMDL
