MODEL 1
REMARK minimizedAffinity -5.00162268
REMARK minimizedRMSD -1
REMARK  0 active torsions:
REMARK  status: ('A' for Active; 'I' for Inactive)
ROOT
ATOM      1  C1  BNZ d   1       0.012  -1.574   0.443  0.00  0.00     0.000 A 
ATOM      2  C2  BNZ d   1       0.606  -1.052  -0.675  0.00  0.00     0.000 A 
ATOM      3  C3  BNZ d   1       0.850  -1.836  -1.768  0.00  0.00     0.000 A 
ATOM      4  C4  BNZ d   1       0.535  -3.147  -1.728  0.00  0.00     0.000 A 
ATOM      5  C5  BNZ d   1      -0.057  -3.689  -0.604  0.00  0.00     0.000 A 
ATOM      6  C6  BNZ d   1      -0.336  -2.889   0.480  0.00  0.00     0.000 A 
ENDROOT
TORSDOF 0
ENDMDL
