MODEL 1
REMARK minimizedAffinity -3.31433368
REMARK minimizedRMSD -1
REMARK  0 active torsions:
REMARK  status: ('A' for Active; 'I' for Inactive)
ROOT
ATOM      1  C1  BNZ d   1      -1.093  -1.823   1.389  0.00  0.00     0.000 A 
ATOM      2  C2  BNZ d   1      -0.928  -2.821   0.466  0.00  0.00     0.000 A 
ATOM      3  C3  BNZ d   1      -0.213  -2.605  -0.679  0.00  0.00     0.000 A 
ATOM      4  C4  BNZ d   1       0.300  -1.381  -0.919  0.00  0.00     0.000 A 
ATOM      5  C5  BNZ d   1       0.133  -0.361  -0.003  0.00  0.00     0.000 A 
ATOM      6  C6  BNZ d   1      -0.553  -0.594   1.167  0.00  0.00     0.000 A 
ENDROOT
TORSDOF 0
ENDMDL
