MODEL 1
REMARK minimizedAffinity -2.15827084
REMARK minimizedRMSD -1
REMARK  0 active torsions:
REMARK  status: ('A' for Active; 'I' for Inactive)
ROOT
ATOM      1  C1  BNZ d   1       0.312  -2.181  -0.587  0.00  0.00     0.000 A 
ATOM      2  C2  BNZ d   1       0.268  -0.861  -0.951  0.00  0.00     0.000 A 
ATOM      3  C3  BNZ d   1      -0.104   0.100  -0.053  0.00  0.00     0.000 A 
ATOM      4  C4  BNZ d   1      -0.471  -0.263   1.193  0.00  0.00     0.000 A 
ATOM      5  C5  BNZ d   1      -0.442  -1.591   1.572  0.00  0.00     0.000 A 
ATOM      6  C6  BNZ d   1      -0.029  -2.551   0.677  0.00  0.00     0.000 A 
ENDROOT
TORSDOF 0
ENDMDL
