MODEL 1
REMARK minimizedAffinity -4.25627804
REMARK minimizedRMSD -1
REMARK  2 active torsions:
REMARK  status: ('A' for Active; 'I' for Inactive)
REMARK    1  A    between atoms: C1_2  and  C2_3 
REMARK    2  A    between atoms: C2_3  and  C3_4 
ROOT
ATOM      1  C3  UNL d   1       0.053  -0.141   0.986  0.00  0.00    -0.075 A 
ATOM      2  C4  UNL d   1      -0.863   0.130   2.014  0.00  0.00     0.002 A 
ATOM      3  C5  UNL d   1      -0.505  -0.055   3.349  0.00  0.00     0.002 A 
ATOM      4  C6  UNL d   1       0.768  -0.521   3.674  0.00  0.00    -0.004 A 
ATOM      5  C7  UNL d   1       1.680  -0.809   2.661  0.00  0.00     0.002 A 
ATOM      6  C8  UNL d   1       1.325  -0.621   1.324  0.00  0.00     0.002 A 
ENDROOT
BRANCH   1   7
ATOM      7  C2  UNL d   1      -0.320   0.084  -0.460  0.00  0.00     0.056 C 
BRANCH   7   8
ATOM      8  C1  UNL d   1       0.381  -0.863  -1.439  0.00  0.00     0.007 C 
ATOM      9  C   UNL d   1       0.440  -0.322  -2.861  0.00  0.00     0.009 C 
ENDBRANCH   7   8
ENDBRANCH   1   7
TORSDOF 2
ENDMDL
