MODEL 1
REMARK minimizedAffinity -3.61788201
REMARK minimizedRMSD -1
REMARK  2 active torsions:
REMARK  status: ('A' for Active; 'I' for Inactive)
REMARK    1  A    between atoms: C1_2  and  C2_3 
REMARK    2  A    between atoms: C2_3  and  C3_4 
ROOT
ATOM      1  C3  UNL d   1       0.081  -0.524  -1.537  0.00  0.00    -0.075 A 
ATOM      2  C4  UNL d   1      -1.176  -0.086  -1.096  0.00  0.00     0.002 A 
ATOM      3  C5  UNL d   1      -1.413   0.132   0.262  0.00  0.00     0.002 A 
ATOM      4  C6  UNL d   1      -0.402  -0.094   1.194  0.00  0.00    -0.004 A 
ATOM      5  C7  UNL d   1       0.845  -0.545   0.768  0.00  0.00     0.002 A 
ATOM      6  C8  UNL d   1       1.087  -0.759  -0.590  0.00  0.00     0.002 A 
ENDROOT
BRANCH   1   7
ATOM      7  C2  UNL d   1       0.353  -0.733  -3.008  0.00  0.00     0.056 C 
BRANCH   7   8
ATOM      8  C1  UNL d   1       0.541   0.566  -3.799  0.00  0.00     0.007 C 
ATOM      9  C   UNL d   1       1.963   1.108  -3.734  0.00  0.00     0.009 C 
ENDBRANCH   7   8
ENDBRANCH   1   7
TORSDOF 2
ENDMDL
