MODEL 1
REMARK minimizedAffinity -4.59833527
REMARK minimizedRMSD -1
REMARK  2 active torsions:
REMARK  status: ('A' for Active; 'I' for Inactive)
REMARK    1  A    between atoms: C1_2  and  C2_3 
REMARK    2  A    between atoms: C2_3  and  C3_4 
ROOT
ATOM      1  C3  UNL d   1       0.028  -0.330   0.255  0.00  0.00    -0.075 A 
ATOM      2  C4  UNL d   1      -1.146   0.284   0.715  0.00  0.00     0.002 A 
ATOM      3  C5  UNL d   1      -1.318   0.554   2.073  0.00  0.00     0.002 A 
ATOM      4  C6  UNL d   1      -0.325   0.206   2.987  0.00  0.00    -0.004 A 
ATOM      5  C7  UNL d   1       0.837  -0.419   2.542  0.00  0.00     0.002 A 
ATOM      6  C8  UNL d   1       1.014  -0.687   1.184  0.00  0.00     0.002 A 
ENDROOT
BRANCH   1   7
ATOM      7  C2  UNL d   1       0.233  -0.599  -1.217  0.00  0.00     0.056 C 
BRANCH   7   8
ATOM      8  C1  UNL d   1       0.470   0.663  -2.054  0.00  0.00     0.007 C 
ATOM      9  C   UNL d   1       1.167   0.382  -3.379  0.00  0.00     0.009 C 
ENDBRANCH   7   8
ENDBRANCH   1   7
TORSDOF 2
ENDMDL
