MODEL 1
REMARK minimizedAffinity -2.67646265
REMARK minimizedRMSD -1
REMARK  2 active torsions:
REMARK  status: ('A' for Active; 'I' for Inactive)
REMARK    1  A    between atoms: C1_2  and  C2_3 
REMARK    2  A    between atoms: C2_3  and  C3_4 
ROOT
ATOM      1  C3  UNL d   1      -0.098  -0.148  -1.300  0.00  0.00    -0.075 A 
ATOM      2  C4  UNL d   1       0.270  -0.989  -2.361  0.00  0.00     0.002 A 
ATOM      3  C5  UNL d   1       0.733  -0.452  -3.562  0.00  0.00     0.002 A 
ATOM      4  C6  UNL d   1       0.825   0.929  -3.723  0.00  0.00    -0.004 A 
ATOM      5  C7  UNL d   1       0.447   1.774  -2.682  0.00  0.00     0.002 A 
ATOM      6  C8  UNL d   1      -0.013   1.240  -1.477  0.00  0.00     0.002 A 
ENDROOT
BRANCH   1   7
ATOM      7  C2  UNL d   1      -0.572  -0.723   0.013  0.00  0.00     0.056 C 
BRANCH   7   8
ATOM      8  C1  UNL d   1      -1.513   0.200   0.795  0.00  0.00     0.007 C 
ATOM      9  C   UNL d   1      -1.273   0.167   2.299  0.00  0.00     0.009 C 
ENDBRANCH   7   8
ENDBRANCH   1   7
TORSDOF 2
ENDMDL
