MODEL 1
REMARK minimizedAffinity -3.74791503
REMARK minimizedRMSD -1
REMARK  2 active torsions:
REMARK  status: ('A' for Active; 'I' for Inactive)
REMARK    1  A    between atoms: C1_2  and  C2_3 
REMARK    2  A    between atoms: C2_3  and  C3_4 
ROOT
ATOM      1  C3  UNL d   1       0.879   0.016  -1.064  0.00  0.00    -0.075 A 
ATOM      2  C4  UNL d   1       2.014   0.725  -1.484  0.00  0.00     0.002 A 
ATOM      3  C5  UNL d   1       2.314   0.843  -2.842  0.00  0.00     0.002 A 
ATOM      4  C6  UNL d   1       1.490   0.246  -3.794  0.00  0.00    -0.004 A 
ATOM      5  C7  UNL d   1       0.370  -0.475  -3.387  0.00  0.00     0.002 A 
ATOM      6  C8  UNL d   1       0.065  -0.591  -2.030  0.00  0.00     0.002 A 
ENDROOT
BRANCH   1   7
ATOM      7  C2  UNL d   1       0.534  -0.090   0.402  0.00  0.00     0.056 C 
BRANCH   7   8
ATOM      8  C1  UNL d   1      -0.886   0.374   0.743  0.00  0.00     0.007 C 
ATOM      9  C   UNL d   1      -1.081   0.673   2.224  0.00  0.00     0.009 C 
ENDBRANCH   7   8
ENDBRANCH   1   7
TORSDOF 2
ENDMDL
