MODEL 1
REMARK minimizedAffinity -6.94406366
REMARK minimizedRMSD -1
REMARK  2 active torsions:
REMARK  status: ('A' for Active; 'I' for Inactive)
REMARK    1  A    between atoms: C2'_3  and  C1'_4 
REMARK    2  A    between atoms: C1'_4  and  C1_5 
ROOT
ATOM      1  C1  I4B d   1       0.634   0.351  -1.742  0.00  0.00    -0.075 A 
ATOM      2  C2  I4B d   1       1.481  -0.724  -1.636  0.00  0.00     0.003 A 
ATOM      3  C3  I4B d   1       2.693  -0.752  -2.369  0.00  0.00     0.002 A 
ATOM      4  C4  I4B d   1       2.991   0.287  -3.227  0.00  0.00    -0.004 A 
ATOM      5  C5  I4B d   1       2.142   1.386  -3.316  0.00  0.00     0.002 A 
ATOM      6  C6  I4B d   1       0.962   1.424  -2.559  0.00  0.00     0.003 A 
ENDROOT
BRANCH   1   7
ATOM      7  C1' I4B d   1      -0.653   0.332  -0.979  0.00  0.00     0.060 C 
BRANCH   7   8
ATOM      8  C2' I4B d   1      -0.397  -0.345   0.352  0.00  0.00    -0.013 C 
ATOM      9  C4' I4B d   1      -1.115   0.363   1.470  0.00  0.00     0.013 C 
ATOM     10  C3' I4B d   1      -0.843  -1.772   0.240  0.00  0.00     0.013 C 
ENDBRANCH   7   8
ENDBRANCH   1   7
TORSDOF 2
ENDMDL
