MODEL 1
REMARK minimizedAffinity -2.32965374
REMARK minimizedRMSD -1
REMARK  2 active torsions:
REMARK  status: ('A' for Active; 'I' for Inactive)
REMARK    1  A    between atoms: C2'_3  and  C1'_4 
REMARK    2  A    between atoms: C1'_4  and  C1_5 
ROOT
ATOM      1  C1  I4B d   1      -0.067   0.774  -0.951  0.00  0.00    -0.075 A 
ATOM      2  C2  I4B d   1      -1.222   0.320  -0.365  0.00  0.00     0.003 A 
ATOM      3  C3  I4B d   1      -1.295  -1.002   0.138  0.00  0.00     0.002 A 
ATOM      4  C4  I4B d   1      -0.213  -1.846  -0.012  0.00  0.00    -0.004 A 
ATOM      5  C5  I4B d   1       0.965  -1.377  -0.586  0.00  0.00     0.002 A 
ATOM      6  C6  I4B d   1       1.044  -0.055  -1.047  0.00  0.00     0.003 A 
ENDROOT
BRANCH   1   7
ATOM      7  C1' I4B d   1      -0.035   2.165  -1.500  0.00  0.00     0.060 C 
BRANCH   7   8
ATOM      8  C2' I4B d   1       1.266   2.339  -2.255  0.00  0.00    -0.013 C 
ATOM      9  C4' I4B d   1       1.380   1.347  -3.382  0.00  0.00     0.013 C 
ATOM     10  C3' I4B d   1       1.320   3.748  -2.767  0.00  0.00     0.013 C 
ENDBRANCH   7   8
ENDBRANCH   1   7
TORSDOF 2
ENDMDL
