MODEL 1
REMARK minimizedAffinity -0.606615126
REMARK minimizedRMSD -1
REMARK  2 active torsions:
REMARK  status: ('A' for Active; 'I' for Inactive)
REMARK    1  A    between atoms: C2'_3  and  C1'_4 
REMARK    2  A    between atoms: C1'_4  and  C1_5 
ROOT
ATOM      1  C1  I4B d   1      -1.000   0.899   1.562  0.00  0.00    -0.075 A 
ATOM      2  C2  I4B d   1      -2.000   0.190   2.179  0.00  0.00     0.003 A 
ATOM      3  C3  I4B d   1      -2.573   0.666   3.384  0.00  0.00     0.002 A 
ATOM      4  C4  I4B d   1      -2.083   1.821   3.959  0.00  0.00    -0.004 A 
ATOM      5  C5  I4B d   1      -1.085   2.551   3.320  0.00  0.00     0.002 A 
ATOM      6  C6  I4B d   1      -0.548   2.094   2.108  0.00  0.00     0.003 A 
ENDROOT
BRANCH   1   7
ATOM      7  C1' I4B d   1      -0.395   0.350   0.309  0.00  0.00     0.060 C 
BRANCH   7   8
ATOM      8  C2' I4B d   1      -0.156  -1.132   0.516  0.00  0.00    -0.013 C 
ATOM      9  C4' I4B d   1       0.183  -1.816  -0.782  0.00  0.00     0.013 C 
ATOM     10  C3' I4B d   1       0.950  -1.287   1.515  0.00  0.00     0.013 C 
ENDBRANCH   7   8
ENDBRANCH   1   7
TORSDOF 2
ENDMDL
