MODEL 1
REMARK minimizedAffinity -3.63312054
REMARK minimizedRMSD -1
REMARK  2 active torsions:
REMARK  status: ('A' for Active; 'I' for Inactive)
REMARK    1  A    between atoms: C2'_3  and  C1'_4 
REMARK    2  A    between atoms: C1'_4  and  C1_5 
ROOT
ATOM      1  C1  I4B d   1       1.313   0.590  -1.129  0.00  0.00    -0.075 A 
ATOM      2  C2  I4B d   1       0.966   1.704  -1.852  0.00  0.00     0.003 A 
ATOM      3  C3  I4B d   1       1.563   1.950  -3.112  0.00  0.00     0.002 A 
ATOM      4  C4  I4B d   1       2.533   1.090  -3.585  0.00  0.00    -0.004 A 
ATOM      5  C5  I4B d   1       2.867  -0.051  -2.861  0.00  0.00     0.002 A 
ATOM      6  C6  I4B d   1       2.245  -0.310  -1.631  0.00  0.00     0.003 A 
ENDROOT
BRANCH   1   7
ATOM      7  C1' I4B d   1       0.687   0.377   0.213  0.00  0.00     0.060 C 
BRANCH   7   8
ATOM      8  C2' I4B d   1      -0.696  -0.202  -0.004  0.00  0.00    -0.013 C 
ATOM      9  C4' I4B d   1      -0.673  -1.707   0.067  0.00  0.00     0.013 C 
ATOM     10  C3' I4B d   1      -1.608   0.376   1.036  0.00  0.00     0.013 C 
ENDBRANCH   7   8
ENDBRANCH   1   7
TORSDOF 2
ENDMDL
