MODEL 1
REMARK minimizedAffinity -4.0711174
REMARK minimizedRMSD -1
REMARK  2 active torsions:
REMARK  status: ('A' for Active; 'I' for Inactive)
REMARK    1  A    between atoms: C2'_3  and  C1'_4 
REMARK    2  A    between atoms: C1'_4  and  C1_5 
ROOT
ATOM      1  C1  I4B d   1       1.313  -0.265  -1.836  0.00  0.00    -0.075 A 
ATOM      2  C2  I4B d   1       2.030  -0.124  -2.998  0.00  0.00     0.003 A 
ATOM      3  C3  I4B d   1       1.891   1.045  -3.784  0.00  0.00     0.002 A 
ATOM      4  C4  I4B d   1       0.993   2.020  -3.399  0.00  0.00    -0.004 A 
ATOM      5  C5  I4B d   1       0.284   1.885  -2.209  0.00  0.00     0.002 A 
ATOM      6  C6  I4B d   1       0.453   0.741  -1.416  0.00  0.00     0.003 A 
ENDROOT
BRANCH   1   7
ATOM      7  C1' I4B d   1       1.459  -1.528  -1.047  0.00  0.00     0.060 C 
BRANCH   7   8
ATOM      8  C2' I4B d   1       0.340  -1.574  -0.028  0.00  0.00    -0.013 C 
ATOM      9  C4' I4B d   1      -0.254  -2.954   0.069  0.00  0.00     0.013 C 
ATOM     10  C3' I4B d   1       0.897  -1.131   1.292  0.00  0.00     0.013 C 
ENDBRANCH   7   8
ENDBRANCH   1   7
TORSDOF 2
ENDMDL
