MODEL 1
REMARK minimizedAffinity -4.604743
REMARK minimizedRMSD -1
REMARK  2 active torsions:
REMARK  status: ('A' for Active; 'I' for Inactive)
REMARK    1  A    between atoms: C2'_3  and  C1'_4 
REMARK    2  A    between atoms: C1'_4  and  C1_5 
ROOT
ATOM      1  C1  I4B d   1      -1.212   0.033   0.774  0.00  0.00    -0.075 A 
ATOM      2  C2  I4B d   1      -0.643   0.893  -0.132  0.00  0.00     0.003 A 
ATOM      3  C3  I4B d   1       0.373   0.437  -1.006  0.00  0.00     0.002 A 
ATOM      4  C4  I4B d   1       0.823  -0.864  -0.906  0.00  0.00    -0.004 A 
ATOM      5  C5  I4B d   1       0.229  -1.740  -0.002  0.00  0.00     0.002 A 
ATOM      6  C6  I4B d   1      -0.803  -1.293   0.835  0.00  0.00     0.003 A 
ENDROOT
BRANCH   1   7
ATOM      7  C1' I4B d   1      -2.260   0.556   1.705  0.00  0.00     0.060 C 
BRANCH   7   8
ATOM      8  C2' I4B d   1      -1.559   1.169   2.900  0.00  0.00    -0.013 C 
ATOM      9  C4' I4B d   1      -1.904   2.628   3.046  0.00  0.00     0.013 C 
ATOM     10  C3' I4B d   1      -1.960   0.393   4.120  0.00  0.00     0.013 C 
ENDBRANCH   7   8
ENDBRANCH   1   7
TORSDOF 2
ENDMDL
