MODEL 1
REMARK minimizedAffinity -4.72783995
REMARK minimizedRMSD -1
REMARK  2 active torsions:
REMARK  status: ('A' for Active; 'I' for Inactive)
REMARK    1  A    between atoms: C2'_3  and  C1'_4 
REMARK    2  A    between atoms: C1'_4  and  C1_5 
ROOT
ATOM      1  C1  I4B d   1      -1.707   0.531   1.101  0.00  0.00    -0.075 A 
ATOM      2  C2  I4B d   1      -2.556  -0.230   1.865  0.00  0.00     0.003 A 
ATOM      3  C3  I4B d   1      -3.136   0.310   3.039  0.00  0.00     0.002 A 
ATOM      4  C4  I4B d   1      -2.802   1.589   3.436  0.00  0.00    -0.004 A 
ATOM      5  C5  I4B d   1      -1.959   2.367   2.647  0.00  0.00     0.002 A 
ATOM      6  C6  I4B d   1      -1.417   1.839   1.466  0.00  0.00     0.003 A 
ENDROOT
BRANCH   1   7
ATOM      7  C1' I4B d   1      -1.087  -0.082  -0.114  0.00  0.00     0.060 C 
BRANCH   7   8
ATOM      8  C2' I4B d   1       0.418   0.031   0.023  0.00  0.00    -0.013 C 
ATOM      9  C4' I4B d   1       1.038  -1.303   0.346  0.00  0.00     0.013 C 
ATOM     10  C3' I4B d   1       0.960   0.583  -1.262  0.00  0.00     0.013 C 
ENDBRANCH   7   8
ENDBRANCH   1   7
TORSDOF 2
ENDMDL
