MODEL 1
REMARK minimizedAffinity -3.24185967
REMARK minimizedRMSD -1
REMARK  2 active torsions:
REMARK  status: ('A' for Active; 'I' for Inactive)
REMARK    1  A    between atoms: C2'_3  and  C1'_4 
REMARK    2  A    between atoms: C1'_4  and  C1_5 
ROOT
ATOM      1  C1  I4B d   1      -0.633   0.197   0.075  0.00  0.00    -0.075 A 
ATOM      2  C2  I4B d   1      -0.356  -1.143   0.177  0.00  0.00     0.003 A 
ATOM      3  C3  I4B d   1       0.802  -1.680  -0.436  0.00  0.00     0.002 A 
ATOM      4  C4  I4B d   1       1.623  -0.856  -1.179  0.00  0.00    -0.004 A 
ATOM      5  C5  I4B d   1       1.353   0.507  -1.262  0.00  0.00     0.002 A 
ATOM      6  C6  I4B d   1       0.224   1.040  -0.621  0.00  0.00     0.003 A 
ENDROOT
BRANCH   1   7
ATOM      7  C1' I4B d   1      -1.882   0.725   0.707  0.00  0.00     0.060 C 
BRANCH   7   8
ATOM      8  C2' I4B d   1      -1.481   1.557   1.908  0.00  0.00    -0.013 C 
ATOM      9  C4' I4B d   1      -1.704   3.025   1.653  0.00  0.00     0.013 C 
ATOM     10  C3' I4B d   1      -2.280   1.084   3.086  0.00  0.00     0.013 C 
ENDBRANCH   7   8
ENDBRANCH   1   7
TORSDOF 2
ENDMDL
