MODEL 1
REMARK minimizedAffinity -4.76007271
REMARK minimizedRMSD -1
REMARK  2 active torsions:
REMARK  status: ('A' for Active; 'I' for Inactive)
REMARK    1  A    between atoms: C2'_3  and  C1'_4 
REMARK    2  A    between atoms: C1'_4  and  C1_5 
ROOT
ATOM      1  C1  I4B d   1       1.255   0.789  -1.088  0.00  0.00    -0.075 A 
ATOM      2  C2  I4B d   1       1.800   1.582  -2.066  0.00  0.00     0.003 A 
ATOM      3  C3  I4B d   1       3.034   1.230  -2.665  0.00  0.00     0.002 A 
ATOM      4  C4  I4B d   1       3.708   0.110  -2.224  0.00  0.00    -0.004 A 
ATOM      5  C5  I4B d   1       3.143  -0.706  -1.248  0.00  0.00     0.002 A 
ATOM      6  C6  I4B d   1       1.903  -0.372  -0.685  0.00  0.00     0.003 A 
ENDROOT
BRANCH   1   7
ATOM      7  C1' I4B d   1      -0.033   1.208  -0.454  0.00  0.00     0.060 C 
BRANCH   7   8
ATOM      8  C2' I4B d   1      -0.331   0.247   0.679  0.00  0.00    -0.013 C 
ATOM      9  C4' I4B d   1      -1.236   0.876   1.705  0.00  0.00     0.013 C 
ATOM     10  C3' I4B d   1      -0.953  -0.984   0.090  0.00  0.00     0.013 C 
ENDBRANCH   7   8
ENDBRANCH   1   7
TORSDOF 2
ENDMDL
