MODEL 1
REMARK minimizedAffinity -3.19609261
REMARK minimizedRMSD -1
REMARK  2 active torsions:
REMARK  status: ('A' for Active; 'I' for Inactive)
REMARK    1  A    between atoms: C1_2  and  C2_3 
REMARK    2  A    between atoms: C2_3  and  C3_4 
ROOT
ATOM      1  C3  UNL d   1      -0.297   0.735   0.557  0.00  0.00    -0.075 A 
ATOM      2  C4  UNL d   1      -1.540   1.138   0.048  0.00  0.00     0.002 A 
ATOM      3  C5  UNL d   1      -2.146   2.308   0.505  0.00  0.00     0.002 A 
ATOM      4  C6  UNL d   1      -1.524   3.084   1.481  0.00  0.00    -0.004 A 
ATOM      5  C7  UNL d   1      -0.297   2.684   2.005  0.00  0.00     0.002 A 
ATOM      6  C8  UNL d   1       0.315   1.516   1.547  0.00  0.00     0.002 A 
ENDROOT
BRANCH   1   7
ATOM      7  C2  UNL d   1       0.379  -0.516   0.046  0.00  0.00     0.056 C 
BRANCH   7   8
ATOM      8  C1  UNL d   1       1.902  -0.516   0.216  0.00  0.00     0.007 C 
ATOM      9  C   UNL d   1       2.343  -0.588   1.672  0.00  0.00     0.009 C 
ENDBRANCH   7   8
ENDBRANCH   1   7
TORSDOF 2
ENDMDL
