MODEL 1
REMARK minimizedAffinity -6.28987646
REMARK minimizedRMSD -1
REMARK  2 active torsions:
REMARK  status: ('A' for Active; 'I' for Inactive)
REMARK    1  A    between atoms: C1_2  and  C2_3 
REMARK    2  A    between atoms: C2_3  and  C3_4 
ROOT
ATOM      1  C3  UNL d   1       0.190   0.669   0.844  0.00  0.00    -0.075 A 
ATOM      2  C4  UNL d   1      -0.861   1.099   0.022  0.00  0.00     0.002 A 
ATOM      3  C5  UNL d   1      -1.524   2.298   0.288  0.00  0.00     0.002 A 
ATOM      4  C6  UNL d   1      -1.151   3.075   1.382  0.00  0.00    -0.004 A 
ATOM      5  C7  UNL d   1      -0.119   2.650   2.215  0.00  0.00     0.002 A 
ATOM      6  C8  UNL d   1       0.549   1.453   1.949  0.00  0.00     0.002 A 
ENDROOT
BRANCH   1   7
ATOM      7  C2  UNL d   1       0.931  -0.612   0.545  0.00  0.00     0.056 C 
BRANCH   7   8
ATOM      8  C1  UNL d   1       0.882  -1.031  -0.928  0.00  0.00     0.007 C 
ATOM      9  C   UNL d   1       0.965  -2.539  -1.127  0.00  0.00     0.009 C 
ENDBRANCH   7   8
ENDBRANCH   1   7
TORSDOF 2
ENDMDL
