MODEL 1
REMARK minimizedAffinity -4.24022245
REMARK minimizedRMSD -1
REMARK  2 active torsions:
REMARK  status: ('A' for Active; 'I' for Inactive)
REMARK    1  A    between atoms: C1_2  and  C2_3 
REMARK    2  A    between atoms: C2_3  and  C3_4 
ROOT
ATOM      1  C3  UNL d   1      -0.018  -0.562  -0.352  0.00  0.00    -0.075 A 
ATOM      2  C4  UNL d   1       0.370  -0.462   0.993  0.00  0.00     0.002 A 
ATOM      3  C5  UNL d   1      -0.033   0.626   1.767  0.00  0.00     0.002 A 
ATOM      4  C6  UNL d   1      -0.819   1.631   1.207  0.00  0.00    -0.004 A 
ATOM      5  C7  UNL d   1      -1.196   1.551  -0.132  0.00  0.00     0.002 A 
ATOM      6  C8  UNL d   1      -0.798   0.461  -0.908  0.00  0.00     0.002 A 
ENDROOT
BRANCH   1   7
ATOM      7  C2  UNL d   1       0.390  -1.751  -1.187  0.00  0.00     0.056 C 
BRANCH   7   8
ATOM      8  C1  UNL d   1      -0.774  -2.668  -1.578  0.00  0.00     0.007 C 
ATOM      9  C   UNL d   1      -0.452  -4.148  -1.420  0.00  0.00     0.009 C 
ENDBRANCH   7   8
ENDBRANCH   1   7
TORSDOF 2
ENDMDL
