MODEL 1
REMARK minimizedAffinity 15.1668205
REMARK minimizedRMSD -1
REMARK  0 active torsions:
REMARK  status: ('A' for Active; 'I' for Inactive)
ROOT
ATOM      1  C   UNL d   1       0.402   3.376   1.118  0.00  0.00    -0.002 A 
ATOM      2  C1  UNL d   1      -0.820   3.708   0.550  0.00  0.00     0.010 A 
ATOM      3  C2  UNL d   1      -0.879   4.516  -0.587  0.00  0.00     0.041 A 
ATOM      4  C3  UNL d   1       0.323   4.988  -1.151  0.00  0.00    -0.075 A 
ATOM      5  S   UNL d   1       0.495   5.990  -2.543  0.00  0.00     0.015 SA
ATOM      6  C4  UNL d   1       2.195   6.000  -2.418  0.00  0.00     0.022 A 
ATOM      7  C5  UNL d   1       2.637   5.262  -1.345  0.00  0.00     0.026 A 
ATOM      8  C6  UNL d   1       1.566   4.666  -0.598  0.00  0.00    -0.082 A 
ATOM      9  C7  UNL d   1       1.592   3.846   0.556  0.00  0.00     0.045 A 
ENDROOT
TORSDOF 0
ENDMDL
