MODEL 1
REMARK minimizedAffinity 14.9092569
REMARK minimizedRMSD -1
REMARK  0 active torsions:
REMARK  status: ('A' for Active; 'I' for Inactive)
ROOT
ATOM      1  C   UNL d   1      -4.897   5.069  -5.129  0.00  0.00    -0.002 A 
ATOM      2  C1  UNL d   1      -5.997   4.227  -5.052  0.00  0.00     0.010 A 
ATOM      3  C2  UNL d   1      -5.912   3.007  -4.379  0.00  0.00     0.041 A 
ATOM      4  C3  UNL d   1      -4.691   2.644  -3.777  0.00  0.00    -0.075 A 
ATOM      5  S   UNL d   1      -4.354   1.199  -2.899  0.00  0.00     0.015 SA
ATOM      6  C4  UNL d   1      -2.742   1.666  -2.605  0.00  0.00     0.022 A 
ATOM      7  C5  UNL d   1      -2.450   2.891  -3.156  0.00  0.00     0.026 A 
ATOM      8  C6  UNL d   1      -3.569   3.475  -3.840  0.00  0.00    -0.082 A 
ATOM      9  C7  UNL d   1      -3.687   4.706  -4.531  0.00  0.00     0.045 A 
ENDROOT
TORSDOF 0
ENDMDL
