MODEL 1
REMARK minimizedAffinity 1.21597254
REMARK minimizedRMSD -1
REMARK  1 active torsions:
REMARK  status: ('A' for Active; 'I' for Inactive)
REMARK    1  A    between atoms: C1_2  and  C2_3 
ROOT
ATOM      1  C2  UNL d   1      -0.048   1.669   0.654  0.00  0.00    -0.073 A 
ATOM      2  C3  UNL d   1      -0.871   0.835  -0.111  0.00  0.00    -0.002 A 
ATOM      3  C4  UNL d   1      -1.302   1.237  -1.376  0.00  0.00     0.004 A 
ATOM      4  C5  UNL d   1      -0.909   2.472  -1.892  0.00  0.00    -0.004 A 
ATOM      5  C6  UNL d   1      -0.076   3.314  -1.148  0.00  0.00    -0.075 A 
ATOM      6  C7  UNL d   1       0.354   4.647  -1.688  0.00  0.00     0.076 C 
ATOM      7  C8  UNL d   1       0.350   2.905   0.123  0.00  0.00     0.001 A 
ENDROOT
BRANCH   1   8
ATOM      8  C1  UNL d   1       0.426   1.236   2.017  0.00  0.00     0.053 C 
ATOM      9  C   UNL d   1       0.966  -0.185   2.009  0.00  0.00     0.018 C 
ENDBRANCH   1   8
TORSDOF 1
ENDMDL
