MODEL 1
REMARK minimizedAffinity -0.403987527
REMARK minimizedRMSD -1
REMARK  1 active torsions:
REMARK  status: ('A' for Active; 'I' for Inactive)
REMARK    1  A    between atoms: C1_2  and  C2_3 
ROOT
ATOM      1  C2  UNL d   1       0.510   2.881  -0.686  0.00  0.00    -0.073 A 
ATOM      2  C3  UNL d   1       0.558   1.629  -1.310  0.00  0.00    -0.002 A 
ATOM      3  C4  UNL d   1       0.735   0.470  -0.553  0.00  0.00     0.004 A 
ATOM      4  C5  UNL d   1       0.859   0.550   0.834  0.00  0.00    -0.004 A 
ATOM      5  C6  UNL d   1       0.802   1.791   1.477  0.00  0.00    -0.075 A 
ATOM      6  C7  UNL d   1       0.935   1.894   2.968  0.00  0.00     0.076 C 
ATOM      7  C8  UNL d   1       0.627   2.950   0.710  0.00  0.00     0.001 A 
ENDROOT
BRANCH   1   8
ATOM      8  C1  UNL d   1       0.313   4.134  -1.499  0.00  0.00     0.053 C 
ATOM      9  C   UNL d   1       0.433   5.389  -0.649  0.00  0.00     0.018 C 
ENDBRANCH   1   8
TORSDOF 1
ENDMDL
