MODEL 1
REMARK minimizedAffinity -0.0609364696
REMARK minimizedRMSD -1
REMARK  1 active torsions:
REMARK  status: ('A' for Active; 'I' for Inactive)
REMARK    1  A    between atoms: C1_2  and  C2_3 
ROOT
ATOM      1  C2  UNL d   1       0.560   3.955  -0.626  0.00  0.00    -0.073 A 
ATOM      2  C3  UNL d   1       0.273   2.980  -1.588  0.00  0.00    -0.002 A 
ATOM      3  C4  UNL d   1       0.079   1.651  -1.208  0.00  0.00     0.004 A 
ATOM      4  C5  UNL d   1       0.162   1.285   0.135  0.00  0.00    -0.004 A 
ATOM      5  C6  UNL d   1       0.437   2.247   1.112  0.00  0.00    -0.075 A 
ATOM      6  C7  UNL d   1       0.532   1.869   2.561  0.00  0.00     0.076 C 
ATOM      7  C8  UNL d   1       0.633   3.579   0.723  0.00  0.00     0.001 A 
ENDROOT
BRANCH   1   8
ATOM      8  C1  UNL d   1       0.764   5.392  -1.030  0.00  0.00     0.053 C 
ATOM      9  C   UNL d   1       0.053   5.724  -2.333  0.00  0.00     0.018 C 
ENDBRANCH   1   8
TORSDOF 1
ENDMDL
