MODEL 1
REMARK minimizedAffinity 5.0893569
REMARK minimizedRMSD -1
REMARK  1 active torsions:
REMARK  status: ('A' for Active; 'I' for Inactive)
REMARK    1  A    between atoms: C1_2  and  C2_3 
ROOT
ATOM      1  C2  UNL d   1       1.446  -0.202   2.186  0.00  0.00    -0.073 A 
ATOM      2  C3  UNL d   1       0.868   0.905   2.818  0.00  0.00    -0.002 A 
ATOM      3  C4  UNL d   1       0.239   1.897   2.065  0.00  0.00     0.004 A 
ATOM      4  C5  UNL d   1       0.175   1.790   0.676  0.00  0.00    -0.004 A 
ATOM      5  C6  UNL d   1       0.736   0.686   0.027  0.00  0.00    -0.075 A 
ATOM      6  C7  UNL d   1       0.678   0.556  -1.467  0.00  0.00     0.076 C 
ATOM      7  C8  UNL d   1       1.369  -0.306   0.790  0.00  0.00     0.001 A 
ENDROOT
BRANCH   1   8
ATOM      8  C1  UNL d   1       2.121  -1.280   2.995  0.00  0.00     0.053 C 
ATOM      9  C   UNL d   1       1.490  -1.440   4.369  0.00  0.00     0.018 C 
ENDBRANCH   1   8
TORSDOF 1
ENDMDL
