MODEL 1
REMARK minimizedAffinity 1.38628685
REMARK minimizedRMSD -1
REMARK  1 active torsions:
REMARK  status: ('A' for Active; 'I' for Inactive)
REMARK    1  A    between atoms: C1_2  and  C2_3 
ROOT
ATOM      1  C2  UNL d   1       0.434   3.030  -0.176  0.00  0.00    -0.073 A 
ATOM      2  C3  UNL d   1       0.602   3.652   1.066  0.00  0.00    -0.002 A 
ATOM      3  C4  UNL d   1       0.731   2.886   2.226  0.00  0.00     0.004 A 
ATOM      4  C5  UNL d   1       0.701   1.493   2.154  0.00  0.00    -0.004 A 
ATOM      5  C6  UNL d   1       0.546   0.854   0.920  0.00  0.00    -0.075 A 
ATOM      6  C7  UNL d   1       0.510  -0.643   0.826  0.00  0.00     0.076 C 
ATOM      7  C8  UNL d   1       0.414   1.630  -0.239  0.00  0.00     0.001 A 
ENDROOT
BRANCH   1   8
ATOM      8  C1  UNL d   1       0.300   3.853  -1.432  0.00  0.00     0.053 C 
ATOM      9  C   UNL d   1       0.810   5.272  -1.240  0.00  0.00     0.018 C 
ENDBRANCH   1   8
TORSDOF 1
ENDMDL
