MODEL 1
REMARK minimizedAffinity -2.97284675
REMARK minimizedRMSD -1
REMARK  0 active torsions:
REMARK  status: ('A' for Active; 'I' for Inactive)
ROOT
ATOM      1  O1  BZF d   1       5.983  -2.248   2.393  0.00  0.00    -0.204 OA
ATOM      2  C2  BZF d   1       5.967  -3.258   1.450  0.00  0.00     0.174 A 
ATOM      3  C3  BZF d   1       6.000  -4.468   2.045  0.00  0.00    -0.012 A 
ATOM      4  C3A BZF d   1       5.946  -4.199   3.449  0.00  0.00    -0.107 A 
ATOM      5  C4  BZF d   1       5.931  -4.996   4.558  0.00  0.00     0.055 A 
ATOM      6  C5  BZF d   1       5.949  -4.418   5.788  0.00  0.00    -0.016 A 
ATOM      7  C6  BZF d   1       5.987  -3.048   5.945  0.00  0.00     0.022 A 
ATOM      8  C7  BZF d   1       5.998  -2.216   4.875  0.00  0.00     0.029 A 
ATOM      9  C7A BZF d   1       5.946  -2.797   3.631  0.00  0.00     0.058 A 
ENDROOT
TORSDOF 0
ENDMDL
