MODEL 1
REMARK minimizedAffinity -4.471416
REMARK minimizedRMSD -1
REMARK  0 active torsions:
REMARK  status: ('A' for Active; 'I' for Inactive)
ROOT
ATOM      1  O1  BZF d   1       5.284  -4.466   5.283  0.00  0.00    -0.204 OA
ATOM      2  C2  BZF d   1       5.140  -3.275   5.969  0.00  0.00     0.174 A 
ATOM      3  C3  BZF d   1       5.343  -2.224   5.149  0.00  0.00    -0.012 A 
ATOM      4  C3A BZF d   1       5.541  -2.792   3.851  0.00  0.00    -0.107 A 
ATOM      5  C4  BZF d   1       5.774  -2.255   2.617  0.00  0.00     0.055 A 
ATOM      6  C5  BZF d   1       5.995  -3.087   1.565  0.00  0.00    -0.016 A 
ATOM      7  C6  BZF d   1       5.996  -4.459   1.713  0.00  0.00     0.022 A 
ATOM      8  C7  BZF d   1       5.764  -5.038   2.916  0.00  0.00     0.029 A 
ATOM      9  C7A BZF d   1       5.508  -4.200   3.974  0.00  0.00     0.058 A 
ENDROOT
TORSDOF 0
ENDMDL
