MODEL 1
REMARK minimizedAffinity -1.11112678
REMARK minimizedRMSD -1
REMARK  0 active torsions:
REMARK  status: ('A' for Active; 'I' for Inactive)
ROOT
ATOM      1  O1  BZF d   1       4.867  -4.502   5.005  0.00  0.00    -0.204 OA
ATOM      2  C2  BZF d   1       5.013  -5.841   4.699  0.00  0.00     0.174 A 
ATOM      3  C3  BZF d   1       5.398  -6.000   3.417  0.00  0.00    -0.012 A 
ATOM      4  C3A BZF d   1       5.589  -4.674   2.914  0.00  0.00    -0.107 A 
ATOM      5  C4  BZF d   1       5.986  -4.176   1.706  0.00  0.00     0.055 A 
ATOM      6  C5  BZF d   1       5.999  -2.830   1.519  0.00  0.00    -0.016 A 
ATOM      7  C6  BZF d   1       5.616  -1.954   2.514  0.00  0.00     0.022 A 
ATOM      8  C7  BZF d   1       5.219  -2.401   3.730  0.00  0.00     0.029 A 
ATOM      9  C7A BZF d   1       5.237  -3.759   3.934  0.00  0.00     0.058 A 
ENDROOT
TORSDOF 0
ENDMDL
