MODEL 1
REMARK minimizedAffinity -3.7452302
REMARK minimizedRMSD -1
REMARK  0 active torsions:
REMARK  status: ('A' for Active; 'I' for Inactive)
ROOT
ATOM      1  O1  BZF d   1       5.542  -3.431   5.871  0.00  0.00    -0.204 OA
ATOM      2  C2  BZF d   1       5.754  -2.071   5.994  0.00  0.00     0.174 A 
ATOM      3  C3  BZF d   1       5.994  -1.514   4.789  0.00  0.00    -0.012 A 
ATOM      4  C3A BZF d   1       5.837  -2.577   3.845  0.00  0.00    -0.107 A 
ATOM      5  C4  BZF d   1       5.932  -2.646   2.484  0.00  0.00     0.055 A 
ATOM      6  C5  BZF d   1       5.793  -3.851   1.872  0.00  0.00    -0.016 A 
ATOM      7  C6  BZF d   1       5.563  -5.007   2.589  0.00  0.00     0.022 A 
ATOM      8  C7  BZF d   1       5.456  -4.988   3.940  0.00  0.00     0.029 A 
ATOM      9  C7A BZF d   1       5.564  -3.767   4.559  0.00  0.00     0.058 A 
ENDROOT
TORSDOF 0
ENDMDL
