MODEL 1
REMARK minimizedAffinity -3.67011714
REMARK minimizedRMSD -1
REMARK  0 active torsions:
REMARK  status: ('A' for Active; 'I' for Inactive)
ROOT
ATOM      1  O1  BZF d   1       5.916  -5.737   3.912  0.00  0.00    -0.204 OA
ATOM      2  C2  BZF d   1       6.000  -5.646   5.288  0.00  0.00     0.174 A 
ATOM      3  C3  BZF d   1       5.995  -4.357   5.684  0.00  0.00    -0.012 A 
ATOM      4  C3A BZF d   1       5.809  -3.596   4.486  0.00  0.00    -0.107 A 
ATOM      5  C4  BZF d   1       5.703  -2.259   4.230  0.00  0.00     0.055 A 
ATOM      6  C5  BZF d   1       5.601  -1.839   2.942  0.00  0.00    -0.016 A 
ATOM      7  C6  BZF d   1       5.606  -2.728   1.886  0.00  0.00     0.022 A 
ATOM      8  C7  BZF d   1       5.703  -4.064   2.091  0.00  0.00     0.029 A 
ATOM      9  C7A BZF d   1       5.774  -4.493   3.394  0.00  0.00     0.058 A 
ENDROOT
TORSDOF 0
ENDMDL
