MODEL 1
REMARK minimizedAffinity -3.67539835
REMARK minimizedRMSD -1
REMARK  0 active torsions:
REMARK  status: ('A' for Active; 'I' for Inactive)
ROOT
ATOM      1  O1  BZF d   1       5.506  -5.149   2.700  0.00  0.00    -0.204 OA
ATOM      2  C2  BZF d   1       6.000  -4.268   1.758  0.00  0.00     0.174 A 
ATOM      3  C3  BZF d   1       5.999  -3.006   2.235  0.00  0.00    -0.012 A 
ATOM      4  C3A BZF d   1       5.558  -3.118   3.592  0.00  0.00    -0.107 A 
ATOM      5  C4  BZF d   1       5.366  -2.211   4.594  0.00  0.00     0.055 A 
ATOM      6  C5  BZF d   1       4.858  -2.635   5.781  0.00  0.00    -0.016 A 
ATOM      7  C6  BZF d   1       4.527  -3.957   5.998  0.00  0.00     0.022 A 
ATOM      8  C7  BZF d   1       4.705  -4.894   5.036  0.00  0.00     0.029 A 
ATOM      9  C7A BZF d   1       5.249  -4.474   3.846  0.00  0.00     0.058 A 
ENDROOT
TORSDOF 0
ENDMDL
