MODEL 1
REMARK minimizedAffinity -4.06039906
REMARK minimizedRMSD -1
REMARK  0 active torsions:
REMARK  status: ('A' for Active; 'I' for Inactive)
ROOT
ATOM      1  O1  BZF d   1       4.472  -5.134   4.999  0.00  0.00    -0.204 OA
ATOM      2  C2  BZF d   1       4.136  -4.241   5.998  0.00  0.00     0.174 A 
ATOM      3  C3  BZF d   1       4.495  -2.986   5.658  0.00  0.00    -0.012 A 
ATOM      4  C3A BZF d   1       5.009  -3.089   4.326  0.00  0.00    -0.107 A 
ATOM      5  C4  BZF d   1       5.509  -2.179   3.440  0.00  0.00     0.055 A 
ATOM      6  C5  BZF d   1       5.994  -2.616   2.248  0.00  0.00    -0.016 A 
ATOM      7  C6  BZF d   1       6.000  -3.954   1.912  0.00  0.00     0.022 A 
ATOM      8  C7  BZF d   1       5.510  -4.893   2.757  0.00  0.00     0.029 A 
ATOM      9  C7A BZF d   1       4.988  -4.452   3.949  0.00  0.00     0.058 A 
ENDROOT
TORSDOF 0
ENDMDL
