MODEL 1
REMARK minimizedAffinity -3.8185358
REMARK minimizedRMSD -1
REMARK  0 active torsions:
REMARK  status: ('A' for Active; 'I' for Inactive)
ROOT
ATOM      1  O1  BZF d   1       5.570  -1.892   4.982  0.00  0.00    -0.204 OA
ATOM      2  C2  BZF d   1       5.203  -2.751   5.999  0.00  0.00     0.174 A 
ATOM      3  C3  BZF d   1       5.007  -3.999   5.524  0.00  0.00    -0.012 A 
ATOM      4  C3A BZF d   1       5.359  -3.933   4.139  0.00  0.00    -0.107 A 
ATOM      5  C4  BZF d   1       5.388  -4.856   3.133  0.00  0.00     0.055 A 
ATOM      6  C5  BZF d   1       5.709  -4.453   1.876  0.00  0.00    -0.016 A 
ATOM      7  C6  BZF d   1       6.000  -3.136   1.588  0.00  0.00     0.022 A 
ATOM      8  C7  BZF d   1       5.989  -2.185   2.553  0.00  0.00     0.029 A 
ATOM      9  C7A BZF d   1       5.697  -2.595   3.831  0.00  0.00     0.058 A 
ENDROOT
TORSDOF 0
ENDMDL
