MODEL 1
REMARK minimizedAffinity -1.7829653
REMARK minimizedRMSD -1
REMARK  0 active torsions:
REMARK  status: ('A' for Active; 'I' for Inactive)
ROOT
ATOM      1  O1  BZF d   1       5.303  -2.013   4.467  0.00  0.00    -0.204 OA
ATOM      2  C2  BZF d   1       5.628  -1.839   3.136  0.00  0.00     0.174 A 
ATOM      3  C3  BZF d   1       6.000  -3.009   2.577  0.00  0.00    -0.012 A 
ATOM      4  C3A BZF d   1       5.812  -3.991   3.600  0.00  0.00    -0.107 A 
ATOM      5  C4  BZF d   1       5.994  -5.344   3.647  0.00  0.00     0.055 A 
ATOM      6  C5  BZF d   1       5.788  -5.997   4.821  0.00  0.00    -0.016 A 
ATOM      7  C6  BZF d   1       5.407  -5.329   5.967  0.00  0.00     0.022 A 
ATOM      8  C7  BZF d   1       5.210  -3.989   5.968  0.00  0.00     0.029 A 
ATOM      9  C7A BZF d   1       5.384  -3.330   4.775  0.00  0.00     0.058 A 
ENDROOT
TORSDOF 0
ENDMDL
