MODEL 1
REMARK minimizedAffinity -3.59037733
REMARK minimizedRMSD -1
REMARK  0 active torsions:
REMARK  status: ('A' for Active; 'I' for Inactive)
ROOT
ATOM      1  O1  BZF d   1       4.783  -4.186   5.996  0.00  0.00    -0.204 OA
ATOM      2  C2  BZF d   1       4.580  -2.820   5.978  0.00  0.00     0.174 A 
ATOM      3  C3  BZF d   1       4.912  -2.303   4.777  0.00  0.00    -0.012 A 
ATOM      4  C3A BZF d   1       5.262  -3.429   3.967  0.00  0.00    -0.107 A 
ATOM      5  C4  BZF d   1       5.665  -3.563   2.668  0.00  0.00     0.055 A 
ATOM      6  C5  BZF d   1       6.000  -4.795   2.204  0.00  0.00    -0.016 A 
ATOM      7  C6  BZF d   1       5.949  -5.913   3.011  0.00  0.00     0.022 A 
ATOM      8  C7  BZF d   1       5.550  -5.832   4.303  0.00  0.00     0.029 A 
ATOM      9  C7A BZF d   1       5.180  -4.593   4.766  0.00  0.00     0.058 A 
ENDROOT
TORSDOF 0
ENDMDL
