MODEL 1
REMARK minimizedAffinity -3.72461534
REMARK minimizedRMSD -1
REMARK  0 active torsions:
REMARK  status: ('A' for Active; 'I' for Inactive)
ROOT
ATOM      1  O1  BZF d   1       5.976  -2.632   2.242  0.00  0.00    -0.204 OA
ATOM      2  C2  BZF d   1       6.000  -3.812   1.524  0.00  0.00     0.174 A 
ATOM      3  C3  BZF d   1       5.992  -4.876   2.353  0.00  0.00    -0.012 A 
ATOM      4  C3A BZF d   1       5.868  -4.327   3.669  0.00  0.00    -0.107 A 
ATOM      5  C4  BZF d   1       5.789  -4.882   4.914  0.00  0.00     0.055 A 
ATOM      6  C5  BZF d   1       5.748  -4.066   6.000  0.00  0.00    -0.016 A 
ATOM      7  C6  BZF d   1       5.790  -2.692   5.877  0.00  0.00     0.022 A 
ATOM      8  C7  BZF d   1       5.863  -2.095   4.663  0.00  0.00     0.029 A 
ATOM      9  C7A BZF d   1       5.871  -2.917   3.562  0.00  0.00     0.058 A 
ENDROOT
TORSDOF 0
ENDMDL
