MODEL 1
REMARK minimizedAffinity -4.20510578
REMARK minimizedRMSD -1
REMARK  0 active torsions:
REMARK  status: ('A' for Active; 'I' for Inactive)
ROOT
ATOM      1  O1  BZF d   1       5.694  -5.284   2.281  0.00  0.00    -0.204 OA
ATOM      2  C2  BZF d   1       6.000  -4.414   1.252  0.00  0.00     0.174 A 
ATOM      3  C3  BZF d   1       5.830  -3.134   1.641  0.00  0.00    -0.012 A 
ATOM      4  C3A BZF d   1       5.480  -3.205   3.027  0.00  0.00    -0.107 A 
ATOM      5  C4  BZF d   1       5.201  -2.262   3.975  0.00  0.00     0.055 A 
ATOM      6  C5  BZF d   1       4.824  -2.665   5.216  0.00  0.00    -0.016 A 
ATOM      7  C6  BZF d   1       4.710  -4.001   5.543  0.00  0.00     0.022 A 
ATOM      8  C7  BZF d   1       4.981  -4.973   4.638  0.00  0.00     0.029 A 
ATOM      9  C7A BZF d   1       5.394  -4.569   3.392  0.00  0.00     0.058 A 
ENDROOT
TORSDOF 0
ENDMDL
