MODEL 1
REMARK minimizedAffinity -4.24920607
REMARK minimizedRMSD -1
REMARK  0 active torsions:
REMARK  status: ('A' for Active; 'I' for Inactive)
ROOT
ATOM      1  O1  BZF d   1       4.889  -1.892   4.922  0.00  0.00    -0.204 OA
ATOM      2  C2  BZF d   1       4.698  -2.735   6.000  0.00  0.00     0.174 A 
ATOM      3  C3  BZF d   1       4.903  -4.020   5.645  0.00  0.00    -0.012 A 
ATOM      4  C3A BZF d   1       5.334  -3.969   4.281  0.00  0.00    -0.107 A 
ATOM      5  C4  BZF d   1       5.705  -4.923   3.378  0.00  0.00     0.055 A 
ATOM      6  C5  BZF d   1       6.000  -4.549   2.105  0.00  0.00    -0.016 A 
ATOM      7  C6  BZF d   1       5.929  -3.232   1.701  0.00  0.00     0.022 A 
ATOM      8  C7  BZF d   1       5.570  -2.249   2.562  0.00  0.00     0.029 A 
ATOM      9  C7A BZF d   1       5.304  -2.620   3.858  0.00  0.00     0.058 A 
ENDROOT
TORSDOF 0
ENDMDL
