MODEL 1
REMARK minimizedAffinity -2.59810734
REMARK minimizedRMSD -1
REMARK  0 active torsions:
REMARK  status: ('A' for Active; 'I' for Inactive)
ROOT
ATOM      1  O1  BZF d   1       5.457  -5.999   4.753  0.00  0.00    -0.204 OA
ATOM      2  C2  BZF d   1       5.006  -5.546   5.977  0.00  0.00     0.174 A 
ATOM      3  C3  BZF d   1       4.870  -4.204   5.970  0.00  0.00    -0.012 A 
ATOM      4  C3A BZF d   1       5.172  -3.802   4.631  0.00  0.00    -0.107 A 
ATOM      5  C4  BZF d   1       5.194  -2.594   3.996  0.00  0.00     0.055 A 
ATOM      6  C5  BZF d   1       5.603  -2.535   2.701  0.00  0.00    -0.016 A 
ATOM      7  C6  BZF d   1       5.999  -3.664   2.013  0.00  0.00     0.022 A 
ATOM      8  C7  BZF d   1       5.989  -4.886   2.599  0.00  0.00     0.029 A 
ATOM      9  C7A BZF d   1       5.545  -4.952   3.898  0.00  0.00     0.058 A 
ENDROOT
TORSDOF 0
ENDMDL
