MODEL 1
REMARK minimizedAffinity -3.7993772
REMARK minimizedRMSD -1
REMARK  0 active torsions:
REMARK  status: ('A' for Active; 'I' for Inactive)
ROOT
ATOM      1  O1  BZF d   1       5.629  -1.644   4.807  0.00  0.00    -0.204 OA
ATOM      2  C2  BZF d   1       5.623  -2.341   6.000  0.00  0.00     0.174 A 
ATOM      3  C3  BZF d   1       5.686  -3.670   5.777  0.00  0.00    -0.012 A 
ATOM      4  C3A BZF d   1       5.827  -3.808   4.360  0.00  0.00    -0.107 A 
ATOM      5  C4  BZF d   1       5.956  -4.884   3.530  0.00  0.00     0.055 A 
ATOM      6  C5  BZF d   1       5.999  -4.681   2.187  0.00  0.00    -0.016 A 
ATOM      7  C6  BZF d   1       5.912  -3.417   1.641  0.00  0.00     0.022 A 
ATOM      8  C7  BZF d   1       5.789  -2.318   2.424  0.00  0.00     0.029 A 
ATOM      9  C7A BZF d   1       5.778  -2.518   3.783  0.00  0.00     0.058 A 
ENDROOT
TORSDOF 0
ENDMDL
