MODEL 1
REMARK minimizedAffinity -2.54584193
REMARK minimizedRMSD -1
REMARK  0 active torsions:
REMARK  status: ('A' for Active; 'I' for Inactive)
ROOT
ATOM      1  O1  BZF d   1       5.946  -5.540   2.629  0.00  0.00    -0.204 OA
ATOM      2  C2  BZF d   1       6.000  -4.699   1.534  0.00  0.00     0.174 A 
ATOM      3  C3  BZF d   1       5.967  -3.408   1.921  0.00  0.00    -0.012 A 
ATOM      4  C3A BZF d   1       5.981  -3.443   3.351  0.00  0.00    -0.107 A 
ATOM      5  C4  BZF d   1       5.977  -2.475   4.315  0.00  0.00     0.055 A 
ATOM      6  C5  BZF d   1       5.920  -2.843   5.621  0.00  0.00    -0.016 A 
ATOM      7  C6  BZF d   1       5.861  -4.169   6.000  0.00  0.00     0.022 A 
ATOM      8  C7  BZF d   1       5.867  -5.165   5.081  0.00  0.00     0.029 A 
ATOM      9  C7A BZF d   1       5.958  -4.796   3.761  0.00  0.00     0.058 A 
ENDROOT
TORSDOF 0
ENDMDL
