MODEL 1
REMARK minimizedAffinity -2.06389832
REMARK minimizedRMSD -1
REMARK  0 active torsions:
REMARK  status: ('A' for Active; 'I' for Inactive)
ROOT
ATOM      1  O1  BZF d   1       5.957  -4.569   4.279  0.00  0.00    -0.204 OA
ATOM      2  C2  BZF d   1       5.943  -3.724   5.371  0.00  0.00     0.174 A 
ATOM      3  C3  BZF d   1       5.994  -2.434   4.979  0.00  0.00    -0.012 A 
ATOM      4  C3A BZF d   1       5.949  -2.474   3.549  0.00  0.00    -0.107 A 
ATOM      5  C4  BZF d   1       5.952  -1.509   2.583  0.00  0.00     0.055 A 
ATOM      6  C5  BZF d   1       5.975  -1.883   1.276  0.00  0.00    -0.016 A 
ATOM      7  C6  BZF d   1       6.000  -3.211   0.902  0.00  0.00     0.022 A 
ATOM      8  C7  BZF d   1       5.993  -4.203   1.824  0.00  0.00     0.029 A 
ATOM      9  C7A BZF d   1       5.937  -3.829   3.145  0.00  0.00     0.058 A 
ENDROOT
TORSDOF 0
ENDMDL
