MODEL 1
REMARK minimizedAffinity -4.26020527
REMARK minimizedRMSD -1
REMARK  0 active torsions:
REMARK  status: ('A' for Active; 'I' for Inactive)
ROOT
ATOM      1  O1  BZF d   1       4.821  -5.976   4.350  0.00  0.00    -0.204 OA
ATOM      2  C2  BZF d   1       4.568  -5.470   5.611  0.00  0.00     0.174 A 
ATOM      3  C3  BZF d   1       4.862  -4.155   5.666  0.00  0.00    -0.012 A 
ATOM      4  C3A BZF d   1       5.240  -3.797   4.333  0.00  0.00    -0.107 A 
ATOM      5  C4  BZF d   1       5.626  -2.625   3.750  0.00  0.00     0.055 A 
ATOM      6  C5  BZF d   1       5.998  -2.629   2.443  0.00  0.00    -0.016 A 
ATOM      7  C6  BZF d   1       6.000  -3.786   1.692  0.00  0.00     0.022 A 
ATOM      8  C7  BZF d   1       5.620  -4.972   2.225  0.00  0.00     0.029 A 
ATOM      9  C7A BZF d   1       5.212  -4.966   3.537  0.00  0.00     0.058 A 
ENDROOT
TORSDOF 0
ENDMDL
