MODEL 1
REMARK minimizedAffinity -3.35731912
REMARK minimizedRMSD -1
REMARK  0 active torsions:
REMARK  status: ('A' for Active; 'I' for Inactive)
ROOT
ATOM      1  O1  BZF d   1       5.156  -5.622   4.539  0.00  0.00    -0.204 OA
ATOM      2  C2  BZF d   1       4.612  -5.367   5.783  0.00  0.00     0.174 A 
ATOM      3  C3  BZF d   1       4.513  -4.039   6.000  0.00  0.00    -0.012 A 
ATOM      4  C3A BZF d   1       4.942  -3.427   4.780  0.00  0.00    -0.107 A 
ATOM      5  C4  BZF d   1       5.053  -2.129   4.370  0.00  0.00     0.055 A 
ATOM      6  C5  BZF d   1       5.575  -1.866   3.143  0.00  0.00    -0.016 A 
ATOM      7  C6  BZF d   1       6.000  -2.875   2.303  0.00  0.00     0.022 A 
ATOM      8  C7  BZF d   1       5.905  -4.178   2.664  0.00  0.00     0.029 A 
ATOM      9  C7A BZF d   1       5.348  -4.448   3.890  0.00  0.00     0.058 A 
ENDROOT
TORSDOF 0
ENDMDL
