MODEL 1
REMARK minimizedAffinity 5.52573633
REMARK minimizedRMSD -1
REMARK  0 active torsions:
REMARK  status: ('A' for Active; 'I' for Inactive)
ROOT
ATOM      1  C   UNL d   1       1.047   4.334  -0.701  0.00  0.00     0.077 C 
ATOM      2  C1  UNL d   1       0.500   3.754   0.570  0.00  0.00    -0.074 A 
ATOM      3  C2  UNL d   1      -0.601   4.333   1.209  0.00  0.00    -0.005 A 
ATOM      4  C3  UNL d   1      -1.103   3.777   2.385  0.00  0.00     0.006 A 
ATOM      5  C4  UNL d   1      -0.512   2.639   2.933  0.00  0.00    -0.005 A 
ATOM      6  C5  UNL d   1       0.589   2.045   2.308  0.00  0.00    -0.074 A 
ATOM      7  C6  UNL d   1       1.231   0.815   2.878  0.00  0.00     0.077 C 
ATOM      8  C7  UNL d   1       1.085   2.606   1.122  0.00  0.00    -0.001 A 
ENDROOT
TORSDOF 0
ENDMDL
