MODEL 1
REMARK minimizedAffinity 0.110499166
REMARK minimizedRMSD -1
REMARK  0 active torsions:
REMARK  status: ('A' for Active; 'I' for Inactive)
ROOT
ATOM      1  C   UNL d   1       1.131  -1.111  -1.318  0.00  0.00     0.077 C 
ATOM      2  C1  UNL d   1       0.170   0.013  -1.069  0.00  0.00    -0.074 A 
ATOM      3  C2  UNL d   1      -1.168  -0.243  -0.752  0.00  0.00    -0.005 A 
ATOM      4  C3  UNL d   1      -2.049   0.812  -0.513  0.00  0.00     0.006 A 
ATOM      5  C4  UNL d   1      -1.601   2.131  -0.589  0.00  0.00    -0.005 A 
ATOM      6  C5  UNL d   1      -0.266   2.407  -0.904  0.00  0.00    -0.074 A 
ATOM      7  C6  UNL d   1       0.233   3.819  -0.979  0.00  0.00     0.077 C 
ATOM      8  C7  UNL d   1       0.614   1.341  -1.135  0.00  0.00    -0.001 A 
ENDROOT
TORSDOF 0
ENDMDL
