MODEL 1
REMARK minimizedAffinity 4.16592646
REMARK minimizedRMSD -1
REMARK  0 active torsions:
REMARK  status: ('A' for Active; 'I' for Inactive)
ROOT
ATOM      1  C   UNL d   1       1.052   6.000  -1.503  0.00  0.00     0.077 C 
ATOM      2  C1  UNL d   1       0.260   4.767  -1.184  0.00  0.00    -0.074 A 
ATOM      3  C2  UNL d   1       0.795   3.758  -0.376  0.00  0.00    -0.005 A 
ATOM      4  C3  UNL d   1       0.043   2.621  -0.080  0.00  0.00     0.006 A 
ATOM      5  C4  UNL d   1      -1.249   2.481  -0.588  0.00  0.00    -0.005 A 
ATOM      6  C5  UNL d   1      -1.801   3.480  -1.397  0.00  0.00    -0.074 A 
ATOM      7  C6  UNL d   1      -3.192   3.350  -1.943  0.00  0.00     0.077 C 
ATOM      8  C7  UNL d   1      -1.042   4.623  -1.684  0.00  0.00    -0.001 A 
ENDROOT
TORSDOF 0
ENDMDL
