MODEL 1
REMARK minimizedAffinity 6.3998332
REMARK minimizedRMSD -1
REMARK  0 active torsions:
REMARK  status: ('A' for Active; 'I' for Inactive)
ROOT
ATOM      1  C   UNL d   1      -1.502  -3.961  -3.353  0.00  0.00     0.077 C 
ATOM      2  C1  UNL d   1      -0.509  -3.395  -2.382  0.00  0.00    -0.074 A 
ATOM      3  C2  UNL d   1       0.184  -4.227  -1.496  0.00  0.00    -0.005 A 
ATOM      4  C3  UNL d   1       1.112  -3.687  -0.605  0.00  0.00     0.006 A 
ATOM      5  C4  UNL d   1       1.356  -2.313  -0.591  0.00  0.00    -0.005 A 
ATOM      6  C5  UNL d   1       0.674  -1.467  -1.471  0.00  0.00    -0.074 A 
ATOM      7  C6  UNL d   1       0.931   0.011  -1.475  0.00  0.00     0.077 C 
ATOM      8  C7  UNL d   1      -0.252  -2.017  -2.367  0.00  0.00    -0.001 A 
ENDROOT
TORSDOF 0
ENDMDL
