MODEL 1
REMARK minimizedAffinity -0.441888124
REMARK minimizedRMSD -1
REMARK  0 active torsions:
REMARK  status: ('A' for Active; 'I' for Inactive)
ROOT
ATOM      1  C   UNL d   1       0.008   1.891   3.013  0.00  0.00     0.077 C 
ATOM      2  C1  UNL d   1      -0.021   2.509   1.647  0.00  0.00    -0.074 A 
ATOM      3  C2  UNL d   1      -0.030   1.713   0.497  0.00  0.00    -0.005 A 
ATOM      4  C3  UNL d   1      -0.067   2.302  -0.767  0.00  0.00     0.006 A 
ATOM      5  C4  UNL d   1      -0.095   3.691  -0.894  0.00  0.00    -0.005 A 
ATOM      6  C5  UNL d   1      -0.087   4.504   0.244  0.00  0.00    -0.074 A 
ATOM      7  C6  UNL d   1      -0.127   5.998   0.126  0.00  0.00     0.077 C 
ATOM      8  C7  UNL d   1      -0.057   3.904   1.511  0.00  0.00    -0.001 A 
ENDROOT
TORSDOF 0
ENDMDL
