MODEL 1
REMARK minimizedAffinity 0.70676291
REMARK minimizedRMSD -1
REMARK  0 active torsions:
REMARK  status: ('A' for Active; 'I' for Inactive)
ROOT
ATOM      1  C   UNL d   1      -6.000   4.073  -6.000  0.00  0.00     0.077 C 
ATOM      2  C1  UNL d   1      -5.248   3.436  -4.869  0.00  0.00    -0.074 A 
ATOM      3  C2  UNL d   1      -3.867   3.234  -4.947  0.00  0.00    -0.005 A 
ATOM      4  C3  UNL d   1      -3.180   2.650  -3.883  0.00  0.00     0.006 A 
ATOM      5  C4  UNL d   1      -3.867   2.261  -2.732  0.00  0.00    -0.005 A 
ATOM      6  C5  UNL d   1      -5.248   2.456  -2.635  0.00  0.00    -0.074 A 
ATOM      7  C6  UNL d   1      -6.000   2.054  -1.402  0.00  0.00     0.077 C 
ATOM      8  C7  UNL d   1      -5.930   3.051  -3.706  0.00  0.00    -0.001 A 
ENDROOT
TORSDOF 0
ENDMDL
