MODEL 1
REMARK minimizedAffinity -3.49650645
REMARK minimizedRMSD -1
REMARK  0 active torsions:
REMARK  status: ('A' for Active; 'I' for Inactive)
ROOT
ATOM      1  C4' PXY d   1       0.375   2.788   0.277  0.00  0.00     0.077 C 
ATOM      2  C1' PXY d   1      -0.613  -2.907   0.227  0.00  0.00     0.077 C 
ATOM      3  C1  PXY d   1      -0.343  -1.415   0.232  0.00  0.00    -0.082 A 
ATOM      4  C2  PXY d   1      -0.774  -0.676   1.242  0.00  0.00     0.003 A 
ATOM      5  C3  PXY d   1      -0.567   0.679   1.247  0.00  0.00     0.003 A 
ATOM      6  C4  PXY d   1       0.134   1.277   0.234  0.00  0.00    -0.082 A 
ATOM      7  C5  PXY d   1       0.586   0.528  -0.794  0.00  0.00     0.003 A 
ATOM      8  C6  PXY d   1       0.330  -0.840  -0.801  0.00  0.00     0.003 A 
ENDROOT
TORSDOF 0
ENDMDL
