MODEL 1
REMARK minimizedAffinity -4.55900669
REMARK minimizedRMSD -1
REMARK  0 active torsions:
REMARK  status: ('A' for Active; 'I' for Inactive)
ROOT
ATOM      1  C4' PXY d   1      -0.428   2.243  -0.136  0.00  0.00     0.077 C 
ATOM      2  C1' PXY d   1       0.340  -3.465   0.359  0.00  0.00     0.077 C 
ATOM      3  C1  PXY d   1       0.127  -1.969   0.235  0.00  0.00    -0.082 A 
ATOM      4  C2  PXY d   1       0.775  -1.291  -0.699  0.00  0.00     0.003 A 
ATOM      5  C3  PXY d   1       0.618   0.067  -0.804  0.00  0.00     0.003 A 
ATOM      6  C4  PXY d   1      -0.251   0.730   0.020  0.00  0.00    -0.082 A 
ATOM      7  C5  PXY d   1      -0.924   0.044   0.968  0.00  0.00     0.003 A 
ATOM      8  C6  PXY d   1      -0.720  -1.328   1.085  0.00  0.00     0.003 A 
ENDROOT
TORSDOF 0
ENDMDL
