MODEL 1
REMARK minimizedAffinity -3.61511183
REMARK minimizedRMSD -1
REMARK  0 active torsions:
REMARK  status: ('A' for Active; 'I' for Inactive)
ROOT
ATOM      1  C4' PXY d   1       0.535   2.792  -0.236  0.00  0.00     0.077 C 
ATOM      2  C1' PXY d   1      -1.025  -2.723   0.517  0.00  0.00     0.077 C 
ATOM      3  C1  PXY d   1      -0.604  -1.280   0.314  0.00  0.00    -0.082 A 
ATOM      4  C2  PXY d   1      -1.162  -0.328   1.044  0.00  0.00     0.003 A 
ATOM      5  C3  PXY d   1      -0.817   0.985   0.852  0.00  0.00     0.003 A 
ATOM      6  C4  PXY d   1       0.148   1.321  -0.059  0.00  0.00    -0.082 A 
ATOM      7  C5  PXY d   1       0.730   0.354  -0.800  0.00  0.00     0.003 A 
ATOM      8  C6  PXY d   1       0.336  -0.968  -0.619  0.00  0.00     0.003 A 
ENDROOT
TORSDOF 0
ENDMDL
