MODEL 1
REMARK minimizedAffinity -5.28419876
REMARK minimizedRMSD -1
REMARK  0 active torsions:
REMARK  status: ('A' for Active; 'I' for Inactive)
ROOT
ATOM      1  C4' PXY d   1       0.985   2.098   0.077  0.00  0.00     0.077 C 
ATOM      2  C1' PXY d   1      -0.506  -3.481   0.340  0.00  0.00     0.077 C 
ATOM      3  C1  PXY d   1      -0.105  -2.021   0.264  0.00  0.00    -0.082 A 
ATOM      4  C2  PXY d   1      -0.487  -1.186   1.217  0.00  0.00     0.003 A 
ATOM      5  C3  PXY d   1      -0.160   0.143   1.147  0.00  0.00     0.003 A 
ATOM      6  C4  PXY d   1       0.611   0.614   0.118  0.00  0.00    -0.082 A 
ATOM      7  C5  PXY d   1       1.013  -0.233  -0.853  0.00  0.00     0.003 A 
ATOM      8  C6  PXY d   1       0.636  -1.571  -0.785  0.00  0.00     0.003 A 
ENDROOT
TORSDOF 0
ENDMDL
