MODEL 1
REMARK minimizedAffinity -4.0438962
REMARK minimizedRMSD -1
REMARK  0 active torsions:
REMARK  status: ('A' for Active; 'I' for Inactive)
ROOT
ATOM      1  C4' PXY d   1      -1.733  -0.082   2.422  0.00  0.00     0.077 C 
ATOM      2  C1' PXY d   1       1.264  -1.921  -2.166  0.00  0.00     0.077 C 
ATOM      3  C1  PXY d   1       0.483  -1.427  -0.964  0.00  0.00    -0.082 A 
ATOM      4  C2  PXY d   1       0.032  -2.297  -0.075  0.00  0.00     0.003 A 
ATOM      5  C3  PXY d   1      -0.703  -1.870   1.001  0.00  0.00     0.003 A 
ATOM      6  C4  PXY d   1      -0.933  -0.535   1.198  0.00  0.00    -0.082 A 
ATOM      7  C5  PXY d   1      -0.466   0.360   0.300  0.00  0.00     0.003 A 
ATOM      8  C6  PXY d   1       0.242  -0.097  -0.807  0.00  0.00     0.003 A 
ENDROOT
TORSDOF 0
ENDMDL
