MODEL 1
REMARK minimizedAffinity -4.81091642
REMARK minimizedRMSD -1
REMARK  0 active torsions:
REMARK  status: ('A' for Active; 'I' for Inactive)
ROOT
ATOM      1  C4' PXY d   1      -0.678  -2.996   0.604  0.00  0.00     0.077 C 
ATOM      2  C1' PXY d   1       0.204   2.645  -0.299  0.00  0.00     0.077 C 
ATOM      3  C1  PXY d   1      -0.025   1.163  -0.075  0.00  0.00    -0.082 A 
ATOM      4  C2  PXY d   1      -0.767   0.763   0.945  0.00  0.00     0.003 A 
ATOM      5  C3  PXY d   1      -0.958  -0.574   1.181  0.00  0.00     0.003 A 
ATOM      6  C4  PXY d   1      -0.428  -1.510   0.334  0.00  0.00    -0.082 A 
ATOM      7  C5  PXY d   1       0.321  -1.109  -0.715  0.00  0.00     0.003 A 
ATOM      8  C6  PXY d   1       0.537   0.251  -0.914  0.00  0.00     0.003 A 
ENDROOT
TORSDOF 0
ENDMDL
