MODEL 1
REMARK minimizedAffinity -5.78278589
REMARK minimizedRMSD -1
REMARK  0 active torsions:
REMARK  status: ('A' for Active; 'I' for Inactive)
ROOT
ATOM      1  C4' PXY d   1      -0.164  -3.438   0.359  0.00  0.00     0.077 C 
ATOM      2  C1' PXY d   1       0.324   2.284  -0.303  0.00  0.00     0.077 C 
ATOM      3  C1  PXY d   1       0.198   0.782  -0.142  0.00  0.00    -0.082 A 
ATOM      4  C2  PXY d   1      -0.474   0.288   0.885  0.00  0.00     0.003 A 
ATOM      5  C3  PXY d   1      -0.571  -1.068   1.063  0.00  0.00     0.003 A 
ATOM      6  C4  PXY d   1      -0.019  -1.928   0.152  0.00  0.00    -0.082 A 
ATOM      7  C5  PXY d   1       0.660  -1.432  -0.904  0.00  0.00     0.003 A 
ATOM      8  C6  PXY d   1       0.782  -0.053  -1.045  0.00  0.00     0.003 A 
ENDROOT
TORSDOF 0
ENDMDL
