MODEL 1
REMARK minimizedAffinity -3.79767132
REMARK minimizedRMSD -1
REMARK  0 active torsions:
REMARK  status: ('A' for Active; 'I' for Inactive)
ROOT
ATOM      1  C4' PXY d   1      -0.025   1.749  -1.499  0.00  0.00     0.077 C 
ATOM      2  C1' PXY d   1      -0.111  -3.709   0.406  0.00  0.00     0.077 C 
ATOM      3  C1  PXY d   1      -0.079  -2.281  -0.102  0.00  0.00    -0.082 A 
ATOM      4  C2  PXY d   1      -0.487  -1.297   0.684  0.00  0.00     0.003 A 
ATOM      5  C3  PXY d   1      -0.495  -0.004   0.229  0.00  0.00     0.003 A 
ATOM      6  C4  PXY d   1      -0.031   0.293  -1.024  0.00  0.00    -0.082 A 
ATOM      7  C5  PXY d   1       0.397  -0.704  -1.829  0.00  0.00     0.003 A 
ATOM      8  C6  PXY d   1       0.358  -2.015  -1.363  0.00  0.00     0.003 A 
ENDROOT
TORSDOF 0
ENDMDL
