MODEL 1
REMARK minimizedAffinity -5.06450605
REMARK minimizedRMSD -1
REMARK  0 active torsions:
REMARK  status: ('A' for Active; 'I' for Inactive)
ROOT
ATOM      1  C4' PXY d   1       0.460   2.405   0.462  0.00  0.00     0.077 C 
ATOM      2  C1' PXY d   1      -0.011  -3.354   0.299  0.00  0.00     0.077 C 
ATOM      3  C1  PXY d   1       0.119  -1.844   0.331  0.00  0.00    -0.082 A 
ATOM      4  C2  PXY d   1       0.031  -1.204   1.485  0.00  0.00     0.003 A 
ATOM      5  C3  PXY d   1       0.115   0.164   1.528  0.00  0.00     0.003 A 
ATOM      6  C4  PXY d   1       0.344   0.880   0.384  0.00  0.00    -0.082 A 
ATOM      7  C5  PXY d   1       0.445   0.233  -0.797  0.00  0.00     0.003 A 
ATOM      8  C6  PXY d   1       0.317  -1.152  -0.824  0.00  0.00     0.003 A 
ENDROOT
TORSDOF 0
ENDMDL
