MODEL 1
REMARK minimizedAffinity -2.66428065
REMARK minimizedRMSD -1
REMARK  0 active torsions:
REMARK  status: ('A' for Active; 'I' for Inactive)
ROOT
ATOM      1  C4' PXY d   1      -0.713  -3.154   0.519  0.00  0.00     0.077 C 
ATOM      2  C1' PXY d   1      -0.007   2.543  -0.158  0.00  0.00     0.077 C 
ATOM      3  C1  PXY d   1      -0.193   1.051   0.032  0.00  0.00    -0.082 A 
ATOM      4  C2  PXY d   1       0.295   0.211  -0.866  0.00  0.00     0.003 A 
ATOM      5  C3  PXY d   1       0.107  -1.140  -0.726  0.00  0.00     0.003 A 
ATOM      6  C4  PXY d   1      -0.540  -1.640   0.372  0.00  0.00    -0.082 A 
ATOM      7  C5  PXY d   1      -1.032  -0.790   1.299  0.00  0.00     0.003 A 
ATOM      8  C6  PXY d   1      -0.867   0.581   1.117  0.00  0.00     0.003 A 
ENDROOT
TORSDOF 0
ENDMDL
