MODEL 1
REMARK minimizedAffinity -4.8820982
REMARK minimizedRMSD -1
REMARK  0 active torsions:
REMARK  status: ('A' for Active; 'I' for Inactive)
ROOT
ATOM      1  C4' PXY d   1       0.172   1.856   0.324  0.00  0.00     0.077 C 
ATOM      2  C1' PXY d   1      -0.342  -3.864  -0.333  0.00  0.00     0.077 C 
ATOM      3  C1  PXY d   1      -0.218  -2.364  -0.153  0.00  0.00    -0.082 A 
ATOM      4  C2  PXY d   1       0.446  -1.651  -1.048  0.00  0.00     0.003 A 
ATOM      5  C3  PXY d   1       0.595  -0.298  -0.885  0.00  0.00     0.003 A 
ATOM      6  C4  PXY d   1       0.014   0.340   0.178  0.00  0.00    -0.082 A 
ATOM      7  C5  PXY d   1      -0.675  -0.379   1.090  0.00  0.00     0.003 A 
ATOM      8  C6  PXY d   1      -0.780  -1.758   0.928  0.00  0.00     0.003 A 
ENDROOT
TORSDOF 0
ENDMDL
