MODEL 1
REMARK minimizedAffinity -4.20017767
REMARK minimizedRMSD -1
REMARK  0 active torsions:
REMARK  status: ('A' for Active; 'I' for Inactive)
ROOT
ATOM      1  C4' PXY d   1       0.005   1.641  -0.038  0.00  0.00     0.077 C 
ATOM      2  C1' PXY d   1      -0.095  -4.136  -0.215  0.00  0.00     0.077 C 
ATOM      3  C1  PXY d   1      -0.080  -2.621  -0.162  0.00  0.00    -0.082 A 
ATOM      4  C2  PXY d   1       0.558  -1.940  -1.100  0.00  0.00     0.003 A 
ATOM      5  C3  PXY d   1       0.609  -0.571  -1.049  0.00  0.00     0.003 A 
ATOM      6  C4  PXY d   1      -0.045   0.111  -0.057  0.00  0.00    -0.082 A 
ATOM      7  C5  PXY d   1      -0.706  -0.577   0.898  0.00  0.00     0.003 A 
ATOM      8  C6  PXY d   1      -0.711  -1.968   0.851  0.00  0.00     0.003 A 
ENDROOT
TORSDOF 0
ENDMDL
