MODEL 1
REMARK minimizedAffinity -2.97938824
REMARK minimizedRMSD -1
REMARK  0 active torsions:
REMARK  status: ('A' for Active; 'I' for Inactive)
ROOT
ATOM      1  C4' PXY d   1       1.303   2.503   0.317  0.00  0.00     0.077 C 
ATOM      2  C1' PXY d   1      -0.888  -2.834   0.680  0.00  0.00     0.077 C 
ATOM      3  C1  PXY d   1      -0.308  -1.438   0.574  0.00  0.00    -0.082 A 
ATOM      4  C2  PXY d   1      -0.127  -0.719   1.670  0.00  0.00     0.003 A 
ATOM      5  C3  PXY d   1       0.367   0.558   1.589  0.00  0.00     0.003 A 
ATOM      6  C4  PXY d   1       0.729   1.085   0.378  0.00  0.00    -0.082 A 
ATOM      7  C5  PXY d   1       0.558   0.354  -0.744  0.00  0.00     0.003 A 
ATOM      8  C6  PXY d   1       0.016  -0.925  -0.644  0.00  0.00     0.003 A 
ENDROOT
TORSDOF 0
ENDMDL
