MODEL 1
REMARK minimizedAffinity -4.25952053
REMARK minimizedRMSD -1
REMARK  0 active torsions:
REMARK  status: ('A' for Active; 'I' for Inactive)
ROOT
ATOM      1  C4' PXY d   1       1.384  -3.221  -2.549  0.00  0.00     0.077 C 
ATOM      2  C1' PXY d   1      -1.766  -0.783   1.641  0.00  0.00     0.077 C 
ATOM      3  C1  PXY d   1      -0.941  -1.434   0.548  0.00  0.00    -0.082 A 
ATOM      4  C2  PXY d   1      -0.113  -0.696  -0.174  0.00  0.00     0.003 A 
ATOM      5  C3  PXY d   1       0.617  -1.263  -1.187  0.00  0.00     0.003 A 
ATOM      6  C4  PXY d   1       0.538  -2.608  -1.429  0.00  0.00    -0.082 A 
ATOM      7  C5  PXY d   1      -0.296  -3.370  -0.689  0.00  0.00     0.003 A 
ATOM      8  C6  PXY d   1      -1.059  -2.768   0.307  0.00  0.00     0.003 A 
ENDROOT
TORSDOF 0
ENDMDL
