MODEL 1
REMARK minimizedAffinity -3.40997648
REMARK minimizedRMSD -1
REMARK  0 active torsions:
REMARK  status: ('A' for Active; 'I' for Inactive)
ROOT
ATOM      1  C4' PXY d   1       0.081   2.101   0.195  0.00  0.00     0.077 C 
ATOM      2  C1' PXY d   1      -0.068  -3.676   0.057  0.00  0.00     0.077 C 
ATOM      3  C1  PXY d   1      -0.041  -2.160   0.099  0.00  0.00    -0.082 A 
ATOM      4  C2  PXY d   1       0.686  -1.495  -0.784  0.00  0.00     0.003 A 
ATOM      5  C3  PXY d   1       0.747  -0.125  -0.740  0.00  0.00     0.003 A 
ATOM      6  C4  PXY d   1       0.016   0.572   0.184  0.00  0.00    -0.082 A 
ATOM      7  C5  PXY d   1      -0.736  -0.100   1.081  0.00  0.00     0.003 A 
ATOM      8  C6  PXY d   1      -0.753  -1.491   1.046  0.00  0.00     0.003 A 
ENDROOT
TORSDOF 0
ENDMDL
