MODEL 1
REMARK minimizedAffinity -3.46263576
REMARK minimizedRMSD -1
REMARK  0 active torsions:
REMARK  status: ('A' for Active; 'I' for Inactive)
ROOT
ATOM      1  C4' PXY d   1       0.010  -3.295   0.867  0.00  0.00     0.077 C 
ATOM      2  C1' PXY d   1       0.046   2.401  -0.121  0.00  0.00     0.077 C 
ATOM      3  C1  PXY d   1       0.032   0.909   0.150  0.00  0.00    -0.082 A 
ATOM      4  C2  PXY d   1       0.879   0.120  -0.490  0.00  0.00     0.003 A 
ATOM      5  C3  PXY d   1       0.858  -1.235  -0.280  0.00  0.00     0.003 A 
ATOM      6  C4  PXY d   1      -0.004  -1.782   0.632  0.00  0.00    -0.082 A 
ATOM      7  C5  PXY d   1      -0.865  -0.982   1.296  0.00  0.00     0.003 A 
ATOM      8  C6  PXY d   1      -0.855   0.386   1.039  0.00  0.00     0.003 A 
ENDROOT
TORSDOF 0
ENDMDL
