MODEL 1
REMARK minimizedAffinity -1.70311522
REMARK minimizedRMSD -1
REMARK  0 active torsions:
REMARK  status: ('A' for Active; 'I' for Inactive)
ROOT
ATOM      1  C4' PXY d   1       0.009   2.622   0.060  0.00  0.00     0.077 C 
ATOM      2  C1' PXY d   1      -1.172  -3.033   0.273  0.00  0.00     0.077 C 
ATOM      3  C1  PXY d   1      -0.852  -1.552   0.209  0.00  0.00    -0.082 A 
ATOM      4  C2  PXY d   1      -1.235  -0.758   1.195  0.00  0.00     0.003 A 
ATOM      5  C3  PXY d   1      -0.982   0.589   1.139  0.00  0.00     0.003 A 
ATOM      6  C4  PXY d   1      -0.284   1.119   0.087  0.00  0.00    -0.082 A 
ATOM      7  C5  PXY d   1       0.119   0.313  -0.918  0.00  0.00     0.003 A 
ATOM      8  C6  PXY d   1      -0.184  -1.044  -0.862  0.00  0.00     0.003 A 
ENDROOT
TORSDOF 0
ENDMDL
