MODEL 1
REMARK minimizedAffinity -5.01792336
REMARK minimizedRMSD -1
REMARK  0 active torsions:
REMARK  status: ('A' for Active; 'I' for Inactive)
ROOT
ATOM      1  C4' PXY d   1       0.214   1.821  -0.147  0.00  0.00     0.077 C 
ATOM      2  C1' PXY d   1       0.203  -3.959  -0.188  0.00  0.00     0.077 C 
ATOM      3  C1  PXY d   1       0.196  -2.444  -0.168  0.00  0.00    -0.082 A 
ATOM      4  C2  PXY d   1       0.681  -1.774  -1.201  0.00  0.00     0.003 A 
ATOM      5  C3  PXY d   1       0.712  -0.403  -1.187  0.00  0.00     0.003 A 
ATOM      6  C4  PXY d   1       0.192   0.290  -0.127  0.00  0.00    -0.082 A 
ATOM      7  C5  PXY d   1      -0.315  -0.386   0.926  0.00  0.00     0.003 A 
ATOM      8  C6  PXY d   1      -0.299  -1.777   0.910  0.00  0.00     0.003 A 
ENDROOT
TORSDOF 0
ENDMDL
