MODEL 1
REMARK minimizedAffinity -3.09612966
REMARK minimizedRMSD -1
REMARK  0 active torsions:
REMARK  status: ('A' for Active; 'I' for Inactive)
ROOT
ATOM      1  C4' PXY d   1      -0.084   1.620  -0.721  0.00  0.00     0.077 C 
ATOM      2  C1' PXY d   1       0.037  -4.130  -0.138  0.00  0.00     0.077 C 
ATOM      3  C1  PXY d   1       0.016  -2.622  -0.298  0.00  0.00    -0.082 A 
ATOM      4  C2  PXY d   1      -0.614  -1.878   0.597  0.00  0.00     0.003 A 
ATOM      5  C3  PXY d   1      -0.670  -0.516   0.450  0.00  0.00     0.003 A 
ATOM      6  C4  PXY d   1      -0.029   0.095  -0.594  0.00  0.00    -0.082 A 
ATOM      7  C5  PXY d   1       0.625  -0.656  -1.505  0.00  0.00     0.003 A 
ATOM      8  C6  PXY d   1       0.635  -2.041  -1.361  0.00  0.00     0.003 A 
ENDROOT
TORSDOF 0
ENDMDL
