MODEL 1
REMARK minimizedAffinity -5.14199448
REMARK minimizedRMSD -1
REMARK  0 active torsions:
REMARK  status: ('A' for Active; 'I' for Inactive)
ROOT
ATOM      1  C4' PXY d   1       1.280   1.963  -0.122  0.00  0.00     0.077 C 
ATOM      2  C1' PXY d   1      -0.775  -3.412   0.425  0.00  0.00     0.077 C 
ATOM      3  C1  PXY d   1      -0.226  -2.007   0.275  0.00  0.00    -0.082 A 
ATOM      4  C2  PXY d   1      -0.556  -1.078   1.157  0.00  0.00     0.003 A 
ATOM      5  C3  PXY d   1      -0.094   0.206   1.018  0.00  0.00     0.003 A 
ATOM      6  C4  PXY d   1       0.757   0.529  -0.004  0.00  0.00    -0.082 A 
ATOM      7  C5  PXY d   1       1.107  -0.416  -0.903  0.00  0.00     0.003 A 
ATOM      8  C6  PXY d   1       0.594  -1.703  -0.767  0.00  0.00     0.003 A 
ENDROOT
TORSDOF 0
ENDMDL
