MODEL 1
REMARK minimizedAffinity -2.52181578
REMARK minimizedRMSD -1
REMARK  3 active torsions:
REMARK  status: ('A' for Active; 'I' for Inactive)
REMARK    1  A    between atoms: C3'_2  and  C2'_3 
REMARK    2  A    between atoms: C2'_3  and  C1'_4 
REMARK    3  A    between atoms: C1'_4  and  C1_5 
ROOT
ATOM      1  C1  N4B d   1      -0.035   0.303  -0.652  0.00  0.00    -0.075 A 
ATOM      2  C2  N4B d   1       0.021   1.134  -1.793  0.00  0.00     0.002 A 
ATOM      3  C3  N4B d   1      -0.730   2.283  -1.842  0.00  0.00     0.002 A 
ATOM      4  C4  N4B d   1      -1.553   2.611  -0.776  0.00  0.00    -0.004 A 
ATOM      5  C5  N4B d   1      -1.582   1.816   0.333  0.00  0.00     0.002 A 
ATOM      6  C6  N4B d   1      -0.830   0.660   0.398  0.00  0.00     0.002 A 
ENDROOT
BRANCH   1   7
ATOM      7  C1' N4B d   1       0.701  -1.008  -0.588  0.00  0.00     0.057 C 
BRANCH   7   8
ATOM      8  C2' N4B d   1      -0.213  -2.121  -1.090  0.00  0.00     0.009 C 
BRANCH   8   9
ATOM      9  C3' N4B d   1       0.473  -3.476  -1.063  0.00  0.00     0.004 C 
ATOM     10  C4' N4B d   1      -0.494  -4.619  -1.144  0.00  0.00     0.003 C 
ENDBRANCH   8   9
ENDBRANCH   7   8
ENDBRANCH   1   7
TORSDOF 3
ENDMDL
