MODEL 1
REMARK minimizedAffinity -0.355102688
REMARK minimizedRMSD -1
REMARK  3 active torsions:
REMARK  status: ('A' for Active; 'I' for Inactive)
REMARK    1  A    between atoms: C3'_2  and  C2'_3 
REMARK    2  A    between atoms: C2'_3  and  C1'_4 
REMARK    3  A    between atoms: C1'_4  and  C1_5 
ROOT
ATOM      1  C1  N4B d   1       0.166   0.154  -0.233  0.00  0.00    -0.075 A 
ATOM      2  C2  N4B d   1      -0.308   1.472  -0.046  0.00  0.00     0.002 A 
ATOM      3  C3  N4B d   1      -0.222   2.063   1.190  0.00  0.00     0.002 A 
ATOM      4  C4  N4B d   1       0.314   1.354   2.255  0.00  0.00    -0.004 A 
ATOM      5  C5  N4B d   1       0.793   0.091   2.060  0.00  0.00     0.002 A 
ATOM      6  C6  N4B d   1       0.717  -0.514   0.822  0.00  0.00     0.002 A 
ENDROOT
BRANCH   1   7
ATOM      7  C1' N4B d   1       0.015  -0.565  -1.545  0.00  0.00     0.057 C 
BRANCH   7   8
ATOM      8  C2' N4B d   1      -1.400  -1.125  -1.649  0.00  0.00     0.009 C 
BRANCH   8   9
ATOM      9  C3' N4B d   1      -1.428  -2.472  -2.351  0.00  0.00     0.004 C 
ATOM     10  C4' N4B d   1      -0.814  -3.567  -1.530  0.00  0.00     0.003 C 
ENDBRANCH   8   9
ENDBRANCH   7   8
ENDBRANCH   1   7
TORSDOF 3
ENDMDL
