MODEL 1
REMARK minimizedAffinity -3.01446319
REMARK minimizedRMSD -1
REMARK  3 active torsions:
REMARK  status: ('A' for Active; 'I' for Inactive)
REMARK    1  A    between atoms: C3'_2  and  C2'_3 
REMARK    2  A    between atoms: C2'_3  and  C1'_4 
REMARK    3  A    between atoms: C1'_4  and  C1_5 
ROOT
ATOM      1  C1  N4B d   1       0.992  -1.570  -0.481  0.00  0.00    -0.075 A 
ATOM      2  C2  N4B d   1       0.282  -0.753  -1.387  0.00  0.00     0.002 A 
ATOM      3  C3  N4B d   1      -0.248   0.442  -0.964  0.00  0.00     0.002 A 
ATOM      4  C4  N4B d   1      -0.097   0.829   0.359  0.00  0.00    -0.004 A 
ATOM      5  C5  N4B d   1       0.612   0.046   1.222  0.00  0.00     0.002 A 
ATOM      6  C6  N4B d   1       1.154  -1.155   0.809  0.00  0.00     0.002 A 
ENDROOT
BRANCH   1   7
ATOM      7  C1' N4B d   1       1.516  -2.924  -0.875  0.00  0.00     0.057 C 
BRANCH   7   8
ATOM      8  C2' N4B d   1       0.392  -3.725  -1.526  0.00  0.00     0.009 C 
BRANCH   8   9
ATOM      9  C3' N4B d   1       0.072  -4.990  -0.747  0.00  0.00     0.004 C 
ATOM     10  C4' N4B d   1       1.273  -5.571  -0.063  0.00  0.00     0.003 C 
ENDBRANCH   8   9
ENDBRANCH   7   8
ENDBRANCH   1   7
TORSDOF 3
ENDMDL
