MODEL 1
REMARK minimizedAffinity -4.52900696
REMARK minimizedRMSD -1
REMARK  3 active torsions:
REMARK  status: ('A' for Active; 'I' for Inactive)
REMARK    1  A    between atoms: C3'_2  and  C2'_3 
REMARK    2  A    between atoms: C2'_3  and  C1'_4 
REMARK    3  A    between atoms: C1'_4  and  C1_5 
ROOT
ATOM      1  C1  N4B d   1       0.182  -0.318  -0.167  0.00  0.00    -0.075 A 
ATOM      2  C2  N4B d   1      -0.748   0.463  -0.888  0.00  0.00     0.002 A 
ATOM      3  C3  N4B d   1      -1.298   1.582  -0.311  0.00  0.00     0.002 A 
ATOM      4  C4  N4B d   1      -0.950   1.926   0.986  0.00  0.00    -0.004 A 
ATOM      5  C5  N4B d   1      -0.032   1.180   1.667  0.00  0.00     0.002 A 
ATOM      6  C6  N4B d   1       0.532   0.056   1.098  0.00  0.00     0.002 A 
ENDROOT
BRANCH   1   7
ATOM      7  C1' N4B d   1       0.745  -1.597  -0.724  0.00  0.00     0.057 C 
BRANCH   7   8
ATOM      8  C2' N4B d   1      -0.359  -2.352  -1.459  0.00  0.00     0.009 C 
BRANCH   8   9
ATOM      9  C3' N4B d   1       0.027  -3.795  -1.734  0.00  0.00     0.004 C 
ATOM     10  C4' N4B d   1       0.553  -4.498  -0.519  0.00  0.00     0.003 C 
ENDBRANCH   8   9
ENDBRANCH   7   8
ENDBRANCH   1   7
TORSDOF 3
ENDMDL
