MODEL 1
REMARK minimizedAffinity -2.31379628
REMARK minimizedRMSD -1
REMARK  0 active torsions:
REMARK  status: ('A' for Active; 'I' for Inactive)
ROOT
ATOM      1  C1  BNZ d   1      -1.706   0.335   1.009  0.00  0.00     0.000 A 
ATOM      2  C2  BNZ d   1      -1.449   1.658   1.253  0.00  0.00     0.000 A 
ATOM      3  C3  BNZ d   1      -0.241   2.208   0.927  0.00  0.00     0.000 A 
ATOM      4  C4  BNZ d   1       0.722   1.427   0.397  0.00  0.00     0.000 A 
ATOM      5  C5  BNZ d   1       0.481   0.089   0.154  0.00  0.00     0.000 A 
ATOM      6  C6  BNZ d   1      -0.749  -0.452   0.447  0.00  0.00     0.000 A 
ENDROOT
TORSDOF 0
ENDMDL
