MODEL 1
REMARK minimizedAffinity -0.92203331
REMARK minimizedRMSD -1
REMARK  0 active torsions:
REMARK  status: ('A' for Active; 'I' for Inactive)
ROOT
ATOM      1  C1  BNZ d   1      -0.212   2.237   0.433  0.00  0.00     0.000 A 
ATOM      2  C2  BNZ d   1       0.768   1.281   0.420  0.00  0.00     0.000 A 
ATOM      3  C3  BNZ d   1       0.450  -0.048   0.415  0.00  0.00     0.000 A 
ATOM      4  C4  BNZ d   1      -0.845  -0.420   0.465  0.00  0.00     0.000 A 
ATOM      5  C5  BNZ d   1      -1.845   0.532   0.488  0.00  0.00     0.000 A 
ATOM      6  C6  BNZ d   1      -1.522   1.869   0.453  0.00  0.00     0.000 A 
ENDROOT
TORSDOF 0
ENDMDL
