MODEL 1
REMARK minimizedAffinity -4.17906809
REMARK minimizedRMSD -1
REMARK  0 active torsions:
REMARK  status: ('A' for Active; 'I' for Inactive)
ROOT
ATOM      1  C1  BNZ d   1       2.178   2.025   0.900  0.00  0.00     0.000 A 
ATOM      2  C2  BNZ d   1       1.785   0.747   0.603  0.00  0.00     0.000 A 
ATOM      3  C3  BNZ d   1       0.464   0.445   0.425  0.00  0.00     0.000 A 
ATOM      4  C4  BNZ d   1      -0.464   1.410   0.583  0.00  0.00     0.000 A 
ATOM      5  C5  BNZ d   1      -0.085   2.701   0.892  0.00  0.00     0.000 A 
ATOM      6  C6  BNZ d   1       1.249   3.010   1.032  0.00  0.00     0.000 A 
ENDROOT
TORSDOF 0
ENDMDL
