MODEL 1
REMARK minimizedAffinity -3.6982708
REMARK minimizedRMSD -1
REMARK  0 active torsions:
REMARK  status: ('A' for Active; 'I' for Inactive)
ROOT
ATOM      1  C1  BNZ d   1       0.421   0.418   0.028  0.00  0.00     0.000 A 
ATOM      2  C2  BNZ d   1       0.904   1.699   0.050  0.00  0.00     0.000 A 
ATOM      3  C3  BNZ d   1       0.080   2.754   0.327  0.00  0.00     0.000 A 
ATOM      4  C4  BNZ d   1      -1.232   2.531   0.542  0.00  0.00     0.000 A 
ATOM      5  C5  BNZ d   1      -1.737   1.246   0.514  0.00  0.00     0.000 A 
ATOM      6  C6  BNZ d   1      -0.897   0.183   0.273  0.00  0.00     0.000 A 
ENDROOT
TORSDOF 0
ENDMDL
