MODEL 1
REMARK minimizedAffinity -3.57557011
REMARK minimizedRMSD -1
REMARK  0 active torsions:
REMARK  status: ('A' for Active; 'I' for Inactive)
ROOT
ATOM      1  C1  BNZ d   1      -0.755   2.616   0.363  0.00  0.00     0.000 A 
ATOM      2  C2  BNZ d   1      -1.079   1.401  -0.179  0.00  0.00     0.000 A 
ATOM      3  C3  BNZ d   1      -0.183   0.369  -0.168  0.00  0.00     0.000 A 
ATOM      4  C4  BNZ d   1       1.047   0.564   0.348  0.00  0.00     0.000 A 
ATOM      5  C5  BNZ d   1       1.392   1.786   0.891  0.00  0.00     0.000 A 
ATOM      6  C6  BNZ d   1       0.475   2.811   0.913  0.00  0.00     0.000 A 
ENDROOT
TORSDOF 0
ENDMDL
