MODEL 1
REMARK minimizedAffinity -3.29791975
REMARK minimizedRMSD -1
REMARK  0 active torsions:
REMARK  status: ('A' for Active; 'I' for Inactive)
ROOT
ATOM      1  C1  BNZ d   1      -1.457   2.240   0.453  0.00  0.00     0.000 A 
ATOM      2  C2  BNZ d   1      -1.962   1.003   0.153  0.00  0.00     0.000 A 
ATOM      3  C3  BNZ d   1      -1.137  -0.079   0.029  0.00  0.00     0.000 A 
ATOM      4  C4  BNZ d   1       0.195   0.084   0.165  0.00  0.00     0.000 A 
ATOM      5  C5  BNZ d   1       0.721   1.326   0.458  0.00  0.00     0.000 A 
ATOM      6  C6  BNZ d   1      -0.116   2.406   0.621  0.00  0.00     0.000 A 
ENDROOT
TORSDOF 0
ENDMDL
