MODEL 1
REMARK minimizedAffinity -3.24046516
REMARK minimizedRMSD -1
REMARK  0 active torsions:
REMARK  status: ('A' for Active; 'I' for Inactive)
ROOT
ATOM      1  C1  BNZ d   1      -1.287   1.924   0.805  0.00  0.00     0.000 A 
ATOM      2  C2  BNZ d   1      -1.630   0.615   0.592  0.00  0.00     0.000 A 
ATOM      3  C3  BNZ d   1      -0.685  -0.307   0.237  0.00  0.00     0.000 A 
ATOM      4  C4  BNZ d   1       0.592   0.088   0.056  0.00  0.00     0.000 A 
ATOM      5  C5  BNZ d   1       0.951   1.406   0.258  0.00  0.00     0.000 A 
ATOM      6  C6  BNZ d   1       0.005   2.323   0.654  0.00  0.00     0.000 A 
ENDROOT
TORSDOF 0
ENDMDL
