MODEL 1
REMARK minimizedAffinity -0.163942903
REMARK minimizedRMSD -1
REMARK  0 active torsions:
REMARK  status: ('A' for Active; 'I' for Inactive)
ROOT
ATOM      1  C1  BNZ d   1       0.057   2.151   1.049  0.00  0.00     0.000 A 
ATOM      2  C2  BNZ d   1       0.913   1.096   0.880  0.00  0.00     0.000 A 
ATOM      3  C3  BNZ d   1       0.451  -0.119   0.456  0.00  0.00     0.000 A 
ATOM      4  C4  BNZ d   1      -0.870  -0.287   0.240  0.00  0.00     0.000 A 
ATOM      5  C5  BNZ d   1      -1.746   0.765   0.415  0.00  0.00     0.000 A 
ATOM      6  C6  BNZ d   1      -1.273   1.996   0.805  0.00  0.00     0.000 A 
ENDROOT
TORSDOF 0
ENDMDL
