MODEL 1
REMARK minimizedAffinity -3.04484367
REMARK minimizedRMSD -1
REMARK  0 active torsions:
REMARK  status: ('A' for Active; 'I' for Inactive)
ROOT
ATOM      1  C1  BNZ d   1       1.343   0.070   0.420  0.00  0.00     0.000 A 
ATOM      2  C2  BNZ d   1       0.584   1.210   0.470  0.00  0.00     0.000 A 
ATOM      3  C3  BNZ d   1      -0.776   1.140   0.589  0.00  0.00     0.000 A 
ATOM      4  C4  BNZ d   1      -1.378  -0.066   0.618  0.00  0.00     0.000 A 
ATOM      5  C5  BNZ d   1      -0.628  -1.224   0.560  0.00  0.00     0.000 A 
ATOM      6  C6  BNZ d   1       0.744  -1.150   0.479  0.00  0.00     0.000 A 
ENDROOT
TORSDOF 0
ENDMDL
