MODEL 1
REMARK minimizedAffinity -1.84690607
REMARK minimizedRMSD -1
REMARK  0 active torsions:
REMARK  status: ('A' for Active; 'I' for Inactive)
ROOT
ATOM      1  C1  BNZ d   1       1.276  -1.230  -0.213  0.00  0.00     0.000 A 
ATOM      2  C2  BNZ d   1      -0.054  -1.401   0.065  0.00  0.00     0.000 A 
ATOM      3  C3  BNZ d   1      -0.866  -0.325   0.293  0.00  0.00     0.000 A 
ATOM      4  C4  BNZ d   1      -0.339   0.917   0.282  0.00  0.00     0.000 A 
ATOM      5  C5  BNZ d   1       1.002   1.105   0.013  0.00  0.00     0.000 A 
ATOM      6  C6  BNZ d   1       1.807   0.022  -0.254  0.00  0.00     0.000 A 
ENDROOT
TORSDOF 0
ENDMDL
