MODEL 1
REMARK minimizedAffinity -4.93886662
REMARK minimizedRMSD -1
REMARK  0 active torsions:
REMARK  status: ('A' for Active; 'I' for Inactive)
ROOT
ATOM      1  C1  BNZ d   1       1.669   2.881   0.849  0.00  0.00     0.000 A 
ATOM      2  C2  BNZ d   1       0.438   2.549   0.349  0.00  0.00     0.000 A 
ATOM      3  C3  BNZ d   1       0.182   1.282  -0.096  0.00  0.00     0.000 A 
ATOM      4  C4  BNZ d   1       1.168   0.362  -0.079  0.00  0.00     0.000 A 
ATOM      5  C5  BNZ d   1       2.417   0.684   0.413  0.00  0.00     0.000 A 
ATOM      6  C6  BNZ d   1       2.659   1.949   0.897  0.00  0.00     0.000 A 
ENDROOT
TORSDOF 0
ENDMDL
