MODEL 1
REMARK minimizedAffinity -3.67625141
REMARK minimizedRMSD -1
REMARK  0 active torsions:
REMARK  status: ('A' for Active; 'I' for Inactive)
ROOT
ATOM      1  C1  BNZ d   1       0.331   0.372   0.507  0.00  0.00     0.000 A 
ATOM      2  C2  BNZ d   1       1.617   0.766   0.761  0.00  0.00     0.000 A 
ATOM      3  C3  BNZ d   1       1.904   2.069   1.061  0.00  0.00     0.000 A 
ATOM      4  C4  BNZ d   1       0.912   2.982   1.066  0.00  0.00     0.000 A 
ATOM      5  C5  BNZ d   1      -0.389   2.602   0.802  0.00  0.00     0.000 A 
ATOM      6  C6  BNZ d   1      -0.680   1.283   0.539  0.00  0.00     0.000 A 
ENDROOT
TORSDOF 0
ENDMDL
