MODEL 1
REMARK minimizedAffinity -2.73537707
REMARK minimizedRMSD -1
REMARK  0 active torsions:
REMARK  status: ('A' for Active; 'I' for Inactive)
ROOT
ATOM      1  C1  BNZ d   1      -0.194   0.448   0.199  0.00  0.00     0.000 A 
ATOM      2  C2  BNZ d   1       0.971   0.898   0.761  0.00  0.00     0.000 A 
ATOM      3  C3  BNZ d   1       1.115   2.210   1.119  0.00  0.00     0.000 A 
ATOM      4  C4  BNZ d   1       0.110   3.076   0.878  0.00  0.00     0.000 A 
ATOM      5  C5  BNZ d   1      -1.067   2.640   0.304  0.00  0.00     0.000 A 
ATOM      6  C6  BNZ d   1      -1.223   1.312  -0.019  0.00  0.00     0.000 A 
ENDROOT
TORSDOF 0
ENDMDL
