MODEL 1
REMARK minimizedAffinity -0.459010273
REMARK minimizedRMSD -1
REMARK  0 active torsions:
REMARK  status: ('A' for Active; 'I' for Inactive)
ROOT
ATOM      1  C1  BNZ d   1      -1.355  -0.063  -0.391  0.00  0.00     0.000 A 
ATOM      2  C2  BNZ d   1      -1.878   1.155  -0.047  0.00  0.00     0.000 A 
ATOM      3  C3  BNZ d   1      -1.100   2.109   0.547  0.00  0.00     0.000 A 
ATOM      4  C4  BNZ d   1       0.188   1.830   0.832  0.00  0.00     0.000 A 
ATOM      5  C5  BNZ d   1       0.728   0.603   0.500  0.00  0.00     0.000 A 
ATOM      6  C6  BNZ d   1      -0.048  -0.340  -0.133  0.00  0.00     0.000 A 
ENDROOT
TORSDOF 0
ENDMDL
