MODEL 1
REMARK minimizedAffinity -3.43215847
REMARK minimizedRMSD -1
REMARK  0 active torsions:
REMARK  status: ('A' for Active; 'I' for Inactive)
ROOT
ATOM      1  C1  BNZ d   1      -0.458  -0.406  -0.818  0.00  0.00     0.000 A 
ATOM      2  C2  BNZ d   1      -0.271  -0.815  -2.112  0.00  0.00     0.000 A 
ATOM      3  C3  BNZ d   1      -0.172  -2.143  -2.419  0.00  0.00     0.000 A 
ATOM      4  C4  BNZ d   1      -0.221  -3.058  -1.430  0.00  0.00     0.000 A 
ATOM      5  C5  BNZ d   1      -0.400  -2.662  -0.119  0.00  0.00     0.000 A 
ATOM      6  C6  BNZ d   1      -0.537  -1.326   0.182  0.00  0.00     0.000 A 
ENDROOT
TORSDOF 0
ENDMDL
