MODEL 1
REMARK minimizedAffinity -2.56333303
REMARK minimizedRMSD -1
REMARK  0 active torsions:
REMARK  status: ('A' for Active; 'I' for Inactive)
ROOT
ATOM      1  C1  BNZ d   1      -1.334  -2.981  -2.888  0.00  0.00     0.000 A 
ATOM      2  C2  BNZ d   1       0.024  -2.938  -2.717  0.00  0.00     0.000 A 
ATOM      3  C3  BNZ d   1       0.588  -3.248  -1.510  0.00  0.00     0.000 A 
ATOM      4  C4  BNZ d   1      -0.208  -3.561  -0.468  0.00  0.00     0.000 A 
ATOM      5  C5  BNZ d   1      -1.579  -3.600  -0.621  0.00  0.00     0.000 A 
ATOM      6  C6  BNZ d   1      -2.141  -3.325  -1.847  0.00  0.00     0.000 A 
ENDROOT
TORSDOF 0
ENDMDL
