MODEL 1
REMARK minimizedAffinity 17.8729191
REMARK minimizedRMSD -1
REMARK  0 active torsions:
REMARK  status: ('A' for Active; 'I' for Inactive)
ROOT
ATOM      1  C2' OXE d   1       2.218   0.695   3.687  0.00  0.00     0.078 C 
ATOM      2  C1' OXE d   1      -0.125   2.241   3.713  0.00  0.00     0.078 C 
ATOM      3  C1  OXE d   1      -0.168   0.911   3.003  0.00  0.00    -0.078 A 
ATOM      4  C2  OXE d   1       0.996   0.182   2.956  0.00  0.00    -0.078 A 
ATOM      5  C3  OXE d   1       0.998  -1.077   2.362  0.00  0.00     0.003 A 
ATOM      6  C4  OXE d   1      -0.134  -1.539   1.679  0.00  0.00    -0.002 A 
ATOM      7  C5  OXE d   1      -1.318  -0.795   1.681  0.00  0.00    -0.002 A 
ATOM      8  C6  OXE d   1      -1.364   0.410   2.373  0.00  0.00     0.003 A 
ENDROOT
TORSDOF 0
ENDMDL
