MODEL 1
REMARK minimizedAffinity 9.93218136
REMARK minimizedRMSD -1
REMARK  0 active torsions:
REMARK  status: ('A' for Active; 'I' for Inactive)
ROOT
ATOM      1  C2' OXE d   1      -0.891  -1.118   2.292  0.00  0.00     0.078 C 
ATOM      2  C1' OXE d   1       0.815  -2.521   4.024  0.00  0.00     0.078 C 
ATOM      3  C1  OXE d   1       1.297  -1.199   3.479  0.00  0.00    -0.078 A 
ATOM      4  C2  OXE d   1       0.475  -0.542   2.596  0.00  0.00    -0.078 A 
ATOM      5  C3  OXE d   1       0.847   0.706   2.106  0.00  0.00     0.003 A 
ATOM      6  C4  OXE d   1       2.117   1.227   2.384  0.00  0.00    -0.002 A 
ATOM      7  C5  OXE d   1       2.986   0.555   3.250  0.00  0.00    -0.002 A 
ATOM      8  C6  OXE d   1       2.575  -0.636   3.838  0.00  0.00     0.003 A 
ENDROOT
TORSDOF 0
ENDMDL
