MODEL 1
REMARK minimizedAffinity 9.25673294
REMARK minimizedRMSD -1
REMARK  0 active torsions:
REMARK  status: ('A' for Active; 'I' for Inactive)
ROOT
ATOM      1  C2' OXE d   1      -0.949   2.164   3.050  0.00  0.00     0.078 C 
ATOM      2  C1' OXE d   1       0.570   1.909   5.397  0.00  0.00     0.078 C 
ATOM      3  C1  OXE d   1       0.547   0.741   4.444  0.00  0.00    -0.078 A 
ATOM      4  C2  OXE d   1      -0.237   0.856   3.321  0.00  0.00    -0.078 A 
ATOM      5  C3  OXE d   1      -0.251  -0.171   2.382  0.00  0.00     0.003 A 
ATOM      6  C4  OXE d   1       0.402  -1.381   2.645  0.00  0.00    -0.002 A 
ATOM      7  C5  OXE d   1       1.173  -1.535   3.801  0.00  0.00    -0.002 A 
ATOM      8  C6  OXE d   1       1.290  -0.470   4.689  0.00  0.00     0.003 A 
ENDROOT
TORSDOF 0
ENDMDL
