MODEL 1
REMARK minimizedAffinity 6.32501888
REMARK minimizedRMSD -1
REMARK  0 active torsions:
REMARK  status: ('A' for Active; 'I' for Inactive)
ROOT
ATOM      1  C2' OXE d   1      -1.533   2.184   3.603  0.00  0.00     0.078 C 
ATOM      2  C1' OXE d   1      -2.745   0.039   2.259  0.00  0.00     0.078 C 
ATOM      3  C1  OXE d   1      -1.343  -0.159   2.779  0.00  0.00    -0.078 A 
ATOM      4  C2  OXE d   1      -0.740   0.912   3.394  0.00  0.00    -0.078 A 
ATOM      5  C3  OXE d   1       0.532   0.767   3.940  0.00  0.00     0.003 A 
ATOM      6  C4  OXE d   1       1.262  -0.410   3.734  0.00  0.00    -0.002 A 
ATOM      7  C5  OXE d   1       0.681  -1.499   3.075  0.00  0.00    -0.002 A 
ATOM      8  C6  OXE d   1      -0.632  -1.405   2.629  0.00  0.00     0.003 A 
ENDROOT
TORSDOF 0
ENDMDL
