MODEL 1
REMARK minimizedAffinity 5.61928225
REMARK minimizedRMSD -1
REMARK  0 active torsions:
REMARK  status: ('A' for Active; 'I' for Inactive)
ROOT
ATOM      1  C2' OXE d   1       0.700   2.043   5.308  0.00  0.00     0.078 C 
ATOM      2  C1' OXE d   1      -0.828   2.449   2.988  0.00  0.00     0.078 C 
ATOM      3  C1  OXE d   1      -0.281   1.066   3.237  0.00  0.00    -0.078 A 
ATOM      4  C2  OXE d   1       0.504   0.887   4.350  0.00  0.00    -0.078 A 
ATOM      5  C3  OXE d   1       0.988  -0.382   4.656  0.00  0.00     0.003 A 
ATOM      6  C4  OXE d   1       0.811  -1.443   3.760  0.00  0.00    -0.002 A 
ATOM      7  C5  OXE d   1       0.048  -1.273   2.600  0.00  0.00    -0.002 A 
ATOM      8  C6  OXE d   1      -0.540  -0.039   2.346  0.00  0.00     0.003 A 
ENDROOT
TORSDOF 0
ENDMDL
