MODEL 1
REMARK minimizedAffinity 12.8723726
REMARK minimizedRMSD -1
REMARK  0 active torsions:
REMARK  status: ('A' for Active; 'I' for Inactive)
ROOT
ATOM      1  C2' OXE d   1      -0.736  -2.638  -2.221  0.00  0.00     0.078 C 
ATOM      2  C1' OXE d   1      -1.433  -3.740  -4.707  0.00  0.00     0.078 C 
ATOM      3  C1  OXE d   1      -0.659  -2.446  -4.704  0.00  0.00    -0.078 A 
ATOM      4  C2  OXE d   1      -0.363  -1.890  -3.483  0.00  0.00    -0.078 A 
ATOM      5  C3  OXE d   1       0.397  -0.725  -3.422  0.00  0.00     0.003 A 
ATOM      6  C4  OXE d   1       0.729  -0.033  -4.594  0.00  0.00    -0.002 A 
ATOM      7  C5  OXE d   1       0.402  -0.562  -5.847  0.00  0.00    -0.002 A 
ATOM      8  C6  OXE d   1      -0.254  -1.786  -5.920  0.00  0.00     0.003 A 
ENDROOT
TORSDOF 0
ENDMDL
