MODEL 1
REMARK minimizedAffinity 14.330286
REMARK minimizedRMSD -1
REMARK  0 active torsions:
REMARK  status: ('A' for Active; 'I' for Inactive)
ROOT
ATOM      1  C2' OXE d   1       2.675  -0.013   4.248  0.00  0.00     0.078 C 
ATOM      2  C1' OXE d   1       1.622  -2.606   4.031  0.00  0.00     0.078 C 
ATOM      3  C1  OXE d   1       0.842  -1.475   3.408  0.00  0.00    -0.078 A 
ATOM      4  C2  OXE d   1       1.341  -0.204   3.560  0.00  0.00    -0.078 A 
ATOM      5  C3  OXE d   1       0.689   0.869   2.958  0.00  0.00     0.003 A 
ATOM      6  C4  OXE d   1      -0.549   0.685   2.332  0.00  0.00    -0.002 A 
ATOM      7  C5  OXE d   1      -1.095  -0.597   2.201  0.00  0.00    -0.002 A 
ATOM      8  C6  OXE d   1      -0.393  -1.690   2.695  0.00  0.00     0.003 A 
ENDROOT
TORSDOF 0
ENDMDL
