MODEL 1
REMARK minimizedAffinity 7.30537748
REMARK minimizedRMSD -1
REMARK  0 active torsions:
REMARK  status: ('A' for Active; 'I' for Inactive)
ROOT
ATOM      1  C   UNL d   1       3.502  -2.401  -3.360  0.00  0.00     0.124 A 
ATOM      2  C1  UNL d   1       3.305  -3.758  -3.144  0.00  0.00     0.062 A 
ATOM      3  C2  UNL d   1       4.016  -4.695  -3.889  0.00  0.00     0.162 A 
ATOM      4  C3  UNL d   1       4.931  -4.278  -4.855  0.00  0.00    -0.034 A 
ATOM      5  C4  UNL d   1       5.123  -2.912  -5.067  0.00  0.00     0.162 A 
ATOM      6  C5  UNL d   1       4.410  -1.979  -4.320  0.00  0.00     0.062 A 
ATOM      7  F   UNL d   1       4.602  -0.669  -4.530  0.00  0.00    -0.097 F 
ATOM      8  F1  UNL d   1       5.995  -2.477  -5.988  0.00  0.00    -0.096 F 
ATOM      9  I   UNL d   1       5.996  -5.677  -5.970  0.00  0.00    -0.060 I 
ATOM     10  F2  UNL d   1       3.805  -6.000  -3.659  0.00  0.00    -0.096 F 
ATOM     11  F3  UNL d   1       2.427  -4.168  -2.218  0.00  0.00    -0.097 F 
ATOM     12  F4  UNL d   1       2.816  -1.502  -2.643  0.00  0.00    -0.092 F 
ENDROOT
TORSDOF 0
ENDMDL
