MODEL 1
REMARK minimizedAffinity 9.10202122
REMARK minimizedRMSD -1
REMARK  0 active torsions:
REMARK  status: ('A' for Active; 'I' for Inactive)
ROOT
ATOM      1  C   UNL d   1       3.443  -2.398  -3.429  0.00  0.00     0.124 A 
ATOM      2  C1  UNL d   1       3.242  -3.757  -3.227  0.00  0.00     0.062 A 
ATOM      3  C2  UNL d   1       3.971  -4.689  -3.959  0.00  0.00     0.162 A 
ATOM      4  C3  UNL d   1       4.908  -4.267  -4.902  0.00  0.00    -0.034 A 
ATOM      5  C4  UNL d   1       5.104  -2.899  -5.101  0.00  0.00     0.162 A 
ATOM      6  C5  UNL d   1       4.374  -1.971  -4.366  0.00  0.00     0.062 A 
ATOM      7  F   UNL d   1       4.569  -0.659  -4.563  0.00  0.00    -0.097 F 
ATOM      8  F1  UNL d   1       5.998  -2.458  -5.999  0.00  0.00    -0.096 F 
ATOM      9  I   UNL d   1       6.000  -5.658  -5.999  0.00  0.00    -0.060 I 
ATOM     10  F2  UNL d   1       3.756  -5.995  -3.743  0.00  0.00    -0.096 F 
ATOM     11  F3  UNL d   1       2.343  -4.172  -2.323  0.00  0.00    -0.097 F 
ATOM     12  F4  UNL d   1       2.740  -1.503  -2.724  0.00  0.00    -0.092 F 
ENDROOT
TORSDOF 0
ENDMDL
