MODEL 1
REMARK minimizedAffinity 7.71510077
REMARK minimizedRMSD -1
REMARK  0 active torsions:
REMARK  status: ('A' for Active; 'I' for Inactive)
ROOT
ATOM      1  C   UNL d   1       3.832  -2.411  -3.117  0.00  0.00     0.124 A 
ATOM      2  C1  UNL d   1       3.425  -3.719  -2.892  0.00  0.00     0.062 A 
ATOM      3  C2  UNL d   1       3.883  -4.745  -3.713  0.00  0.00     0.162 A 
ATOM      4  C3  UNL d   1       4.754  -4.468  -4.767  0.00  0.00    -0.034 A 
ATOM      5  C4  UNL d   1       5.158  -3.150  -4.987  0.00  0.00     0.162 A 
ATOM      6  C5  UNL d   1       4.697  -2.127  -4.163  0.00  0.00     0.062 A 
ATOM      7  F   UNL d   1       5.091  -0.864  -4.382  0.00  0.00    -0.097 F 
ATOM      8  F1  UNL d   1       5.995  -2.848  -5.991  0.00  0.00    -0.096 F 
ATOM      9  I   UNL d   1       5.441  -5.999  -5.997  0.00  0.00    -0.060 I 
ATOM     10  F2  UNL d   1       3.473  -5.999  -3.473  0.00  0.00    -0.096 F 
ATOM     11  F3  UNL d   1       2.588  -3.995  -1.882  0.00  0.00    -0.097 F 
ATOM     12  F4  UNL d   1       3.389  -1.425  -2.325  0.00  0.00    -0.092 F 
ENDROOT
TORSDOF 0
ENDMDL
