MODEL 1
REMARK minimizedAffinity 2.75072384
REMARK minimizedRMSD -1
REMARK  0 active torsions:
REMARK  status: ('A' for Active; 'I' for Inactive)
ROOT
ATOM      1  C   UNL d   1       3.150  -1.558  -3.763  0.00  0.00     0.124 A 
ATOM      2  C1  UNL d   1       2.924  -2.913  -3.569  0.00  0.00     0.062 A 
ATOM      3  C2  UNL d   1       3.736  -3.855  -4.195  0.00  0.00     0.162 A 
ATOM      4  C3  UNL d   1       4.783  -3.444  -5.020  0.00  0.00    -0.034 A 
ATOM      5  C4  UNL d   1       5.003  -2.078  -5.212  0.00  0.00     0.162 A 
ATOM      6  C5  UNL d   1       4.188  -1.142  -4.584  0.00  0.00     0.062 A 
ATOM      7  F   UNL d   1       4.408   0.168  -4.772  0.00  0.00    -0.097 F 
ATOM      8  F1  UNL d   1       6.000  -1.649  -5.999  0.00  0.00    -0.096 F 
ATOM      9  I   UNL d   1       5.999  -4.848  -5.958  0.00  0.00    -0.060 I 
ATOM     10  F2  UNL d   1       3.495  -5.158  -3.989  0.00  0.00    -0.096 F 
ATOM     11  F3  UNL d   1       1.921  -3.318  -2.777  0.00  0.00    -0.097 F 
ATOM     12  F4  UNL d   1       2.366  -0.654  -3.160  0.00  0.00    -0.092 F 
ENDROOT
TORSDOF 0
ENDMDL
