MODEL 1
REMARK minimizedAffinity 12.2389727
REMARK minimizedRMSD -1
REMARK  0 active torsions:
REMARK  status: ('A' for Active; 'I' for Inactive)
ROOT
ATOM      1  C   UNL d   1       3.468  -1.186  -5.749  0.00  0.00     0.124 A 
ATOM      2  C1  UNL d   1       2.311  -1.927  -5.550  0.00  0.00     0.062 A 
ATOM      3  C2  UNL d   1       2.390  -3.294  -5.296  0.00  0.00     0.162 A 
ATOM      4  C3  UNL d   1       3.631  -3.928  -5.240  0.00  0.00    -0.034 A 
ATOM      5  C4  UNL d   1       4.790  -3.176  -5.442  0.00  0.00     0.162 A 
ATOM      6  C5  UNL d   1       4.706  -1.811  -5.695  0.00  0.00     0.062 A 
ATOM      7  F   UNL d   1       5.824  -1.096  -5.887  0.00  0.00    -0.097 F 
ATOM      8  F1  UNL d   1       5.999  -3.754  -5.394  0.00  0.00    -0.096 F 
ATOM      9  I   UNL d   1       3.754  -5.971  -4.861  0.00  0.00    -0.060 I 
ATOM     10  F2  UNL d   1       1.257  -3.985  -5.108  0.00  0.00    -0.096 F 
ATOM     11  F3  UNL d   1       1.114  -1.326  -5.602  0.00  0.00    -0.097 F 
ATOM     12  F4  UNL d   1       3.388   0.128  -5.994  0.00  0.00    -0.092 F 
ENDROOT
TORSDOF 0
ENDMDL
