MODEL 1
REMARK minimizedAffinity 12.9514656
REMARK minimizedRMSD -1
REMARK  0 active torsions:
REMARK  status: ('A' for Active; 'I' for Inactive)
ROOT
ATOM      1  C   UNL d   1       5.072  -3.775  -5.098  0.00  0.00     0.124 A 
ATOM      2  C1  UNL d   1       4.676  -2.447  -5.021  0.00  0.00     0.062 A 
ATOM      3  C2  UNL d   1       3.711  -2.056  -4.098  0.00  0.00     0.162 A 
ATOM      4  C3  UNL d   1       3.134  -2.995  -3.242  0.00  0.00    -0.034 A 
ATOM      5  C4  UNL d   1       3.536  -4.329  -3.326  0.00  0.00     0.162 A 
ATOM      6  C5  UNL d   1       4.501  -4.714  -4.250  0.00  0.00     0.062 A 
ATOM      7  F   UNL d   1       4.882  -5.998  -4.323  0.00  0.00    -0.097 F 
ATOM      8  F1  UNL d   1       3.002  -5.257  -2.519  0.00  0.00    -0.096 F 
ATOM      9  I   UNL d   1       1.690  -2.414  -1.860  0.00  0.00    -0.060 I 
ATOM     10  F2  UNL d   1       3.348  -0.765  -4.046  0.00  0.00    -0.096 F 
ATOM     11  F3  UNL d   1       5.225  -1.537  -5.839  0.00  0.00    -0.097 F 
ATOM     12  F4  UNL d   1       6.000  -4.148  -5.988  0.00  0.00    -0.092 F 
ENDROOT
TORSDOF 0
ENDMDL
