MODEL 1
REMARK minimizedAffinity 11.7421913
REMARK minimizedRMSD -1
REMARK  0 active torsions:
REMARK  status: ('A' for Active; 'I' for Inactive)
ROOT
ATOM      1  C   UNL d   1       2.935  -2.323  -5.027  0.00  0.00     0.124 A 
ATOM      2  C1  UNL d   1       4.102  -2.059  -4.323  0.00  0.00     0.062 A 
ATOM      3  C2  UNL d   1       4.873  -3.107  -3.828  0.00  0.00     0.162 A 
ATOM      4  C3  UNL d   1       4.481  -4.429  -4.037  0.00  0.00    -0.034 A 
ATOM      5  C4  UNL d   1       3.306  -4.687  -4.745  0.00  0.00     0.162 A 
ATOM      6  C5  UNL d   1       2.538  -3.636  -5.237  0.00  0.00     0.062 A 
ATOM      7  F   UNL d   1       1.411  -3.893  -5.917  0.00  0.00    -0.097 F 
ATOM      8  F1  UNL d   1       2.899  -5.946  -4.963  0.00  0.00    -0.096 F 
ATOM      9  I   UNL d   1       5.631  -5.999  -3.299  0.00  0.00    -0.060 I 
ATOM     10  F2  UNL d   1       5.996  -2.823  -3.151  0.00  0.00    -0.096 F 
ATOM     11  F3  UNL d   1       4.487  -0.792  -4.117  0.00  0.00    -0.097 F 
ATOM     12  F4  UNL d   1       2.195  -1.313  -5.501  0.00  0.00    -0.092 F 
ENDROOT
TORSDOF 0
ENDMDL
