MODEL 1
REMARK minimizedAffinity -2.43344975
REMARK minimizedRMSD -1
REMARK  0 active torsions:
REMARK  status: ('A' for Active; 'I' for Inactive)
ROOT
ATOM      1  C   UNL d   1      -2.904   0.477  -5.999  0.00  0.00     0.078 C 
ATOM      2  C1  UNL d   1      -2.997   1.974  -5.991  0.00  0.00    -0.077 A 
ATOM      3  C2  UNL d   1      -4.240   2.618  -5.993  0.00  0.00    -0.001 A 
ATOM      4  C3  UNL d   1      -4.312   4.012  -5.994  0.00  0.00     0.003 A 
ATOM      5  C4  UNL d   1      -3.145   4.773  -5.996  0.00  0.00    -0.005 A 
ATOM      6  C5  UNL d   1      -1.904   4.141  -5.997  0.00  0.00     0.003 A 
ATOM      7  C6  UNL d   1      -1.830   2.747  -5.995  0.00  0.00    -0.001 A 
ENDROOT
TORSDOF 0
ENDMDL
