MODEL 1
REMARK minimizedAffinity -0.170152575
REMARK minimizedRMSD -1
REMARK  0 active torsions:
REMARK  status: ('A' for Active; 'I' for Inactive)
ROOT
ATOM      1  C   UNL d   1      -1.872   2.504  -5.994  0.00  0.00     0.078 C 
ATOM      2  C1  UNL d   1      -3.272   3.041  -5.984  0.00  0.00    -0.077 A 
ATOM      3  C2  UNL d   1      -4.375   2.178  -6.000  0.00  0.00    -0.001 A 
ATOM      4  C3  UNL d   1      -5.673   2.692  -6.000  0.00  0.00     0.003 A 
ATOM      5  C4  UNL d   1      -5.880   4.070  -5.985  0.00  0.00    -0.005 A 
ATOM      6  C5  UNL d   1      -4.788   4.936  -5.972  0.00  0.00     0.003 A 
ATOM      7  C6  UNL d   1      -3.490   4.424  -5.972  0.00  0.00    -0.001 A 
ENDROOT
TORSDOF 0
ENDMDL
