MODEL 1
REMARK minimizedAffinity -1.46596062
REMARK minimizedRMSD -1
REMARK  0 active torsions:
REMARK  status: ('A' for Active; 'I' for Inactive)
ROOT
ATOM      1  C   UNL d   1      -2.387   2.526  -5.787  0.00  0.00     0.078 C 
ATOM      2  C1  UNL d   1      -3.580   3.432  -5.863  0.00  0.00    -0.077 A 
ATOM      3  C2  UNL d   1      -3.427   4.823  -5.909  0.00  0.00    -0.001 A 
ATOM      4  C3  UNL d   1      -4.547   5.654  -5.970  0.00  0.00     0.003 A 
ATOM      5  C4  UNL d   1      -5.827   5.104  -5.984  0.00  0.00    -0.005 A 
ATOM      6  C5  UNL d   1      -5.989   3.721  -5.936  0.00  0.00     0.003 A 
ATOM      7  C6  UNL d   1      -4.870   2.888  -5.875  0.00  0.00    -0.001 A 
ENDROOT
TORSDOF 0
ENDMDL
