MODEL 1
REMARK minimizedAffinity -2.57283258
REMARK minimizedRMSD -1
REMARK  0 active torsions:
REMARK  status: ('A' for Active; 'I' for Inactive)
ROOT
ATOM      1  C   UNL d   1      -4.947   1.065  -6.000  0.00  0.00     0.078 C 
ATOM      2  C1  UNL d   1      -4.840   2.561  -5.971  0.00  0.00    -0.077 A 
ATOM      3  C2  UNL d   1      -3.592   3.195  -6.000  0.00  0.00    -0.001 A 
ATOM      4  C3  UNL d   1      -3.508   4.588  -5.962  0.00  0.00     0.003 A 
ATOM      5  C4  UNL d   1      -4.667   5.358  -5.894  0.00  0.00    -0.005 A 
ATOM      6  C5  UNL d   1      -5.913   4.735  -5.863  0.00  0.00     0.003 A 
ATOM      7  C6  UNL d   1      -6.000   3.343  -5.900  0.00  0.00    -0.001 A 
ENDROOT
TORSDOF 0
ENDMDL
