MODEL 1
REMARK minimizedAffinity 0.540436924
REMARK minimizedRMSD -1
REMARK  0 active torsions:
REMARK  status: ('A' for Active; 'I' for Inactive)
ROOT
ATOM      1  C   UNL d   1      -4.853   5.491  -5.965  0.00  0.00     0.078 C 
ATOM      2  C1  UNL d   1      -4.751   3.995  -5.968  0.00  0.00    -0.077 A 
ATOM      3  C2  UNL d   1      -3.504   3.357  -5.987  0.00  0.00    -0.001 A 
ATOM      4  C3  UNL d   1      -3.424   1.964  -6.000  0.00  0.00     0.003 A 
ATOM      5  C4  UNL d   1      -4.587   1.196  -5.995  0.00  0.00    -0.005 A 
ATOM      6  C5  UNL d   1      -5.832   1.822  -5.978  0.00  0.00     0.003 A 
ATOM      7  C6  UNL d   1      -5.914   3.215  -5.965  0.00  0.00    -0.001 A 
ENDROOT
TORSDOF 0
ENDMDL
