MODEL 1
REMARK minimizedAffinity 3.29815054
REMARK minimizedRMSD -1
REMARK  0 active torsions:
REMARK  status: ('A' for Active; 'I' for Inactive)
ROOT
ATOM      1  C   UNL d   1      -1.823   1.322  -5.950  0.00  0.00     0.078 C 
ATOM      2  C1  UNL d   1      -3.011   2.238  -5.941  0.00  0.00    -0.077 A 
ATOM      3  C2  UNL d   1      -4.314   1.729  -5.998  0.00  0.00    -0.001 A 
ATOM      4  C3  UNL d   1      -5.410   2.594  -5.998  0.00  0.00     0.003 A 
ATOM      5  C4  UNL d   1      -5.213   3.972  -5.944  0.00  0.00    -0.005 A 
ATOM      6  C5  UNL d   1      -3.920   4.488  -5.890  0.00  0.00     0.003 A 
ATOM      7  C6  UNL d   1      -2.823   3.625  -5.889  0.00  0.00    -0.001 A 
ENDROOT
TORSDOF 0
ENDMDL
