MODEL 1
REMARK minimizedAffinity -0.852607727
REMARK minimizedRMSD -1
REMARK  0 active torsions:
REMARK  status: ('A' for Active; 'I' for Inactive)
ROOT
ATOM      1  C   UNL d   1      -3.011   4.585  -5.986  0.00  0.00     0.078 C 
ATOM      2  C1  UNL d   1      -3.576   3.196  -5.997  0.00  0.00    -0.077 A 
ATOM      3  C2  UNL d   1      -4.960   2.980  -5.995  0.00  0.00    -0.001 A 
ATOM      4  C3  UNL d   1      -5.471   1.681  -5.995  0.00  0.00     0.003 A 
ATOM      5  C4  UNL d   1      -4.607   0.589  -5.997  0.00  0.00    -0.005 A 
ATOM      6  C5  UNL d   1      -3.229   0.794  -5.997  0.00  0.00     0.003 A 
ATOM      7  C6  UNL d   1      -2.715   2.091  -5.996  0.00  0.00    -0.001 A 
ENDROOT
TORSDOF 0
ENDMDL
