MODEL 1
REMARK minimizedAffinity -3.14229226
REMARK minimizedRMSD -1
REMARK  0 active torsions:
REMARK  status: ('A' for Active; 'I' for Inactive)
ROOT
ATOM      1  C   UNL d   1      -4.603   0.121  -5.983  0.00  0.00     0.078 C 
ATOM      2  C1  UNL d   1      -4.365  -1.359  -5.982  0.00  0.00    -0.077 A 
ATOM      3  C2  UNL d   1      -3.065  -1.880  -5.984  0.00  0.00    -0.001 A 
ATOM      4  C3  UNL d   1      -2.858  -3.260  -5.993  0.00  0.00     0.003 A 
ATOM      5  C4  UNL d   1      -3.945  -4.131  -6.000  0.00  0.00    -0.005 A 
ATOM      6  C5  UNL d   1      -5.242  -3.622  -6.000  0.00  0.00     0.003 A 
ATOM      7  C6  UNL d   1      -5.452  -2.242  -5.991  0.00  0.00    -0.001 A 
ENDROOT
TORSDOF 0
ENDMDL
