MODEL 1
REMARK minimizedAffinity -3.50255919
REMARK minimizedRMSD -1
REMARK  0 active torsions:
REMARK  status: ('A' for Active; 'I' for Inactive)
ROOT
ATOM      1  C   UNL d   1      -5.072   4.377  -5.909  0.00  0.00     0.078 C 
ATOM      2  C1  UNL d   1      -4.511   2.986  -5.933  0.00  0.00    -0.077 A 
ATOM      3  C2  UNL d   1      -3.129   2.766  -5.936  0.00  0.00    -0.001 A 
ATOM      4  C3  UNL d   1      -2.621   1.466  -5.968  0.00  0.00     0.003 A 
ATOM      5  C4  UNL d   1      -3.488   0.377  -6.000  0.00  0.00    -0.005 A 
ATOM      6  C5  UNL d   1      -4.866   0.586  -6.000  0.00  0.00     0.003 A 
ATOM      7  C6  UNL d   1      -5.376   1.885  -5.967  0.00  0.00    -0.001 A 
ENDROOT
TORSDOF 0
ENDMDL
