MODEL 1
REMARK minimizedAffinity -2.10073066
REMARK minimizedRMSD -1
REMARK  0 active torsions:
REMARK  status: ('A' for Active; 'I' for Inactive)
ROOT
ATOM      1  C   UNL d   1      -1.596   4.502  -5.818  0.00  0.00     0.078 C 
ATOM      2  C1  UNL d   1      -3.094   4.565  -5.829  0.00  0.00    -0.077 A 
ATOM      3  C2  UNL d   1      -3.766   5.781  -5.658  0.00  0.00    -0.001 A 
ATOM      4  C3  UNL d   1      -5.161   5.823  -5.660  0.00  0.00     0.003 A 
ATOM      5  C4  UNL d   1      -5.896   4.651  -5.831  0.00  0.00    -0.005 A 
ATOM      6  C5  UNL d   1      -5.236   3.436  -5.999  0.00  0.00     0.003 A 
ATOM      7  C6  UNL d   1      -3.841   3.392  -5.998  0.00  0.00    -0.001 A 
ENDROOT
TORSDOF 0
ENDMDL
