MODEL 1
REMARK minimizedAffinity 1.75977445
REMARK minimizedRMSD -1
REMARK  0 active torsions:
REMARK  status: ('A' for Active; 'I' for Inactive)
ROOT
ATOM      1  C   UNL d   1       0.532   1.697   1.205  0.00  0.00     0.078 C 
ATOM      2  C1  UNL d   1       0.564   0.525   0.270  0.00  0.00    -0.077 A 
ATOM      3  C2  UNL d   1       1.472   0.477  -0.794  0.00  0.00    -0.001 A 
ATOM      4  C3  UNL d   1       1.485  -0.616  -1.662  0.00  0.00     0.003 A 
ATOM      5  C4  UNL d   1       0.590  -1.668  -1.476  0.00  0.00    -0.005 A 
ATOM      6  C5  UNL d   1      -0.318  -1.628  -0.420  0.00  0.00     0.003 A 
ATOM      7  C6  UNL d   1      -0.332  -0.536   0.449  0.00  0.00    -0.001 A 
ENDROOT
TORSDOF 0
ENDMDL
