MODEL 1
REMARK minimizedAffinity -2.61670303
REMARK minimizedRMSD -1
REMARK  0 active torsions:
REMARK  status: ('A' for Active; 'I' for Inactive)
ROOT
ATOM      1  C   UNL d   1      -1.121   4.256  -5.930  0.00  0.00     0.078 C 
ATOM      2  C1  UNL d   1      -2.606   4.051  -5.961  0.00  0.00    -0.077 A 
ATOM      3  C2  UNL d   1      -3.484   5.141  -5.981  0.00  0.00    -0.001 A 
ATOM      4  C3  UNL d   1      -4.864   4.936  -6.000  0.00  0.00     0.003 A 
ATOM      5  C4  UNL d   1      -5.379   3.641  -5.998  0.00  0.00    -0.005 A 
ATOM      6  C5  UNL d   1      -4.513   2.549  -5.976  0.00  0.00     0.003 A 
ATOM      7  C6  UNL d   1      -3.132   2.753  -5.957  0.00  0.00    -0.001 A 
ENDROOT
TORSDOF 0
ENDMDL
