MODEL 1
REMARK minimizedAffinity -0.787968636
REMARK minimizedRMSD -1
REMARK  0 active torsions:
REMARK  status: ('A' for Active; 'I' for Inactive)
ROOT
ATOM      1  C   UNL d   1      -2.889   0.682  -5.993  0.00  0.00     0.078 C 
ATOM      2  C1  UNL d   1      -3.019   2.176  -5.999  0.00  0.00    -0.077 A 
ATOM      3  C2  UNL d   1      -1.886   2.998  -5.997  0.00  0.00    -0.001 A 
ATOM      4  C3  UNL d   1      -2.022   4.387  -5.992  0.00  0.00     0.003 A 
ATOM      5  C4  UNL d   1      -3.289   4.966  -5.988  0.00  0.00    -0.005 A 
ATOM      6  C5  UNL d   1      -4.423   4.156  -5.988  0.00  0.00     0.003 A 
ATOM      7  C6  UNL d   1      -4.289   2.767  -5.992  0.00  0.00    -0.001 A 
ENDROOT
TORSDOF 0
ENDMDL
