MODEL 1
REMARK minimizedAffinity -0.464238435
REMARK minimizedRMSD -1
REMARK  0 active torsions:
REMARK  status: ('A' for Active; 'I' for Inactive)
ROOT
ATOM      1  C   UNL d   1       1.126   1.892   1.234  0.00  0.00     0.078 C 
ATOM      2  C1  UNL d   1       1.068   1.045  -0.001  0.00  0.00    -0.077 A 
ATOM      3  C2  UNL d   1      -0.116   0.400  -0.378  0.00  0.00    -0.001 A 
ATOM      4  C3  UNL d   1      -0.153  -0.394  -1.526  0.00  0.00     0.003 A 
ATOM      5  C4  UNL d   1       0.991  -0.551  -2.305  0.00  0.00    -0.005 A 
ATOM      6  C5  UNL d   1       2.175   0.085  -1.937  0.00  0.00     0.003 A 
ATOM      7  C6  UNL d   1       2.214   0.879  -0.790  0.00  0.00    -0.001 A 
ENDROOT
TORSDOF 0
ENDMDL
