MODEL 1
REMARK minimizedAffinity -5.30597258
REMARK minimizedRMSD -1
REMARK  0 active torsions:
REMARK  status: ('A' for Active; 'I' for Inactive)
ROOT
ATOM      1  C   UNL d   1       0.749  -0.990   0.164  0.00  0.00     0.077 C 
ATOM      2  C1  UNL d   1      -0.261  -0.190  -0.604  0.00  0.00    -0.074 A 
ATOM      3  C2  UNL d   1      -0.598   1.109  -0.211  0.00  0.00    -0.005 A 
ATOM      4  C3  UNL d   1      -1.531   1.845  -0.941  0.00  0.00     0.006 A 
ATOM      5  C4  UNL d   1      -2.136   1.289  -2.070  0.00  0.00    -0.005 A 
ATOM      6  C5  UNL d   1      -1.811  -0.008  -2.478  0.00  0.00    -0.074 A 
ATOM      7  C6  UNL d   1      -2.445  -0.616  -3.694  0.00  0.00     0.077 C 
ATOM      8  C7  UNL d   1      -0.867  -0.738  -1.743  0.00  0.00    -0.001 A 
ENDROOT
TORSDOF 0
ENDMDL
