MODEL 1
REMARK minimizedAffinity -5.18024969
REMARK minimizedRMSD -1
REMARK  0 active torsions:
REMARK  status: ('A' for Active; 'I' for Inactive)
ROOT
ATOM      1  C   UNL d   1      -1.962   0.900   1.545  0.00  0.00     0.077 C 
ATOM      2  C1  UNL d   1      -0.945   0.207   0.688  0.00  0.00    -0.074 A 
ATOM      3  C2  UNL d   1      -0.315   0.879  -0.365  0.00  0.00    -0.005 A 
ATOM      4  C3  UNL d   1       0.636   0.224  -1.148  0.00  0.00     0.006 A 
ATOM      5  C4  UNL d   1       0.966  -1.106  -0.887  0.00  0.00    -0.005 A 
ATOM      6  C5  UNL d   1       0.348  -1.793   0.163  0.00  0.00    -0.074 A 
ATOM      7  C6  UNL d   1       0.699  -3.220   0.464  0.00  0.00     0.077 C 
ATOM      8  C7  UNL d   1      -0.602  -1.127   0.949  0.00  0.00    -0.001 A 
ENDROOT
TORSDOF 0
ENDMDL
