MODEL 1
REMARK minimizedAffinity -3.10895824
REMARK minimizedRMSD -1
REMARK  0 active torsions:
REMARK  status: ('A' for Active; 'I' for Inactive)
ROOT
ATOM      1  C   UNL d   1       3.894  -0.585   1.658  0.00  0.00     0.077 C 
ATOM      2  C1  UNL d   1       2.570  -0.924   1.040  0.00  0.00    -0.074 A 
ATOM      3  C2  UNL d   1       1.843  -2.040   1.465  0.00  0.00    -0.005 A 
ATOM      4  C3  UNL d   1       0.608  -2.336   0.888  0.00  0.00     0.006 A 
ATOM      5  C4  UNL d   1       0.090  -1.522  -0.120  0.00  0.00    -0.005 A 
ATOM      6  C5  UNL d   1       0.803  -0.401  -0.558  0.00  0.00    -0.074 A 
ATOM      7  C6  UNL d   1       0.255   0.490  -1.632  0.00  0.00     0.077 C 
ATOM      8  C7  UNL d   1       2.039  -0.105   0.033  0.00  0.00    -0.001 A 
ENDROOT
TORSDOF 0
ENDMDL
