MODEL 1
REMARK minimizedAffinity -2.16860986
REMARK minimizedRMSD -1
REMARK  0 active torsions:
REMARK  status: ('A' for Active; 'I' for Inactive)
ROOT
ATOM      1  C   UNL d   1      -0.809   1.485  -1.378  0.00  0.00     0.077 C 
ATOM      2  C1  UNL d   1      -0.197   0.601  -0.332  0.00  0.00    -0.074 A 
ATOM      3  C2  UNL d   1       1.190   0.454  -0.238  0.00  0.00    -0.005 A 
ATOM      4  C3  UNL d   1       1.745  -0.364   0.746  0.00  0.00     0.006 A 
ATOM      5  C4  UNL d   1       0.920  -1.042   1.644  0.00  0.00    -0.005 A 
ATOM      6  C5  UNL d   1      -0.470  -0.906   1.566  0.00  0.00    -0.074 A 
ATOM      7  C6  UNL d   1      -1.371  -1.620   2.529  0.00  0.00     0.077 C 
ATOM      8  C7  UNL d   1      -1.020  -0.077   0.579  0.00  0.00    -0.001 A 
ENDROOT
TORSDOF 0
ENDMDL
