MODEL 1
REMARK minimizedAffinity -1.95761919
REMARK minimizedRMSD -1
REMARK  0 active torsions:
REMARK  status: ('A' for Active; 'I' for Inactive)
ROOT
ATOM      1  C   UNL d   1      -2.047  -0.074   1.901  0.00  0.00     0.077 C 
ATOM      2  C1  UNL d   1      -0.917  -0.569   1.048  0.00  0.00    -0.074 A 
ATOM      3  C2  UNL d   1      -0.760  -0.121  -0.268  0.00  0.00    -0.005 A 
ATOM      4  C3  UNL d   1       0.301  -0.584  -1.046  0.00  0.00     0.006 A 
ATOM      5  C4  UNL d   1       1.214  -1.498  -0.518  0.00  0.00    -0.005 A 
ATOM      6  C5  UNL d   1       1.073  -1.956   0.796  0.00  0.00    -0.074 A 
ATOM      7  C6  UNL d   1       2.051  -2.930   1.382  0.00  0.00     0.077 C 
ATOM      8  C7  UNL d   1       0.009  -1.481   1.574  0.00  0.00    -0.001 A 
ENDROOT
TORSDOF 0
ENDMDL
