MODEL 1
REMARK minimizedAffinity -5.25761461
REMARK minimizedRMSD -1
REMARK  0 active torsions:
REMARK  status: ('A' for Active; 'I' for Inactive)
ROOT
ATOM      1  C   UNL d   1      -1.064   1.065  -0.775  0.00  0.00     0.077 C 
ATOM      2  C1  UNL d   1       0.154   0.290  -0.368  0.00  0.00    -0.074 A 
ATOM      3  C2  UNL d   1       1.430   0.855  -0.461  0.00  0.00    -0.005 A 
ATOM      4  C3  UNL d   1       2.552   0.125  -0.069  0.00  0.00     0.006 A 
ATOM      5  C4  UNL d   1       2.411  -1.174   0.419  0.00  0.00    -0.005 A 
ATOM      6  C5  UNL d   1       1.143  -1.756   0.520  0.00  0.00    -0.074 A 
ATOM      7  C6  UNL d   1       0.972  -3.148   1.052  0.00  0.00     0.077 C 
ATOM      8  C7  UNL d   1       0.019  -1.014   0.131  0.00  0.00    -0.001 A 
ENDROOT
TORSDOF 0
ENDMDL
