MODEL 1
REMARK minimizedAffinity -4.06166315
REMARK minimizedRMSD -1
REMARK  0 active torsions:
REMARK  status: ('A' for Active; 'I' for Inactive)
ROOT
ATOM      1  C   UNL d   1       1.438  -3.039   1.009  0.00  0.00     0.077 C 
ATOM      2  C1  UNL d   1       1.407  -1.611   0.549  0.00  0.00    -0.074 A 
ATOM      3  C2  UNL d   1       2.578  -0.849   0.493  0.00  0.00    -0.005 A 
ATOM      4  C3  UNL d   1       2.535   0.475   0.055  0.00  0.00     0.006 A 
ATOM      5  C4  UNL d   1       1.323   1.048  -0.331  0.00  0.00    -0.005 A 
ATOM      6  C5  UNL d   1       0.142   0.301  -0.283  0.00  0.00    -0.074 A 
ATOM      7  C6  UNL d   1      -1.168   0.899  -0.703  0.00  0.00     0.077 C 
ATOM      8  C7  UNL d   1       0.194  -1.030   0.152  0.00  0.00    -0.001 A 
ENDROOT
TORSDOF 0
ENDMDL
