MODEL 1
REMARK minimizedAffinity -5.15298891
REMARK minimizedRMSD -1
REMARK  0 active torsions:
REMARK  status: ('A' for Active; 'I' for Inactive)
ROOT
ATOM      1  C   UNL d   1      -0.807   0.650  -1.053  0.00  0.00     0.077 C 
ATOM      2  C1  UNL d   1       0.063  -0.453  -0.527  0.00  0.00    -0.074 A 
ATOM      3  C2  UNL d   1      -0.280  -1.795  -0.724  0.00  0.00    -0.005 A 
ATOM      4  C3  UNL d   1       0.545  -2.809  -0.238  0.00  0.00     0.006 A 
ATOM      5  C4  UNL d   1       1.717  -2.493   0.450  0.00  0.00    -0.005 A 
ATOM      6  C5  UNL d   1       2.076  -1.158   0.656  0.00  0.00    -0.074 A 
ATOM      7  C6  UNL d   1       3.338  -0.801   1.384  0.00  0.00     0.077 C 
ATOM      8  C7  UNL d   1       1.246  -0.144   0.158  0.00  0.00    -0.001 A 
ENDROOT
TORSDOF 0
ENDMDL
