MODEL 1
REMARK minimizedAffinity -4.2024579
REMARK minimizedRMSD -1
REMARK  0 active torsions:
REMARK  status: ('A' for Active; 'I' for Inactive)
ROOT
ATOM      1  C   UNL d   1       1.389  -3.234   1.680  0.00  0.00     0.077 C 
ATOM      2  C1  UNL d   1       1.540  -1.926   0.962  0.00  0.00    -0.074 A 
ATOM      3  C2  UNL d   1       2.779  -1.282   0.895  0.00  0.00    -0.005 A 
ATOM      4  C3  UNL d   1       2.906  -0.070   0.216  0.00  0.00     0.006 A 
ATOM      5  C4  UNL d   1       1.797   0.508  -0.404  0.00  0.00    -0.005 A 
ATOM      6  C5  UNL d   1       0.550  -0.123  -0.349  0.00  0.00    -0.074 A 
ATOM      7  C6  UNL d   1      -0.650   0.480  -1.017  0.00  0.00     0.077 C 
ATOM      8  C7  UNL d   1       0.432  -1.343   0.330  0.00  0.00    -0.001 A 
ENDROOT
TORSDOF 0
ENDMDL
