MODEL 1
REMARK minimizedAffinity -6.23276854
REMARK minimizedRMSD -1
REMARK  0 active torsions:
REMARK  status: ('A' for Active; 'I' for Inactive)
ROOT
ATOM      1  C   UNL d   1       3.277   0.753  -1.156  0.00  0.00     0.077 C 
ATOM      2  C1  UNL d   1       2.177   0.094  -0.380  0.00  0.00    -0.074 A 
ATOM      3  C2  UNL d   1       0.922   0.700  -0.255  0.00  0.00    -0.005 A 
ATOM      4  C3  UNL d   1      -0.095   0.070   0.463  0.00  0.00     0.006 A 
ATOM      5  C4  UNL d   1       0.132  -1.170   1.061  0.00  0.00    -0.005 A 
ATOM      6  C5  UNL d   1       1.379  -1.792   0.946  0.00  0.00    -0.074 A 
ATOM      7  C6  UNL d   1       1.636  -3.129   1.575  0.00  0.00     0.077 C 
ATOM      8  C7  UNL d   1       2.394  -1.156   0.218  0.00  0.00    -0.001 A 
ENDROOT
TORSDOF 0
ENDMDL
