MODEL 1
REMARK minimizedAffinity 0.702380836
REMARK minimizedRMSD -1
REMARK  0 active torsions:
REMARK  status: ('A' for Active; 'I' for Inactive)
ROOT
ATOM      1  C   UNL d   1       2.223  -2.074   2.175  0.00  0.00     0.077 C 
ATOM      2  C1  UNL d   1       1.113  -1.223   1.633  0.00  0.00    -0.074 A 
ATOM      3  C2  UNL d   1       0.136  -0.690   2.480  0.00  0.00    -0.005 A 
ATOM      4  C3  UNL d   1      -0.885   0.107   1.963  0.00  0.00     0.006 A 
ATOM      5  C4  UNL d   1      -0.940   0.378   0.595  0.00  0.00    -0.005 A 
ATOM      6  C5  UNL d   1       0.028  -0.145  -0.268  0.00  0.00    -0.074 A 
ATOM      7  C6  UNL d   1      -0.010   0.145  -1.738  0.00  0.00     0.077 C 
ATOM      8  C7  UNL d   1       1.055  -0.939   0.261  0.00  0.00    -0.001 A 
ENDROOT
TORSDOF 0
ENDMDL
