MODEL 1
REMARK minimizedAffinity -1.79401052
REMARK minimizedRMSD -1
REMARK  0 active torsions:
REMARK  status: ('A' for Active; 'I' for Inactive)
ROOT
ATOM      1  C   UNL d   1       3.342   0.007   0.269  0.00  0.00     0.077 C 
ATOM      2  C1  UNL d   1       1.915  -0.341  -0.035  0.00  0.00    -0.074 A 
ATOM      3  C2  UNL d   1       1.497  -1.674  -0.097  0.00  0.00    -0.005 A 
ATOM      4  C3  UNL d   1       0.165  -1.982  -0.371  0.00  0.00     0.006 A 
ATOM      5  C4  UNL d   1      -0.762  -0.962  -0.585  0.00  0.00    -0.005 A 
ATOM      6  C5  UNL d   1      -0.364   0.378  -0.527  0.00  0.00    -0.074 A 
ATOM      7  C6  UNL d   1      -1.349   1.487  -0.745  0.00  0.00     0.077 C 
ATOM      8  C7  UNL d   1       0.976   0.679  -0.244  0.00  0.00    -0.001 A 
ENDROOT
TORSDOF 0
ENDMDL
