MODEL 1
REMARK minimizedAffinity -2.43891597
REMARK minimizedRMSD -1
REMARK  0 active torsions:
REMARK  status: ('A' for Active; 'I' for Inactive)
ROOT
ATOM      1  C   UNL d   1      -0.624   1.124  -1.146  0.00  0.00     0.077 C 
ATOM      2  C1  UNL d   1       0.436   0.312  -0.462  0.00  0.00    -0.074 A 
ATOM      3  C2  UNL d   1       1.746   0.283  -0.951  0.00  0.00    -0.005 A 
ATOM      4  C3  UNL d   1       2.724  -0.469  -0.299  0.00  0.00     0.006 A 
ATOM      5  C4  UNL d   1       2.401  -1.199   0.846  0.00  0.00    -0.005 A 
ATOM      6  C5  UNL d   1       1.097  -1.182   1.349  0.00  0.00    -0.074 A 
ATOM      7  C6  UNL d   1       0.735  -1.953   2.584  0.00  0.00     0.077 C 
ATOM      8  C7  UNL d   1       0.122  -0.418   0.693  0.00  0.00    -0.001 A 
ENDROOT
TORSDOF 0
ENDMDL
