MODEL 1
REMARK minimizedAffinity -2.41321039
REMARK minimizedRMSD -1
REMARK  0 active torsions:
REMARK  status: ('A' for Active; 'I' for Inactive)
ROOT
ATOM      1  C   UNL d   1       0.885  -1.484  -1.203  0.00  0.00     0.077 C 
ATOM      2  C1  UNL d   1      -0.022  -0.290  -1.165  0.00  0.00    -0.074 A 
ATOM      3  C2  UNL d   1      -0.204   0.437   0.016  0.00  0.00    -0.005 A 
ATOM      4  C3  UNL d   1      -1.043   1.552   0.033  0.00  0.00     0.006 A 
ATOM      5  C4  UNL d   1      -1.706   1.950  -1.128  0.00  0.00    -0.005 A 
ATOM      6  C5  UNL d   1      -1.535   1.236  -2.319  0.00  0.00    -0.074 A 
ATOM      7  C6  UNL d   1      -2.233   1.656  -3.578  0.00  0.00     0.077 C 
ATOM      8  C7  UNL d   1      -0.685   0.121  -2.330  0.00  0.00    -0.001 A 
ENDROOT
TORSDOF 0
ENDMDL
