MODEL 1
REMARK minimizedAffinity -1.92097855
REMARK minimizedRMSD -1
REMARK  0 active torsions:
REMARK  status: ('A' for Active; 'I' for Inactive)
ROOT
ATOM      1  C   UNL d   1       1.693  -2.975   1.488  0.00  0.00     0.077 C 
ATOM      2  C1  UNL d   1       1.745  -1.649   0.789  0.00  0.00    -0.074 A 
ATOM      3  C2  UNL d   1       2.958  -0.976   0.613  0.00  0.00    -0.005 A 
ATOM      4  C3  UNL d   1       2.992   0.252  -0.048  0.00  0.00     0.006 A 
ATOM      5  C4  UNL d   1       1.815   0.818  -0.539  0.00  0.00    -0.005 A 
ATOM      6  C5  UNL d   1       0.592   0.159  -0.373  0.00  0.00    -0.074 A 
ATOM      7  C6  UNL d   1      -0.681   0.749  -0.903  0.00  0.00     0.077 C 
ATOM      8  C7  UNL d   1       0.568  -1.078   0.286  0.00  0.00    -0.001 A 
ENDROOT
TORSDOF 0
ENDMDL
