MODEL 1
REMARK minimizedAffinity 12.8434267
REMARK minimizedRMSD -1
REMARK  0 active torsions:
REMARK  status: ('A' for Active; 'I' for Inactive)
ROOT
ATOM      1  C1  DEN d   1      -2.987  -1.468  -1.924  0.00  0.00     0.130 A 
ATOM      2  C2  DEN d   1      -2.085  -2.139  -2.856  0.00  0.00    -0.031 A 
ATOM      3  C3  DEN d   1      -0.867  -2.524  -2.116  0.00  0.00     0.027 A 
ATOM      4  C4  DEN d   1      -0.295  -2.153   0.371  0.00  0.00     0.027 A 
ATOM      5  C5  DEN d   1      -0.743  -1.618   1.559  0.00  0.00    -0.003 A 
ATOM      6  C6  DEN d   1      -1.946  -0.970   1.660  0.00  0.00     0.001 A 
ATOM      7  C7  DEN d   1      -2.763  -0.881   0.564  0.00  0.00     0.017 A 
ATOM      8  C8  DEN d   1      -2.314  -1.412  -0.639  0.00  0.00    -0.094 A 
ATOM      9  C9  DEN d   1      -1.100  -2.073  -0.717  0.00  0.00    -0.072 A 
ENDROOT
TORSDOF 0
ENDMDL
