MODEL 1
REMARK minimizedAffinity 10.8732443
REMARK minimizedRMSD -1
REMARK  0 active torsions:
REMARK  status: ('A' for Active; 'I' for Inactive)
ROOT
ATOM      1  C1  DEN d   1       4.939   1.044  -2.890  0.00  0.00     0.130 A 
ATOM      2  C2  DEN d   1       4.737   1.828  -1.675  0.00  0.00    -0.031 A 
ATOM      3  C3  DEN d   1       3.707   2.848  -1.955  0.00  0.00     0.027 A 
ATOM      4  C4  DEN d   1       2.408   3.284  -4.141  0.00  0.00     0.027 A 
ATOM      5  C5  DEN d   1       2.244   2.882  -5.448  0.00  0.00    -0.003 A 
ATOM      6  C6  DEN d   1       2.985   1.871  -6.000  0.00  0.00     0.001 A 
ATOM      7  C7  DEN d   1       3.893   1.196  -5.228  0.00  0.00     0.017 A 
ATOM      8  C8  DEN d   1       4.069   1.599  -3.911  0.00  0.00    -0.094 A 
ATOM      9  C9  DEN d   1       3.302   2.616  -3.368  0.00  0.00    -0.072 A 
ENDROOT
TORSDOF 0
ENDMDL
