MODEL 1
REMARK minimizedAffinity 18.6508846
REMARK minimizedRMSD -1
REMARK  0 active torsions:
REMARK  status: ('A' for Active; 'I' for Inactive)
ROOT
ATOM      1  C1  DEN d   1      -1.552  -1.436  -2.329  0.00  0.00     0.130 A 
ATOM      2  C2  DEN d   1      -2.580  -2.051  -1.494  0.00  0.00    -0.031 A 
ATOM      3  C3  DEN d   1      -3.381  -2.953  -2.346  0.00  0.00     0.027 A 
ATOM      4  C4  DEN d   1      -3.130  -3.456  -4.863  0.00  0.00     0.027 A 
ATOM      5  C5  DEN d   1      -2.409  -3.163  -6.000  0.00  0.00    -0.003 A 
ATOM      6  C6  DEN d   1      -1.382  -2.256  -6.000  0.00  0.00     0.001 A 
ATOM      7  C7  DEN d   1      -1.018  -1.643  -4.830  0.00  0.00     0.017 A 
ATOM      8  C8  DEN d   1      -1.745  -1.927  -3.682  0.00  0.00    -0.094 A 
ATOM      9  C9  DEN d   1      -2.772  -2.856  -3.699  0.00  0.00    -0.072 A 
ENDROOT
TORSDOF 0
ENDMDL
