MODEL 1
REMARK minimizedAffinity 4.56748962
REMARK minimizedRMSD -1
REMARK  0 active torsions:
REMARK  status: ('A' for Active; 'I' for Inactive)
ROOT
ATOM      1  C1  DEN d   1      -1.402  -0.924  -2.304  0.00  0.00     0.130 A 
ATOM      2  C2  DEN d   1      -1.865  -1.379  -0.995  0.00  0.00    -0.031 A 
ATOM      3  C3  DEN d   1      -2.661  -2.606  -1.194  0.00  0.00     0.027 A 
ATOM      4  C4  DEN d   1      -3.215  -3.844  -3.388  0.00  0.00     0.027 A 
ATOM      5  C5  DEN d   1      -3.052  -3.831  -4.756  0.00  0.00    -0.003 A 
ATOM      6  C6  DEN d   1      -2.363  -2.839  -5.400  0.00  0.00     0.001 A 
ATOM      7  C7  DEN d   1      -1.771  -1.840  -4.672  0.00  0.00     0.017 A 
ATOM      8  C8  DEN d   1      -1.937  -1.843  -3.293  0.00  0.00    -0.094 A 
ATOM      9  C9  DEN d   1      -2.627  -2.862  -2.659  0.00  0.00    -0.072 A 
ENDROOT
TORSDOF 0
ENDMDL
