MODEL 1
REMARK minimizedAffinity 7.23571444
REMARK minimizedRMSD -1
REMARK  0 active torsions:
REMARK  status: ('A' for Active; 'I' for Inactive)
ROOT
ATOM      1  C1  DEN d   1       0.120   0.142   2.996  0.00  0.00     0.130 A 
ATOM      2  C2  DEN d   1       0.029  -0.164   4.422  0.00  0.00    -0.031 A 
ATOM      3  C3  DEN d   1       1.358  -0.621   4.875  0.00  0.00     0.027 A 
ATOM      4  C4  DEN d   1       3.536  -0.880   3.518  0.00  0.00     0.027 A 
ATOM      5  C5  DEN d   1       4.102  -0.752   2.268  0.00  0.00    -0.003 A 
ATOM      6  C6  DEN d   1       3.378  -0.354   1.176  0.00  0.00     0.001 A 
ATOM      7  C7  DEN d   1       2.056  -0.025   1.321  0.00  0.00     0.017 A 
ATOM      8  C8  DEN d   1       1.476  -0.158   2.576  0.00  0.00    -0.094 A 
ATOM      9  C9  DEN d   1       2.228  -0.551   3.671  0.00  0.00    -0.072 A 
ENDROOT
TORSDOF 0
ENDMDL
