MODEL 1
REMARK minimizedAffinity 7.79639196
REMARK minimizedRMSD -1
REMARK  0 active torsions:
REMARK  status: ('A' for Active; 'I' for Inactive)
ROOT
ATOM      1  C1  DEN d   1       0.754   3.601  -3.249  0.00  0.00     0.130 A 
ATOM      2  C2  DEN d   1       0.243   4.816  -2.622  0.00  0.00    -0.031 A 
ATOM      3  C3  DEN d   1       0.902   5.972  -3.261  0.00  0.00     0.027 A 
ATOM      4  C4  DEN d   1       2.652   5.999  -5.156  0.00  0.00     0.027 A 
ATOM      5  C5  DEN d   1       3.404   5.212  -6.000  0.00  0.00    -0.003 A 
ATOM      6  C6  DEN d   1       3.352   3.844  -5.963  0.00  0.00     0.001 A 
ATOM      7  C7  DEN d   1       2.496   3.221  -5.095  0.00  0.00     0.017 A 
ATOM      8  C8  DEN d   1       1.739   4.007  -4.235  0.00  0.00    -0.094 A 
ATOM      9  C9  DEN d   1       1.798   5.389  -4.296  0.00  0.00    -0.072 A 
ENDROOT
TORSDOF 0
ENDMDL
