MODEL 1
REMARK minimizedAffinity 8.42777252
REMARK minimizedRMSD -1
REMARK  0 active torsions:
REMARK  status: ('A' for Active; 'I' for Inactive)
ROOT
ATOM      1  C1  DEN d   1      -4.486  -3.490  -2.511  0.00  0.00     0.130 A 
ATOM      2  C2  DEN d   1      -5.754  -2.995  -3.040  0.00  0.00    -0.031 A 
ATOM      3  C3  DEN d   1      -5.617  -2.857  -4.503  0.00  0.00     0.027 A 
ATOM      4  C4  DEN d   1      -3.575  -3.364  -5.996  0.00  0.00     0.027 A 
ATOM      5  C5  DEN d   1      -2.266  -3.793  -6.000  0.00  0.00    -0.003 A 
ATOM      6  C6  DEN d   1      -1.600  -4.117  -4.848  0.00  0.00     0.001 A 
ATOM      7  C7  DEN d   1      -2.256  -4.059  -3.646  0.00  0.00     0.017 A 
ATOM      8  C8  DEN d   1      -3.573  -3.620  -3.633  0.00  0.00    -0.094 A 
ATOM      9  C9  DEN d   1      -4.233  -3.309  -4.810  0.00  0.00    -0.072 A 
ENDROOT
TORSDOF 0
ENDMDL
