MODEL 1
REMARK minimizedAffinity 5.96383524
REMARK minimizedRMSD -1
REMARK  0 active torsions:
REMARK  status: ('A' for Active; 'I' for Inactive)
ROOT
ATOM      1  C1  DEN d   1       3.151   5.441  -4.366  0.00  0.00     0.130 A 
ATOM      2  C2  DEN d   1       2.096   6.000  -5.208  0.00  0.00    -0.031 A 
ATOM      3  C3  DEN d   1       1.512   4.898  -5.999  0.00  0.00     0.027 A 
ATOM      4  C4  DEN d   1       2.132   2.394  -5.998  0.00  0.00     0.027 A 
ATOM      5  C5  DEN d   1       2.973   1.446  -5.458  0.00  0.00    -0.003 A 
ATOM      6  C6  DEN d   1       3.946   1.766  -4.549  0.00  0.00     0.001 A 
ATOM      7  C7  DEN d   1       4.074   3.060  -4.119  0.00  0.00     0.017 A 
ATOM      8  C8  DEN d   1       3.235   4.023  -4.664  0.00  0.00    -0.094 A 
ATOM      9  C9  DEN d   1       2.249   3.678  -5.573  0.00  0.00    -0.072 A 
ENDROOT
TORSDOF 0
ENDMDL
