MODEL 1
REMARK minimizedAffinity 9.48577595
REMARK minimizedRMSD -1
REMARK  0 active torsions:
REMARK  status: ('A' for Active; 'I' for Inactive)
ROOT
ATOM      1  C1  DEN d   1      -2.306  -2.613   3.672  0.00  0.00     0.130 A 
ATOM      2  C2  DEN d   1      -2.319  -1.158   3.551  0.00  0.00    -0.031 A 
ATOM      3  C3  DEN d   1      -1.553  -0.794   2.342  0.00  0.00     0.027 A 
ATOM      4  C4  DEN d   1      -0.360  -2.334   0.652  0.00  0.00     0.027 A 
ATOM      5  C5  DEN d   1      -0.062  -3.642   0.342  0.00  0.00    -0.003 A 
ATOM      6  C6  DEN d   1      -0.459  -4.689   1.132  0.00  0.00     0.001 A 
ATOM      7  C7  DEN d   1      -1.216  -4.447   2.248  0.00  0.00     0.017 A 
ATOM      8  C8  DEN d   1      -1.514  -3.130   2.572  0.00  0.00    -0.094 A 
ATOM      9  C9  DEN d   1      -1.114  -2.087   1.754  0.00  0.00    -0.072 A 
ENDROOT
TORSDOF 0
ENDMDL
