MODEL 1
REMARK minimizedAffinity 24.3002033
REMARK minimizedRMSD -1
REMARK  0 active torsions:
REMARK  status: ('A' for Active; 'I' for Inactive)
ROOT
ATOM      1  C1  DEN d   1      -3.118  -2.249  -2.281  0.00  0.00     0.130 A 
ATOM      2  C2  DEN d   1      -1.960  -2.005  -1.426  0.00  0.00    -0.031 A 
ATOM      3  C3  DEN d   1      -0.759  -1.960  -2.285  0.00  0.00     0.027 A 
ATOM      4  C4  DEN d   1      -0.584  -2.238  -4.843  0.00  0.00     0.027 A 
ATOM      5  C5  DEN d   1      -1.296  -2.474  -5.998  0.00  0.00    -0.003 A 
ATOM      6  C6  DEN d   1      -2.650  -2.684  -5.991  0.00  0.00     0.001 A 
ATOM      7  C7  DEN d   1      -3.341  -2.617  -4.810  0.00  0.00     0.017 A 
ATOM      8  C8  DEN d   1      -2.629  -2.387  -3.641  0.00  0.00    -0.094 A 
ATOM      9  C9  DEN d   1      -1.262  -2.165  -3.670  0.00  0.00    -0.072 A 
ENDROOT
TORSDOF 0
ENDMDL
