MODEL 1
REMARK minimizedAffinity 17.7271843
REMARK minimizedRMSD -1
REMARK  0 active torsions:
REMARK  status: ('A' for Active; 'I' for Inactive)
ROOT
ATOM      1  C1  DEN d   1       1.187  -0.328   3.324  0.00  0.00     0.130 A 
ATOM      2  C2  DEN d   1       0.041   0.443   3.797  0.00  0.00    -0.031 A 
ATOM      3  C3  DEN d   1       0.053   1.748   3.107  0.00  0.00     0.027 A 
ATOM      4  C4  DEN d   1       1.724   2.644   1.358  0.00  0.00     0.027 A 
ATOM      5  C5  DEN d   1       2.869   2.355   0.649  0.00  0.00    -0.003 A 
ATOM      6  C6  DEN d   1       3.547   1.176   0.806  0.00  0.00     0.001 A 
ATOM      7  C7  DEN d   1       3.061   0.222   1.660  0.00  0.00     0.017 A 
ATOM      8  C8  DEN d   1       1.911   0.508   2.384  0.00  0.00    -0.094 A 
ATOM      9  C9  DEN d   1       1.232   1.701   2.202  0.00  0.00    -0.072 A 
ENDROOT
TORSDOF 0
ENDMDL
