MODEL 1
REMARK minimizedAffinity 2.95198154
REMARK minimizedRMSD -1
REMARK  0 active torsions:
REMARK  status: ('A' for Active; 'I' for Inactive)
ROOT
ATOM      1  C1  DEN d   1       5.247   2.706  -3.795  0.00  0.00     0.130 A 
ATOM      2  C2  DEN d   1       5.199   1.787  -4.929  0.00  0.00    -0.031 A 
ATOM      3  C3  DEN d   1       4.395   2.419  -5.994  0.00  0.00     0.027 A 
ATOM      4  C4  DEN d   1       3.229   4.719  -5.999  0.00  0.00     0.027 A 
ATOM      5  C5  DEN d   1       2.977   5.852  -5.257  0.00  0.00    -0.003 A 
ATOM      6  C6  DEN d   1       3.432   6.000  -3.974  0.00  0.00     0.001 A 
ATOM      7  C7  DEN d   1       4.202   5.017  -3.409  0.00  0.00     0.017 A 
ATOM      8  C8  DEN d   1       4.453   3.869  -4.148  0.00  0.00    -0.094 A 
ATOM      9  C9  DEN d   1       3.995   3.744  -5.449  0.00  0.00    -0.072 A 
ENDROOT
TORSDOF 0
ENDMDL
