MODEL 1
REMARK minimizedAffinity 4.82068062
REMARK minimizedRMSD -1
REMARK  0 active torsions:
REMARK  status: ('A' for Active; 'I' for Inactive)
ROOT
ATOM      1  C1  DEN d   1      -3.463  -3.312  -4.537  0.00  0.00     0.130 A 
ATOM      2  C2  DEN d   1      -2.094  -3.004  -4.943  0.00  0.00    -0.031 A 
ATOM      3  C3  DEN d   1      -1.423  -2.332  -3.813  0.00  0.00     0.027 A 
ATOM      4  C4  DEN d   1      -2.364  -1.745  -1.484  0.00  0.00     0.027 A 
ATOM      5  C5  DEN d   1      -3.479  -1.798  -0.678  0.00  0.00    -0.003 A 
ATOM      6  C6  DEN d   1      -4.668  -2.324  -1.110  0.00  0.00     0.001 A 
ATOM      7  C7  DEN d   1      -4.756  -2.860  -2.368  0.00  0.00     0.017 A 
ATOM      8  C8  DEN d   1      -3.637  -2.804  -3.189  0.00  0.00    -0.094 A 
ATOM      9  C9  DEN d   1      -2.441  -2.279  -2.729  0.00  0.00    -0.072 A 
ENDROOT
TORSDOF 0
ENDMDL
