MODEL 1
REMARK minimizedAffinity -1.82568169
REMARK minimizedRMSD -1
REMARK  0 active torsions:
REMARK  status: ('A' for Active; 'I' for Inactive)
ROOT
ATOM      1  C1  DEN d   1       6.000  -2.102   1.850  0.00  0.00     0.130 A 
ATOM      2  C2  DEN d   1       6.000  -3.316   1.038  0.00  0.00    -0.031 A 
ATOM      3  C3  DEN d   1       5.964  -4.476   1.951  0.00  0.00     0.027 A 
ATOM      4  C4  DEN d   1       5.905  -4.510   4.530  0.00  0.00     0.027 A 
ATOM      5  C5  DEN d   1       5.903  -3.727   5.663  0.00  0.00    -0.003 A 
ATOM      6  C6  DEN d   1       5.967  -2.360   5.606  0.00  0.00     0.001 A 
ATOM      7  C7  DEN d   1       5.991  -1.732   4.389  0.00  0.00     0.017 A 
ATOM      8  C8  DEN d   1       6.000  -2.515   3.242  0.00  0.00    -0.094 A 
ATOM      9  C9  DEN d   1       5.922  -3.895   3.320  0.00  0.00    -0.072 A 
ENDROOT
TORSDOF 0
ENDMDL
