MODEL 1
REMARK minimizedAffinity -0.863046527
REMARK minimizedRMSD -1
REMARK  0 active torsions:
REMARK  status: ('A' for Active; 'I' for Inactive)
ROOT
ATOM      1  C1  DEN d   1       5.832  -4.861   5.020  0.00  0.00     0.130 A 
ATOM      2  C2  DEN d   1       5.852  -3.768   5.989  0.00  0.00    -0.031 A 
ATOM      3  C3  DEN d   1       5.917  -2.496   5.242  0.00  0.00     0.027 A 
ATOM      4  C4  DEN d   1       5.984  -2.114   2.692  0.00  0.00     0.027 A 
ATOM      5  C5  DEN d   1       5.999  -2.737   1.464  0.00  0.00    -0.003 A 
ATOM      6  C6  DEN d   1       5.994  -4.101   1.336  0.00  0.00     0.001 A 
ATOM      7  C7  DEN d   1       5.928  -4.887   2.456  0.00  0.00     0.017 A 
ATOM      8  C8  DEN d   1       5.920  -4.266   3.699  0.00  0.00    -0.094 A 
ATOM      9  C9  DEN d   1       5.913  -2.886   3.806  0.00  0.00    -0.072 A 
ENDROOT
TORSDOF 0
ENDMDL
