MODEL 1
REMARK minimizedAffinity -0.489512771
REMARK minimizedRMSD -1
REMARK  0 active torsions:
REMARK  status: ('A' for Active; 'I' for Inactive)
ROOT
ATOM      1  C1  DEN d   1       5.997  -2.227   2.226  0.00  0.00     0.130 A 
ATOM      2  C2  DEN d   1       6.000  -3.409   1.368  0.00  0.00    -0.031 A 
ATOM      3  C3  DEN d   1       5.969  -4.603   2.236  0.00  0.00     0.027 A 
ATOM      4  C4  DEN d   1       5.913  -4.737   4.811  0.00  0.00     0.027 A 
ATOM      5  C5  DEN d   1       5.910  -3.998   5.974  0.00  0.00    -0.003 A 
ATOM      6  C6  DEN d   1       5.969  -2.630   5.969  0.00  0.00     0.001 A 
ATOM      7  C7  DEN d   1       5.989  -1.955   4.777  0.00  0.00     0.017 A 
ATOM      8  C8  DEN d   1       6.000  -2.693   3.601  0.00  0.00    -0.094 A 
ATOM      9  C9  DEN d   1       5.927  -4.075   3.626  0.00  0.00    -0.072 A 
ENDROOT
TORSDOF 0
ENDMDL
