MODEL 1
REMARK minimizedAffinity -0.869988561
REMARK minimizedRMSD -1
REMARK  0 active torsions:
REMARK  status: ('A' for Active; 'I' for Inactive)
ROOT
ATOM      1  C1  DEN d   1       5.997  -5.367  -1.294  0.00  0.00     0.130 A 
ATOM      2  C2  DEN d   1       5.986  -4.104  -0.561  0.00  0.00    -0.031 A 
ATOM      3  C3  DEN d   1       5.946  -3.005  -1.546  0.00  0.00     0.027 A 
ATOM      4  C4  DEN d   1       5.896  -3.136  -4.122  0.00  0.00     0.027 A 
ATOM      5  C5  DEN d   1       5.903  -3.989  -5.203  0.00  0.00    -0.003 A 
ATOM      6  C6  DEN d   1       5.976  -5.349  -5.059  0.00  0.00     0.001 A 
ATOM      7  C7  DEN d   1       5.999  -5.899  -3.804  0.00  0.00     0.017 A 
ATOM      8  C8  DEN d   1       5.999  -5.044  -2.709  0.00  0.00    -0.094 A 
ATOM      9  C9  DEN d   1       5.913  -3.672  -2.876  0.00  0.00    -0.072 A 
ENDROOT
TORSDOF 0
ENDMDL
