MODEL 1
REMARK minimizedAffinity -4.03300619
REMARK minimizedRMSD -1
REMARK  0 active torsions:
REMARK  status: ('A' for Active; 'I' for Inactive)
ROOT
ATOM      1  C1  DEN d   1       5.695  -2.510   2.320  0.00  0.00     0.130 A 
ATOM      2  C2  DEN d   1       5.999  -3.662   1.476  0.00  0.00    -0.031 A 
ATOM      3  C3  DEN d   1       5.969  -4.870   2.325  0.00  0.00     0.027 A 
ATOM      4  C4  DEN d   1       5.478  -5.068   4.849  0.00  0.00     0.027 A 
ATOM      5  C5  DEN d   1       5.177  -4.362   5.993  0.00  0.00    -0.003 A 
ATOM      6  C6  DEN d   1       5.061  -2.997   5.999  0.00  0.00     0.001 A 
ATOM      7  C7  DEN d   1       5.204  -2.298   4.830  0.00  0.00     0.017 A 
ATOM      8  C8  DEN d   1       5.515  -3.002   3.674  0.00  0.00    -0.094 A 
ATOM      9  C9  DEN d   1       5.616  -4.383   3.686  0.00  0.00    -0.072 A 
ENDROOT
TORSDOF 0
ENDMDL
