MODEL 1
REMARK minimizedAffinity 4.71455622
REMARK minimizedRMSD -1
REMARK  0 active torsions:
REMARK  status: ('A' for Active; 'I' for Inactive)
ROOT
ATOM      1  C1  DEN d   1       5.959  -3.231   1.854  0.00  0.00     0.130 A 
ATOM      2  C2  DEN d   1       5.982  -4.672   1.620  0.00  0.00    -0.031 A 
ATOM      3  C3  DEN d   1       5.998  -5.347   2.933  0.00  0.00     0.027 A 
ATOM      4  C4  DEN d   1       5.982  -4.306   5.293  0.00  0.00     0.027 A 
ATOM      5  C5  DEN d   1       5.975  -3.123   5.998  0.00  0.00    -0.003 A 
ATOM      6  C6  DEN d   1       5.996  -1.903   5.377  0.00  0.00     0.001 A 
ATOM      7  C7  DEN d   1       5.980  -1.837   4.008  0.00  0.00     0.017 A 
ATOM      8  C8  DEN d   1       5.994  -3.026   3.291  0.00  0.00    -0.094 A 
ATOM      9  C9  DEN d   1       5.960  -4.250   3.937  0.00  0.00    -0.072 A 
ENDROOT
TORSDOF 0
ENDMDL
