MODEL 1
REMARK minimizedAffinity -1.05705464
REMARK minimizedRMSD -1
REMARK  0 active torsions:
REMARK  status: ('A' for Active; 'I' for Inactive)
ROOT
ATOM      1  C1  DEN d   1       5.946  -1.787  -1.052  0.00  0.00     0.130 A 
ATOM      2  C2  DEN d   1       5.974  -2.695  -2.195  0.00  0.00    -0.031 A 
ATOM      3  C3  DEN d   1       6.000  -4.078  -1.679  0.00  0.00     0.027 A 
ATOM      4  C4  DEN d   1       5.994  -4.898   0.767  0.00  0.00     0.027 A 
ATOM      5  C5  DEN d   1       5.987  -4.498   2.085  0.00  0.00    -0.003 A 
ATOM      6  C6  DEN d   1       6.000  -3.177   2.447  0.00  0.00     0.001 A 
ATOM      7  C7  DEN d   1       5.975  -2.208   1.479  0.00  0.00     0.017 A 
ATOM      8  C8  DEN d   1       5.990  -2.603   0.148  0.00  0.00    -0.094 A 
ATOM      9  C9  DEN d   1       5.965  -3.944  -0.198  0.00  0.00    -0.072 A 
ENDROOT
TORSDOF 0
ENDMDL
