MODEL 1
REMARK minimizedAffinity -1.32108474
REMARK minimizedRMSD -1
REMARK  0 active torsions:
REMARK  status: ('A' for Active; 'I' for Inactive)
ROOT
ATOM      1  C1  DEN d   1       5.307  -2.750  -2.724  0.00  0.00     0.130 A 
ATOM      2  C2  DEN d   1       5.685  -3.445  -1.497  0.00  0.00    -0.031 A 
ATOM      3  C3  DEN d   1       6.000  -4.846  -1.844  0.00  0.00     0.027 A 
ATOM      4  C4  DEN d   1       5.942  -5.998  -4.150  0.00  0.00     0.027 A 
ATOM      5  C5  DEN d   1       5.670  -5.819  -5.489  0.00  0.00    -0.003 A 
ATOM      6  C6  DEN d   1       5.229  -4.623  -5.990  0.00  0.00     0.001 A 
ATOM      7  C7  DEN d   1       5.090  -3.547  -5.154  0.00  0.00     0.017 A 
ATOM      8  C8  DEN d   1       5.355  -3.722  -3.802  0.00  0.00    -0.094 A 
ATOM      9  C9  DEN d   1       5.812  -4.936  -3.317  0.00  0.00    -0.072 A 
ENDROOT
TORSDOF 0
ENDMDL
