MODEL 1
REMARK minimizedAffinity -0.433713496
REMARK minimizedRMSD -1
REMARK  0 active torsions:
REMARK  status: ('A' for Active; 'I' for Inactive)
ROOT
ATOM      1  C1  DEN d   1       5.365  -3.959  -2.054  0.00  0.00     0.130 A 
ATOM      2  C2  DEN d   1       4.125  -3.383  -1.540  0.00  0.00    -0.031 A 
ATOM      3  C3  DEN d   1       3.121  -3.422  -2.622  0.00  0.00     0.027 A 
ATOM      4  C4  DEN d   1       3.362  -4.319  -5.028  0.00  0.00     0.027 A 
ATOM      5  C5  DEN d   1       4.230  -4.894  -5.930  0.00  0.00    -0.003 A 
ATOM      6  C6  DEN d   1       5.536  -5.164  -5.617  0.00  0.00     0.001 A 
ATOM      7  C7  DEN d   1       5.999  -4.901  -4.355  0.00  0.00     0.017 A 
ATOM      8  C8  DEN d   1       5.132  -4.314  -3.442  0.00  0.00    -0.094 A 
ATOM      9  C9  DEN d   1       3.812  -4.060  -3.774  0.00  0.00    -0.072 A 
ENDROOT
TORSDOF 0
ENDMDL
