MODEL 1
REMARK minimizedAffinity 2.76200652
REMARK minimizedRMSD -1
REMARK  0 active torsions:
REMARK  status: ('A' for Active; 'I' for Inactive)
ROOT
ATOM      1  C1  DEN d   1       5.998  -1.969   4.819  0.00  0.00     0.130 A 
ATOM      2  C2  DEN d   1       5.148  -2.114   5.997  0.00  0.00    -0.031 A 
ATOM      3  C3  DEN d   1       4.163  -3.179   5.722  0.00  0.00     0.027 A 
ATOM      4  C4  DEN d   1       3.876  -4.614   3.598  0.00  0.00     0.027 A 
ATOM      5  C5  DEN d   1       4.355  -4.848   2.328  0.00  0.00    -0.003 A 
ATOM      6  C6  DEN d   1       5.385  -4.121   1.791  0.00  0.00     0.001 A 
ATOM      7  C7  DEN d   1       5.999  -3.156   2.544  0.00  0.00     0.017 A 
ATOM      8  C8  DEN d   1       5.517  -2.909   3.822  0.00  0.00    -0.094 A 
ATOM      9  C9  DEN d   1       4.483  -3.663   4.352  0.00  0.00    -0.072 A 
ENDROOT
TORSDOF 0
ENDMDL
