MODEL 1
REMARK minimizedAffinity -4.11028814
REMARK minimizedRMSD -1
REMARK  0 active torsions:
REMARK  status: ('A' for Active; 'I' for Inactive)
ROOT
ATOM      1  C1  DEN d   1       5.996  -2.244   3.400  0.00  0.00     0.130 A 
ATOM      2  C2  DEN d   1       5.956  -2.897   4.706  0.00  0.00    -0.031 A 
ATOM      3  C3  DEN d   1       5.940  -4.357   4.486  0.00  0.00     0.027 A 
ATOM      4  C4  DEN d   1       5.977  -5.663   2.262  0.00  0.00     0.027 A 
ATOM      5  C5  DEN d   1       6.000  -5.543   0.890  0.00  0.00    -0.003 A 
ATOM      6  C6  DEN d   1       5.988  -4.325   0.263  0.00  0.00     0.001 A 
ATOM      7  C7  DEN d   1       5.999  -3.177   1.010  0.00  0.00     0.017 A 
ATOM      8  C8  DEN d   1       5.969  -3.290   2.394  0.00  0.00    -0.094 A 
ATOM      9  C9  DEN d   1       5.993  -4.530   3.009  0.00  0.00    -0.072 A 
ENDROOT
TORSDOF 0
ENDMDL
