MODEL 1
REMARK minimizedAffinity 6.46557617
REMARK minimizedRMSD -1
REMARK  0 active torsions:
REMARK  status: ('A' for Active; 'I' for Inactive)
ROOT
ATOM      1  C1  DEN d   1       5.965  -5.528  -0.196  0.00  0.00     0.130 A 
ATOM      2  C2  DEN d   1       5.995  -4.457   0.796  0.00  0.00    -0.031 A 
ATOM      3  C3  DEN d   1       6.000  -3.168   0.077  0.00  0.00     0.027 A 
ATOM      4  C4  DEN d   1       5.960  -2.728  -2.464  0.00  0.00     0.027 A 
ATOM      5  C5  DEN d   1       5.943  -3.323  -3.707  0.00  0.00    -0.003 A 
ATOM      6  C6  DEN d   1       5.966  -4.683  -3.865  0.00  0.00     0.001 A 
ATOM      7  C7  DEN d   1       5.962  -5.495  -2.761  0.00  0.00     0.017 A 
ATOM      8  C8  DEN d   1       5.987  -4.903  -1.506  0.00  0.00    -0.094 A 
ATOM      9  C9  DEN d   1       5.950  -3.526  -1.367  0.00  0.00    -0.072 A 
ENDROOT
TORSDOF 0
ENDMDL
