MODEL 1
REMARK minimizedAffinity -2.90336347
REMARK minimizedRMSD -1
REMARK  0 active torsions:
REMARK  status: ('A' for Active; 'I' for Inactive)
ROOT
ATOM      1  C1  DEN d   1       6.000  -3.306   2.114  0.00  0.00     0.130 A 
ATOM      2  C2  DEN d   1       6.000  -4.621   1.479  0.00  0.00    -0.031 A 
ATOM      3  C3  DEN d   1       5.641  -5.622   2.504  0.00  0.00     0.027 A 
ATOM      4  C4  DEN d   1       5.085  -5.266   4.997  0.00  0.00     0.027 A 
ATOM      5  C5  DEN d   1       4.967  -4.326   5.997  0.00  0.00    -0.003 A 
ATOM      6  C6  DEN d   1       5.215  -2.997   5.784  0.00  0.00     0.001 A 
ATOM      7  C7  DEN d   1       5.552  -2.562   4.529  0.00  0.00     0.017 A 
ATOM      8  C8  DEN d   1       5.680  -3.504   3.517  0.00  0.00    -0.094 A 
ATOM      9  C9  DEN d   1       5.413  -4.842   3.750  0.00  0.00    -0.072 A 
ENDROOT
TORSDOF 0
ENDMDL
