MODEL 1
REMARK minimizedAffinity -2.79876423
REMARK minimizedRMSD -1
REMARK  0 active torsions:
REMARK  status: ('A' for Active; 'I' for Inactive)
ROOT
ATOM      1  C1  DEN d   1       5.632  -4.544   2.332  0.00  0.00     0.130 A 
ATOM      2  C2  DEN d   1       5.991  -3.403   1.494  0.00  0.00    -0.031 A 
ATOM      3  C3  DEN d   1       5.998  -2.196   2.344  0.00  0.00     0.027 A 
ATOM      4  C4  DEN d   1       5.497  -1.985   4.866  0.00  0.00     0.027 A 
ATOM      5  C5  DEN d   1       5.134  -2.677   6.000  0.00  0.00    -0.003 A 
ATOM      6  C6  DEN d   1       4.881  -4.023   5.984  0.00  0.00     0.001 A 
ATOM      7  C7  DEN d   1       5.031  -4.729   4.819  0.00  0.00     0.017 A 
ATOM      8  C8  DEN d   1       5.390  -4.036   3.670  0.00  0.00    -0.094 A 
ATOM      9  C9  DEN d   1       5.653  -2.678   3.709  0.00  0.00    -0.072 A 
ENDROOT
TORSDOF 0
ENDMDL
