MODEL 1
REMARK minimizedAffinity -3.09842706
REMARK minimizedRMSD -1
REMARK  0 active torsions:
REMARK  status: ('A' for Active; 'I' for Inactive)
ROOT
ATOM      1  C1  DEN d   1       3.863  -5.041   5.643  0.00  0.00     0.130 A 
ATOM      2  C2  DEN d   1       3.446  -6.000   4.623  0.00  0.00    -0.031 A 
ATOM      3  C3  DEN d   1       3.978  -5.544   3.323  0.00  0.00     0.027 A 
ATOM      4  C4  DEN d   1       5.404  -3.460   2.794  0.00  0.00     0.027 A 
ATOM      5  C5  DEN d   1       6.000  -2.342   3.333  0.00  0.00    -0.003 A 
ATOM      6  C6  DEN d   1       5.897  -2.029   4.663  0.00  0.00     0.001 A 
ATOM      7  C7  DEN d   1       5.221  -2.868   5.508  0.00  0.00     0.017 A 
ATOM      8  C8  DEN d   1       4.611  -3.994   4.970  0.00  0.00    -0.094 A 
ATOM      9  C9  DEN d   1       4.736  -4.300   3.626  0.00  0.00    -0.072 A 
ENDROOT
TORSDOF 0
ENDMDL
