MODEL 1
REMARK minimizedAffinity 5.42656565
REMARK minimizedRMSD -1
REMARK  1 active torsions:
REMARK  status: ('A' for Active; 'I' for Inactive)
REMARK    1  A    between atoms: C1_2  and  C2_3 
ROOT
ATOM      1  C2  UNL d   1      -2.622  -0.035  -2.044  0.00  0.00    -0.077 A 
ATOM      2  C3  UNL d   1      -1.886  -0.352  -0.894  0.00  0.00     0.002 A 
ATOM      3  C4  UNL d   1      -1.620   0.627   0.066  0.00  0.00     0.002 A 
ATOM      4  C5  UNL d   1      -2.089   1.926  -0.113  0.00  0.00    -0.004 A 
ATOM      5  C6  UNL d   1      -2.820   2.252  -1.255  0.00  0.00     0.002 A 
ATOM      6  C7  UNL d   1      -3.086   1.275  -2.216  0.00  0.00     0.002 A 
ENDROOT
BRANCH   1   7
ATOM      7  C1  UNL d   1      -2.952  -1.100  -3.057  0.00  0.00     0.055 C 
ATOM      8  C   UNL d   1      -3.722  -2.249  -2.421  0.00  0.00     0.019 C 
ENDBRANCH   1   7
TORSDOF 1
ENDMDL
