MODEL 1
REMARK minimizedAffinity 1.91628575
REMARK minimizedRMSD -1
REMARK  1 active torsions:
REMARK  status: ('A' for Active; 'I' for Inactive)
REMARK    1  A    between atoms: C1_2  and  C2_3 
ROOT
ATOM      1  C2  UNL d   1       2.334  -2.242   2.944  0.00  0.00    -0.077 A 
ATOM      2  C3  UNL d   1       3.085  -2.130   4.122  0.00  0.00     0.002 A 
ATOM      3  C4  UNL d   1       3.611  -3.269   4.735  0.00  0.00     0.002 A 
ATOM      4  C5  UNL d   1       3.396  -4.526   4.174  0.00  0.00    -0.004 A 
ATOM      5  C6  UNL d   1       2.648  -4.648   3.004  0.00  0.00     0.002 A 
ATOM      6  C7  UNL d   1       2.120  -3.511   2.391  0.00  0.00     0.002 A 
ENDROOT
BRANCH   1   7
ATOM      7  C1  UNL d   1       1.807  -1.010   2.255  0.00  0.00     0.055 C 
ATOM      8  C   UNL d   1       2.842  -0.420   1.308  0.00  0.00     0.019 C 
ENDBRANCH   1   7
TORSDOF 1
ENDMDL
