MODEL 1
REMARK minimizedAffinity 4.97380543
REMARK minimizedRMSD -1
REMARK  1 active torsions:
REMARK  status: ('A' for Active; 'I' for Inactive)
REMARK    1  A    between atoms: C1_2  and  C2_3 
ROOT
ATOM      1  C2  UNL d   1       0.990  -3.586   3.761  0.00  0.00    -0.077 A 
ATOM      2  C3  UNL d   1       1.028  -2.195   3.591  0.00  0.00     0.002 A 
ATOM      3  C4  UNL d   1       1.821  -1.626   2.594  0.00  0.00     0.002 A 
ATOM      4  C5  UNL d   1       2.580  -2.440   1.756  0.00  0.00    -0.004 A 
ATOM      5  C6  UNL d   1       2.552  -3.825   1.918  0.00  0.00     0.002 A 
ATOM      6  C7  UNL d   1       1.760  -4.395   2.915  0.00  0.00     0.002 A 
ENDROOT
BRANCH   1   7
ATOM      7  C1  UNL d   1       0.097  -4.204   4.804  0.00  0.00     0.055 C 
ATOM      8  C   UNL d   1       0.884  -5.111   5.740  0.00  0.00     0.019 C 
ENDBRANCH   1   7
TORSDOF 1
ENDMDL
