MODEL 1
REMARK minimizedAffinity 13.0381174
REMARK minimizedRMSD -1
REMARK  1 active torsions:
REMARK  status: ('A' for Active; 'I' for Inactive)
REMARK    1  A    between atoms: C1_2  and  C2_3 
ROOT
ATOM      1  C2  UNL d   1       3.685  -3.175   3.764  0.00  0.00    -0.077 A 
ATOM      2  C3  UNL d   1       3.375  -1.865   3.375  0.00  0.00     0.002 A 
ATOM      3  C4  UNL d   1       2.081  -1.538   2.965  0.00  0.00     0.002 A 
ATOM      4  C5  UNL d   1       1.087  -2.514   2.943  0.00  0.00    -0.004 A 
ATOM      5  C6  UNL d   1       1.387  -3.821   3.327  0.00  0.00     0.002 A 
ATOM      6  C7  UNL d   1       2.680  -4.150   3.736  0.00  0.00     0.002 A 
ENDROOT
BRANCH   1   7
ATOM      7  C1  UNL d   1       5.068  -3.519   4.254  0.00  0.00     0.055 C 
ATOM      8  C   UNL d   1       5.994  -2.313   4.189  0.00  0.00     0.019 C 
ENDBRANCH   1   7
TORSDOF 1
ENDMDL
