MODEL 1
REMARK minimizedAffinity 7.970716
REMARK minimizedRMSD -1
REMARK  1 active torsions:
REMARK  status: ('A' for Active; 'I' for Inactive)
REMARK    1  A    between atoms: C1_2  and  C2_3 
ROOT
ATOM      1  C2  UNL d   1      -3.934   0.860  -3.696  0.00  0.00    -0.077 A 
ATOM      2  C3  UNL d   1      -4.229  -0.468  -4.036  0.00  0.00     0.002 A 
ATOM      3  C4  UNL d   1      -3.755  -1.520  -3.250  0.00  0.00     0.002 A 
ATOM      4  C5  UNL d   1      -2.987  -1.256  -2.118  0.00  0.00    -0.004 A 
ATOM      5  C6  UNL d   1      -2.686   0.062  -1.773  0.00  0.00     0.002 A 
ATOM      6  C7  UNL d   1      -3.158   1.114  -2.558  0.00  0.00     0.002 A 
ENDROOT
BRANCH   1   7
ATOM      7  C1  UNL d   1      -4.486   1.998  -4.515  0.00  0.00     0.055 C 
ATOM      8  C   UNL d   1      -4.493   1.660  -5.998  0.00  0.00     0.019 C 
ENDBRANCH   1   7
TORSDOF 1
ENDMDL
