MODEL 1
REMARK minimizedAffinity 3.84051871
REMARK minimizedRMSD -1
REMARK  1 active torsions:
REMARK  status: ('A' for Active; 'I' for Inactive)
REMARK    1  A    between atoms: C1_2  and  C2_3 
ROOT
ATOM      1  C2  UNL d   1       2.233  -2.784   2.541  0.00  0.00    -0.077 A 
ATOM      2  C3  UNL d   1       1.256  -2.417   3.478  0.00  0.00     0.002 A 
ATOM      3  C4  UNL d   1       0.762  -1.112   3.508  0.00  0.00     0.002 A 
ATOM      4  C5  UNL d   1       1.235  -0.165   2.602  0.00  0.00    -0.004 A 
ATOM      5  C6  UNL d   1       2.207  -0.519   1.668  0.00  0.00     0.002 A 
ATOM      6  C7  UNL d   1       2.704  -1.823   1.637  0.00  0.00     0.002 A 
ENDROOT
BRANCH   1   7
ATOM      7  C1  UNL d   1       2.732  -4.204   2.474  0.00  0.00     0.055 C 
ATOM      8  C   UNL d   1       2.585  -4.777   1.072  0.00  0.00     0.019 C 
ENDBRANCH   1   7
TORSDOF 1
ENDMDL
