MODEL 1
REMARK minimizedAffinity 5.07136297
REMARK minimizedRMSD -1
REMARK  0 active torsions:
REMARK  status: ('A' for Active; 'I' for Inactive)
ROOT
ATOM      1  C   UNL d   1      -0.350  -2.351  -3.426  0.00  0.00     0.078 C 
ATOM      2  C1  UNL d   1      -1.079  -3.606  -3.048  0.00  0.00    -0.077 A 
ATOM      3  C2  UNL d   1      -0.737  -4.838  -3.617  0.00  0.00    -0.001 A 
ATOM      4  C3  UNL d   1      -1.431  -5.996  -3.263  0.00  0.00     0.003 A 
ATOM      5  C4  UNL d   1      -2.473  -5.933  -2.340  0.00  0.00    -0.005 A 
ATOM      6  C5  UNL d   1      -2.822  -4.711  -1.770  0.00  0.00     0.003 A 
ATOM      7  C6  UNL d   1      -2.129  -3.552  -2.122  0.00  0.00    -0.001 A 
ENDROOT
TORSDOF 0
ENDMDL
