MODEL 1
REMARK minimizedAffinity 3.30607057
REMARK minimizedRMSD -1
REMARK  0 active torsions:
REMARK  status: ('A' for Active; 'I' for Inactive)
ROOT
ATOM      1  C   UNL d   1      -1.590   4.249  -5.812  0.00  0.00     0.078 C 
ATOM      2  C1  UNL d   1      -1.185   4.020  -4.386  0.00  0.00    -0.077 A 
ATOM      3  C2  UNL d   1      -0.135   4.745  -3.809  0.00  0.00    -0.001 A 
ATOM      4  C3  UNL d   1       0.238   4.515  -2.484  0.00  0.00     0.003 A 
ATOM      5  C4  UNL d   1      -0.433   3.559  -1.725  0.00  0.00    -0.005 A 
ATOM      6  C5  UNL d   1      -1.478   2.831  -2.290  0.00  0.00     0.003 A 
ATOM      7  C6  UNL d   1      -1.852   3.060  -3.616  0.00  0.00    -0.001 A 
ENDROOT
TORSDOF 0
ENDMDL
