MODEL 1
REMARK minimizedAffinity 4.18794727
REMARK minimizedRMSD -1
REMARK  0 active torsions:
REMARK  status: ('A' for Active; 'I' for Inactive)
ROOT
ATOM      1  C   UNL d   1      -0.030   0.229   0.456  0.00  0.00     0.078 C 
ATOM      2  C1  UNL d   1       0.235   1.521  -0.258  0.00  0.00    -0.077 A 
ATOM      3  C2  UNL d   1      -0.819   2.334  -0.691  0.00  0.00    -0.001 A 
ATOM      4  C3  UNL d   1      -0.558   3.530  -1.363  0.00  0.00     0.003 A 
ATOM      5  C4  UNL d   1       0.756   3.922  -1.608  0.00  0.00    -0.005 A 
ATOM      6  C5  UNL d   1       1.812   3.118  -1.182  0.00  0.00     0.003 A 
ATOM      7  C6  UNL d   1       1.553   1.923  -0.510  0.00  0.00    -0.001 A 
ENDROOT
TORSDOF 0
ENDMDL
