MODEL 1
REMARK minimizedAffinity 9.75017738
REMARK minimizedRMSD -1
REMARK  0 active torsions:
REMARK  status: ('A' for Active; 'I' for Inactive)
ROOT
ATOM      1  C   UNL d   1      -5.290  -5.113   3.332  0.00  0.00     0.078 C 
ATOM      2  C1  UNL d   1      -3.945  -4.538   3.001  0.00  0.00    -0.077 A 
ATOM      3  C2  UNL d   1      -2.943  -4.441   3.974  0.00  0.00    -0.001 A 
ATOM      4  C3  UNL d   1      -1.699  -3.894   3.654  0.00  0.00     0.003 A 
ATOM      5  C4  UNL d   1      -1.447  -3.439   2.362  0.00  0.00    -0.005 A 
ATOM      6  C5  UNL d   1      -2.438  -3.529   1.388  0.00  0.00     0.003 A 
ATOM      7  C6  UNL d   1      -3.683  -4.076   1.705  0.00  0.00    -0.001 A 
ENDROOT
TORSDOF 0
ENDMDL
