MODEL 1
REMARK minimizedAffinity 8.47760201
REMARK minimizedRMSD -1
REMARK  0 active torsions:
REMARK  status: ('A' for Active; 'I' for Inactive)
ROOT
ATOM      1  C   UNL d   1      -0.997  -0.618   2.299  0.00  0.00     0.078 C 
ATOM      2  C1  UNL d   1       0.427  -0.367   1.901  0.00  0.00    -0.077 A 
ATOM      3  C2  UNL d   1       0.814  -0.383   0.555  0.00  0.00    -0.001 A 
ATOM      4  C3  UNL d   1       2.144  -0.157   0.200  0.00  0.00     0.003 A 
ATOM      5  C4  UNL d   1       3.100   0.086   1.185  0.00  0.00    -0.005 A 
ATOM      6  C5  UNL d   1       2.725   0.102   2.527  0.00  0.00     0.003 A 
ATOM      7  C6  UNL d   1       1.395  -0.124   2.884  0.00  0.00    -0.001 A 
ENDROOT
TORSDOF 0
ENDMDL
