MODEL 1
REMARK minimizedAffinity -2.55610418
REMARK minimizedRMSD -1
REMARK  0 active torsions:
REMARK  status: ('A' for Active; 'I' for Inactive)
ROOT
ATOM      1  C   UNL d   1      -4.881  -5.992   1.873  0.00  0.00     0.078 C 
ATOM      2  C1  UNL d   1      -4.710  -5.606   0.434  0.00  0.00    -0.077 A 
ATOM      3  C2  UNL d   1      -5.642  -5.999  -0.534  0.00  0.00    -0.001 A 
ATOM      4  C3  UNL d   1      -5.465  -5.641  -1.872  0.00  0.00     0.003 A 
ATOM      5  C4  UNL d   1      -4.356  -4.889  -2.253  0.00  0.00    -0.005 A 
ATOM      6  C5  UNL d   1      -3.422  -4.495  -1.298  0.00  0.00     0.003 A 
ATOM      7  C6  UNL d   1      -3.597  -4.852   0.040  0.00  0.00    -0.001 A 
ENDROOT
TORSDOF 0
ENDMDL
