MODEL 1
REMARK minimizedAffinity 6.05108356
REMARK minimizedRMSD -1
REMARK  0 active torsions:
REMARK  status: ('A' for Active; 'I' for Inactive)
ROOT
ATOM      1  C   UNL d   1       1.936   0.272  -0.425  0.00  0.00     0.078 C 
ATOM      2  C1  UNL d   1       0.897  -0.415   0.410  0.00  0.00    -0.077 A 
ATOM      3  C2  UNL d   1       0.415  -1.683   0.062  0.00  0.00    -0.001 A 
ATOM      4  C3  UNL d   1      -0.560  -2.305   0.844  0.00  0.00     0.003 A 
ATOM      5  C4  UNL d   1      -1.062  -1.667   1.976  0.00  0.00    -0.005 A 
ATOM      6  C5  UNL d   1      -0.590  -0.405   2.328  0.00  0.00     0.003 A 
ATOM      7  C6  UNL d   1       0.385   0.220   1.548  0.00  0.00    -0.001 A 
ENDROOT
TORSDOF 0
ENDMDL
