MODEL 1
REMARK minimizedAffinity 8.75878048
REMARK minimizedRMSD -1
REMARK  0 active torsions:
REMARK  status: ('A' for Active; 'I' for Inactive)
ROOT
ATOM      1  C   UNL d   1       2.041   0.345   0.431  0.00  0.00     0.078 C 
ATOM      2  C1  UNL d   1       1.159  -0.772   0.902  0.00  0.00    -0.077 A 
ATOM      3  C2  UNL d   1       1.196  -2.029   0.285  0.00  0.00    -0.001 A 
ATOM      4  C3  UNL d   1       0.361  -3.057   0.727  0.00  0.00     0.003 A 
ATOM      5  C4  UNL d   1      -0.517  -2.839   1.787  0.00  0.00    -0.005 A 
ATOM      6  C5  UNL d   1      -0.562  -1.591   2.405  0.00  0.00     0.003 A 
ATOM      7  C6  UNL d   1       0.271  -0.562   1.965  0.00  0.00    -0.001 A 
ENDROOT
TORSDOF 0
ENDMDL
