MODEL 1
REMARK minimizedAffinity 10.914156
REMARK minimizedRMSD -1
REMARK  0 active torsions:
REMARK  status: ('A' for Active; 'I' for Inactive)
ROOT
ATOM      1  C   UNL d   1       3.874  -0.016   2.034  0.00  0.00     0.078 C 
ATOM      2  C1  UNL d   1       2.397  -0.272   1.977  0.00  0.00    -0.077 A 
ATOM      3  C2  UNL d   1       1.729  -0.371   0.750  0.00  0.00    -0.001 A 
ATOM      4  C3  UNL d   1       0.353  -0.599   0.712  0.00  0.00     0.003 A 
ATOM      5  C4  UNL d   1      -0.368  -0.730   1.898  0.00  0.00    -0.005 A 
ATOM      6  C5  UNL d   1       0.288  -0.630   3.123  0.00  0.00     0.003 A 
ATOM      7  C6  UNL d   1       1.664  -0.402   3.163  0.00  0.00    -0.001 A 
ENDROOT
TORSDOF 0
ENDMDL
