MODEL 1
REMARK minimizedAffinity -0.214979187
REMARK minimizedRMSD -1
REMARK  0 active torsions:
REMARK  status: ('A' for Active; 'I' for Inactive)
ROOT
ATOM      1  C   UNL d   1       0.749  -0.326   0.650  0.00  0.00     0.078 C 
ATOM      2  C1  UNL d   1       1.091   0.951  -0.057  0.00  0.00    -0.077 A 
ATOM      3  C2  UNL d   1       2.353   1.141  -0.633  0.00  0.00    -0.001 A 
ATOM      4  C3  UNL d   1       2.661   2.339  -1.279  0.00  0.00     0.003 A 
ATOM      5  C4  UNL d   1       1.713   3.358  -1.354  0.00  0.00    -0.005 A 
ATOM      6  C5  UNL d   1       0.455   3.179  -0.781  0.00  0.00     0.003 A 
ATOM      7  C6  UNL d   1       0.145   1.982  -0.135  0.00  0.00    -0.001 A 
ENDROOT
TORSDOF 0
ENDMDL
