MODEL 1
REMARK minimizedAffinity 10.2824402
REMARK minimizedRMSD -1
REMARK  0 active torsions:
REMARK  status: ('A' for Active; 'I' for Inactive)
ROOT
ATOM      1  C   UNL d   1      -4.900  -3.007  -0.020  0.00  0.00     0.078 C 
ATOM      2  C1  UNL d   1      -4.565  -3.970  -1.119  0.00  0.00    -0.077 A 
ATOM      3  C2  UNL d   1      -5.350  -5.106  -1.347  0.00  0.00    -0.001 A 
ATOM      4  C3  UNL d   1      -5.020  -5.999  -2.368  0.00  0.00     0.003 A 
ATOM      5  C4  UNL d   1      -3.905  -5.765  -3.169  0.00  0.00    -0.005 A 
ATOM      6  C5  UNL d   1      -3.116  -4.638  -2.949  0.00  0.00     0.003 A 
ATOM      7  C6  UNL d   1      -3.444  -3.744  -1.928  0.00  0.00    -0.001 A 
ENDROOT
TORSDOF 0
ENDMDL
