MODEL 1
REMARK minimizedAffinity 3.1177578
REMARK minimizedRMSD -1
REMARK  0 active torsions:
REMARK  status: ('A' for Active; 'I' for Inactive)
ROOT
ATOM      1  C   UNL d   1       0.009  -1.361   1.364  0.00  0.00     0.078 C 
ATOM      2  C1  UNL d   1       1.196  -0.768   0.665  0.00  0.00    -0.077 A 
ATOM      3  C2  UNL d   1       1.047  -0.053  -0.530  0.00  0.00    -0.001 A 
ATOM      4  C3  UNL d   1       2.162   0.485  -1.175  0.00  0.00     0.003 A 
ATOM      5  C4  UNL d   1       3.434   0.313  -0.632  0.00  0.00    -0.005 A 
ATOM      6  C5  UNL d   1       3.593  -0.398   0.555  0.00  0.00     0.003 A 
ATOM      7  C6  UNL d   1       2.479  -0.937   1.201  0.00  0.00    -0.001 A 
ENDROOT
TORSDOF 0
ENDMDL
