MODEL 1
REMARK minimizedAffinity -4.42301416
REMARK minimizedRMSD -1
REMARK  0 active torsions:
REMARK  status: ('A' for Active; 'I' for Inactive)
ROOT
ATOM      1  C   UNL d   1       0.791  -2.578   0.813  0.00  0.00     0.078 C 
ATOM      2  C1  UNL d   1      -0.127  -1.464   0.407  0.00  0.00    -0.077 A 
ATOM      3  C2  UNL d   1      -0.044  -0.205   1.013  0.00  0.00    -0.001 A 
ATOM      4  C3  UNL d   1      -0.912   0.820   0.632  0.00  0.00     0.003 A 
ATOM      5  C4  UNL d   1      -1.869   0.596  -0.355  0.00  0.00    -0.005 A 
ATOM      6  C5  UNL d   1      -1.961  -0.655  -0.962  0.00  0.00     0.003 A 
ATOM      7  C6  UNL d   1      -1.094  -1.681  -0.583  0.00  0.00    -0.001 A 
ENDROOT
TORSDOF 0
ENDMDL
