MODEL 1
REMARK minimizedAffinity 3.11084366
REMARK minimizedRMSD -1
REMARK  0 active torsions:
REMARK  status: ('A' for Active; 'I' for Inactive)
ROOT
ATOM      1  C   UNL d   1      -0.758  -1.591   1.398  0.00  0.00     0.078 C 
ATOM      2  C1  UNL d   1      -1.407  -2.570   0.467  0.00  0.00    -0.077 A 
ATOM      3  C2  UNL d   1      -2.783  -2.518   0.210  0.00  0.00    -0.001 A 
ATOM      4  C3  UNL d   1      -3.376  -3.442  -0.651  0.00  0.00     0.003 A 
ATOM      5  C4  UNL d   1      -2.601  -4.426  -1.263  0.00  0.00    -0.005 A 
ATOM      6  C5  UNL d   1      -1.232  -4.487  -1.012  0.00  0.00     0.003 A 
ATOM      7  C6  UNL d   1      -0.637  -3.564  -0.150  0.00  0.00    -0.001 A 
ENDROOT
TORSDOF 0
ENDMDL
