MODEL 1
REMARK minimizedAffinity 0.124095887
REMARK minimizedRMSD -1
REMARK  0 active torsions:
REMARK  status: ('A' for Active; 'I' for Inactive)
ROOT
ATOM      1  C   UNL d   1       0.319  -0.385   0.841  0.00  0.00     0.078 C 
ATOM      2  C1  UNL d   1      -1.138  -0.307   0.493  0.00  0.00    -0.077 A 
ATOM      3  C2  UNL d   1      -2.017   0.485   1.241  0.00  0.00    -0.001 A 
ATOM      4  C3  UNL d   1      -3.372   0.540   0.911  0.00  0.00     0.003 A 
ATOM      5  C4  UNL d   1      -3.860  -0.196  -0.167  0.00  0.00    -0.005 A 
ATOM      6  C5  UNL d   1      -2.994  -0.989  -0.916  0.00  0.00     0.003 A 
ATOM      7  C6  UNL d   1      -1.638  -1.045  -0.587  0.00  0.00    -0.001 A 
ENDROOT
TORSDOF 0
ENDMDL
