MODEL 1
REMARK minimizedAffinity 10.372282
REMARK minimizedRMSD -1
REMARK  0 active torsions:
REMARK  status: ('A' for Active; 'I' for Inactive)
ROOT
ATOM      1  C1  BNZ d   1      -3.890  -1.130   3.744  0.00  0.00     0.000 A 
ATOM      2  C2  BNZ d   1      -3.234  -1.012   2.547  0.00  0.00     0.000 A 
ATOM      3  C3  BNZ d   1      -2.718   0.188   2.147  0.00  0.00     0.000 A 
ATOM      4  C4  BNZ d   1      -2.892   1.277   2.924  0.00  0.00     0.000 A 
ATOM      5  C5  BNZ d   1      -3.559   1.177   4.129  0.00  0.00     0.000 A 
ATOM      6  C6  BNZ d   1      -4.044  -0.042   4.546  0.00  0.00     0.000 A 
ENDROOT
TORSDOF 0
ENDMDL
