MODEL 1
REMARK minimizedAffinity 3.11142373
REMARK minimizedRMSD -1
REMARK  0 active torsions:
REMARK  status: ('A' for Active; 'I' for Inactive)
ROOT
ATOM      1  C1  BNZ d   1      -5.517   2.660   4.439  0.00  0.00     0.000 A 
ATOM      2  C2  BNZ d   1      -5.089   1.727   3.533  0.00  0.00     0.000 A 
ATOM      3  C3  BNZ d   1      -4.086   0.853   3.849  0.00  0.00     0.000 A 
ATOM      4  C4  BNZ d   1      -3.486   0.940   5.054  0.00  0.00     0.000 A 
ATOM      5  C5  BNZ d   1      -3.901   1.881   5.975  0.00  0.00     0.000 A 
ATOM      6  C6  BNZ d   1      -4.937   2.733   5.668  0.00  0.00     0.000 A 
ENDROOT
TORSDOF 0
ENDMDL
