MODEL 1
REMARK minimizedAffinity 6.93557596
REMARK minimizedRMSD -1
REMARK  0 active torsions:
REMARK  status: ('A' for Active; 'I' for Inactive)
ROOT
ATOM      1  C1  BNZ d   1      -5.755  -4.006   0.640  0.00  0.00     0.000 A 
ATOM      2  C2  BNZ d   1      -4.918  -5.086   0.546  0.00  0.00     0.000 A 
ATOM      3  C3  BNZ d   1      -3.725  -5.109   1.213  0.00  0.00     0.000 A 
ATOM      4  C4  BNZ d   1      -3.353  -4.036   1.941  0.00  0.00     0.000 A 
ATOM      5  C5  BNZ d   1      -4.181  -2.936   2.038  0.00  0.00     0.000 A 
ATOM      6  C6  BNZ d   1      -5.398  -2.933   1.397  0.00  0.00     0.000 A 
ENDROOT
TORSDOF 0
ENDMDL
