MODEL 1
REMARK minimizedAffinity 4.37197971
REMARK minimizedRMSD -1
REMARK  0 active torsions:
REMARK  status: ('A' for Active; 'I' for Inactive)
ROOT
ATOM      1  C1  BNZ d   1      -3.359  -1.153   2.841  0.00  0.00     0.000 A 
ATOM      2  C2  BNZ d   1      -2.175  -0.867   2.217  0.00  0.00     0.000 A 
ATOM      3  C3  BNZ d   1      -1.669   0.403   2.224  0.00  0.00     0.000 A 
ATOM      4  C4  BNZ d   1      -2.366   1.391   2.820  0.00  0.00     0.000 A 
ATOM      5  C5  BNZ d   1      -3.566   1.121   3.446  0.00  0.00     0.000 A 
ATOM      6  C6  BNZ d   1      -4.053  -0.166   3.471  0.00  0.00     0.000 A 
ENDROOT
TORSDOF 0
ENDMDL
