MODEL 1
REMARK minimizedAffinity 4.32250881
REMARK minimizedRMSD -1
REMARK  0 active torsions:
REMARK  status: ('A' for Active; 'I' for Inactive)
ROOT
ATOM      1  C1  BNZ d   1      -2.264   2.236  -3.375  0.00  0.00     0.000 A 
ATOM      2  C2  BNZ d   1      -2.667   3.110  -4.350  0.00  0.00     0.000 A 
ATOM      3  C3  BNZ d   1      -2.713   2.724  -5.660  0.00  0.00     0.000 A 
ATOM      4  C4  BNZ d   1      -2.319   1.480  -5.999  0.00  0.00     0.000 A 
ATOM      5  C5  BNZ d   1      -1.901   0.590  -5.029  0.00  0.00     0.000 A 
ATOM      6  C6  BNZ d   1      -1.893   0.970  -3.707  0.00  0.00     0.000 A 
ENDROOT
TORSDOF 0
ENDMDL
