MODEL 1
REMARK minimizedAffinity 13.3084536
REMARK minimizedRMSD -1
REMARK  0 active torsions:
REMARK  status: ('A' for Active; 'I' for Inactive)
ROOT
ATOM      1  C1  BNZ d   1       2.674   1.081  -2.111  0.00  0.00     0.000 A 
ATOM      2  C2  BNZ d   1       2.018  -0.067  -2.467  0.00  0.00     0.000 A 
ATOM      3  C3  BNZ d   1       1.871  -1.094  -1.576  0.00  0.00     0.000 A 
ATOM      4  C4  BNZ d   1       2.414  -0.988  -0.347  0.00  0.00     0.000 A 
ATOM      5  C5  BNZ d   1       3.087   0.159   0.024  0.00  0.00     0.000 A 
ATOM      6  C6  BNZ d   1       3.199   1.207  -0.862  0.00  0.00     0.000 A 
ENDROOT
TORSDOF 0
ENDMDL
