MODEL 1
REMARK minimizedAffinity 4.81783819
REMARK minimizedRMSD -1
REMARK  0 active torsions:
REMARK  status: ('A' for Active; 'I' for Inactive)
ROOT
ATOM      1  C1  BNZ d   1       3.383   0.638  -1.066  0.00  0.00     0.000 A 
ATOM      2  C2  BNZ d   1       2.260  -0.066  -1.408  0.00  0.00     0.000 A 
ATOM      3  C3  BNZ d   1       2.083  -1.352  -0.980  0.00  0.00     0.000 A 
ATOM      4  C4  BNZ d   1       3.046  -1.945  -0.244  0.00  0.00     0.000 A 
ATOM      5  C5  BNZ d   1       4.189  -1.250   0.101  0.00  0.00     0.000 A 
ATOM      6  C6  BNZ d   1       4.346   0.057  -0.299  0.00  0.00     0.000 A 
ENDROOT
TORSDOF 0
ENDMDL
