MODEL 1
REMARK minimizedAffinity 1.51447463
REMARK minimizedRMSD -1
REMARK  0 active torsions:
REMARK  status: ('A' for Active; 'I' for Inactive)
ROOT
ATOM      1  C1  BNZ d   1      -5.909  -4.030  -5.967  0.00  0.00     0.000 A 
ATOM      2  C2  BNZ d   1      -4.763  -3.279  -5.963  0.00  0.00     0.000 A 
ATOM      3  C3  BNZ d   1      -3.535  -3.877  -5.999  0.00  0.00     0.000 A 
ATOM      4  C4  BNZ d   1      -3.452  -5.223  -5.999  0.00  0.00     0.000 A 
ATOM      5  C5  BNZ d   1      -4.597  -5.994  -5.994  0.00  0.00     0.000 A 
ATOM      6  C6  BNZ d   1      -5.833  -5.388  -5.997  0.00  0.00     0.000 A 
ENDROOT
TORSDOF 0
ENDMDL
