MODEL 1
REMARK minimizedAffinity 5.8418498
REMARK minimizedRMSD -1
REMARK  0 active torsions:
REMARK  status: ('A' for Active; 'I' for Inactive)
ROOT
ATOM      1  C1  BNZ d   1      -3.162   0.718   2.708  0.00  0.00     0.000 A 
ATOM      2  C2  BNZ d   1      -3.923   0.269   1.661  0.00  0.00     0.000 A 
ATOM      3  C3  BNZ d   1      -4.668  -0.871   1.775  0.00  0.00     0.000 A 
ATOM      4  C4  BNZ d   1      -4.621  -1.581   2.921  0.00  0.00     0.000 A 
ATOM      5  C5  BNZ d   1      -3.852  -1.147   3.982  0.00  0.00     0.000 A 
ATOM      6  C6  BNZ d   1      -3.133   0.021   3.876  0.00  0.00     0.000 A 
ENDROOT
TORSDOF 0
ENDMDL
