MODEL 1
REMARK minimizedAffinity -0.333692431
REMARK minimizedRMSD -1
REMARK  0 active torsions:
REMARK  status: ('A' for Active; 'I' for Inactive)
ROOT
ATOM      1  C1  BNZ d   1       3.173  -3.297  -3.938  0.00  0.00     0.000 A 
ATOM      2  C2  BNZ d   1       2.321  -2.762  -3.009  0.00  0.00     0.000 A 
ATOM      3  C3  BNZ d   1       2.309  -3.225  -1.723  0.00  0.00     0.000 A 
ATOM      4  C4  BNZ d   1       3.118  -4.247  -1.378  0.00  0.00     0.000 A 
ATOM      5  C5  BNZ d   1       3.976  -4.803  -2.306  0.00  0.00     0.000 A 
ATOM      6  C6  BNZ d   1       4.014  -4.309  -3.589  0.00  0.00     0.000 A 
ENDROOT
TORSDOF 0
ENDMDL
