MODEL 1
REMARK minimizedAffinity 0.496022314
REMARK minimizedRMSD -1
REMARK  0 active torsions:
REMARK  status: ('A' for Active; 'I' for Inactive)
ROOT
ATOM      1  C1  BNZ d   1       2.428  -3.128  -0.362  0.00  0.00     0.000 A 
ATOM      2  C2  BNZ d   1       1.483  -3.368  -1.323  0.00  0.00     0.000 A 
ATOM      3  C3  BNZ d   1       1.176  -2.416  -2.255  0.00  0.00     0.000 A 
ATOM      4  C4  BNZ d   1       1.783  -1.213  -2.199  0.00  0.00     0.000 A 
ATOM      5  C5  BNZ d   1       2.731  -0.952  -1.229  0.00  0.00     0.000 A 
ATOM      6  C6  BNZ d   1       3.067  -1.927  -0.318  0.00  0.00     0.000 A 
ENDROOT
TORSDOF 0
ENDMDL
