MODEL 1
REMARK minimizedAffinity 3.04094458
REMARK minimizedRMSD -1
REMARK  0 active torsions:
REMARK  status: ('A' for Active; 'I' for Inactive)
ROOT
ATOM      1  C1  BNZ d   1       3.112  -1.375  -0.128  0.00  0.00     0.000 A 
ATOM      2  C2  BNZ d   1       2.837  -0.188  -0.752  0.00  0.00     0.000 A 
ATOM      3  C3  BNZ d   1       2.096  -0.156  -1.900  0.00  0.00     0.000 A 
ATOM      4  C4  BNZ d   1       1.666  -1.312  -2.444  0.00  0.00     0.000 A 
ATOM      5  C5  BNZ d   1       1.943  -2.518  -1.832  0.00  0.00     0.000 A 
ATOM      6  C6  BNZ d   1       2.656  -2.544  -0.655  0.00  0.00     0.000 A 
ENDROOT
TORSDOF 0
ENDMDL
