MODEL 1
REMARK minimizedAffinity 2.52018642
REMARK minimizedRMSD -1
REMARK  0 active torsions:
REMARK  status: ('A' for Active; 'I' for Inactive)
ROOT
ATOM      1  C1  BNZ d   1       2.260  -3.247  -0.685  0.00  0.00     0.000 A 
ATOM      2  C2  BNZ d   1       2.405  -1.894  -0.530  0.00  0.00     0.000 A 
ATOM      3  C3  BNZ d   1       2.062  -1.034  -1.535  0.00  0.00     0.000 A 
ATOM      4  C4  BNZ d   1       1.613  -1.528  -2.707  0.00  0.00     0.000 A 
ATOM      5  C5  BNZ d   1       1.469  -2.890  -2.882  0.00  0.00     0.000 A 
ATOM      6  C6  BNZ d   1       1.779  -3.751  -1.854  0.00  0.00     0.000 A 
ENDROOT
TORSDOF 0
ENDMDL
