MODEL 1
REMARK minimizedAffinity 7.06737804
REMARK minimizedRMSD -1
REMARK  0 active torsions:
REMARK  status: ('A' for Active; 'I' for Inactive)
ROOT
ATOM      1  C1  BNZ d   1       2.189  -3.005  -1.323  0.00  0.00     0.000 A 
ATOM      2  C2  BNZ d   1       1.873  -3.063  -2.654  0.00  0.00     0.000 A 
ATOM      3  C3  BNZ d   1       1.686  -1.919  -3.379  0.00  0.00     0.000 A 
ATOM      4  C4  BNZ d   1       1.774  -0.722  -2.764  0.00  0.00     0.000 A 
ATOM      5  C5  BNZ d   1       2.082  -0.648  -1.420  0.00  0.00     0.000 A 
ATOM      6  C6  BNZ d   1       2.308  -1.800  -0.702  0.00  0.00     0.000 A 
ENDROOT
TORSDOF 0
ENDMDL
