MODEL 1
REMARK minimizedAffinity 5.77630663
REMARK minimizedRMSD -1
REMARK  0 active torsions:
REMARK  status: ('A' for Active; 'I' for Inactive)
ROOT
ATOM      1  C1  BNZ d   1       2.410  -1.853  -3.257  0.00  0.00     0.000 A 
ATOM      2  C2  BNZ d   1       3.017  -2.912  -2.637  0.00  0.00     0.000 A 
ATOM      3  C3  BNZ d   1       3.270  -2.886  -1.293  0.00  0.00     0.000 A 
ATOM      4  C4  BNZ d   1       2.953  -1.786  -0.581  0.00  0.00     0.000 A 
ATOM      5  C5  BNZ d   1       2.349  -0.706  -1.193  0.00  0.00     0.000 A 
ATOM      6  C6  BNZ d   1       2.060  -0.751  -2.538  0.00  0.00     0.000 A 
ENDROOT
TORSDOF 0
ENDMDL
