MODEL 1
REMARK minimizedAffinity 6.41654444
REMARK minimizedRMSD -1
REMARK  0 active torsions:
REMARK  status: ('A' for Active; 'I' for Inactive)
ROOT
ATOM      1  C1  BNZ d   1      -2.696   0.624   3.165  0.00  0.00     0.000 A 
ATOM      2  C2  BNZ d   1      -2.969   1.054   1.894  0.00  0.00     0.000 A 
ATOM      3  C3  BNZ d   1      -2.363   2.168   1.386  0.00  0.00     0.000 A 
ATOM      4  C4  BNZ d   1      -1.515   2.873   2.162  0.00  0.00     0.000 A 
ATOM      5  C5  BNZ d   1      -1.235   2.458   3.449  0.00  0.00     0.000 A 
ATOM      6  C6  BNZ d   1      -1.818   1.314   3.944  0.00  0.00     0.000 A 
ENDROOT
TORSDOF 0
ENDMDL
