MODEL 1
REMARK minimizedAffinity -0.609163284
REMARK minimizedRMSD -1
REMARK  0 active torsions:
REMARK  status: ('A' for Active; 'I' for Inactive)
ROOT
ATOM      1  C1  DEN d   1      -0.841  -0.500  -0.723  0.00  0.00     0.130 A 
ATOM      2  C2  DEN d   1      -1.390   0.395   0.292  0.00  0.00    -0.031 A 
ATOM      3  C3  DEN d   1      -0.365   0.579   1.339  0.00  0.00     0.027 A 
ATOM      4  C4  DEN d   1       2.007  -0.424   1.483  0.00  0.00     0.027 A 
ATOM      5  C5  DEN d   1       2.915  -1.252   0.861  0.00  0.00    -0.003 A 
ATOM      6  C6  DEN d   1       2.625  -1.908  -0.306  0.00  0.00     0.001 A 
ATOM      7  C7  DEN d   1       1.412  -1.712  -0.911  0.00  0.00     0.017 A 
ATOM      8  C8  DEN d   1       0.488  -0.885  -0.286  0.00  0.00    -0.094 A 
ATOM      9  C9  DEN d   1       0.805  -0.221   0.887  0.00  0.00    -0.072 A 
ENDROOT
TORSDOF 0
ENDMDL
