MODEL 1
REMARK minimizedAffinity -5.89694452
REMARK minimizedRMSD -1
REMARK  0 active torsions:
REMARK  status: ('A' for Active; 'I' for Inactive)
ROOT
ATOM      1  C1  DEN d   1      -0.239  -0.954  -0.842  0.00  0.00     0.130 A 
ATOM      2  C2  DEN d   1      -0.969   0.311  -0.819  0.00  0.00    -0.031 A 
ATOM      3  C3  DEN d   1      -0.029   1.374  -0.411  0.00  0.00     0.027 A 
ATOM      4  C4  DEN d   1       2.475   1.186   0.180  0.00  0.00     0.027 A 
ATOM      5  C5  DEN d   1       3.534   0.315   0.315  0.00  0.00    -0.003 A 
ATOM      6  C6  DEN d   1       3.403  -1.032   0.109  0.00  0.00     0.001 A 
ATOM      7  C7  DEN d   1       2.195  -1.544  -0.288  0.00  0.00     0.017 A 
ATOM      8  C8  DEN d   1       1.121  -0.674  -0.419  0.00  0.00    -0.094 A 
ATOM      9  C9  DEN d   1       1.277   0.687  -0.218  0.00  0.00    -0.072 A 
ENDROOT
TORSDOF 0
ENDMDL
