MODEL 1
REMARK minimizedAffinity -3.8213923
REMARK minimizedRMSD -1
REMARK  0 active torsions:
REMARK  status: ('A' for Active; 'I' for Inactive)
ROOT
ATOM      1  C1  DEN d   1      -0.307  -0.699  -1.464  0.00  0.00     0.130 A 
ATOM      2  C2  DEN d   1      -1.210   0.371  -1.046  0.00  0.00    -0.031 A 
ATOM      3  C3  DEN d   1      -0.657   0.982   0.179  0.00  0.00     0.027 A 
ATOM      4  C4  DEN d   1       1.499   0.384   1.461  0.00  0.00     0.027 A 
ATOM      5  C5  DEN d   1       2.586  -0.462   1.496  0.00  0.00    -0.003 A 
ATOM      6  C6  DEN d   1       2.766  -1.459   0.574  0.00  0.00     0.001 A 
ATOM      7  C7  DEN d   1       1.867  -1.607  -0.449  0.00  0.00     0.017 A 
ATOM      8  C8  DEN d   1       0.765  -0.764  -0.487  0.00  0.00    -0.094 A 
ATOM      9  C9  DEN d   1       0.607   0.246   0.447  0.00  0.00    -0.072 A 
ENDROOT
TORSDOF 0
ENDMDL
