MODEL 1
REMARK minimizedAffinity -2.94454098
REMARK minimizedRMSD -1
REMARK  0 active torsions:
REMARK  status: ('A' for Active; 'I' for Inactive)
ROOT
ATOM      1  C1  DEN d   1       2.769   0.033   1.091  0.00  0.00     0.130 A 
ATOM      2  C2  DEN d   1       3.254  -1.311   1.392  0.00  0.00    -0.031 A 
ATOM      3  C3  DEN d   1       2.239  -2.277   0.926  0.00  0.00     0.027 A 
ATOM      4  C4  DEN d   1      -0.022  -1.824  -0.231  0.00  0.00     0.027 A 
ATOM      5  C5  DEN d   1      -0.872  -0.841  -0.686  0.00  0.00    -0.003 A 
ATOM      6  C6  DEN d   1      -0.587   0.492  -0.552  0.00  0.00     0.001 A 
ATOM      7  C7  DEN d   1       0.600   0.878   0.013  0.00  0.00     0.017 A 
ATOM      8  C8  DEN d   1       1.460  -0.107   0.481  0.00  0.00    -0.094 A 
ATOM      9  C9  DEN d   1       1.158  -1.449   0.325  0.00  0.00    -0.072 A 
ENDROOT
TORSDOF 0
ENDMDL
