MODEL 1
REMARK minimizedAffinity -1.36814117
REMARK minimizedRMSD -1
REMARK  0 active torsions:
REMARK  status: ('A' for Active; 'I' for Inactive)
ROOT
ATOM      1  C1  DEN d   1       0.547  -2.193  -0.195  0.00  0.00     0.130 A 
ATOM      2  C2  DEN d   1       1.986  -2.086   0.029  0.00  0.00    -0.031 A 
ATOM      3  C3  DEN d   1       2.322  -0.654   0.161  0.00  0.00     0.027 A 
ATOM      4  C4  DEN d   1       0.763   1.397   0.047  0.00  0.00     0.027 A 
ATOM      5  C5  DEN d   1      -0.539   1.808  -0.138  0.00  0.00    -0.003 A 
ATOM      6  C6  DEN d   1      -1.556   0.925  -0.387  0.00  0.00     0.001 A 
ATOM      7  C7  DEN d   1      -1.295  -0.420  -0.413  0.00  0.00     0.017 A 
ATOM      8  C8  DEN d   1       0.016  -0.842  -0.235  0.00  0.00    -0.094 A 
ATOM      9  C9  DEN d   1       1.027   0.066   0.028  0.00  0.00    -0.072 A 
ENDROOT
TORSDOF 0
ENDMDL
