MODEL 1
REMARK minimizedAffinity -3.86281919
REMARK minimizedRMSD -1
REMARK  0 active torsions:
REMARK  status: ('A' for Active; 'I' for Inactive)
ROOT
ATOM      1  C1  DEN d   1       3.728   0.079  -0.021  0.00  0.00     0.130 A 
ATOM      2  C2  DEN d   1       3.706   1.538   0.056  0.00  0.00    -0.031 A 
ATOM      3  C3  DEN d   1       2.298   1.977  -0.019  0.00  0.00     0.027 A 
ATOM      4  C4  DEN d   1       0.162   0.548  -0.241  0.00  0.00     0.027 A 
ATOM      5  C5  DEN d   1      -0.323  -0.736  -0.355  0.00  0.00    -0.003 A 
ATOM      6  C6  DEN d   1       0.504  -1.827  -0.400  0.00  0.00     0.001 A 
ATOM      7  C7  DEN d   1       1.859  -1.658  -0.284  0.00  0.00     0.017 A 
ATOM      8  C8  DEN d   1       2.355  -0.365  -0.176  0.00  0.00    -0.094 A 
ATOM      9  C9  DEN d   1       1.502   0.724  -0.120  0.00  0.00    -0.072 A 
ENDROOT
TORSDOF 0
ENDMDL
