MODEL 1
REMARK minimizedAffinity -5.33524847
REMARK minimizedRMSD -1
REMARK  0 active torsions:
REMARK  status: ('A' for Active; 'I' for Inactive)
ROOT
ATOM      1  C1  DEN d   1       1.261   1.653   0.114  0.00  0.00     0.130 A 
ATOM      2  C2  DEN d   1      -0.137   1.607  -0.307  0.00  0.00    -0.031 A 
ATOM      3  C3  DEN d   1      -0.511   0.190  -0.493  0.00  0.00     0.027 A 
ATOM      4  C4  DEN d   1       0.929  -1.924  -0.166  0.00  0.00     0.027 A 
ATOM      5  C5  DEN d   1       2.180  -2.389   0.174  0.00  0.00    -0.003 A 
ATOM      6  C6  DEN d   1       3.214  -1.545   0.481  0.00  0.00     0.001 A 
ATOM      7  C7  DEN d   1       3.002  -0.191   0.500  0.00  0.00     0.017 A 
ATOM      8  C8  DEN d   1       1.745   0.285   0.151  0.00  0.00    -0.094 A 
ATOM      9  C9  DEN d   1       0.710  -0.585  -0.145  0.00  0.00    -0.072 A 
ENDROOT
TORSDOF 0
ENDMDL
