MODEL 1
REMARK minimizedAffinity -3.56483889
REMARK minimizedRMSD -1
REMARK  0 active torsions:
REMARK  status: ('A' for Active; 'I' for Inactive)
ROOT
ATOM      1  C1  DEN d   1      -0.061   0.337  -0.185  0.00  0.00     0.130 A 
ATOM      2  C2  DEN d   1      -0.210  -1.085  -0.482  0.00  0.00    -0.031 A 
ATOM      3  C3  DEN d   1       1.117  -1.720  -0.351  0.00  0.00     0.027 A 
ATOM      4  C4  DEN d   1       3.374  -0.645   0.284  0.00  0.00     0.027 A 
ATOM      5  C5  DEN d   1       4.002   0.535   0.614  0.00  0.00    -0.003 A 
ATOM      6  C6  DEN d   1       3.332   1.729   0.667  0.00  0.00     0.001 A 
ATOM      7  C7  DEN d   1       1.983   1.761   0.430  0.00  0.00     0.017 A 
ATOM      8  C8  DEN d   1       1.344   0.576   0.089  0.00  0.00    -0.094 A 
ATOM      9  C9  DEN d   1       2.037  -0.623   0.052  0.00  0.00    -0.072 A 
ENDROOT
TORSDOF 0
ENDMDL
