MODEL 1
REMARK minimizedAffinity -4.73479652
REMARK minimizedRMSD -1
REMARK  0 active torsions:
REMARK  status: ('A' for Active; 'I' for Inactive)
ROOT
ATOM      1  C1  DEN d   1       0.407  -1.635  -0.398  0.00  0.00     0.130 A 
ATOM      2  C2  DEN d   1       1.607  -2.330   0.060  0.00  0.00    -0.031 A 
ATOM      3  C3  DEN d   1       2.526  -1.326   0.631  0.00  0.00     0.027 A 
ATOM      4  C4  DEN d   1       2.208   1.224   0.854  0.00  0.00     0.027 A 
ATOM      5  C5  DEN d   1       1.357   2.276   0.597  0.00  0.00    -0.003 A 
ATOM      6  C6  DEN d   1       0.154   2.104  -0.035  0.00  0.00     0.001 A 
ATOM      7  C7  DEN d   1      -0.251   0.845  -0.391  0.00  0.00     0.017 A 
ATOM      8  C8  DEN d   1       0.605  -0.220  -0.142  0.00  0.00    -0.094 A 
ATOM      9  C9  DEN d   1       1.811  -0.027   0.509  0.00  0.00    -0.072 A 
ENDROOT
TORSDOF 0
ENDMDL
