MODEL 1
REMARK minimizedAffinity -0.256906837
REMARK minimizedRMSD -1
REMARK  0 active torsions:
REMARK  status: ('A' for Active; 'I' for Inactive)
ROOT
ATOM      1  C2' OXE d   1      -0.663   0.664  -0.752  0.00  0.00     0.078 C 
ATOM      2  C1' OXE d   1       1.897  -0.298  -1.382  0.00  0.00     0.078 C 
ATOM      3  C1  OXE d   1       1.299  -0.705  -0.058  0.00  0.00    -0.078 A 
ATOM      4  C2  OXE d   1       0.065  -0.191   0.262  0.00  0.00    -0.078 A 
ATOM      5  C3  OXE d   1      -0.556  -0.578   1.446  0.00  0.00     0.003 A 
ATOM      6  C4  OXE d   1       0.128  -1.362   2.383  0.00  0.00    -0.002 A 
ATOM      7  C5  OXE d   1       1.402  -1.863   2.093  0.00  0.00    -0.002 A 
ATOM      8  C6  OXE d   1       1.982  -1.579   0.862  0.00  0.00     0.003 A 
ENDROOT
TORSDOF 0
ENDMDL
