MODEL 1
REMARK minimizedAffinity -5.10283661
REMARK minimizedRMSD -1
REMARK  0 active torsions:
REMARK  status: ('A' for Active; 'I' for Inactive)
ROOT
ATOM      1  C2' OXE d   1      -0.641   0.656  -0.428  0.00  0.00     0.078 C 
ATOM      2  C1' OXE d   1       1.810  -0.701  -0.608  0.00  0.00     0.078 C 
ATOM      3  C1  OXE d   1       0.984  -0.902   0.638  0.00  0.00    -0.078 A 
ATOM      4  C2  OXE d   1      -0.192  -0.197   0.738  0.00  0.00    -0.078 A 
ATOM      5  C3  OXE d   1      -1.018  -0.388   1.842  0.00  0.00     0.003 A 
ATOM      6  C4  OXE d   1      -0.590  -1.171   2.921  0.00  0.00    -0.002 A 
ATOM      7  C5  OXE d   1       0.622  -1.866   2.857  0.00  0.00    -0.002 A 
ATOM      8  C6  OXE d   1       1.400  -1.776   1.707  0.00  0.00     0.003 A 
ENDROOT
TORSDOF 0
ENDMDL
