MODEL 1
REMARK minimizedAffinity -0.0890932977
REMARK minimizedRMSD -1
REMARK  0 active torsions:
REMARK  status: ('A' for Active; 'I' for Inactive)
ROOT
ATOM      1  C2' OXE d   1      -1.370   1.703  -1.641  0.00  0.00     0.078 C 
ATOM      2  C1' OXE d   1      -1.532   1.243   1.123  0.00  0.00     0.078 C 
ATOM      3  C1  OXE d   1      -0.420   0.566   0.362  0.00  0.00    -0.078 A 
ATOM      4  C2  OXE d   1      -0.377   0.760  -0.998  0.00  0.00    -0.078 A 
ATOM      5  C3  OXE d   1       0.661   0.202  -1.741  0.00  0.00     0.003 A 
ATOM      6  C4  OXE d   1       1.569  -0.677  -1.140  0.00  0.00    -0.002 A 
ATOM      7  C5  OXE d   1       1.518  -0.920   0.237  0.00  0.00    -0.002 A 
ATOM      8  C6  OXE d   1       0.558  -0.274   1.007  0.00  0.00     0.003 A 
ENDROOT
TORSDOF 0
ENDMDL
