MODEL 1
REMARK minimizedAffinity -3.24932885
REMARK minimizedRMSD -1
REMARK  0 active torsions:
REMARK  status: ('A' for Active; 'I' for Inactive)
ROOT
ATOM      1  C2' OXE d   1      -1.674   0.541   1.747  0.00  0.00     0.078 C 
ATOM      2  C1' OXE d   1      -0.916   1.341  -0.835  0.00  0.00     0.078 C 
ATOM      3  C1  OXE d   1      -0.040   0.340  -0.123  0.00  0.00    -0.078 A 
ATOM      4  C2  OXE d   1      -0.393  -0.010   1.158  0.00  0.00    -0.078 A 
ATOM      5  C3  OXE d   1       0.350  -0.970   1.839  0.00  0.00     0.003 A 
ATOM      6  C4  OXE d   1       1.539  -1.467   1.291  0.00  0.00    -0.002 A 
ATOM      7  C5  OXE d   1       1.938  -1.093   0.003  0.00  0.00    -0.002 A 
ATOM      8  C6  OXE d   1       1.139  -0.225  -0.732  0.00  0.00     0.003 A 
ENDROOT
TORSDOF 0
ENDMDL
