MODEL 1
REMARK minimizedAffinity -4.39543867
REMARK minimizedRMSD -1
REMARK  0 active torsions:
REMARK  status: ('A' for Active; 'I' for Inactive)
ROOT
ATOM      1  C2' OXE d   1      -2.036   1.349  -1.904  0.00  0.00     0.078 C 
ATOM      2  C1' OXE d   1      -1.237   1.425   0.786  0.00  0.00     0.078 C 
ATOM      3  C1  OXE d   1      -0.333   0.722  -0.197  0.00  0.00    -0.078 A 
ATOM      4  C2  OXE d   1      -0.755   0.650  -1.503  0.00  0.00    -0.078 A 
ATOM      5  C3  OXE d   1       0.066   0.061  -2.461  0.00  0.00     0.003 A 
ATOM      6  C4  OXE d   1       1.244  -0.592  -2.079  0.00  0.00    -0.002 A 
ATOM      7  C5  OXE d   1       1.672  -0.565  -0.748  0.00  0.00    -0.002 A 
ATOM      8  C6  OXE d   1       0.918   0.124   0.196  0.00  0.00     0.003 A 
ENDROOT
TORSDOF 0
ENDMDL
