MODEL 1
REMARK minimizedAffinity -1.27447116
REMARK minimizedRMSD -1
REMARK  0 active torsions:
REMARK  status: ('A' for Active; 'I' for Inactive)
ROOT
ATOM      1  C2' OXE d   1       0.584   0.012  -0.468  0.00  0.00     0.078 C 
ATOM      2  C1' OXE d   1      -1.506   1.294   0.899  0.00  0.00     0.078 C 
ATOM      3  C1  OXE d   1      -1.472   1.412  -0.604  0.00  0.00    -0.078 A 
ATOM      4  C2  OXE d   1      -0.420   0.821  -1.261  0.00  0.00    -0.078 A 
ATOM      5  C3  OXE d   1      -0.370   0.854  -2.652  0.00  0.00     0.003 A 
ATOM      6  C4  OXE d   1      -1.296   1.613  -3.377  0.00  0.00    -0.002 A 
ATOM      7  C5  OXE d   1      -2.353   2.256  -2.723  0.00  0.00    -0.002 A 
ATOM      8  C6  OXE d   1      -2.479   2.130  -1.344  0.00  0.00     0.003 A 
ENDROOT
TORSDOF 0
ENDMDL
