MODEL 1
REMARK minimizedAffinity 0.304396152
REMARK minimizedRMSD -1
REMARK  0 active torsions:
REMARK  status: ('A' for Active; 'I' for Inactive)
ROOT
ATOM      1  C2' OXE d   1       2.276  -1.310   0.716  0.00  0.00     0.078 C 
ATOM      2  C1' OXE d   1       2.747   0.894  -0.958  0.00  0.00     0.078 C 
ATOM      3  C1  OXE d   1       1.333   0.655  -0.490  0.00  0.00    -0.078 A 
ATOM      4  C2  OXE d   1       1.104  -0.452   0.291  0.00  0.00    -0.078 A 
ATOM      5  C3  OXE d   1      -0.172  -0.688   0.794  0.00  0.00     0.003 A 
ATOM      6  C4  OXE d   1      -1.252   0.104   0.388  0.00  0.00    -0.002 A 
ATOM      7  C5  OXE d   1      -1.048   1.214  -0.439  0.00  0.00    -0.002 A 
ATOM      8  C6  OXE d   1       0.243   1.527  -0.852  0.00  0.00     0.003 A 
ENDROOT
TORSDOF 0
ENDMDL
