MODEL 1
REMARK minimizedAffinity 0.0203427486
REMARK minimizedRMSD -1
REMARK  0 active torsions:
REMARK  status: ('A' for Active; 'I' for Inactive)
ROOT
ATOM      1  C2' OXE d   1       2.043  -1.621   1.372  0.00  0.00     0.078 C 
ATOM      2  C1' OXE d   1      -0.363  -1.246   2.770  0.00  0.00     0.078 C 
ATOM      3  C1  OXE d   1      -0.200  -0.539   1.447  0.00  0.00    -0.078 A 
ATOM      4  C2  OXE d   1       0.999  -0.691   0.793  0.00  0.00    -0.078 A 
ATOM      5  C3  OXE d   1       1.181  -0.105  -0.457  0.00  0.00     0.003 A 
ATOM      6  C4  OXE d   1       0.214   0.762  -0.981  0.00  0.00    -0.002 A 
ATOM      7  C5  OXE d   1      -0.998   0.962  -0.312  0.00  0.00    -0.002 A 
ATOM      8  C6  OXE d   1      -1.237   0.287   0.880  0.00  0.00     0.003 A 
ENDROOT
TORSDOF 0
ENDMDL
