MODEL 1
REMARK minimizedAffinity -3.55691504
REMARK minimizedRMSD -1
REMARK  0 active torsions:
REMARK  status: ('A' for Active; 'I' for Inactive)
ROOT
ATOM      1  C2' OXE d   1      -1.675   0.709   1.564  0.00  0.00     0.078 C 
ATOM      2  C1' OXE d   1      -0.413  -1.480   2.787  0.00  0.00     0.078 C 
ATOM      3  C1  OXE d   1       0.242  -0.882   1.567  0.00  0.00    -0.078 A 
ATOM      4  C2  OXE d   1      -0.407   0.159   0.947  0.00  0.00    -0.078 A 
ATOM      5  C3  OXE d   1       0.181   0.782  -0.150  0.00  0.00     0.003 A 
ATOM      6  C4  OXE d   1       1.349   0.260  -0.719  0.00  0.00    -0.002 A 
ATOM      7  C5  OXE d   1       2.004  -0.825  -0.127  0.00  0.00    -0.002 A 
ATOM      8  C6  OXE d   1       1.488  -1.379   1.039  0.00  0.00     0.003 A 
ENDROOT
TORSDOF 0
ENDMDL
