MODEL 1
REMARK minimizedAffinity -2.92904711
REMARK minimizedRMSD -1
REMARK  0 active torsions:
REMARK  status: ('A' for Active; 'I' for Inactive)
ROOT
ATOM      1  C2' OXE d   1      -0.401  -0.905   2.549  0.00  0.00     0.078 C 
ATOM      2  C1' OXE d   1       2.015  -1.441   1.223  0.00  0.00     0.078 C 
ATOM      3  C1  OXE d   1       0.947  -0.694   0.464  0.00  0.00    -0.078 A 
ATOM      4  C2  OXE d   1      -0.249  -0.477   1.105  0.00  0.00    -0.078 A 
ATOM      5  C3  OXE d   1      -1.249   0.254   0.470  0.00  0.00     0.003 A 
ATOM      6  C4  OXE d   1      -1.105   0.638  -0.869  0.00  0.00    -0.002 A 
ATOM      7  C5  OXE d   1       0.091   0.392  -1.553  0.00  0.00    -0.002 A 
ATOM      8  C6  OXE d   1       1.140  -0.234  -0.889  0.00  0.00     0.003 A 
ENDROOT
TORSDOF 0
ENDMDL
