MODEL 1
REMARK minimizedAffinity -3.60406733
REMARK minimizedRMSD -1
REMARK  0 active torsions:
REMARK  status: ('A' for Active; 'I' for Inactive)
ROOT
ATOM      1  C2' OXE d   1      -1.834   1.114  -2.161  0.00  0.00     0.078 C 
ATOM      2  C1' OXE d   1      -0.930   1.752   0.418  0.00  0.00     0.078 C 
ATOM      3  C1  OXE d   1      -0.167   0.706  -0.356  0.00  0.00    -0.078 A 
ATOM      4  C2  OXE d   1      -0.644   0.367  -1.599  0.00  0.00    -0.078 A 
ATOM      5  C3  OXE d   1       0.054  -0.552  -2.377  0.00  0.00     0.003 A 
ATOM      6  C4  OXE d   1       1.148  -1.246  -1.846  0.00  0.00    -0.002 A 
ATOM      7  C5  OXE d   1       1.626  -0.944  -0.567  0.00  0.00    -0.002 A 
ATOM      8  C6  OXE d   1       1.008   0.058   0.173  0.00  0.00     0.003 A 
ENDROOT
TORSDOF 0
ENDMDL
