MODEL 1
REMARK minimizedAffinity -1.73106158
REMARK minimizedRMSD -1
REMARK  0 active torsions:
REMARK  status: ('A' for Active; 'I' for Inactive)
ROOT
ATOM      1  C2' OXE d   1       0.170   0.217   0.180  0.00  0.00     0.078 C 
ATOM      2  C1' OXE d   1      -1.344   2.438   0.991  0.00  0.00     0.078 C 
ATOM      3  C1  OXE d   1      -1.531   1.936  -0.419  0.00  0.00    -0.078 A 
ATOM      4  C2  OXE d   1      -0.752   0.878  -0.822  0.00  0.00    -0.078 A 
ATOM      5  C3  OXE d   1      -0.924   0.342  -2.095  0.00  0.00     0.003 A 
ATOM      6  C4  OXE d   1      -1.771   0.966  -3.019  0.00  0.00    -0.002 A 
ATOM      7  C5  OXE d   1      -2.544   2.069  -2.641  0.00  0.00    -0.002 A 
ATOM      8  C6  OXE d   1      -2.467   2.539  -1.335  0.00  0.00     0.003 A 
ENDROOT
TORSDOF 0
ENDMDL
