MODEL 1
REMARK minimizedAffinity -2.89712238
REMARK minimizedRMSD -1
REMARK  0 active torsions:
REMARK  status: ('A' for Active; 'I' for Inactive)
ROOT
ATOM      1  C2' OXE d   1      -1.233   1.372   0.799  0.00  0.00     0.078 C 
ATOM      2  C1' OXE d   1      -0.751   2.228  -1.830  0.00  0.00     0.078 C 
ATOM      3  C1  OXE d   1       0.114   1.121  -1.281  0.00  0.00    -0.078 A 
ATOM      4  C2  OXE d   1      -0.098   0.740   0.022  0.00  0.00    -0.078 A 
ATOM      5  C3  OXE d   1       0.635  -0.314   0.560  0.00  0.00     0.003 A 
ATOM      6  C4  OXE d   1       1.689  -0.885  -0.162  0.00  0.00    -0.002 A 
ATOM      7  C5  OXE d   1       1.948  -0.485  -1.477  0.00  0.00    -0.002 A 
ATOM      8  C6  OXE d   1       1.144   0.485  -2.065  0.00  0.00     0.003 A 
ENDROOT
TORSDOF 0
ENDMDL
