MODEL 1
REMARK minimizedAffinity -3.97487855
REMARK minimizedRMSD -1
REMARK  0 active torsions:
REMARK  status: ('A' for Active; 'I' for Inactive)
ROOT
ATOM      1  C2' OXE d   1       0.097  -1.721   3.586  0.00  0.00     0.078 C 
ATOM      2  C1' OXE d   1      -1.598   0.077   2.254  0.00  0.00     0.078 C 
ATOM      3  C1  OXE d   1      -0.297  -0.290   1.585  0.00  0.00    -0.078 A 
ATOM      4  C2  OXE d   1       0.548  -1.134   2.266  0.00  0.00    -0.078 A 
ATOM      5  C3  OXE d   1       1.736  -1.547   1.670  0.00  0.00     0.003 A 
ATOM      6  C4  OXE d   1       2.150  -0.991   0.453  0.00  0.00    -0.002 A 
ATOM      7  C5  OXE d   1       1.323  -0.099  -0.237  0.00  0.00    -0.002 A 
ATOM      8  C6  OXE d   1       0.080   0.228   0.293  0.00  0.00     0.003 A 
ENDROOT
TORSDOF 0
ENDMDL
