MODEL 1
REMARK minimizedAffinity -4.72965813
REMARK minimizedRMSD -1
REMARK  0 active torsions:
REMARK  status: ('A' for Active; 'I' for Inactive)
ROOT
ATOM      1  C2' OXE d   1      -0.733   0.960   0.207  0.00  0.00     0.078 C 
ATOM      2  C1' OXE d   1       1.840  -0.039  -0.307  0.00  0.00     0.078 C 
ATOM      3  C1  OXE d   1       1.112  -0.560   0.907  0.00  0.00    -0.078 A 
ATOM      4  C2  OXE d   1      -0.127  -0.031   1.177  0.00  0.00    -0.078 A 
ATOM      5  C3  OXE d   1      -0.864  -0.517   2.254  0.00  0.00     0.003 A 
ATOM      6  C4  OXE d   1      -0.292  -1.426   3.152  0.00  0.00    -0.002 A 
ATOM      7  C5  OXE d   1       0.984  -1.948   2.917  0.00  0.00    -0.002 A 
ATOM      8  C6  OXE d   1       1.681  -1.558   1.779  0.00  0.00     0.003 A 
ENDROOT
TORSDOF 0
ENDMDL
