MODEL 1
REMARK minimizedAffinity -1.1683048
REMARK minimizedRMSD -1
REMARK  0 active torsions:
REMARK  status: ('A' for Active; 'I' for Inactive)
ROOT
ATOM      1  C2' OXE d   1      -0.643  -0.833   2.256  0.00  0.00     0.078 C 
ATOM      2  C1' OXE d   1       2.042  -1.280   1.569  0.00  0.00     0.078 C 
ATOM      3  C1  OXE d   1       1.151  -0.632   0.539  0.00  0.00    -0.078 A 
ATOM      4  C2  OXE d   1      -0.173  -0.460   0.867  0.00  0.00    -0.078 A 
ATOM      5  C3  OXE d   1      -1.026   0.183  -0.026  0.00  0.00     0.003 A 
ATOM      6  C4  OXE d   1      -0.586   0.516  -1.312  0.00  0.00    -0.002 A 
ATOM      7  C5  OXE d   1       0.749   0.312  -1.681  0.00  0.00    -0.002 A 
ATOM      8  C6  OXE d   1       1.638  -0.220  -0.754  0.00  0.00     0.003 A 
ENDROOT
TORSDOF 0
ENDMDL
