MODEL 1
REMARK minimizedAffinity -0.253259718
REMARK minimizedRMSD -1
REMARK  0 active torsions:
REMARK  status: ('A' for Active; 'I' for Inactive)
ROOT
ATOM      1  C2' OXE d   1      -1.848   1.643  -2.120  0.00  0.00     0.078 C 
ATOM      2  C1' OXE d   1      -1.516   1.789   0.664  0.00  0.00     0.078 C 
ATOM      3  C1  OXE d   1      -0.518   0.975  -0.121  0.00  0.00    -0.078 A 
ATOM      4  C2  OXE d   1      -0.715   0.871  -1.477  0.00  0.00    -0.078 A 
ATOM      5  C3  OXE d   1       0.207   0.178  -2.257  0.00  0.00     0.003 A 
ATOM      6  C4  OXE d   1       1.245  -0.541  -1.654  0.00  0.00    -0.002 A 
ATOM      7  C5  OXE d   1       1.441  -0.482  -0.270  0.00  0.00    -0.002 A 
ATOM      8  C6  OXE d   1       0.595   0.305   0.504  0.00  0.00     0.003 A 
ENDROOT
TORSDOF 0
ENDMDL
