MODEL 1
REMARK minimizedAffinity -2.4989841
REMARK minimizedRMSD -1
REMARK  0 active torsions:
REMARK  status: ('A' for Active; 'I' for Inactive)
ROOT
ATOM      1  C2' OXE d   1      -0.529   1.007  -0.778  0.00  0.00     0.078 C 
ATOM      2  C1' OXE d   1      -1.605   0.328   1.724  0.00  0.00     0.078 C 
ATOM      3  C1  OXE d   1      -0.255  -0.238   1.362  0.00  0.00    -0.078 A 
ATOM      4  C2  OXE d   1       0.243   0.061   0.117  0.00  0.00    -0.078 A 
ATOM      5  C3  OXE d   1       1.509  -0.390  -0.246  0.00  0.00     0.003 A 
ATOM      6  C4  OXE d   1       2.212  -1.272   0.583  0.00  0.00    -0.002 A 
ATOM      7  C5  OXE d   1       1.705  -1.622   1.839  0.00  0.00    -0.002 A 
ATOM      8  C6  OXE d   1       0.495  -1.081   2.260  0.00  0.00     0.003 A 
ENDROOT
TORSDOF 0
ENDMDL
