MODEL 1
REMARK minimizedAffinity 13.8332157
REMARK minimizedRMSD -1
REMARK  0 active torsions:
REMARK  status: ('A' for Active; 'I' for Inactive)
ROOT
ATOM      1  C2' OXE d   1      -4.158   0.777  -0.450  0.00  0.00     0.078 C 
ATOM      2  C1' OXE d   1      -1.758   0.967   0.995  0.00  0.00     0.078 C 
ATOM      3  C1  OXE d   1      -1.798   1.574  -0.385  0.00  0.00    -0.078 A 
ATOM      4  C2  OXE d   1      -2.962   1.435  -1.103  0.00  0.00    -0.078 A 
ATOM      5  C3  OXE d   1      -3.071   2.024  -2.360  0.00  0.00     0.003 A 
ATOM      6  C4  OXE d   1      -1.957   2.623  -2.961  0.00  0.00    -0.002 A 
ATOM      7  C5  OXE d   1      -0.751   2.740  -2.263  0.00  0.00    -0.002 A 
ATOM      8  C6  OXE d   1      -0.668   2.259  -0.960  0.00  0.00     0.003 A 
ENDROOT
TORSDOF 0
ENDMDL
