MODEL 1
REMARK minimizedAffinity -3.70680094
REMARK minimizedRMSD -1
REMARK  0 active torsions:
REMARK  status: ('A' for Active; 'I' for Inactive)
ROOT
ATOM      1  C   UNL d   1      -1.771  -2.663   1.149  0.00  0.00     0.077 C 
ATOM      2  C1  UNL d   1      -1.066  -1.401   0.748  0.00  0.00    -0.074 A 
ATOM      3  C2  UNL d   1      -1.765  -0.196   0.627  0.00  0.00    -0.005 A 
ATOM      4  C3  UNL d   1      -1.095   0.972   0.263  0.00  0.00     0.006 A 
ATOM      5  C4  UNL d   1       0.278   0.946   0.015  0.00  0.00    -0.005 A 
ATOM      6  C5  UNL d   1       0.994  -0.250   0.131  0.00  0.00    -0.074 A 
ATOM      7  C6  UNL d   1       2.471  -0.294  -0.122  0.00  0.00     0.077 C 
ATOM      8  C7  UNL d   1       0.314  -1.418   0.505  0.00  0.00    -0.001 A 
ENDROOT
TORSDOF 0
ENDMDL
