MODEL 1
REMARK minimizedAffinity -5.76024628
REMARK minimizedRMSD -1
REMARK  0 active torsions:
REMARK  status: ('A' for Active; 'I' for Inactive)
ROOT
ATOM      1  C   UNL d   1      -2.315  -2.556   1.780  0.00  0.00     0.077 C 
ATOM      2  C1  UNL d   1      -1.288  -1.601   1.250  0.00  0.00    -0.074 A 
ATOM      3  C2  UNL d   1      -1.603  -0.257   1.027  0.00  0.00    -0.005 A 
ATOM      4  C3  UNL d   1      -0.634   0.622   0.543  0.00  0.00     0.006 A 
ATOM      5  C4  UNL d   1       0.658   0.167   0.278  0.00  0.00    -0.005 A 
ATOM      6  C5  UNL d   1       0.992  -1.174   0.495  0.00  0.00    -0.074 A 
ATOM      7  C6  UNL d   1       2.379  -1.677   0.225  0.00  0.00     0.077 C 
ATOM      8  C7  UNL d   1       0.015  -2.049   0.988  0.00  0.00    -0.001 A 
ENDROOT
TORSDOF 0
ENDMDL
