MODEL 1
REMARK minimizedAffinity -4.35420799
REMARK minimizedRMSD -1
REMARK  0 active torsions:
REMARK  status: ('A' for Active; 'I' for Inactive)
ROOT
ATOM      1  C   UNL d   1      -1.882  -2.606   0.339  0.00  0.00     0.077 C 
ATOM      2  C1  UNL d   1      -0.705  -1.678   0.289  0.00  0.00    -0.074 A 
ATOM      3  C2  UNL d   1       0.557  -2.093   0.728  0.00  0.00    -0.005 A 
ATOM      4  C3  UNL d   1       1.644  -1.221   0.666  0.00  0.00     0.006 A 
ATOM      5  C4  UNL d   1       1.481   0.071   0.167  0.00  0.00    -0.005 A 
ATOM      6  C5  UNL d   1       0.227   0.503  -0.277  0.00  0.00    -0.074 A 
ATOM      7  C6  UNL d   1       0.037   1.886  -0.826  0.00  0.00     0.077 C 
ATOM      8  C7  UNL d   1      -0.859  -0.380  -0.219  0.00  0.00    -0.001 A 
ENDROOT
TORSDOF 0
ENDMDL
