MODEL 1
REMARK minimizedAffinity -2.85530043
REMARK minimizedRMSD -1
REMARK  0 active torsions:
REMARK  status: ('A' for Active; 'I' for Inactive)
ROOT
ATOM      1  C   UNL d   1      -2.057  -2.990   1.698  0.00  0.00     0.077 C 
ATOM      2  C1  UNL d   1      -1.344  -1.822   1.085  0.00  0.00    -0.074 A 
ATOM      3  C2  UNL d   1      -1.936  -0.556   1.049  0.00  0.00    -0.005 A 
ATOM      4  C3  UNL d   1      -1.257   0.523   0.484  0.00  0.00     0.006 A 
ATOM      5  C4  UNL d   1       0.020   0.348  -0.050  0.00  0.00    -0.005 A 
ATOM      6  C5  UNL d   1       0.630  -0.911  -0.022  0.00  0.00    -0.074 A 
ATOM      7  C6  UNL d   1       2.006  -1.115  -0.583  0.00  0.00     0.077 C 
ATOM      8  C7  UNL d   1      -0.057  -1.989   0.554  0.00  0.00    -0.001 A 
ENDROOT
TORSDOF 0
ENDMDL
