MODEL 1
REMARK minimizedAffinity -4.08136892
REMARK minimizedRMSD -1
REMARK  0 active torsions:
REMARK  status: ('A' for Active; 'I' for Inactive)
ROOT
ATOM      1  C   UNL d   1      -2.246  -2.379   0.515  0.00  0.00     0.077 C 
ATOM      2  C1  UNL d   1      -1.130  -1.377   0.522  0.00  0.00    -0.074 A 
ATOM      3  C2  UNL d   1      -0.006  -1.559   1.334  0.00  0.00    -0.005 A 
ATOM      4  C3  UNL d   1       1.029  -0.624   1.322  0.00  0.00     0.006 A 
ATOM      5  C4  UNL d   1       0.951   0.501   0.500  0.00  0.00    -0.005 A 
ATOM      6  C5  UNL d   1      -0.165   0.699  -0.319  0.00  0.00    -0.074 A 
ATOM      7  C6  UNL d   1      -0.261   1.898  -1.216  0.00  0.00     0.077 C 
ATOM      8  C7  UNL d   1      -1.198  -0.249  -0.307  0.00  0.00    -0.001 A 
ENDROOT
TORSDOF 0
ENDMDL
