MODEL 1
REMARK minimizedAffinity -3.37386227
REMARK minimizedRMSD -1
REMARK  0 active torsions:
REMARK  status: ('A' for Active; 'I' for Inactive)
ROOT
ATOM      1  C   UNL d   1      -1.823   2.294   0.817  0.00  0.00     0.077 C 
ATOM      2  C1  UNL d   1      -1.063   1.022   0.582  0.00  0.00    -0.074 A 
ATOM      3  C2  UNL d   1       0.250   1.048   0.100  0.00  0.00    -0.005 A 
ATOM      4  C3  UNL d   1       0.947  -0.142  -0.105  0.00  0.00     0.006 A 
ATOM      5  C4  UNL d   1       0.339  -1.369   0.168  0.00  0.00    -0.005 A 
ATOM      6  C5  UNL d   1      -0.973  -1.414   0.650  0.00  0.00    -0.074 A 
ATOM      7  C6  UNL d   1      -1.637  -2.723   0.958  0.00  0.00     0.077 C 
ATOM      8  C7  UNL d   1      -1.664  -0.213   0.861  0.00  0.00    -0.001 A 
ENDROOT
TORSDOF 0
ENDMDL
