MODEL 1
REMARK minimizedAffinity -4.73053169
REMARK minimizedRMSD -1
REMARK  0 active torsions:
REMARK  status: ('A' for Active; 'I' for Inactive)
ROOT
ATOM      1  C   UNL d   1      -2.651  -2.355   1.085  0.00  0.00     0.077 C 
ATOM      2  C1  UNL d   1      -1.381  -1.611   0.798  0.00  0.00    -0.074 A 
ATOM      3  C2  UNL d   1      -0.138  -2.243   0.907  0.00  0.00    -0.005 A 
ATOM      4  C3  UNL d   1       1.035  -1.540   0.628  0.00  0.00     0.006 A 
ATOM      5  C4  UNL d   1       0.976  -0.202   0.238  0.00  0.00    -0.005 A 
ATOM      6  C5  UNL d   1      -0.258   0.446   0.123  0.00  0.00    -0.074 A 
ATOM      7  C6  UNL d   1      -0.339   1.882  -0.304  0.00  0.00     0.077 C 
ATOM      8  C7  UNL d   1      -1.432  -0.268   0.399  0.00  0.00    -0.001 A 
ENDROOT
TORSDOF 0
ENDMDL
