MODEL 1
REMARK minimizedAffinity -3.9352057
REMARK minimizedRMSD -1
REMARK  0 active torsions:
REMARK  status: ('A' for Active; 'I' for Inactive)
ROOT
ATOM      1  C   UNL d   1      -2.326  -2.718   1.383  0.00  0.00     0.077 C 
ATOM      2  C1  UNL d   1      -1.124  -1.920   0.977  0.00  0.00    -0.074 A 
ATOM      3  C2  UNL d   1       0.151  -2.495   0.965  0.00  0.00    -0.005 A 
ATOM      4  C3  UNL d   1       1.259  -1.742   0.575  0.00  0.00     0.006 A 
ATOM      5  C4  UNL d   1       1.103  -0.409   0.194  0.00  0.00    -0.005 A 
ATOM      6  C5  UNL d   1      -0.164   0.183   0.198  0.00  0.00    -0.074 A 
ATOM      7  C6  UNL d   1      -0.350   1.612  -0.218  0.00  0.00     0.077 C 
ATOM      8  C7  UNL d   1      -1.273  -0.582   0.585  0.00  0.00    -0.001 A 
ENDROOT
TORSDOF 0
ENDMDL
