MODEL 1
REMARK minimizedAffinity -1.85603297
REMARK minimizedRMSD -1
REMARK  0 active torsions:
REMARK  status: ('A' for Active; 'I' for Inactive)
ROOT
ATOM      1  C   UNL d   1       1.137   1.121  -0.130  0.00  0.00     0.077 C 
ATOM      2  C1  UNL d   1       1.532   1.461  -1.537  0.00  0.00    -0.074 A 
ATOM      3  C2  UNL d   1       0.602   1.992  -2.436  0.00  0.00    -0.005 A 
ATOM      4  C3  UNL d   1       0.986   2.312  -3.738  0.00  0.00     0.006 A 
ATOM      5  C4  UNL d   1       2.301   2.104  -4.154  0.00  0.00    -0.005 A 
ATOM      6  C5  UNL d   1       3.245   1.574  -3.269  0.00  0.00    -0.074 A 
ATOM      7  C6  UNL d   1       4.666   1.353  -3.697  0.00  0.00     0.077 C 
ATOM      8  C7  UNL d   1       2.854   1.262  -1.960  0.00  0.00    -0.001 A 
ENDROOT
TORSDOF 0
ENDMDL
