MODEL 1
REMARK minimizedAffinity -0.0129882051
REMARK minimizedRMSD -1
REMARK  0 active torsions:
REMARK  status: ('A' for Active; 'I' for Inactive)
ROOT
ATOM      1  C   UNL d   1       4.215   2.404  -3.005  0.00  0.00     0.077 C 
ATOM      2  C1  UNL d   1       2.740   2.449  -2.735  0.00  0.00    -0.074 A 
ATOM      3  C2  UNL d   1       1.896   3.274  -3.485  0.00  0.00    -0.005 A 
ATOM      4  C3  UNL d   1       0.526   3.298  -3.228  0.00  0.00     0.006 A 
ATOM      5  C4  UNL d   1      -0.014   2.499  -2.220  0.00  0.00    -0.005 A 
ATOM      6  C5  UNL d   1       0.814   1.668  -1.459  0.00  0.00    -0.074 A 
ATOM      7  C6  UNL d   1       0.249   0.796  -0.378  0.00  0.00     0.077 C 
ATOM      8  C7  UNL d   1       2.189   1.644  -1.728  0.00  0.00    -0.001 A 
ENDROOT
TORSDOF 0
ENDMDL
