MODEL 1
REMARK minimizedAffinity -3.4300158
REMARK minimizedRMSD -1
REMARK  0 active torsions:
REMARK  status: ('A' for Active; 'I' for Inactive)
ROOT
ATOM      1  C   UNL d   1       0.194   0.588  -0.229  0.00  0.00     0.077 C 
ATOM      2  C1  UNL d   1       0.717   1.182  -1.503  0.00  0.00    -0.074 A 
ATOM      3  C2  UNL d   1      -0.155   1.579  -2.522  0.00  0.00    -0.005 A 
ATOM      4  C3  UNL d   1       0.346   2.139  -3.697  0.00  0.00     0.006 A 
ATOM      5  C4  UNL d   1       1.721   2.307  -3.865  0.00  0.00    -0.005 A 
ATOM      6  C5  UNL d   1       2.608   1.917  -2.857  0.00  0.00    -0.074 A 
ATOM      7  C6  UNL d   1       4.088   2.099  -3.017  0.00  0.00     0.077 C 
ATOM      8  C7  UNL d   1       2.097   1.362  -1.676  0.00  0.00    -0.001 A 
ENDROOT
TORSDOF 0
ENDMDL
