MODEL 1
REMARK minimizedAffinity -2.73058915
REMARK minimizedRMSD -1
REMARK  0 active torsions:
REMARK  status: ('A' for Active; 'I' for Inactive)
ROOT
ATOM      1  C   UNL d   1       3.301   0.765  -0.118  0.00  0.00     0.077 C 
ATOM      2  C1  UNL d   1       1.868   0.688   0.317  0.00  0.00    -0.074 A 
ATOM      3  C2  UNL d   1       1.119   1.850   0.531  0.00  0.00    -0.005 A 
ATOM      4  C3  UNL d   1      -0.216   1.763   0.926  0.00  0.00     0.006 A 
ATOM      5  C4  UNL d   1      -0.814   0.517   1.113  0.00  0.00    -0.005 A 
ATOM      6  C5  UNL d   1      -0.081  -0.656   0.903  0.00  0.00    -0.074 A 
ATOM      7  C6  UNL d   1      -0.711  -2.004   1.090  0.00  0.00     0.077 C 
ATOM      8  C7  UNL d   1       1.258  -0.561   0.499  0.00  0.00    -0.001 A 
ENDROOT
TORSDOF 0
ENDMDL
