MODEL 1
REMARK minimizedAffinity -5.3992362
REMARK minimizedRMSD -1
REMARK  0 active torsions:
REMARK  status: ('A' for Active; 'I' for Inactive)
ROOT
ATOM      1  C   UNL d   1       0.285   0.535  -1.098  0.00  0.00     0.077 C 
ATOM      2  C1  UNL d   1       0.171  -0.512  -0.031  0.00  0.00    -0.074 A 
ATOM      3  C2  UNL d   1       1.309  -1.009   0.614  0.00  0.00    -0.005 A 
ATOM      4  C3  UNL d   1       1.186  -1.976   1.611  0.00  0.00     0.006 A 
ATOM      5  C4  UNL d   1      -0.073  -2.456   1.974  0.00  0.00    -0.005 A 
ATOM      6  C5  UNL d   1      -1.222  -1.971   1.341  0.00  0.00    -0.074 A 
ATOM      7  C6  UNL d   1      -2.583  -2.469   1.726  0.00  0.00     0.077 C 
ATOM      8  C7  UNL d   1      -1.091  -0.994   0.345  0.00  0.00    -0.001 A 
ENDROOT
TORSDOF 0
ENDMDL
