MODEL 1
REMARK minimizedAffinity -1.9992311
REMARK minimizedRMSD -1
REMARK  0 active torsions:
REMARK  status: ('A' for Active; 'I' for Inactive)
ROOT
ATOM      1  C   UNL d   1       0.749   0.776   0.008  0.00  0.00     0.077 C 
ATOM      2  C1  UNL d   1       1.140   1.468  -1.264  0.00  0.00    -0.074 A 
ATOM      3  C2  UNL d   1       0.186   2.132  -2.043  0.00  0.00    -0.005 A 
ATOM      4  C3  UNL d   1       0.566   2.780  -3.219  0.00  0.00     0.006 A 
ATOM      5  C4  UNL d   1       1.900   2.770  -3.627  0.00  0.00    -0.005 A 
ATOM      6  C5  UNL d   1       2.868   2.112  -2.861  0.00  0.00    -0.074 A 
ATOM      7  C6  UNL d   1       4.308   2.100  -3.280  0.00  0.00     0.077 C 
ATOM      8  C7  UNL d   1       2.479   1.469  -1.677  0.00  0.00    -0.001 A 
ENDROOT
TORSDOF 0
ENDMDL
