MODEL 1
REMARK minimizedAffinity -5.60750151
REMARK minimizedRMSD -1
REMARK  0 active torsions:
REMARK  status: ('A' for Active; 'I' for Inactive)
ROOT
ATOM      1  C   UNL d   1       0.904   1.049  -0.290  0.00  0.00     0.077 C 
ATOM      2  C1  UNL d   1       0.020   0.059   0.407  0.00  0.00    -0.074 A 
ATOM      3  C2  UNL d   1       0.453  -1.250   0.643  0.00  0.00    -0.005 A 
ATOM      4  C3  UNL d   1      -0.378  -2.157   1.301  0.00  0.00     0.006 A 
ATOM      5  C4  UNL d   1      -1.647  -1.766   1.729  0.00  0.00    -0.005 A 
ATOM      6  C5  UNL d   1      -2.097  -0.462   1.502  0.00  0.00    -0.074 A 
ATOM      7  C6  UNL d   1      -3.454  -0.022   1.964  0.00  0.00     0.077 C 
ATOM      8  C7  UNL d   1      -1.254   0.447   0.847  0.00  0.00    -0.001 A 
ENDROOT
TORSDOF 0
ENDMDL
