MODEL 1
REMARK minimizedAffinity -4.46176052
REMARK minimizedRMSD -1
REMARK  0 active torsions:
REMARK  status: ('A' for Active; 'I' for Inactive)
ROOT
ATOM      1  C   UNL d   1       1.613  -1.415   0.795  0.00  0.00     0.077 C 
ATOM      2  C1  UNL d   1       0.261  -0.774   0.690  0.00  0.00    -0.074 A 
ATOM      3  C2  UNL d   1      -0.883  -1.543   0.459  0.00  0.00    -0.005 A 
ATOM      4  C3  UNL d   1      -2.135  -0.934   0.373  0.00  0.00     0.006 A 
ATOM      5  C4  UNL d   1      -2.254   0.449   0.517  0.00  0.00    -0.005 A 
ATOM      6  C5  UNL d   1      -1.121   1.235   0.749  0.00  0.00    -0.074 A 
ATOM      7  C6  UNL d   1      -1.233   2.721   0.916  0.00  0.00     0.077 C 
ATOM      8  C7  UNL d   1       0.132   0.614   0.841  0.00  0.00    -0.001 A 
ENDROOT
TORSDOF 0
ENDMDL
