MODEL 1
REMARK minimizedAffinity -0.487956613
REMARK minimizedRMSD -1
REMARK  0 active torsions:
REMARK  status: ('A' for Active; 'I' for Inactive)
ROOT
ATOM      1  C   UNL d   1      -2.654  -0.470  -2.919  0.00  0.00     0.124 A 
ATOM      2  C1  UNL d   1      -2.511   0.730  -2.236  0.00  0.00     0.062 A 
ATOM      3  C2  UNL d   1      -1.518   0.872  -1.271  0.00  0.00     0.162 A 
ATOM      4  C3  UNL d   1      -0.659  -0.189  -0.984  0.00  0.00    -0.034 A 
ATOM      5  C4  UNL d   1      -0.810  -1.393  -1.674  0.00  0.00     0.162 A 
ATOM      6  C5  UNL d   1      -1.804  -1.530  -2.638  0.00  0.00     0.062 A 
ATOM      7  F   UNL d   1      -1.941  -2.690  -3.296  0.00  0.00    -0.097 F 
ATOM      8  F1  UNL d   1      -0.001  -2.433  -1.423  0.00  0.00    -0.096 F 
ATOM      9  I   UNL d   1       0.828   0.019   0.458  0.00  0.00    -0.060 I 
ATOM     10  F2  UNL d   1      -1.402   2.043  -0.626  0.00  0.00    -0.096 F 
ATOM     11  F3  UNL d   1      -3.332   1.755  -2.505  0.00  0.00    -0.097 F 
ATOM     12  F4  UNL d   1      -3.611  -0.604  -3.846  0.00  0.00    -0.092 F 
ENDROOT
TORSDOF 0
ENDMDL
