MODEL 1
REMARK minimizedAffinity -3.96098089
REMARK minimizedRMSD -1
REMARK  0 active torsions:
REMARK  status: ('A' for Active; 'I' for Inactive)
ROOT
ATOM      1  C   UNL d   1       1.288   0.520   0.627  0.00  0.00     0.124 A 
ATOM      2  C1  UNL d   1       0.048   1.142   0.577  0.00  0.00     0.062 A 
ATOM      3  C2  UNL d   1      -1.011   0.539  -0.096  0.00  0.00     0.162 A 
ATOM      4  C3  UNL d   1      -0.835  -0.694  -0.724  0.00  0.00    -0.034 A 
ATOM      5  C4  UNL d   1       0.415  -1.313  -0.670  0.00  0.00     0.162 A 
ATOM      6  C5  UNL d   1       1.470  -0.707   0.003  0.00  0.00     0.062 A 
ATOM      7  F   UNL d   1       2.667  -1.309   0.051  0.00  0.00    -0.097 F 
ATOM      8  F1  UNL d   1       0.619  -2.499  -1.262  0.00  0.00    -0.096 F 
ATOM      9  I   UNL d   1      -2.416  -1.599  -1.730  0.00  0.00    -0.060 I 
ATOM     10  F2  UNL d   1      -2.198   1.163  -0.128  0.00  0.00    -0.096 F 
ATOM     11  F3  UNL d   1      -0.131   2.327   1.177  0.00  0.00    -0.097 F 
ATOM     12  F4  UNL d   1       2.305   1.103   1.273  0.00  0.00    -0.092 F 
ENDROOT
TORSDOF 0
ENDMDL
