MODEL 1
REMARK minimizedAffinity -0.573086441
REMARK minimizedRMSD -1
REMARK  0 active torsions:
REMARK  status: ('A' for Active; 'I' for Inactive)
ROOT
ATOM      1  C   UNL d   1       0.828  -2.025   1.051  0.00  0.00     0.124 A 
ATOM      2  C1  UNL d   1       1.913  -1.235   0.697  0.00  0.00     0.062 A 
ATOM      3  C2  UNL d   1       1.745   0.132   0.490  0.00  0.00     0.162 A 
ATOM      4  C3  UNL d   1       0.488   0.717   0.638  0.00  0.00    -0.034 A 
ATOM      5  C4  UNL d   1      -0.599  -0.085   0.993  0.00  0.00     0.162 A 
ATOM      6  C5  UNL d   1      -0.426  -1.450   1.198  0.00  0.00     0.062 A 
ATOM      7  F   UNL d   1      -1.475  -2.212   1.540  0.00  0.00    -0.097 F 
ATOM      8  F1  UNL d   1      -1.821   0.446   1.143  0.00  0.00    -0.096 F 
ATOM      9  I   UNL d   1       0.233   2.760   0.330  0.00  0.00    -0.060 I 
ATOM     10  F2  UNL d   1       2.811   0.871   0.149  0.00  0.00    -0.096 F 
ATOM     11  F3  UNL d   1       3.125  -1.788   0.552  0.00  0.00    -0.097 F 
ATOM     12  F4  UNL d   1       0.992  -3.339   1.248  0.00  0.00    -0.092 F 
ENDROOT
TORSDOF 0
ENDMDL
