MODEL 1
REMARK minimizedAffinity 3.24234581
REMARK minimizedRMSD -1
REMARK  0 active torsions:
REMARK  status: ('A' for Active; 'I' for Inactive)
ROOT
ATOM      1  C   UNL d   1      -3.196  -0.980  -2.255  0.00  0.00     0.124 A 
ATOM      2  C1  UNL d   1      -2.811  -1.486  -1.021  0.00  0.00     0.062 A 
ATOM      3  C2  UNL d   1      -1.769  -0.892  -0.315  0.00  0.00     0.162 A 
ATOM      4  C3  UNL d   1      -1.104   0.216  -0.842  0.00  0.00    -0.034 A 
ATOM      5  C4  UNL d   1      -1.497   0.718  -2.084  0.00  0.00     0.162 A 
ATOM      6  C5  UNL d   1      -2.539   0.121  -2.785  0.00  0.00     0.062 A 
ATOM      7  F   UNL d   1      -2.909   0.611  -3.977  0.00  0.00    -0.097 F 
ATOM      8  F1  UNL d   1      -0.879   1.782  -2.619  0.00  0.00    -0.096 F 
ATOM      9  I   UNL d   1       0.455   1.107   0.211  0.00  0.00    -0.060 I 
ATOM     10  F2  UNL d   1      -1.418  -1.401   0.875  0.00  0.00    -0.096 F 
ATOM     11  F3  UNL d   1      -3.445  -2.550  -0.507  0.00  0.00    -0.097 F 
ATOM     12  F4  UNL d   1      -4.199  -1.555  -2.932  0.00  0.00    -0.092 F 
ENDROOT
TORSDOF 0
ENDMDL
