MODEL 1
REMARK minimizedAffinity -3.65770197
REMARK minimizedRMSD -1
REMARK  0 active torsions:
REMARK  status: ('A' for Active; 'I' for Inactive)
ROOT
ATOM      1  C   UNL d   1       1.752  -1.894   1.755  0.00  0.00     0.124 A 
ATOM      2  C1  UNL d   1       2.650  -0.905   1.379  0.00  0.00     0.062 A 
ATOM      3  C2  UNL d   1       2.190   0.280   0.813  0.00  0.00     0.162 A 
ATOM      4  C3  UNL d   1       0.824   0.483   0.619  0.00  0.00    -0.034 A 
ATOM      5  C4  UNL d   1      -0.074  -0.516   0.998  0.00  0.00     0.162 A 
ATOM      6  C5  UNL d   1       0.391  -1.699   1.564  0.00  0.00     0.062 A 
ATOM      7  F   UNL d   1      -0.479  -2.654   1.926  0.00  0.00    -0.097 F 
ATOM      8  F1  UNL d   1      -1.394  -0.354   0.826  0.00  0.00    -0.096 F 
ATOM      9  I   UNL d   1       0.132   2.254  -0.228  0.00  0.00    -0.060 I 
ATOM     10  F2  UNL d   1       3.081   1.218   0.460  0.00  0.00    -0.096 F 
ATOM     11  F3  UNL d   1       3.965  -1.092   1.562  0.00  0.00    -0.097 F 
ATOM     12  F4  UNL d   1       2.197  -3.034   2.299  0.00  0.00    -0.092 F 
ENDROOT
TORSDOF 0
ENDMDL
