MODEL 1
REMARK minimizedAffinity -3.97471547
REMARK minimizedRMSD -1
REMARK  0 active torsions:
REMARK  status: ('A' for Active; 'I' for Inactive)
ROOT
ATOM      1  C   UNL d   1       1.458  -0.156   0.971  0.00  0.00     0.124 A 
ATOM      2  C1  UNL d   1       0.317  -0.942   1.054  0.00  0.00     0.062 A 
ATOM      3  C2  UNL d   1      -0.705  -0.794   0.121  0.00  0.00     0.162 A 
ATOM      4  C3  UNL d   1      -0.591   0.145  -0.905  0.00  0.00    -0.034 A 
ATOM      5  C4  UNL d   1       0.559   0.932  -0.981  0.00  0.00     0.162 A 
ATOM      6  C5  UNL d   1       1.578   0.780  -0.046  0.00  0.00     0.062 A 
ATOM      7  F   UNL d   1       2.679   1.541  -0.129  0.00  0.00    -0.097 F 
ATOM      8  F1  UNL d   1       0.702   1.844  -1.955  0.00  0.00    -0.096 F 
ATOM      9  I   UNL d   1      -2.117   0.370  -2.302  0.00  0.00    -0.060 I 
ATOM     10  F2  UNL d   1      -1.796  -1.567   0.226  0.00  0.00    -0.096 F 
ATOM     11  F3  UNL d   1       0.198  -1.847   2.037  0.00  0.00    -0.097 F 
ATOM     12  F4  UNL d   1       2.439  -0.300   1.871  0.00  0.00    -0.092 F 
ENDROOT
TORSDOF 0
ENDMDL
