MODEL 1
REMARK minimizedAffinity 0.763596892
REMARK minimizedRMSD -1
REMARK  0 active torsions:
REMARK  status: ('A' for Active; 'I' for Inactive)
ROOT
ATOM      1  C   UNL d   1       1.568   0.665   0.954  0.00  0.00     0.124 A 
ATOM      2  C1  UNL d   1       1.798  -0.434   0.138  0.00  0.00     0.062 A 
ATOM      3  C2  UNL d   1       0.812  -0.870  -0.743  0.00  0.00     0.162 A 
ATOM      4  C3  UNL d   1      -0.412  -0.206  -0.814  0.00  0.00    -0.034 A 
ATOM      5  C4  UNL d   1      -0.636   0.898   0.010  0.00  0.00     0.162 A 
ATOM      6  C5  UNL d   1       0.352   1.330   0.889  0.00  0.00     0.062 A 
ATOM      7  F   UNL d   1       0.128   2.393   1.676  0.00  0.00    -0.097 F 
ATOM      8  F1  UNL d   1      -1.802   1.560  -0.032  0.00  0.00    -0.096 F 
ATOM      9  I   UNL d   1      -1.888  -0.855  -2.129  0.00  0.00    -0.060 I 
ATOM     10  F2  UNL d   1       1.062  -1.935  -1.519  0.00  0.00    -0.096 F 
ATOM     11  F3  UNL d   1       2.972  -1.079   0.199  0.00  0.00    -0.097 F 
ATOM     12  F4  UNL d   1       2.518   1.082   1.801  0.00  0.00    -0.092 F 
ENDROOT
TORSDOF 0
ENDMDL
