MODEL 1
REMARK minimizedAffinity 3.40490794
REMARK minimizedRMSD -1
REMARK  0 active torsions:
REMARK  status: ('A' for Active; 'I' for Inactive)
ROOT
ATOM      1  C   UNL d   1       2.198  -0.510   1.238  0.00  0.00     0.124 A 
ATOM      2  C1  UNL d   1       1.925   0.835   1.029  0.00  0.00     0.062 A 
ATOM      3  C2  UNL d   1       0.726   1.223   0.439  0.00  0.00     0.162 A 
ATOM      4  C3  UNL d   1      -0.212   0.264   0.055  0.00  0.00    -0.034 A 
ATOM      5  C4  UNL d   1       0.069  -1.087   0.267  0.00  0.00     0.162 A 
ATOM      6  C5  UNL d   1       1.270  -1.469   0.857  0.00  0.00     0.062 A 
ATOM      7  F   UNL d   1       1.531  -2.769   1.058  0.00  0.00    -0.097 F 
ATOM      8  F1  UNL d   1      -0.810  -2.035  -0.090  0.00  0.00    -0.096 F 
ATOM      9  I   UNL d   1      -2.007   0.840  -0.827  0.00  0.00    -0.060 I 
ATOM     10  F2  UNL d   1       0.489   2.529   0.250  0.00  0.00    -0.096 F 
ATOM     11  F3  UNL d   1       2.821   1.763   1.395  0.00  0.00    -0.097 F 
ATOM     12  F4  UNL d   1       3.353  -0.881   1.804  0.00  0.00    -0.092 F 
ENDROOT
TORSDOF 0
ENDMDL
