MODEL 1
REMARK minimizedAffinity -1.12290978
REMARK minimizedRMSD -1
REMARK  0 active torsions:
REMARK  status: ('A' for Active; 'I' for Inactive)
ROOT
ATOM      1  C   UNL d   1      -1.805  -0.181  -1.371  0.00  0.00     0.124 A 
ATOM      2  C1  UNL d   1      -0.891   0.720  -1.900  0.00  0.00     0.062 A 
ATOM      3  C2  UNL d   1       0.344   0.906  -1.286  0.00  0.00     0.162 A 
ATOM      4  C3  UNL d   1       0.674   0.188  -0.136  0.00  0.00    -0.034 A 
ATOM      5  C4  UNL d   1      -0.251  -0.716   0.391  0.00  0.00     0.162 A 
ATOM      6  C5  UNL d   1      -1.484  -0.898  -0.227  0.00  0.00     0.062 A 
ATOM      7  F   UNL d   1      -2.366  -1.769   0.285  0.00  0.00    -0.097 F 
ATOM      8  F1  UNL d   1       0.033  -1.422   1.495  0.00  0.00    -0.096 F 
ATOM      9  I   UNL d   1       2.519   0.464   0.785  0.00  0.00    -0.060 I 
ATOM     10  F2  UNL d   1       1.207   1.783  -1.819  0.00  0.00    -0.096 F 
ATOM     11  F3  UNL d   1      -1.199   1.414  -3.005  0.00  0.00    -0.097 F 
ATOM     12  F4  UNL d   1      -2.993  -0.358  -1.963  0.00  0.00    -0.092 F 
ENDROOT
TORSDOF 0
ENDMDL
