MODEL 1
REMARK minimizedAffinity -0.018288428
REMARK minimizedRMSD -1
REMARK  0 active torsions:
REMARK  status: ('A' for Active; 'I' for Inactive)
ROOT
ATOM      1  C   UNL d   1       1.679  -1.794   0.608  0.00  0.00     0.124 A 
ATOM      2  C1  UNL d   1       0.409  -2.092   1.083  0.00  0.00     0.062 A 
ATOM      3  C2  UNL d   1      -0.696  -1.387   0.616  0.00  0.00     0.162 A 
ATOM      4  C3  UNL d   1      -0.538  -0.377  -0.332  0.00  0.00    -0.034 A 
ATOM      5  C4  UNL d   1       0.742  -0.082  -0.805  0.00  0.00     0.162 A 
ATOM      6  C5  UNL d   1       1.844  -0.789  -0.336  0.00  0.00     0.062 A 
ATOM      7  F   UNL d   1       3.070  -0.499  -0.796  0.00  0.00    -0.097 F 
ATOM      8  F1  UNL d   1       0.930   0.883  -1.717  0.00  0.00    -0.096 F 
ATOM      9  I   UNL d   1      -2.189   0.679  -1.033  0.00  0.00    -0.060 I 
ATOM     10  F2  UNL d   1      -1.911  -1.697   1.093  0.00  0.00    -0.096 F 
ATOM     11  F3  UNL d   1       0.247  -3.062   1.995  0.00  0.00    -0.097 F 
ATOM     12  F4  UNL d   1       2.741  -2.473   1.059  0.00  0.00    -0.092 F 
ENDROOT
TORSDOF 0
ENDMDL
