MODEL 1
REMARK minimizedAffinity -1.30394948
REMARK minimizedRMSD -1
REMARK  1 active torsions:
REMARK  status: ('A' for Active; 'I' for Inactive)
REMARK    1  A    between atoms: C1_2  and  C2_3 
ROOT
ATOM      1  C2  UNL d   1       2.736  -0.514  -1.589  0.00  0.00    -0.081 A 
ATOM      2  C3  UNL d   1       1.589  -0.831  -0.852  0.00  0.00     0.006 A 
ATOM      3  C4  UNL d   1       1.164  -0.003   0.190  0.00  0.00     0.002 A 
ATOM      4  C5  UNL d   1       1.875   1.160   0.506  0.00  0.00    -0.080 A 
ATOM      5  C6  UNL d   1       1.413   2.074   1.602  0.00  0.00     0.076 C 
ATOM      6  C7  UNL d   1       3.031   1.468  -0.219  0.00  0.00     0.002 A 
ATOM      7  C8  UNL d   1       3.456   0.640  -1.260  0.00  0.00     0.006 A 
ENDROOT
BRANCH   1   8
ATOM      8  C1  UNL d   1       3.159  -1.371  -2.754  0.00  0.00     0.054 C 
ATOM      9  C   UNL d   1       3.836  -0.540  -3.835  0.00  0.00     0.018 C 
ENDBRANCH   1   8
TORSDOF 1
ENDMDL
