MODEL 1
REMARK minimizedAffinity 0.0497378223
REMARK minimizedRMSD -1
REMARK  1 active torsions:
REMARK  status: ('A' for Active; 'I' for Inactive)
REMARK    1  A    between atoms: C1_2  and  C2_3 
ROOT
ATOM      1  C2  UNL d   1       4.000   1.858  -0.963  0.00  0.00    -0.081 A 
ATOM      2  C3  UNL d   1       3.062   1.952   0.073  0.00  0.00     0.006 A 
ATOM      3  C4  UNL d   1       2.103   0.953   0.253  0.00  0.00     0.002 A 
ATOM      4  C5  UNL d   1       2.071  -0.161  -0.594  0.00  0.00    -0.080 A 
ATOM      5  C6  UNL d   1       1.066  -1.256  -0.393  0.00  0.00     0.076 C 
ATOM      6  C7  UNL d   1       2.997  -0.246  -1.639  0.00  0.00     0.002 A 
ATOM      7  C8  UNL d   1       3.955   0.753  -1.820  0.00  0.00     0.006 A 
ENDROOT
BRANCH   1   8
ATOM      8  C1  UNL d   1       5.076   2.902  -1.120  0.00  0.00     0.054 C 
ATOM      9  C   UNL d   1       5.696   3.264   0.223  0.00  0.00     0.018 C 
ENDBRANCH   1   8
TORSDOF 1
ENDMDL
