MODEL 1
REMARK minimizedAffinity 9.0271616
REMARK minimizedRMSD -1
REMARK  1 active torsions:
REMARK  status: ('A' for Active; 'I' for Inactive)
REMARK    1  A    between atoms: C1_2  and  C2_3 
ROOT
ATOM      1  C2  UNL d   1      -0.465  -1.965  -0.495  0.00  0.00    -0.081 A 
ATOM      2  C3  UNL d   1      -0.378  -1.116  -1.605  0.00  0.00     0.006 A 
ATOM      3  C4  UNL d   1       0.769  -0.349  -1.822  0.00  0.00     0.002 A 
ATOM      4  C5  UNL d   1       1.851  -0.425  -0.938  0.00  0.00    -0.080 A 
ATOM      5  C6  UNL d   1       3.101   0.370  -1.176  0.00  0.00     0.076 C 
ATOM      6  C7  UNL d   1       1.758  -1.260   0.180  0.00  0.00     0.002 A 
ATOM      7  C8  UNL d   1       0.610  -2.026   0.398  0.00  0.00     0.006 A 
ENDROOT
BRANCH   1   8
ATOM      8  C1  UNL d   1      -1.675  -2.841  -0.293  0.00  0.00     0.054 C 
ATOM      9  C   UNL d   1      -1.585  -4.109  -1.130  0.00  0.00     0.018 C 
ENDBRANCH   1   8
TORSDOF 1
ENDMDL
