MODEL 1
REMARK minimizedAffinity 3.84224415
REMARK minimizedRMSD -1
REMARK  1 active torsions:
REMARK  status: ('A' for Active; 'I' for Inactive)
REMARK    1  A    between atoms: C1_2  and  C2_3 
ROOT
ATOM      1  C2  UNL d   1       2.482   0.811   0.660  0.00  0.00    -0.081 A 
ATOM      2  C3  UNL d   1       3.386   1.276  -0.304  0.00  0.00     0.006 A 
ATOM      3  C4  UNL d   1       3.448   0.677  -1.564  0.00  0.00     0.002 A 
ATOM      4  C5  UNL d   1       2.603  -0.391  -1.885  0.00  0.00    -0.080 A 
ATOM      5  C6  UNL d   1       2.639  -1.024  -3.244  0.00  0.00     0.076 C 
ATOM      6  C7  UNL d   1       1.713  -0.867  -0.916  0.00  0.00     0.002 A 
ATOM      7  C8  UNL d   1       1.651  -0.269   0.344  0.00  0.00     0.006 A 
ENDROOT
BRANCH   1   8
ATOM      8  C1  UNL d   1       2.368   1.497   1.997  0.00  0.00     0.054 C 
ATOM      9  C   UNL d   1       1.761   0.572   3.043  0.00  0.00     0.018 C 
ENDBRANCH   1   8
TORSDOF 1
ENDMDL
