MODEL 1
REMARK minimizedAffinity 1.02052999
REMARK minimizedRMSD -1
REMARK  1 active torsions:
REMARK  status: ('A' for Active; 'I' for Inactive)
REMARK    1  A    between atoms: C1_2  and  C2_3 
ROOT
ATOM      1  C2  UNL d   1       3.913   1.502  -1.608  0.00  0.00    -0.081 A 
ATOM      2  C3  UNL d   1       3.171   1.451  -0.421  0.00  0.00     0.006 A 
ATOM      3  C4  UNL d   1       2.329   0.368  -0.159  0.00  0.00     0.002 A 
ATOM      4  C5  UNL d   1       2.220  -0.685  -1.074  0.00  0.00    -0.080 A 
ATOM      5  C6  UNL d   1       1.343  -1.868  -0.791  0.00  0.00     0.076 C 
ATOM      6  C7  UNL d   1       2.948  -0.626  -2.267  0.00  0.00     0.002 A 
ATOM      7  C8  UNL d   1       3.790   0.457  -2.530  0.00  0.00     0.006 A 
ENDROOT
BRANCH   1   8
ATOM      8  C1  UNL d   1       4.872   2.637  -1.864  0.00  0.00     0.054 C 
ATOM      9  C   UNL d   1       5.988   2.662  -0.830  0.00  0.00     0.018 C 
ENDBRANCH   1   8
TORSDOF 1
ENDMDL
