MODEL 1
REMARK minimizedAffinity -1.29090881
REMARK minimizedRMSD -1
REMARK  1 active torsions:
REMARK  status: ('A' for Active; 'I' for Inactive)
REMARK    1  A    between atoms: C1_2  and  C2_3 
ROOT
ATOM      1  C2  UNL d   1       2.840   0.679  -0.403  0.00  0.00    -0.081 A 
ATOM      2  C3  UNL d   1       1.771   0.472  -1.284  0.00  0.00     0.006 A 
ATOM      3  C4  UNL d   1       0.847  -0.549  -1.048  0.00  0.00     0.002 A 
ATOM      4  C5  UNL d   1       0.971  -1.374   0.075  0.00  0.00    -0.080 A 
ATOM      5  C6  UNL d   1      -0.031  -2.454   0.356  0.00  0.00     0.076 C 
ATOM      6  C7  UNL d   1       2.049  -1.178   0.945  0.00  0.00     0.002 A 
ATOM      7  C8  UNL d   1       2.974  -0.159   0.710  0.00  0.00     0.006 A 
ENDROOT
BRANCH   1   8
ATOM      8  C1  UNL d   1       3.801   1.819  -0.619  0.00  0.00     0.054 C 
ATOM      9  C   UNL d   1       4.502   1.705  -1.966  0.00  0.00     0.018 C 
ENDBRANCH   1   8
TORSDOF 1
ENDMDL
