MODEL 1
REMARK minimizedAffinity 3.23287773
REMARK minimizedRMSD -1
REMARK  1 active torsions:
REMARK  status: ('A' for Active; 'I' for Inactive)
REMARK    1  A    between atoms: C1_2  and  C2_3 
ROOT
ATOM      1  C2  UNL d   1       1.578   1.059   0.590  0.00  0.00    -0.081 A 
ATOM      2  C3  UNL d   1       1.125  -0.212   0.217  0.00  0.00     0.006 A 
ATOM      3  C4  UNL d   1       1.690  -0.873  -0.876  0.00  0.00     0.002 A 
ATOM      4  C5  UNL d   1       2.722  -0.278  -1.609  0.00  0.00    -0.080 A 
ATOM      5  C6  UNL d   1       3.359  -0.990  -2.766  0.00  0.00     0.076 C 
ATOM      6  C7  UNL d   1       3.163   0.999  -1.247  0.00  0.00     0.002 A 
ATOM      7  C8  UNL d   1       2.598   1.661  -0.155  0.00  0.00     0.006 A 
ENDROOT
BRANCH   1   8
ATOM      8  C1  UNL d   1       1.016   1.747   1.808  0.00  0.00     0.054 C 
ATOM      9  C   UNL d   1       1.261   0.929   3.068  0.00  0.00     0.018 C 
ENDBRANCH   1   8
TORSDOF 1
ENDMDL
