MODEL 1
REMARK minimizedAffinity 4.25613213
REMARK minimizedRMSD -1
REMARK  1 active torsions:
REMARK  status: ('A' for Active; 'I' for Inactive)
REMARK    1  A    between atoms: C1_2  and  C2_3 
ROOT
ATOM      1  C2  UNL d   1       3.328   1.186  -1.103  0.00  0.00    -0.081 A 
ATOM      2  C3  UNL d   1       3.657  -0.119  -1.488  0.00  0.00     0.006 A 
ATOM      3  C4  UNL d   1       2.828  -1.190  -1.144  0.00  0.00     0.002 A 
ATOM      4  C5  UNL d   1       1.654  -0.972  -0.416  0.00  0.00    -0.080 A 
ATOM      5  C6  UNL d   1       0.740  -2.109  -0.066  0.00  0.00     0.076 C 
ATOM      6  C7  UNL d   1       1.334   0.329  -0.015  0.00  0.00     0.002 A 
ATOM      7  C8  UNL d   1       2.163   1.400  -0.359  0.00  0.00     0.006 A 
ENDROOT
BRANCH   1   8
ATOM      8  C1  UNL d   1       4.186   2.350  -1.528  0.00  0.00     0.054 C 
ATOM      9  C   UNL d   1       5.150   1.951  -2.637  0.00  0.00     0.018 C 
ENDBRANCH   1   8
TORSDOF 1
ENDMDL
