MODEL 1
REMARK minimizedAffinity 7.02214336
REMARK minimizedRMSD -1
REMARK  1 active torsions:
REMARK  status: ('A' for Active; 'I' for Inactive)
REMARK    1  A    between atoms: C1_2  and  C2_3 
ROOT
ATOM      1  C2  UNL d   1       2.992   1.023  -0.329  0.00  0.00    -0.081 A 
ATOM      2  C3  UNL d   1       4.080   1.492   0.416  0.00  0.00     0.006 A 
ATOM      3  C4  UNL d   1       5.061   2.285  -0.185  0.00  0.00     0.002 A 
ATOM      4  C5  UNL d   1       4.965   2.628  -1.538  0.00  0.00    -0.080 A 
ATOM      5  C6  UNL d   1       5.995   3.503  -2.189  0.00  0.00     0.076 C 
ATOM      6  C7  UNL d   1       3.887   2.144  -2.287  0.00  0.00     0.002 A 
ATOM      7  C8  UNL d   1       2.907   1.351  -1.686  0.00  0.00     0.006 A 
ENDROOT
BRANCH   1   8
ATOM      8  C1  UNL d   1       1.900   0.221   0.332  0.00  0.00     0.054 C 
ATOM      9  C   UNL d   1       1.696  -1.117  -0.364  0.00  0.00     0.018 C 
ENDBRANCH   1   8
TORSDOF 1
ENDMDL
