MODEL 1
REMARK minimizedAffinity -1.03550911
REMARK minimizedRMSD -1
REMARK  0 active torsions:
REMARK  status: ('A' for Active; 'I' for Inactive)
ROOT
ATOM      1  C   UNL d   1       5.983   5.286  -1.317  0.00  0.00     0.172 C 
ATOM      2  N   UNL d   1       5.762   5.068  -2.727  0.00  0.00    -0.070 N 
ATOM      3  C1  UNL d   1       5.288   3.915  -3.292  0.00  0.00    -0.004 A 
ATOM      4  C2  UNL d   1       5.220   4.109  -4.654  0.00  0.00    -0.047 A 
ATOM      5  C3  UNL d   1       5.671   5.424  -4.918  0.00  0.00    -0.047 A 
ATOM      6  C4  UNL d   1       6.000   5.996  -3.707  0.00  0.00    -0.004 A 
ENDROOT
TORSDOF 0
ENDMDL
