MODEL 1
REMARK minimizedAffinity -1.1200341
REMARK minimizedRMSD -1
REMARK  0 active torsions:
REMARK  status: ('A' for Active; 'I' for Inactive)
ROOT
ATOM      1  C   UNL d   1       2.726  -1.538  -1.869  0.00  0.00     0.172 C 
ATOM      2  N   UNL d   1       1.341  -1.876  -2.098  0.00  0.00    -0.070 N 
ATOM      3  C1  UNL d   1       0.301  -1.600  -1.250  0.00  0.00    -0.004 A 
ATOM      4  C2  UNL d   1      -0.854  -2.082  -1.827  0.00  0.00    -0.047 A 
ATOM      5  C3  UNL d   1      -0.496  -2.670  -3.064  0.00  0.00    -0.047 A 
ATOM      6  C4  UNL d   1       0.868  -2.528  -3.206  0.00  0.00    -0.004 A 
ENDROOT
TORSDOF 0
ENDMDL
