MODEL 1
REMARK minimizedAffinity -2.78664184
REMARK minimizedRMSD -1
REMARK  0 active torsions:
REMARK  status: ('A' for Active; 'I' for Inactive)
ROOT
ATOM      1  C   UNL d   1       5.097   4.872  -5.574  0.00  0.00     0.172 C 
ATOM      2  N   UNL d   1       5.287   4.996  -4.148  0.00  0.00    -0.070 N 
ATOM      3  C1  UNL d   1       4.789   5.999  -3.360  0.00  0.00    -0.004 A 
ATOM      4  C2  UNL d   1       5.189   5.757  -2.064  0.00  0.00    -0.047 A 
ATOM      5  C3  UNL d   1       5.956   4.567  -2.073  0.00  0.00    -0.047 A 
ATOM      6  C4  UNL d   1       6.000   4.117  -3.375  0.00  0.00    -0.004 A 
ENDROOT
TORSDOF 0
ENDMDL
