MODEL 1
REMARK minimizedAffinity -2.3228662
REMARK minimizedRMSD -1
REMARK  0 active torsions:
REMARK  status: ('A' for Active; 'I' for Inactive)
ROOT
ATOM      1  C   UNL d   1       6.000   4.505  -1.145  0.00  0.00     0.172 C 
ATOM      2  N   UNL d   1       5.517   4.459  -2.506  0.00  0.00    -0.070 N 
ATOM      3  C1  UNL d   1       5.657   5.454  -3.437  0.00  0.00    -0.004 A 
ATOM      4  C2  UNL d   1       5.065   5.025  -4.605  0.00  0.00    -0.047 A 
ATOM      5  C3  UNL d   1       4.550   3.728  -4.368  0.00  0.00    -0.047 A 
ATOM      6  C4  UNL d   1       4.844   3.403  -3.060  0.00  0.00    -0.004 A 
ENDROOT
TORSDOF 0
ENDMDL
