MODEL 1
REMARK minimizedAffinity -2.65732193
REMARK minimizedRMSD -1
REMARK  0 active torsions:
REMARK  status: ('A' for Active; 'I' for Inactive)
ROOT
ATOM      1  C   UNL d   1       5.992   5.931  -1.509  0.00  0.00     0.172 C 
ATOM      2  N   UNL d   1       5.649   5.315  -2.769  0.00  0.00    -0.070 N 
ATOM      3  C1  UNL d   1       4.929   5.902  -3.775  0.00  0.00    -0.004 A 
ATOM      4  C2  UNL d   1       4.819   4.991  -4.803  0.00  0.00    -0.047 A 
ATOM      5  C3  UNL d   1       5.495   3.815  -4.401  0.00  0.00    -0.047 A 
ATOM      6  C4  UNL d   1       6.000   4.043  -3.138  0.00  0.00    -0.004 A 
ENDROOT
TORSDOF 0
ENDMDL
