MODEL 1
REMARK minimizedAffinity -2.76848054
REMARK minimizedRMSD -1
REMARK  0 active torsions:
REMARK  status: ('A' for Active; 'I' for Inactive)
ROOT
ATOM      1  C   UNL d   1       5.033   4.399  -5.274  0.00  0.00     0.172 C 
ATOM      2  N   UNL d   1       5.426   4.689  -3.915  0.00  0.00    -0.070 N 
ATOM      3  C1  UNL d   1       5.644   5.938  -3.397  0.00  0.00    -0.004 A 
ATOM      4  C2  UNL d   1       6.000   5.789  -2.074  0.00  0.00    -0.047 A 
ATOM      5  C3  UNL d   1       5.997   4.403  -1.787  0.00  0.00    -0.047 A 
ATOM      6  C4  UNL d   1       5.639   3.746  -2.945  0.00  0.00    -0.004 A 
ENDROOT
TORSDOF 0
ENDMDL
