MODEL 1
REMARK minimizedAffinity -2.1737771
REMARK minimizedRMSD -1
REMARK  0 active torsions:
REMARK  status: ('A' for Active; 'I' for Inactive)
ROOT
ATOM      1  C   UNL d   1       5.918   5.994  -1.699  0.00  0.00     0.172 C 
ATOM      2  N   UNL d   1       5.621   5.174  -2.850  0.00  0.00    -0.070 N 
ATOM      3  C1  UNL d   1       4.922   5.576  -3.958  0.00  0.00    -0.004 A 
ATOM      4  C2  UNL d   1       4.856   4.507  -4.825  0.00  0.00    -0.047 A 
ATOM      5  C3  UNL d   1       5.536   3.425  -4.218  0.00  0.00    -0.047 A 
ATOM      6  C4  UNL d   1       6.000   3.866  -2.996  0.00  0.00    -0.004 A 
ENDROOT
TORSDOF 0
ENDMDL
