MODEL 1
REMARK minimizedAffinity -2.86598063
REMARK minimizedRMSD -1
REMARK  0 active torsions:
REMARK  status: ('A' for Active; 'I' for Inactive)
ROOT
ATOM      1  C   UNL d   1       3.164   6.000  -3.748  0.00  0.00     0.172 C 
ATOM      2  N   UNL d   1       4.316   5.168  -3.492  0.00  0.00    -0.070 N 
ATOM      3  C1  UNL d   1       4.941   4.365  -4.408  0.00  0.00    -0.004 A 
ATOM      4  C2  UNL d   1       5.993   3.740  -3.774  0.00  0.00    -0.047 A 
ATOM      5  C3  UNL d   1       6.000   4.182  -2.429  0.00  0.00    -0.047 A 
ATOM      6  C4  UNL d   1       4.951   5.065  -2.282  0.00  0.00    -0.004 A 
ENDROOT
TORSDOF 0
ENDMDL
