MODEL 1
REMARK minimizedAffinity -1.5891695
REMARK minimizedRMSD -1
REMARK  0 active torsions:
REMARK  status: ('A' for Active; 'I' for Inactive)
ROOT
ATOM      1  C   UNL d   1       0.226  -1.264  -3.080  0.00  0.00     0.172 C 
ATOM      2  N   UNL d   1      -0.790  -1.918  -2.289  0.00  0.00    -0.070 N 
ATOM      3  C1  UNL d   1      -1.967  -2.429  -2.767  0.00  0.00    -0.004 A 
ATOM      4  C2  UNL d   1      -2.657  -2.968  -1.702  0.00  0.00    -0.047 A 
ATOM      5  C3  UNL d   1      -1.867  -2.772  -0.544  0.00  0.00    -0.047 A 
ATOM      6  C4  UNL d   1      -0.717  -2.121  -0.937  0.00  0.00    -0.004 A 
ENDROOT
TORSDOF 0
ENDMDL
