MODEL 1
REMARK minimizedAffinity -3.53304529
REMARK minimizedRMSD -1
REMARK  0 active torsions:
REMARK  status: ('A' for Active; 'I' for Inactive)
ROOT
ATOM      1  C   UNL d   1      -1.664  -2.677   0.207  0.00  0.00     0.172 C 
ATOM      2  N   UNL d   1      -1.042  -2.627  -1.095  0.00  0.00    -0.070 N 
ATOM      3  C1  UNL d   1      -1.336  -3.447  -2.152  0.00  0.00    -0.004 A 
ATOM      4  C2  UNL d   1      -0.529  -3.080  -3.208  0.00  0.00    -0.047 A 
ATOM      5  C3  UNL d   1       0.280  -2.005  -2.769  0.00  0.00    -0.047 A 
ATOM      6  C4  UNL d   1      -0.059  -1.745  -1.458  0.00  0.00    -0.004 A 
ENDROOT
TORSDOF 0
ENDMDL
