MODEL 1
REMARK minimizedAffinity -2.59187651
REMARK minimizedRMSD -1
REMARK  0 active torsions:
REMARK  status: ('A' for Active; 'I' for Inactive)
ROOT
ATOM      1  C   UNL d   1       5.997   5.991  -2.258  0.00  0.00     0.172 C 
ATOM      2  N   UNL d   1       5.575   5.437  -3.524  0.00  0.00    -0.070 N 
ATOM      3  C1  UNL d   1       5.999   5.853  -4.758  0.00  0.00    -0.004 A 
ATOM      4  C2  UNL d   1       5.368   5.076  -5.705  0.00  0.00    -0.047 A 
ATOM      5  C3  UNL d   1       4.535   4.162  -5.016  0.00  0.00    -0.047 A 
ATOM      6  C4  UNL d   1       4.683   4.408  -3.667  0.00  0.00    -0.004 A 
ENDROOT
TORSDOF 0
ENDMDL
