MODEL 1
REMARK minimizedAffinity -1.19623268
REMARK minimizedRMSD -1
REMARK  0 active torsions:
REMARK  status: ('A' for Active; 'I' for Inactive)
ROOT
ATOM      1  C   UNL d   1       6.000   5.996  -2.103  0.00  0.00     0.172 C 
ATOM      2  N   UNL d   1       5.404   5.290  -3.212  0.00  0.00    -0.070 N 
ATOM      3  C1  UNL d   1       4.166   5.537  -3.743  0.00  0.00    -0.004 A 
ATOM      4  C2  UNL d   1       3.969   4.654  -4.783  0.00  0.00    -0.047 A 
ATOM      5  C3  UNL d   1       5.128   3.848  -4.880  0.00  0.00    -0.047 A 
ATOM      6  C4  UNL d   1       6.000   4.263  -3.895  0.00  0.00    -0.004 A 
ENDROOT
TORSDOF 0
ENDMDL
