MODEL 1
REMARK minimizedAffinity 0.353126556
REMARK minimizedRMSD -1
REMARK  0 active torsions:
REMARK  status: ('A' for Active; 'I' for Inactive)
ROOT
ATOM      1  C   UNL d   1       5.999   5.825  -0.785  0.00  0.00     0.172 C 
ATOM      2  N   UNL d   1       5.582   5.267  -2.051  0.00  0.00    -0.070 N 
ATOM      3  C1  UNL d   1       6.000   4.072  -2.573  0.00  0.00    -0.004 A 
ATOM      4  C2  UNL d   1       5.375   3.902  -3.790  0.00  0.00    -0.047 A 
ATOM      5  C3  UNL d   1       4.555   5.035  -4.007  0.00  0.00    -0.047 A 
ATOM      6  C4  UNL d   1       4.702   5.864  -2.915  0.00  0.00    -0.004 A 
ENDROOT
TORSDOF 0
ENDMDL
