MODEL 1
REMARK minimizedAffinity -2.96608186
REMARK minimizedRMSD -1
REMARK  0 active torsions:
REMARK  status: ('A' for Active; 'I' for Inactive)
ROOT
ATOM      1  C   UNL d   1       4.853   5.270  -4.713  0.00  0.00     0.172 C 
ATOM      2  N   UNL d   1       5.130   5.185  -3.299  0.00  0.00    -0.070 N 
ATOM      3  C1  UNL d   1       4.570   4.289  -2.428  0.00  0.00    -0.004 A 
ATOM      4  C2  UNL d   1       5.092   4.534  -1.176  0.00  0.00    -0.047 A 
ATOM      5  C3  UNL d   1       5.996   5.616  -1.299  0.00  0.00    -0.047 A 
ATOM      6  C4  UNL d   1       6.000   6.000  -2.623  0.00  0.00    -0.004 A 
ENDROOT
TORSDOF 0
ENDMDL
