MODEL 1
REMARK minimizedAffinity -1.26693892
REMARK minimizedRMSD -1
REMARK  0 active torsions:
REMARK  status: ('A' for Active; 'I' for Inactive)
ROOT
ATOM      1  C   UNL d   1       4.834  -2.396   5.937  0.00  0.00     0.172 C 
ATOM      2  N   UNL d   1       4.905  -3.827   5.757  0.00  0.00    -0.070 N 
ATOM      3  C1  UNL d   1       6.000  -4.523   5.320  0.00  0.00    -0.004 A 
ATOM      4  C2  UNL d   1       5.664  -5.859   5.284  0.00  0.00    -0.047 A 
ATOM      5  C3  UNL d   1       4.320  -5.970   5.714  0.00  0.00    -0.047 A 
ATOM      6  C4  UNL d   1       3.875  -4.697   6.000  0.00  0.00    -0.004 A 
ENDROOT
TORSDOF 0
ENDMDL
