MODEL 1
REMARK minimizedAffinity 0.236467153
REMARK minimizedRMSD -1
REMARK  0 active torsions:
REMARK  status: ('A' for Active; 'I' for Inactive)
ROOT
ATOM      1  C   UNL d   1       5.999   5.213  -2.158  0.00  0.00     0.172 C 
ATOM      2  N   UNL d   1       5.451   5.220  -3.494  0.00  0.00    -0.070 N 
ATOM      3  C1  UNL d   1       6.000   4.601  -4.585  0.00  0.00    -0.004 A 
ATOM      4  C2  UNL d   1       5.178   4.842  -5.665  0.00  0.00    -0.047 A 
ATOM      5  C3  UNL d   1       4.098   5.634  -5.207  0.00  0.00    -0.047 A 
ATOM      6  C4  UNL d   1       4.292   5.853  -3.860  0.00  0.00    -0.004 A 
ENDROOT
TORSDOF 0
ENDMDL
