MODEL 1
REMARK minimizedAffinity -0.273245782
REMARK minimizedRMSD -1
REMARK  0 active torsions:
REMARK  status: ('A' for Active; 'I' for Inactive)
ROOT
ATOM      1  C   UNL d   1       2.995   5.093  -3.143  0.00  0.00     0.172 C 
ATOM      2  N   UNL d   1       4.053   5.334  -4.096  0.00  0.00    -0.070 N 
ATOM      3  C1  UNL d   1       5.242   5.957  -3.828  0.00  0.00    -0.004 A 
ATOM      4  C2  UNL d   1       5.974   5.989  -4.996  0.00  0.00    -0.047 A 
ATOM      5  C3  UNL d   1       5.197   5.365  -6.000  0.00  0.00    -0.047 A 
ATOM      6  C4  UNL d   1       4.012   4.968  -5.416  0.00  0.00    -0.004 A 
ENDROOT
TORSDOF 0
ENDMDL
