MODEL 1
REMARK minimizedAffinity 1.57527852
REMARK minimizedRMSD -1
REMARK  0 active torsions:
REMARK  status: ('A' for Active; 'I' for Inactive)
ROOT
ATOM      1  C2' OXE d   1       0.655   1.677  -0.456  0.00  0.00     0.078 C 
ATOM      2  C1' OXE d   1       0.196  -1.038   0.087  0.00  0.00     0.078 C 
ATOM      3  C1  OXE d   1       1.433  -0.677  -0.696  0.00  0.00    -0.078 A 
ATOM      4  C2  OXE d   1       1.626   0.650  -0.997  0.00  0.00    -0.078 A 
ATOM      5  C3  OXE d   1       2.779   1.044  -1.670  0.00  0.00     0.003 A 
ATOM      6  C4  OXE d   1       3.666   0.086  -2.176  0.00  0.00    -0.002 A 
ATOM      7  C5  OXE d   1       3.468  -1.273  -1.915  0.00  0.00    -0.002 A 
ATOM      8  C6  OXE d   1       2.382  -1.667  -1.141  0.00  0.00     0.003 A 
ENDROOT
TORSDOF 0
ENDMDL
