MODEL 1
REMARK minimizedAffinity -5.17534208
REMARK minimizedRMSD -1
REMARK  0 active torsions:
REMARK  status: ('A' for Active; 'I' for Inactive)
ROOT
ATOM      1  C2' OXE d   1      -5.061  -3.033  -5.710  0.00  0.00     0.078 C 
ATOM      2  C1' OXE d   1      -2.258  -2.892  -5.713  0.00  0.00     0.078 C 
ATOM      3  C1  OXE d   1      -3.027  -1.597  -5.650  0.00  0.00    -0.078 A 
ATOM      4  C2  OXE d   1      -4.398  -1.673  -5.696  0.00  0.00    -0.078 A 
ATOM      5  C3  OXE d   1      -5.157  -0.511  -5.586  0.00  0.00     0.003 A 
ATOM      6  C4  OXE d   1      -4.536   0.744  -5.584  0.00  0.00    -0.002 A 
ATOM      7  C5  OXE d   1      -3.141   0.846  -5.576  0.00  0.00    -0.002 A 
ATOM      8  C6  OXE d   1      -2.373  -0.314  -5.566  0.00  0.00     0.003 A 
ENDROOT
TORSDOF 0
ENDMDL
