MODEL 1
REMARK minimizedAffinity -4.84923887
REMARK minimizedRMSD -1
REMARK  0 active torsions:
REMARK  status: ('A' for Active; 'I' for Inactive)
ROOT
ATOM      1  C2' OXE d   1      -1.312  -4.872  -5.178  0.00  0.00     0.078 C 
ATOM      2  C1' OXE d   1      -1.731  -2.499  -3.737  0.00  0.00     0.078 C 
ATOM      3  C1  OXE d   1      -2.896  -3.069  -4.507  0.00  0.00    -0.078 A 
ATOM      4  C2  OXE d   1      -2.669  -4.205  -5.247  0.00  0.00    -0.078 A 
ATOM      5  C3  OXE d   1      -3.723  -4.803  -5.932  0.00  0.00     0.003 A 
ATOM      6  C4  OXE d   1      -4.972  -4.174  -5.999  0.00  0.00    -0.002 A 
ATOM      7  C5  OXE d   1      -5.213  -2.996  -5.285  0.00  0.00    -0.002 A 
ATOM      8  C6  OXE d   1      -4.200  -2.454  -4.502  0.00  0.00     0.003 A 
ENDROOT
TORSDOF 0
ENDMDL
