MODEL 1
REMARK minimizedAffinity 4.59321356
REMARK minimizedRMSD -1
REMARK  0 active torsions:
REMARK  status: ('A' for Active; 'I' for Inactive)
ROOT
ATOM      1  C2' OXE d   1      -6.000   5.276  -5.565  0.00  0.00     0.078 C 
ATOM      2  C1' OXE d   1      -5.441   2.557  -5.983  0.00  0.00     0.078 C 
ATOM      3  C1  OXE d   1      -4.275   3.510  -5.898  0.00  0.00    -0.078 A 
ATOM      4  C2  OXE d   1      -4.560   4.845  -5.740  0.00  0.00    -0.078 A 
ATOM      5  C3  OXE d   1      -3.520   5.760  -5.602  0.00  0.00     0.003 A 
ATOM      6  C4  OXE d   1      -2.191   5.355  -5.776  0.00  0.00    -0.002 A 
ATOM      7  C5  OXE d   1      -1.881   4.006  -5.977  0.00  0.00    -0.002 A 
ATOM      8  C6  OXE d   1      -2.906   3.067  -5.998  0.00  0.00     0.003 A 
ENDROOT
TORSDOF 0
ENDMDL
