MODEL 1
REMARK minimizedAffinity -0.830032051
REMARK minimizedRMSD -1
REMARK  0 active torsions:
REMARK  status: ('A' for Active; 'I' for Inactive)
ROOT
ATOM      1  C2' OXE d   1      -5.267   1.763  -5.938  0.00  0.00     0.078 C 
ATOM      2  C1' OXE d   1      -2.625   2.596  -5.483  0.00  0.00     0.078 C 
ATOM      3  C1  OXE d   1      -3.682   3.661  -5.634  0.00  0.00    -0.078 A 
ATOM      4  C2  OXE d   1      -4.964   3.245  -5.903  0.00  0.00    -0.078 A 
ATOM      5  C3  OXE d   1      -5.988   4.184  -5.998  0.00  0.00     0.003 A 
ATOM      6  C4  OXE d   1      -5.698   5.554  -5.974  0.00  0.00    -0.002 A 
ATOM      7  C5  OXE d   1      -4.393   5.999  -5.741  0.00  0.00    -0.002 A 
ATOM      8  C6  OXE d   1      -3.383   5.068  -5.527  0.00  0.00     0.003 A 
ENDROOT
TORSDOF 0
ENDMDL
