MODEL 1
REMARK minimizedAffinity 1.16851854
REMARK minimizedRMSD -1
REMARK  0 active torsions:
REMARK  status: ('A' for Active; 'I' for Inactive)
ROOT
ATOM      1  C2' OXE d   1      -5.030   1.700  -5.975  0.00  0.00     0.078 C 
ATOM      2  C1' OXE d   1      -2.428   2.752  -5.891  0.00  0.00     0.078 C 
ATOM      3  C1  OXE d   1      -3.580   3.725  -5.911  0.00  0.00    -0.078 A 
ATOM      4  C2  OXE d   1      -4.848   3.203  -5.999  0.00  0.00    -0.078 A 
ATOM      5  C3  OXE d   1      -5.948   4.055  -5.965  0.00  0.00     0.003 A 
ATOM      6  C4  OXE d   1      -5.771   5.443  -5.997  0.00  0.00    -0.002 A 
ATOM      7  C5  OXE d   1      -4.487   5.996  -5.947  0.00  0.00    -0.002 A 
ATOM      8  C6  OXE d   1      -3.385   5.153  -5.861  0.00  0.00     0.003 A 
ENDROOT
TORSDOF 0
ENDMDL
