MODEL 1
REMARK minimizedAffinity 3.18146849
REMARK minimizedRMSD -1
REMARK  0 active torsions:
REMARK  status: ('A' for Active; 'I' for Inactive)
ROOT
ATOM      1  C2' OXE d   1      -0.775  -1.984  -2.129  0.00  0.00     0.078 C 
ATOM      2  C1' OXE d   1      -0.553  -2.245   0.657  0.00  0.00     0.078 C 
ATOM      3  C1  OXE d   1      -0.156  -0.927   0.040  0.00  0.00    -0.078 A 
ATOM      4  C2  OXE d   1      -0.224  -0.824  -1.328  0.00  0.00    -0.078 A 
ATOM      5  C3  OXE d   1       0.078   0.387  -1.944  0.00  0.00     0.003 A 
ATOM      6  C4  OXE d   1       0.596   1.453  -1.198  0.00  0.00    -0.002 A 
ATOM      7  C5  OXE d   1       0.710   1.355   0.193  0.00  0.00    -0.002 A 
ATOM      8  C6  OXE d   1       0.299   0.190   0.831  0.00  0.00     0.003 A 
ENDROOT
TORSDOF 0
ENDMDL
