MODEL 1
REMARK minimizedAffinity -2.70334077
REMARK minimizedRMSD -1
REMARK  0 active torsions:
REMARK  status: ('A' for Active; 'I' for Inactive)
ROOT
ATOM      1  C2' OXE d   1      -4.967  -1.749  -5.996  0.00  0.00     0.078 C 
ATOM      2  C1' OXE d   1      -5.395  -4.523  -6.000  0.00  0.00     0.078 C 
ATOM      3  C1  OXE d   1      -4.058  -4.018  -5.517  0.00  0.00    -0.078 A 
ATOM      4  C2  OXE d   1      -3.840  -2.662  -5.563  0.00  0.00    -0.078 A 
ATOM      5  C3  OXE d   1      -2.645  -2.139  -5.078  0.00  0.00     0.003 A 
ATOM      6  C4  OXE d   1      -1.604  -2.992  -4.689  0.00  0.00    -0.002 A 
ATOM      7  C5  OXE d   1      -1.791  -4.378  -4.673  0.00  0.00    -0.002 A 
ATOM      8  C6  OXE d   1      -3.023  -4.904  -5.043  0.00  0.00     0.003 A 
ENDROOT
TORSDOF 0
ENDMDL
