MODEL 1
REMARK minimizedAffinity 1.99370897
REMARK minimizedRMSD -1
REMARK  0 active torsions:
REMARK  status: ('A' for Active; 'I' for Inactive)
ROOT
ATOM      1  C2' OXE d   1      -0.961   2.699  -5.121  0.00  0.00     0.078 C 
ATOM      2  C1' OXE d   1      -1.099   5.439  -5.714  0.00  0.00     0.078 C 
ATOM      3  C1  OXE d   1      -2.389   4.656  -5.700  0.00  0.00    -0.078 A 
ATOM      4  C2  OXE d   1      -2.307   3.307  -5.455  0.00  0.00    -0.078 A 
ATOM      5  C3  OXE d   1      -3.471   2.548  -5.376  0.00  0.00     0.003 A 
ATOM      6  C4  OXE d   1      -4.710   3.116  -5.696  0.00  0.00    -0.002 A 
ATOM      7  C5  OXE d   1      -4.811   4.481  -5.988  0.00  0.00    -0.002 A 
ATOM      8  C6  OXE d   1      -3.668   5.272  -5.952  0.00  0.00     0.003 A 
ENDROOT
TORSDOF 0
ENDMDL
