MODEL 1
REMARK minimizedAffinity 0.683624506
REMARK minimizedRMSD -1
REMARK  0 active torsions:
REMARK  status: ('A' for Active; 'I' for Inactive)
ROOT
ATOM      1  C2' OXE d   1       1.943   5.693   1.676  0.00  0.00     0.078 C 
ATOM      2  C1' OXE d   1       3.510   5.088   3.924  0.00  0.00     0.078 C 
ATOM      3  C1  OXE d   1       3.019   3.939   3.079  0.00  0.00    -0.078 A 
ATOM      4  C2  OXE d   1       2.214   4.242   2.008  0.00  0.00    -0.078 A 
ATOM      5  C3  OXE d   1       1.778   3.224   1.164  0.00  0.00     0.003 A 
ATOM      6  C4  OXE d   1       2.025   1.884   1.483  0.00  0.00    -0.002 A 
ATOM      7  C5  OXE d   1       2.809   1.551   2.593  0.00  0.00    -0.002 A 
ATOM      8  C6  OXE d   1       3.348   2.567   3.375  0.00  0.00     0.003 A 
ENDROOT
TORSDOF 0
ENDMDL
