MODEL 1
REMARK minimizedAffinity 1.55711043
REMARK minimizedRMSD -1
REMARK  0 active torsions:
REMARK  status: ('A' for Active; 'I' for Inactive)
ROOT
ATOM      1  C2' OXE d   1      -2.224   5.935  -5.628  0.00  0.00     0.078 C 
ATOM      2  C1' OXE d   1      -1.617   3.194  -5.596  0.00  0.00     0.078 C 
ATOM      3  C1  OXE d   1      -3.063   3.593  -5.756  0.00  0.00    -0.078 A 
ATOM      4  C2  OXE d   1      -3.356   4.935  -5.724  0.00  0.00    -0.078 A 
ATOM      5  C3  OXE d   1      -4.667   5.359  -5.922  0.00  0.00     0.003 A 
ATOM      6  C4  OXE d   1      -5.710   4.428  -6.000  0.00  0.00    -0.002 A 
ATOM      7  C5  OXE d   1      -5.437   3.056  -5.994  0.00  0.00    -0.002 A 
ATOM      8  C6  OXE d   1      -4.118   2.623  -5.916  0.00  0.00     0.003 A 
ENDROOT
TORSDOF 0
ENDMDL
