MODEL 1
REMARK minimizedAffinity -1.41646707
REMARK minimizedRMSD -1
REMARK  0 active torsions:
REMARK  status: ('A' for Active; 'I' for Inactive)
ROOT
ATOM      1  C2' OXE d   1      -6.000   3.180  -5.648  0.00  0.00     0.078 C 
ATOM      2  C1' OXE d   1      -6.000   5.987  -5.696  0.00  0.00     0.078 C 
ATOM      3  C1  OXE d   1      -4.671   5.281  -5.809  0.00  0.00    -0.078 A 
ATOM      4  C2  OXE d   1      -4.676   3.909  -5.738  0.00  0.00    -0.078 A 
ATOM      5  C3  OXE d   1      -3.485   3.206  -5.893  0.00  0.00     0.003 A 
ATOM      6  C4  OXE d   1      -2.264   3.888  -5.966  0.00  0.00    -0.002 A 
ATOM      7  C5  OXE d   1      -2.233   5.286  -6.000  0.00  0.00    -0.002 A 
ATOM      8  C6  OXE d   1      -3.429   5.995  -5.966  0.00  0.00     0.003 A 
ENDROOT
TORSDOF 0
ENDMDL
