MODEL 1
REMARK minimizedAffinity 1.16612566
REMARK minimizedRMSD -1
REMARK  0 active torsions:
REMARK  status: ('A' for Active; 'I' for Inactive)
ROOT
ATOM      1  C2' OXE d   1      -1.154   3.158  -5.846  0.00  0.00     0.078 C 
ATOM      2  C1' OXE d   1      -1.152   5.965  -5.862  0.00  0.00     0.078 C 
ATOM      3  C1  OXE d   1      -2.486   5.262  -5.894  0.00  0.00    -0.078 A 
ATOM      4  C2  OXE d   1      -2.477   3.889  -5.933  0.00  0.00    -0.078 A 
ATOM      5  C3  OXE d   1      -3.680   3.190  -5.908  0.00  0.00     0.003 A 
ATOM      6  C4  OXE d   1      -4.899   3.874  -5.998  0.00  0.00    -0.002 A 
ATOM      7  C5  OXE d   1      -4.930   5.272  -6.000  0.00  0.00    -0.002 A 
ATOM      8  C6  OXE d   1      -3.737   5.980  -5.905  0.00  0.00     0.003 A 
ENDROOT
TORSDOF 0
ENDMDL
