MODEL 1
REMARK minimizedAffinity -1.89432049
REMARK minimizedRMSD -1
REMARK  0 active torsions:
REMARK  status: ('A' for Active; 'I' for Inactive)
ROOT
ATOM      1  C2' OXE d   1      -5.997   5.718  -5.448  0.00  0.00     0.078 C 
ATOM      2  C1' OXE d   1      -3.190   5.780  -5.454  0.00  0.00     0.078 C 
ATOM      3  C1  OXE d   1      -3.865   4.447  -5.660  0.00  0.00    -0.078 A 
ATOM      4  C2  OXE d   1      -5.238   4.419  -5.609  0.00  0.00    -0.078 A 
ATOM      5  C3  OXE d   1      -5.912   3.224  -5.847  0.00  0.00     0.003 A 
ATOM      6  C4  OXE d   1      -5.202   2.025  -5.985  0.00  0.00    -0.002 A 
ATOM      7  C5  OXE d   1      -3.803   2.026  -6.000  0.00  0.00    -0.002 A 
ATOM      8  C6  OXE d   1      -3.121   3.232  -5.881  0.00  0.00     0.003 A 
ENDROOT
TORSDOF 0
ENDMDL
