MODEL 1
REMARK minimizedAffinity 5.28337383
REMARK minimizedRMSD -1
REMARK  0 active torsions:
REMARK  status: ('A' for Active; 'I' for Inactive)
ROOT
ATOM      1  C2' OXE d   1       0.071  -4.261  -3.820  0.00  0.00     0.078 C 
ATOM      2  C1' OXE d   1      -0.732  -1.581  -3.591  0.00  0.00     0.078 C 
ATOM      3  C1  OXE d   1      -1.750  -2.582  -4.077  0.00  0.00    -0.078 A 
ATOM      4  C2  OXE d   1      -1.335  -3.883  -4.231  0.00  0.00    -0.078 A 
ATOM      5  C3  OXE d   1      -2.249  -4.856  -4.625  0.00  0.00     0.003 A 
ATOM      6  C4  OXE d   1      -3.545  -4.496  -5.013  0.00  0.00    -0.002 A 
ATOM      7  C5  OXE d   1      -3.977  -3.170  -4.902  0.00  0.00    -0.002 A 
ATOM      8  C6  OXE d   1      -3.107  -2.210  -4.397  0.00  0.00     0.003 A 
ENDROOT
TORSDOF 0
ENDMDL
