MODEL 1
REMARK minimizedAffinity 0.720582902
REMARK minimizedRMSD -1
REMARK  0 active torsions:
REMARK  status: ('A' for Active; 'I' for Inactive)
ROOT
ATOM      1  C2' OXE d   1      -2.269   3.065  -5.995  0.00  0.00     0.078 C 
ATOM      2  C1' OXE d   1      -2.206   5.872  -5.998  0.00  0.00     0.078 C 
ATOM      3  C1  OXE d   1      -3.555   5.199  -5.954  0.00  0.00    -0.078 A 
ATOM      4  C2  OXE d   1      -3.578   3.825  -6.000  0.00  0.00    -0.078 A 
ATOM      5  C3  OXE d   1      -4.793   3.153  -5.907  0.00  0.00     0.003 A 
ATOM      6  C4  OXE d   1      -5.999   3.864  -5.922  0.00  0.00    -0.002 A 
ATOM      7  C5  OXE d   1      -6.000   5.262  -5.915  0.00  0.00    -0.002 A 
ATOM      8  C6  OXE d   1      -4.788   5.944  -5.888  0.00  0.00     0.003 A 
ENDROOT
TORSDOF 0
ENDMDL
