MODEL 1
REMARK minimizedAffinity -2.60062909
REMARK minimizedRMSD -1
REMARK  0 active torsions:
REMARK  status: ('A' for Active; 'I' for Inactive)
ROOT
ATOM      1  C2' OXE d   1      -5.271  -2.248  -5.374  0.00  0.00     0.078 C 
ATOM      2  C1' OXE d   1      -5.369  -4.982  -6.000  0.00  0.00     0.078 C 
ATOM      3  C1  OXE d   1      -4.113  -4.453  -5.355  0.00  0.00    -0.078 A 
ATOM      4  C2  OXE d   1      -4.056  -3.105  -5.095  0.00  0.00    -0.078 A 
ATOM      5  C3  OXE d   1      -2.942  -2.573  -4.451  0.00  0.00     0.003 A 
ATOM      6  C4  OXE d   1      -1.817  -3.371  -4.205  0.00  0.00    -0.002 A 
ATOM      7  C5  OXE d   1      -1.839  -4.739  -4.499  0.00  0.00    -0.002 A 
ATOM      8  C6  OXE d   1      -2.992  -5.302  -5.034  0.00  0.00     0.003 A 
ENDROOT
TORSDOF 0
ENDMDL
