MODEL 1
REMARK minimizedAffinity -3.29116201
REMARK minimizedRMSD -1
REMARK  0 active torsions:
REMARK  status: ('A' for Active; 'I' for Inactive)
ROOT
ATOM      1  C2' OXE d   1      -1.802  -2.992  -3.750  0.00  0.00     0.078 C 
ATOM      2  C1' OXE d   1      -2.621  -5.432  -4.871  0.00  0.00     0.078 C 
ATOM      3  C1  OXE d   1      -3.496  -4.224  -5.098  0.00  0.00    -0.078 A 
ATOM      4  C2  OXE d   1      -3.111  -3.045  -4.507  0.00  0.00    -0.078 A 
ATOM      5  C3  OXE d   1      -3.853  -1.888  -4.730  0.00  0.00     0.003 A 
ATOM      6  C4  OXE d   1      -5.068  -1.948  -5.423  0.00  0.00    -0.002 A 
ATOM      7  C5  OXE d   1      -5.498  -3.148  -6.000  0.00  0.00    -0.002 A 
ATOM      8  C6  OXE d   1      -4.704  -4.283  -5.883  0.00  0.00     0.003 A 
ENDROOT
TORSDOF 0
ENDMDL
