MODEL 1
REMARK minimizedAffinity -5.75647831
REMARK minimizedRMSD -1
REMARK  2 active torsions:
REMARK  status: ('A' for Active; 'I' for Inactive)
REMARK    1  A    between atoms: C1_2  and  C2_3 
REMARK    2  A    between atoms: C2_3  and  C3_4 
ROOT
ATOM      1  C3  UNL d   1       0.792  -0.507   1.010  0.00  0.00    -0.075 A 
ATOM      2  C4  UNL d   1       0.555  -1.447   2.023  0.00  0.00     0.002 A 
ATOM      3  C5  UNL d   1       1.596  -2.232   2.519  0.00  0.00     0.002 A 
ATOM      4  C6  UNL d   1       2.882  -2.096   2.001  0.00  0.00    -0.004 A 
ATOM      5  C7  UNL d   1       3.126  -1.177   0.983  0.00  0.00     0.002 A 
ATOM      6  C8  UNL d   1       2.087  -0.387   0.488  0.00  0.00     0.002 A 
ENDROOT
BRANCH   1   7
ATOM      7  C2  UNL d   1      -0.325   0.367   0.490  0.00  0.00     0.056 C 
BRANCH   7   8
ATOM      8  C1  UNL d   1      -0.071   1.869   0.657  0.00  0.00     0.007 C 
ATOM      9  C   UNL d   1      -1.298   2.636   1.131  0.00  0.00     0.009 C 
ENDBRANCH   7   8
ENDBRANCH   1   7
TORSDOF 2
ENDMDL
