MODEL 1
REMARK minimizedAffinity -2.0881536
REMARK minimizedRMSD -1
REMARK  2 active torsions:
REMARK  status: ('A' for Active; 'I' for Inactive)
REMARK    1  A    between atoms: C1_2  and  C2_3 
REMARK    2  A    between atoms: C2_3  and  C3_4 
ROOT
ATOM      1  C3  UNL d   1      -0.068   0.116   0.836  0.00  0.00    -0.075 A 
ATOM      2  C4  UNL d   1       1.243  -0.302   0.563  0.00  0.00     0.002 A 
ATOM      3  C5  UNL d   1       1.524  -1.650   0.340  0.00  0.00     0.002 A 
ATOM      4  C6  UNL d   1       0.504  -2.596   0.399  0.00  0.00    -0.004 A 
ATOM      5  C7  UNL d   1      -0.799  -2.195   0.686  0.00  0.00     0.002 A 
ATOM      6  C8  UNL d   1      -1.084  -0.846   0.905  0.00  0.00     0.002 A 
ENDROOT
BRANCH   1   7
ATOM      7  C2  UNL d   1      -0.384   1.578   1.049  0.00  0.00     0.056 C 
BRANCH   7   8
ATOM      8  C1  UNL d   1      -1.883   1.888   1.117  0.00  0.00     0.007 C 
ATOM      9  C   UNL d   1      -2.182   3.304   1.590  0.00  0.00     0.009 C 
ENDBRANCH   7   8
ENDBRANCH   1   7
TORSDOF 2
ENDMDL
