MODEL 1
REMARK minimizedAffinity -3.25930643
REMARK minimizedRMSD -1
REMARK  2 active torsions:
REMARK  status: ('A' for Active; 'I' for Inactive)
REMARK    1  A    between atoms: C1_2  and  C2_3 
REMARK    2  A    between atoms: C2_3  and  C3_4 
ROOT
ATOM      1  C3  UNL d   1      -0.870  -0.353  -0.767  0.00  0.00    -0.075 A 
ATOM      2  C4  UNL d   1       0.427   0.067  -1.099  0.00  0.00     0.002 A 
ATOM      3  C5  UNL d   1       1.539  -0.532  -0.506  0.00  0.00     0.002 A 
ATOM      4  C6  UNL d   1       1.369  -1.549   0.431  0.00  0.00    -0.004 A 
ATOM      5  C7  UNL d   1       0.085  -1.963   0.780  0.00  0.00     0.002 A 
ATOM      6  C8  UNL d   1      -1.029  -1.368   0.185  0.00  0.00     0.002 A 
ENDROOT
BRANCH   1   7
ATOM      7  C2  UNL d   1      -2.076   0.272  -1.427  0.00  0.00     0.056 C 
BRANCH   7   8
ATOM      8  C1  UNL d   1      -2.894  -0.703  -2.280  0.00  0.00     0.007 C 
ATOM      9  C   UNL d   1      -3.383  -0.093  -3.587  0.00  0.00     0.009 C 
ENDBRANCH   7   8
ENDBRANCH   1   7
TORSDOF 2
ENDMDL
