MODEL 1
REMARK minimizedAffinity 11.41539
REMARK minimizedRMSD -1
REMARK  1 active torsions:
REMARK  status: ('A' for Active; 'I' for Inactive)
REMARK    1  A    between atoms: C1_2  and  C2_3 
ROOT
ATOM      1  C2  UNL d   1       1.135  -0.022   3.701  0.00  0.00    -0.081 A 
ATOM      2  C3  UNL d   1       2.145   0.898   4.008  0.00  0.00     0.006 A 
ATOM      3  C4  UNL d   1       3.255   0.507   4.761  0.00  0.00     0.002 A 
ATOM      4  C5  UNL d   1       3.377  -0.811   5.213  0.00  0.00    -0.080 A 
ATOM      5  C6  UNL d   1       4.578  -1.252   5.997  0.00  0.00     0.076 C 
ATOM      6  C7  UNL d   1       2.359  -1.726   4.922  0.00  0.00     0.002 A 
ATOM      7  C8  UNL d   1       1.249  -1.336   4.170  0.00  0.00     0.006 A 
ENDROOT
BRANCH   1   8
ATOM      8  C1  UNL d   1      -0.031   0.380   2.835  0.00  0.00     0.054 C 
ATOM      9  C   UNL d   1      -0.028  -0.380   1.516  0.00  0.00     0.018 C 
ENDBRANCH   1   8
TORSDOF 1
ENDMDL
