MODEL 1
REMARK minimizedAffinity 19.1300049
REMARK minimizedRMSD -1
REMARK  1 active torsions:
REMARK  status: ('A' for Active; 'I' for Inactive)
REMARK    1  A    between atoms: C1_2  and  C2_3 
ROOT
ATOM      1  C2  UNL d   1      -0.064  -0.848  -4.147  0.00  0.00    -0.081 A 
ATOM      2  C3  UNL d   1       0.265  -1.398  -5.392  0.00  0.00     0.006 A 
ATOM      3  C4  UNL d   1       1.486  -1.097  -6.000  0.00  0.00     0.002 A 
ATOM      4  C5  UNL d   1       2.401  -0.247  -5.370  0.00  0.00    -0.080 A 
ATOM      5  C6  UNL d   1       3.729   0.060  -5.998  0.00  0.00     0.076 C 
ATOM      6  C7  UNL d   1       2.066   0.317  -4.135  0.00  0.00     0.002 A 
ATOM      7  C8  UNL d   1       0.845   0.017  -3.527  0.00  0.00     0.006 A 
ENDROOT
BRANCH   1   8
ATOM      8  C1  UNL d   1      -1.352  -1.221  -3.459  0.00  0.00     0.054 C 
ATOM      9  C   UNL d   1      -1.089  -1.995  -2.175  0.00  0.00     0.018 C 
ENDBRANCH   1   8
TORSDOF 1
ENDMDL
