MODEL 1
REMARK minimizedAffinity 17.7941437
REMARK minimizedRMSD -1
REMARK  1 active torsions:
REMARK  status: ('A' for Active; 'I' for Inactive)
REMARK    1  A    between atoms: C1_2  and  C2_3 
ROOT
ATOM      1  C2  UNL d   1      -1.048  -1.989  -4.801  0.00  0.00    -0.081 A 
ATOM      2  C3  UNL d   1      -0.783  -0.705  -4.309  0.00  0.00     0.006 A 
ATOM      3  C4  UNL d   1       0.393  -0.040  -4.663  0.00  0.00     0.002 A 
ATOM      4  C5  UNL d   1       1.318  -0.643  -5.522  0.00  0.00    -0.080 A 
ATOM      5  C6  UNL d   1       2.570   0.073  -5.935  0.00  0.00     0.076 C 
ATOM      6  C7  UNL d   1       1.062  -1.932  -6.000  0.00  0.00     0.002 A 
ATOM      7  C8  UNL d   1      -0.114  -2.598  -5.645  0.00  0.00     0.006 A 
ENDROOT
BRANCH   1   8
ATOM      8  C1  UNL d   1      -2.345  -2.683  -4.472  0.00  0.00     0.054 C 
ATOM      9  C   UNL d   1      -2.666  -3.767  -5.490  0.00  0.00     0.018 C 
ENDBRANCH   1   8
TORSDOF 1
ENDMDL
