MODEL 1
REMARK minimizedAffinity 10.7993584
REMARK minimizedRMSD -1
REMARK  1 active torsions:
REMARK  status: ('A' for Active; 'I' for Inactive)
REMARK    1  A    between atoms: C1_2  and  C2_3 
ROOT
ATOM      1  C2  UNL d   1       1.228  -1.149  -5.089  0.00  0.00    -0.081 A 
ATOM      2  C3  UNL d   1       0.948  -1.105  -3.718  0.00  0.00     0.006 A 
ATOM      3  C4  UNL d   1      -0.372  -1.047  -3.266  0.00  0.00     0.002 A 
ATOM      4  C5  UNL d   1      -1.434  -1.040  -4.177  0.00  0.00    -0.080 A 
ATOM      5  C6  UNL d   1      -2.857  -1.008  -3.705  0.00  0.00     0.076 C 
ATOM      6  C7  UNL d   1      -1.154  -1.067  -5.548  0.00  0.00     0.002 A 
ATOM      7  C8  UNL d   1       0.166  -1.124  -6.000  0.00  0.00     0.006 A 
ENDROOT
BRANCH   1   8
ATOM      8  C1  UNL d   1       2.649  -1.278  -5.578  0.00  0.00     0.054 C 
ATOM      9  C   UNL d   1       3.413  -2.330  -4.787  0.00  0.00     0.018 C 
ENDBRANCH   1   8
TORSDOF 1
ENDMDL
