MODEL 1
REMARK minimizedAffinity 12.5390968
REMARK minimizedRMSD -1
REMARK  1 active torsions:
REMARK  status: ('A' for Active; 'I' for Inactive)
REMARK    1  A    between atoms: C1_2  and  C2_3 
ROOT
ATOM      1  C2  UNL d   1       3.666  -0.225  -5.492  0.00  0.00    -0.081 A 
ATOM      2  C3  UNL d   1       3.574  -1.603  -5.256  0.00  0.00     0.006 A 
ATOM      3  C4  UNL d   1       2.326  -2.220  -5.142  0.00  0.00     0.002 A 
ATOM      4  C5  UNL d   1       1.150  -1.473  -5.270  0.00  0.00    -0.080 A 
ATOM      5  C6  UNL d   1      -0.195  -2.129  -5.180  0.00  0.00     0.076 C 
ATOM      6  C7  UNL d   1       1.242  -0.095  -5.488  0.00  0.00     0.002 A 
ATOM      7  C8  UNL d   1       2.489   0.524  -5.602  0.00  0.00     0.006 A 
ENDROOT
BRANCH   1   8
ATOM      8  C1  UNL d   1       5.009   0.432  -5.680  0.00  0.00     0.054 C 
ATOM      9  C   UNL d   1       4.860   1.916  -5.984  0.00  0.00     0.018 C 
ENDBRANCH   1   8
TORSDOF 1
ENDMDL
