MODEL 1
REMARK minimizedAffinity 6.66121817
REMARK minimizedRMSD -1
REMARK  1 active torsions:
REMARK  status: ('A' for Active; 'I' for Inactive)
REMARK    1  A    between atoms: C1_2  and  C2_3 
ROOT
ATOM      1  C2  UNL d   1      -1.424  -1.103   2.771  0.00  0.00    -0.081 A 
ATOM      2  C3  UNL d   1      -1.114   0.240   2.524  0.00  0.00     0.006 A 
ATOM      3  C4  UNL d   1       0.099   0.778   2.961  0.00  0.00     0.002 A 
ATOM      4  C5  UNL d   1       1.024  -0.018   3.644  0.00  0.00    -0.080 A 
ATOM      5  C6  UNL d   1       2.343   0.540   4.091  0.00  0.00     0.076 C 
ATOM      6  C7  UNL d   1       0.707  -1.355   3.906  0.00  0.00     0.002 A 
ATOM      7  C8  UNL d   1      -0.506  -1.894   3.471  0.00  0.00     0.006 A 
ENDROOT
BRANCH   1   8
ATOM      8  C1  UNL d   1      -2.703  -1.704   2.245  0.00  0.00     0.054 C 
ATOM      9  C   UNL d   1      -3.917  -1.138   2.967  0.00  0.00     0.018 C 
ENDBRANCH   1   8
TORSDOF 1
ENDMDL
