MODEL 1
REMARK minimizedAffinity -4.18596458
REMARK minimizedRMSD -1
REMARK  0 active torsions:
REMARK  status: ('A' for Active; 'I' for Inactive)
ROOT
ATOM      1  C   UNL d   1       0.020  -1.122  -0.671  0.00  0.00     0.172 C 
ATOM      2  N   UNL d   1       1.260  -0.731  -0.043  0.00  0.00    -0.070 N 
ATOM      3  C1  UNL d   1       1.532   0.502   0.487  0.00  0.00    -0.004 A 
ATOM      4  C2  UNL d   1       2.815   0.472   0.989  0.00  0.00    -0.047 A 
ATOM      5  C3  UNL d   1       3.332  -0.824   0.753  0.00  0.00    -0.047 A 
ATOM      6  C4  UNL d   1       2.348  -1.548   0.113  0.00  0.00    -0.004 A 
ENDROOT
TORSDOF 0
ENDMDL
