MODEL 1
REMARK minimizedAffinity -3.58213258
REMARK minimizedRMSD -1
REMARK  0 active torsions:
REMARK  status: ('A' for Active; 'I' for Inactive)
ROOT
ATOM      1  C   UNL d   1      -1.327   0.503   0.082  0.00  0.00     0.172 C 
ATOM      2  N   UNL d   1      -0.074  -0.196   0.246  0.00  0.00    -0.070 N 
ATOM      3  C1  UNL d   1       0.743  -0.123   1.342  0.00  0.00    -0.004 A 
ATOM      4  C2  UNL d   1       1.834  -0.933   1.110  0.00  0.00    -0.047 A 
ATOM      5  C3  UNL d   1       1.667  -1.512  -0.170  0.00  0.00    -0.047 A 
ATOM      6  C4  UNL d   1       0.478  -1.038  -0.683  0.00  0.00    -0.004 A 
ENDROOT
TORSDOF 0
ENDMDL
