MODEL 1
REMARK minimizedAffinity -3.89008832
REMARK minimizedRMSD -1
REMARK  0 active torsions:
REMARK  status: ('A' for Active; 'I' for Inactive)
ROOT
ATOM      1  C   UNL d   1      -0.921   0.330  -0.158  0.00  0.00     0.172 C 
ATOM      2  N   UNL d   1       0.233  -0.527  -0.026  0.00  0.00    -0.070 N 
ATOM      3  C1  UNL d   1       1.425  -0.179   0.553  0.00  0.00    -0.004 A 
ATOM      4  C2  UNL d   1       2.264  -1.270   0.481  0.00  0.00    -0.047 A 
ATOM      5  C3  UNL d   1       1.553  -2.309  -0.165  0.00  0.00    -0.047 A 
ATOM      6  C4  UNL d   1       0.299  -1.823  -0.468  0.00  0.00    -0.004 A 
ENDROOT
TORSDOF 0
ENDMDL
