MODEL 1
REMARK minimizedAffinity -3.47816896
REMARK minimizedRMSD -1
REMARK  0 active torsions:
REMARK  status: ('A' for Active; 'I' for Inactive)
ROOT
ATOM      1  C   UNL d   1       2.131  -1.431   0.416  0.00  0.00     0.172 C 
ATOM      2  N   UNL d   1       0.927  -0.677   0.157  0.00  0.00    -0.070 N 
ATOM      3  C1  UNL d   1      -0.235  -1.182  -0.363  0.00  0.00    -0.004 A 
ATOM      4  C2  UNL d   1      -1.141  -0.147  -0.455  0.00  0.00    -0.047 A 
ATOM      5  C3  UNL d   1      -0.501   1.020   0.026  0.00  0.00    -0.047 A 
ATOM      6  C4  UNL d   1       0.778   0.663   0.398  0.00  0.00    -0.004 A 
ENDROOT
TORSDOF 0
ENDMDL
