MODEL 1
REMARK minimizedAffinity -1.99681067
REMARK minimizedRMSD -1
REMARK  0 active torsions:
REMARK  status: ('A' for Active; 'I' for Inactive)
ROOT
ATOM      1  C   UNL d   1       1.275   2.395  -0.410  0.00  0.00     0.172 C 
ATOM      2  N   UNL d   1       0.890   1.005  -0.473  0.00  0.00    -0.070 N 
ATOM      3  C1  UNL d   1       1.748  -0.059  -0.548  0.00  0.00    -0.004 A 
ATOM      4  C2  UNL d   1       0.992  -1.210  -0.590  0.00  0.00    -0.047 A 
ATOM      5  C3  UNL d   1      -0.369  -0.825  -0.541  0.00  0.00    -0.047 A 
ATOM      6  C4  UNL d   1      -0.403   0.552  -0.469  0.00  0.00    -0.004 A 
ENDROOT
TORSDOF 0
ENDMDL
