MODEL 1
REMARK minimizedAffinity -2.68032193
REMARK minimizedRMSD -1
REMARK  0 active torsions:
REMARK  status: ('A' for Active; 'I' for Inactive)
ROOT
ATOM      1  C   UNL d   1      -5.804  -0.853  -0.092  0.00  0.00     0.172 C 
ATOM      2  N   UNL d   1      -4.665  -0.078   0.342  0.00  0.00    -0.070 N 
ATOM      3  C1  UNL d   1      -4.235   0.055   1.635  0.00  0.00    -0.004 A 
ATOM      4  C2  UNL d   1      -3.124   0.870   1.629  0.00  0.00    -0.047 A 
ATOM      5  C3  UNL d   1      -2.878   1.241   0.286  0.00  0.00    -0.047 A 
ATOM      6  C4  UNL d   1      -3.847   0.640  -0.490  0.00  0.00    -0.004 A 
ENDROOT
TORSDOF 0
ENDMDL
