MODEL 1
REMARK minimizedAffinity -2.52617741
REMARK minimizedRMSD -1
REMARK  0 active torsions:
REMARK  status: ('A' for Active; 'I' for Inactive)
ROOT
ATOM      1  C   UNL d   1       1.522   2.252  -0.329  0.00  0.00     0.172 C 
ATOM      2  N   UNL d   1       1.257   0.835  -0.418  0.00  0.00    -0.070 N 
ATOM      3  C1  UNL d   1       0.017   0.254  -0.435  0.00  0.00    -0.004 A 
ATOM      4  C2  UNL d   1       0.191  -1.110  -0.529  0.00  0.00    -0.047 A 
ATOM      5  C3  UNL d   1       1.584  -1.357  -0.569  0.00  0.00    -0.047 A 
ATOM      6  C4  UNL d   1       2.220  -0.136  -0.499  0.00  0.00    -0.004 A 
ENDROOT
TORSDOF 0
ENDMDL
