MODEL 1
REMARK minimizedAffinity -4.11653042
REMARK minimizedRMSD -1
REMARK  0 active torsions:
REMARK  status: ('A' for Active; 'I' for Inactive)
ROOT
ATOM      1  C   UNL d   1      -0.020  -1.130  -0.674  0.00  0.00     0.172 C 
ATOM      2  N   UNL d   1       1.228  -0.890   0.013  0.00  0.00    -0.070 N 
ATOM      3  C1  UNL d   1       1.678   0.328   0.448  0.00  0.00    -0.004 A 
ATOM      4  C2  UNL d   1       2.902   0.135   1.052  0.00  0.00    -0.047 A 
ATOM      5  C3  UNL d   1       3.198  -1.247   0.976  0.00  0.00    -0.047 A 
ATOM      6  C4  UNL d   1       2.145  -1.858   0.328  0.00  0.00    -0.004 A 
ENDROOT
TORSDOF 0
ENDMDL
