MODEL 1
REMARK minimizedAffinity -3.66474199
REMARK minimizedRMSD -1
REMARK  0 active torsions:
REMARK  status: ('A' for Active; 'I' for Inactive)
ROOT
ATOM      1  C   UNL d   1      -0.502   0.380  -0.618  0.00  0.00     0.172 C 
ATOM      2  N   UNL d   1       0.940   0.438  -0.647  0.00  0.00    -0.070 N 
ATOM      3  C1  UNL d   1       1.780  -0.631  -0.809  0.00  0.00    -0.004 A 
ATOM      4  C2  UNL d   1       3.074  -0.160  -0.780  0.00  0.00    -0.047 A 
ATOM      5  C3  UNL d   1       3.011   1.241  -0.593  0.00  0.00    -0.047 A 
ATOM      6  C4  UNL d   1       1.678   1.585  -0.514  0.00  0.00    -0.004 A 
ENDROOT
TORSDOF 0
ENDMDL
