MODEL 1
REMARK minimizedAffinity -3.75624299
REMARK minimizedRMSD -1
REMARK  0 active torsions:
REMARK  status: ('A' for Active; 'I' for Inactive)
ROOT
ATOM      1  C   UNL d   1       0.117  -0.753   0.098  0.00  0.00     0.172 C 
ATOM      2  N   UNL d   1       1.549  -0.568   0.082  0.00  0.00    -0.070 N 
ATOM      3  C1  UNL d   1       2.483  -1.555   0.251  0.00  0.00    -0.004 A 
ATOM      4  C2  UNL d   1       3.730  -0.974   0.168  0.00  0.00    -0.047 A 
ATOM      5  C3  UNL d   1       3.539   0.409  -0.059  0.00  0.00    -0.047 A 
ATOM      6  C4  UNL d   1       2.179   0.633  -0.108  0.00  0.00    -0.004 A 
ENDROOT
TORSDOF 0
ENDMDL
