MODEL 1
REMARK minimizedAffinity -3.00415349
REMARK minimizedRMSD -1
REMARK  0 active torsions:
REMARK  status: ('A' for Active; 'I' for Inactive)
ROOT
ATOM      1  C   UNL d   1      -0.020   4.805  -1.821  0.00  0.00     0.172 C 
ATOM      2  N   UNL d   1       0.446   4.207  -0.592  0.00  0.00    -0.070 N 
ATOM      3  C1  UNL d   1       0.053   2.993  -0.095  0.00  0.00    -0.004 A 
ATOM      4  C2  UNL d   1       0.724   2.785   1.090  0.00  0.00    -0.047 A 
ATOM      5  C3  UNL d   1       1.548   3.913   1.314  0.00  0.00    -0.047 A 
ATOM      6  C4  UNL d   1       1.357   4.778   0.258  0.00  0.00    -0.004 A 
ENDROOT
TORSDOF 0
ENDMDL
