MODEL 1
REMARK minimizedAffinity 1.44240916
REMARK minimizedRMSD -1
REMARK  0 active torsions:
REMARK  status: ('A' for Active; 'I' for Inactive)
ROOT
ATOM      1  C   UNL d   1       5.244  -1.123  -5.751  0.00  0.00     0.172 C 
ATOM      2  N   UNL d   1       5.271  -2.003  -4.606  0.00  0.00    -0.070 N 
ATOM      3  C1  UNL d   1       4.582  -1.815  -3.438  0.00  0.00    -0.004 A 
ATOM      4  C2  UNL d   1       4.874  -2.870  -2.601  0.00  0.00    -0.047 A 
ATOM      5  C3  UNL d   1       5.770  -3.721  -3.289  0.00  0.00    -0.047 A 
ATOM      6  C4  UNL d   1       6.000  -3.160  -4.528  0.00  0.00    -0.004 A 
ENDROOT
TORSDOF 0
ENDMDL
