MODEL 1
REMARK minimizedAffinity -1.03320217
REMARK minimizedRMSD -1
REMARK  0 active torsions:
REMARK  status: ('A' for Active; 'I' for Inactive)
ROOT
ATOM      1  C   UNL d   1       0.419   0.935   1.244  0.00  0.00     0.172 C 
ATOM      2  N   UNL d   1       0.287   2.000   0.278  0.00  0.00    -0.070 N 
ATOM      3  C1  UNL d   1      -0.622   2.041  -0.746  0.00  0.00    -0.004 A 
ATOM      4  C2  UNL d   1      -0.425   3.217  -1.438  0.00  0.00    -0.047 A 
ATOM      5  C3  UNL d   1       0.639   3.906  -0.809  0.00  0.00    -0.047 A 
ATOM      6  C4  UNL d   1       1.061   3.130   0.250  0.00  0.00    -0.004 A 
ENDROOT
TORSDOF 0
ENDMDL
