MODEL 1
REMARK minimizedAffinity 1.86527503
REMARK minimizedRMSD -1
REMARK  0 active torsions:
REMARK  status: ('A' for Active; 'I' for Inactive)
ROOT
ATOM      1  C   UNL d   1      -0.206   0.923   1.464  0.00  0.00     0.172 C 
ATOM      2  N   UNL d   1       0.371   1.931   0.606  0.00  0.00    -0.070 N 
ATOM      3  C1  UNL d   1       0.166   2.043  -0.744  0.00  0.00    -0.004 A 
ATOM      4  C2  UNL d   1       0.888   3.128  -1.191  0.00  0.00    -0.047 A 
ATOM      5  C3  UNL d   1       1.551   3.687  -0.072  0.00  0.00    -0.047 A 
ATOM      6  C4  UNL d   1       1.213   2.926   1.027  0.00  0.00    -0.004 A 
ENDROOT
TORSDOF 0
ENDMDL
