MODEL 1
REMARK minimizedAffinity -0.0502430201
REMARK minimizedRMSD -1
REMARK  0 active torsions:
REMARK  status: ('A' for Active; 'I' for Inactive)
ROOT
ATOM      1  C   UNL d   1       0.415   4.211  -1.557  0.00  0.00     0.172 C 
ATOM      2  N   UNL d   1       0.174   3.175  -0.581  0.00  0.00    -0.070 N 
ATOM      3  C1  UNL d   1       1.077   2.223  -0.187  0.00  0.00    -0.004 A 
ATOM      4  C2  UNL d   1       0.466   1.426   0.755  0.00  0.00    -0.047 A 
ATOM      5  C3  UNL d   1      -0.851   1.914   0.934  0.00  0.00    -0.047 A 
ATOM      6  C4  UNL d   1      -1.004   2.996   0.094  0.00  0.00    -0.004 A 
ENDROOT
TORSDOF 0
ENDMDL
