MODEL 1
REMARK minimizedAffinity 0.641894221
REMARK minimizedRMSD -1
REMARK  0 active torsions:
REMARK  status: ('A' for Active; 'I' for Inactive)
ROOT
ATOM      1  C   UNL d   1      -0.179   1.565   0.865  0.00  0.00     0.172 C 
ATOM      2  N   UNL d   1      -0.009   2.592  -0.135  0.00  0.00    -0.070 N 
ATOM      3  C1  UNL d   1      -0.221   2.440  -1.480  0.00  0.00    -0.004 A 
ATOM      4  C2  UNL d   1       0.049   3.646  -2.089  0.00  0.00    -0.047 A 
ATOM      5  C3  UNL d   1       0.438   4.554  -1.075  0.00  0.00    -0.047 A 
ATOM      6  C4  UNL d   1       0.394   3.875   0.124  0.00  0.00    -0.004 A 
ENDROOT
TORSDOF 0
ENDMDL
