MODEL 1
REMARK minimizedAffinity -1.06361651
REMARK minimizedRMSD -1
REMARK  0 active torsions:
REMARK  status: ('A' for Active; 'I' for Inactive)
ROOT
ATOM      1  C   UNL d   1       0.401  -1.305   2.210  0.00  0.00     0.172 C 
ATOM      2  N   UNL d   1       0.379   0.066   1.758  0.00  0.00    -0.070 N 
ATOM      3  C1  UNL d   1      -0.318   0.540   0.679  0.00  0.00    -0.004 A 
ATOM      4  C2  UNL d   1      -0.079   1.894   0.584  0.00  0.00    -0.047 A 
ATOM      5  C3  UNL d   1       0.793   2.246   1.642  0.00  0.00    -0.047 A 
ATOM      6  C4  UNL d   1       1.060   1.095   2.354  0.00  0.00    -0.004 A 
ENDROOT
TORSDOF 0
ENDMDL
