MODEL 1
REMARK minimizedAffinity -1.52855563
REMARK minimizedRMSD -1
REMARK  0 active torsions:
REMARK  status: ('A' for Active; 'I' for Inactive)
ROOT
ATOM      1  C   UNL d   1       0.638   4.382  -1.305  0.00  0.00     0.172 C 
ATOM      2  N   UNL d   1       0.295   3.179  -0.584  0.00  0.00    -0.070 N 
ATOM      3  C1  UNL d   1      -0.276   2.059  -1.126  0.00  0.00    -0.004 A 
ATOM      4  C2  UNL d   1      -0.442   1.138  -0.113  0.00  0.00    -0.047 A 
ATOM      5  C3  UNL d   1       0.045   1.726   1.078  0.00  0.00    -0.047 A 
ATOM      6  C4  UNL d   1       0.495   2.990   0.758  0.00  0.00    -0.004 A 
ENDROOT
TORSDOF 0
ENDMDL
