MODEL 1
REMARK minimizedAffinity 2.64124393
REMARK minimizedRMSD -1
REMARK  0 active torsions:
REMARK  status: ('A' for Active; 'I' for Inactive)
ROOT
ATOM      1  N1  IND d   1       1.267  -0.001  -3.681  0.00  0.00    -0.196 N 
ATOM      2  C2  IND d   1       2.266  -0.905  -3.913  0.00  0.00     0.054 A 
ATOM      3  C3  IND d   1       3.307  -0.306  -4.535  0.00  0.00    -0.031 A 
ATOM      4  C4  IND d   1       3.626   2.166  -5.178  0.00  0.00     0.051 A 
ATOM      5  C5  IND d   1       2.972   3.366  -5.201  0.00  0.00    -0.031 A 
ATOM      6  C6  IND d   1       1.692   3.508  -4.707  0.00  0.00     0.015 A 
ATOM      7  C7  IND d   1       1.019   2.454  -4.157  0.00  0.00    -0.016 A 
ATOM      8  C8  IND d   1       1.677   1.232  -4.138  0.00  0.00    -0.047 A 
ATOM      9  C9  IND d   1       2.960   1.072  -4.677  0.00  0.00    -0.096 A 
ATOM     10  HN1 IND d   1       0.510  -0.174  -3.311  0.00  0.00     0.298 HD
ENDROOT
TORSDOF 0
ENDMDL
