MODEL 1
REMARK minimizedAffinity -2.0078485
REMARK minimizedRMSD -1
REMARK  0 active torsions:
REMARK  status: ('A' for Active; 'I' for Inactive)
ROOT
ATOM      1  N1  IND d   1       0.544  -0.689  -3.602  0.00  0.00    -0.196 N 
ATOM      2  C2  IND d   1       0.969  -1.971  -3.815  0.00  0.00     0.054 A 
ATOM      3  C3  IND d   1       1.056  -2.639  -2.643  0.00  0.00    -0.031 A 
ATOM      4  C4  IND d   1       0.452  -1.857  -0.266  0.00  0.00     0.051 A 
ATOM      5  C5  IND d   1       0.054  -0.754   0.437  0.00  0.00    -0.031 A 
ATOM      6  C6  IND d   1      -0.209   0.450  -0.184  0.00  0.00     0.015 A 
ATOM      7  C7  IND d   1      -0.094   0.594  -1.538  0.00  0.00    -0.016 A 
ATOM      8  C8  IND d   1       0.316  -0.522  -2.254  0.00  0.00    -0.047 A 
ATOM      9  C9  IND d   1       0.626  -1.734  -1.625  0.00  0.00    -0.096 A 
ATOM     10  HN1 IND d   1       0.436  -0.089  -4.208  0.00  0.00     0.298 HD
ENDROOT
TORSDOF 0
ENDMDL
