MODEL 1
REMARK minimizedAffinity -0.428471833
REMARK minimizedRMSD -1
REMARK  0 active torsions:
REMARK  status: ('A' for Active; 'I' for Inactive)
ROOT
ATOM      1  N1  IND d   1      -0.627  -0.824  -0.804  0.00  0.00    -0.196 N 
ATOM      2  C2  IND d   1      -0.011   0.096  -0.001  0.00  0.00     0.054 A 
ATOM      3  C3  IND d   1       1.011   0.687  -0.661  0.00  0.00    -0.031 A 
ATOM      4  C4  IND d   1       1.785   0.373  -3.095  0.00  0.00     0.051 A 
ATOM      5  C5  IND d   1       1.555  -0.384  -4.210  0.00  0.00    -0.031 A 
ATOM      6  C6  IND d   1       0.564  -1.344  -4.248  0.00  0.00     0.015 A 
ATOM      7  C7  IND d   1      -0.245  -1.575  -3.171  0.00  0.00    -0.016 A 
ATOM      8  C8  IND d   1      -0.009  -0.814  -2.036  0.00  0.00    -0.047 A 
ATOM      9  C9  IND d   1       1.023   0.132  -1.977  0.00  0.00    -0.096 A 
ATOM     10  HN1 IND d   1      -1.288  -1.324  -0.578  0.00  0.00     0.298 HD
ENDROOT
TORSDOF 0
ENDMDL
