MODEL 1
REMARK minimizedAffinity -0.510572553
REMARK minimizedRMSD -1
REMARK  0 active torsions:
REMARK  status: ('A' for Active; 'I' for Inactive)
ROOT
ATOM      1  N1  IND d   1      -1.854   0.917  -1.412  0.00  0.00    -0.196 N 
ATOM      2  C2  IND d   1      -0.716   1.070  -2.154  0.00  0.00     0.054 A 
ATOM      3  C3  IND d   1       0.366   0.684  -1.441  0.00  0.00    -0.031 A 
ATOM      4  C4  IND d   1       0.491  -0.329   0.923  0.00  0.00     0.051 A 
ATOM      5  C5  IND d   1      -0.283  -0.628   2.009  0.00  0.00    -0.031 A 
ATOM      6  C6  IND d   1      -1.648  -0.426   2.009  0.00  0.00     0.015 A 
ATOM      7  C7  IND d   1      -2.294   0.074   0.914  0.00  0.00    -0.016 A 
ATOM      8  C8  IND d   1      -1.511   0.386  -0.188  0.00  0.00    -0.047 A 
ATOM      9  C9  IND d   1      -0.119   0.223  -0.179  0.00  0.00    -0.096 A 
ATOM     10  HN1 IND d   1      -2.650   1.118  -1.667  0.00  0.00     0.298 HD
ENDROOT
TORSDOF 0
ENDMDL
