MODEL 1
REMARK minimizedAffinity -1.63955712
REMARK minimizedRMSD -1
REMARK  0 active torsions:
REMARK  status: ('A' for Active; 'I' for Inactive)
ROOT
ATOM      1  N1  IND d   1      -0.358   0.871  -1.077  0.00  0.00    -0.196 N 
ATOM      2  C2  IND d   1      -1.706   0.755  -1.273  0.00  0.00     0.054 A 
ATOM      3  C3  IND d   1      -2.290   0.181  -0.197  0.00  0.00    -0.031 A 
ATOM      4  C4  IND d   1      -1.239  -0.554   2.035  0.00  0.00     0.051 A 
ATOM      5  C5  IND d   1      -0.035  -0.683   2.669  0.00  0.00    -0.031 A 
ATOM      6  C6  IND d   1       1.147  -0.289   2.075  0.00  0.00     0.015 A 
ATOM      7  C7  IND d   1       1.167   0.261   0.824  0.00  0.00    -0.016 A 
ATOM      8  C8  IND d   1      -0.053   0.386   0.175  0.00  0.00    -0.047 A 
ATOM      9  C9  IND d   1      -1.251  -0.051   0.756  0.00  0.00    -0.096 A 
ATOM     10  HN1 IND d   1       0.205   1.193  -1.642  0.00  0.00     0.298 HD
ENDROOT
TORSDOF 0
ENDMDL
