MODEL 1
REMARK minimizedAffinity -2.38522029
REMARK minimizedRMSD -1
REMARK  0 active torsions:
REMARK  status: ('A' for Active; 'I' for Inactive)
ROOT
ATOM      1  N1  IND d   1       0.895   0.829  -0.114  0.00  0.00    -0.196 N 
ATOM      2  C2  IND d   1       0.195   0.788  -1.287  0.00  0.00     0.054 A 
ATOM      3  C3  IND d   1      -0.981   0.145  -1.110  0.00  0.00    -0.031 A 
ATOM      4  C4  IND d   1      -2.005  -0.830   1.041  0.00  0.00     0.051 A 
ATOM      5  C5  IND d   1      -1.724  -1.065   2.358  0.00  0.00    -0.031 A 
ATOM      6  C6  IND d   1      -0.532  -0.669   2.930  0.00  0.00     0.015 A 
ATOM      7  C7  IND d   1       0.422  -0.012   2.207  0.00  0.00    -0.016 A 
ATOM      8  C8  IND d   1       0.143   0.222   0.868  0.00  0.00    -0.047 A 
ATOM      9  C9  IND d   1      -1.047  -0.215   0.271  0.00  0.00    -0.096 A 
ATOM     10  HN1 IND d   1       1.674   1.177  -0.006  0.00  0.00     0.298 HD
ENDROOT
TORSDOF 0
ENDMDL
