MODEL 1
REMARK minimizedAffinity -2.1955874
REMARK minimizedRMSD -1
REMARK  0 active torsions:
REMARK  status: ('A' for Active; 'I' for Inactive)
ROOT
ATOM      1  N1  IND d   1      -0.441   0.834  -1.995  0.00  0.00    -0.196 N 
ATOM      2  C2  IND d   1       0.901   0.578  -2.040  0.00  0.00     0.054 A 
ATOM      3  C3  IND d   1       1.271  -0.179  -0.983  0.00  0.00    -0.031 A 
ATOM      4  C4  IND d   1      -0.178  -1.197   0.887  0.00  0.00     0.051 A 
ATOM      5  C5  IND d   1      -1.455  -1.211   1.373  0.00  0.00    -0.031 A 
ATOM      6  C6  IND d   1      -2.481  -0.533   0.747  0.00  0.00     0.015 A 
ATOM      7  C7  IND d   1      -2.269   0.178  -0.400  0.00  0.00    -0.016 A 
ATOM      8  C8  IND d   1      -0.972   0.201  -0.892  0.00  0.00    -0.047 A 
ATOM      9  C9  IND d   1       0.082  -0.450  -0.238  0.00  0.00    -0.096 A 
ATOM     10  HN1 IND d   1      -0.880   1.311  -2.560  0.00  0.00     0.298 HD
ENDROOT
TORSDOF 0
ENDMDL
