MODEL 1
REMARK minimizedAffinity -2.94699502
REMARK minimizedRMSD -1
REMARK  0 active torsions:
REMARK  status: ('A' for Active; 'I' for Inactive)
ROOT
ATOM      1  N1  IND d   1       0.732   1.159   0.369  0.00  0.00    -0.196 N 
ATOM      2  C2  IND d   1       0.283   0.966  -0.908  0.00  0.00     0.054 A 
ATOM      3  C3  IND d   1      -0.775   0.124  -0.913  0.00  0.00    -0.031 A 
ATOM      4  C4  IND d   1      -2.000  -0.975   1.067  0.00  0.00     0.051 A 
ATOM      5  C5  IND d   1      -1.935  -1.127   2.424  0.00  0.00    -0.031 A 
ATOM      6  C6  IND d   1      -0.959  -0.510   3.180  0.00  0.00     0.015 A 
ATOM      7  C7  IND d   1      -0.016   0.295   2.607  0.00  0.00    -0.016 A 
ATOM      8  C8  IND d   1      -0.074   0.445   1.229  0.00  0.00    -0.047 A 
ATOM      9  C9  IND d   1      -1.036  -0.212   0.451  0.00  0.00    -0.096 A 
ATOM     10  HN1 IND d   1       1.404   1.644   0.597  0.00  0.00     0.298 HD
ENDROOT
TORSDOF 0
ENDMDL
