MODEL 1
REMARK minimizedAffinity -3.88845325
REMARK minimizedRMSD -1
REMARK  0 active torsions:
REMARK  status: ('A' for Active; 'I' for Inactive)
ROOT
ATOM      1  N1  IND d   1       0.979   1.252  -0.020  0.00  0.00    -0.196 N 
ATOM      2  C2  IND d   1       0.444   1.106  -1.270  0.00  0.00     0.054 A 
ATOM      3  C3  IND d   1      -0.553   0.194  -1.251  0.00  0.00    -0.031 A 
ATOM      4  C4  IND d   1      -1.544  -1.106   0.738  0.00  0.00     0.051 A 
ATOM      5  C5  IND d   1      -1.362  -1.334   2.073  0.00  0.00    -0.031 A 
ATOM      6  C6  IND d   1      -0.373  -0.697   2.794  0.00  0.00     0.015 A 
ATOM      7  C7  IND d   1       0.468   0.205   2.206  0.00  0.00    -0.016 A 
ATOM      8  C8  IND d   1       0.292   0.434   0.849  0.00  0.00    -0.047 A 
ATOM      9  C9  IND d   1      -0.683  -0.242   0.103  0.00  0.00    -0.096 A 
ATOM     10  HN1 IND d   1       1.634   1.769   0.188  0.00  0.00     0.298 HD
ENDROOT
TORSDOF 0
ENDMDL
