MODEL 1
REMARK minimizedAffinity -5.59393883
REMARK minimizedRMSD -1
REMARK  0 active torsions:
REMARK  status: ('A' for Active; 'I' for Inactive)
ROOT
ATOM      1  N1  IND d   1      -2.128   1.159  -0.336  0.00  0.00    -0.196 N 
ATOM      2  C2  IND d   1      -1.050   1.080  -1.173  0.00  0.00     0.054 A 
ATOM      3  C3  IND d   1      -0.115   0.250  -0.659  0.00  0.00    -0.031 A 
ATOM      4  C4  IND d   1      -0.188  -1.166   1.490  0.00  0.00     0.051 A 
ATOM      5  C5  IND d   1      -0.950  -1.401   2.600  0.00  0.00    -0.031 A 
ATOM      6  C6  IND d   1      -2.170  -0.784   2.790  0.00  0.00     0.015 A 
ATOM      7  C7  IND d   1      -2.680   0.086   1.869  0.00  0.00    -0.016 A 
ATOM      8  C8  IND d   1      -1.905   0.332   0.744  0.00  0.00    -0.047 A 
ATOM      9  C9  IND d   1      -0.648  -0.258   0.565  0.00  0.00    -0.096 A 
ATOM     10  HN1 IND d   1      -2.827   1.643  -0.462  0.00  0.00     0.298 HD
ENDROOT
TORSDOF 0
ENDMDL
