MODEL 1
REMARK minimizedAffinity -5.94658899
REMARK minimizedRMSD -1
REMARK  0 active torsions:
REMARK  status: ('A' for Active; 'I' for Inactive)
ROOT
ATOM      1  N1  IND d   1      -1.269   0.723  -0.815  0.00  0.00    -0.196 N 
ATOM      2  C2  IND d   1      -2.559   0.428  -0.470  0.00  0.00     0.054 A 
ATOM      3  C3  IND d   1      -2.597  -0.165   0.744  0.00  0.00    -0.031 A 
ATOM      4  C4  IND d   1      -0.677  -0.658   2.385  0.00  0.00     0.051 A 
ATOM      5  C5  IND d   1       0.684  -0.603   2.499  0.00  0.00    -0.031 A 
ATOM      6  C6  IND d   1       1.479  -0.091   1.494  0.00  0.00     0.015 A 
ATOM      7  C7  IND d   1       0.940   0.399   0.338  0.00  0.00    -0.016 A 
ATOM      8  C8  IND d   1      -0.441   0.338   0.217  0.00  0.00    -0.047 A 
ATOM      9  C9  IND d   1      -1.250  -0.220   1.215  0.00  0.00    -0.096 A 
ATOM     10  HN1 IND d   1      -1.017   1.087  -1.552  0.00  0.00     0.298 HD
ENDROOT
TORSDOF 0
ENDMDL
