MODEL 1
REMARK minimizedAffinity -4.93837452
REMARK minimizedRMSD -1
REMARK  0 active torsions:
REMARK  status: ('A' for Active; 'I' for Inactive)
ROOT
ATOM      1  N1  IND d   1      -0.223   0.411  -0.454  0.00  0.00    -0.196 N 
ATOM      2  C2  IND d   1       1.131   0.526  -0.301  0.00  0.00     0.054 A 
ATOM      3  C3  IND d   1       1.485   0.251   0.974  0.00  0.00    -0.031 A 
ATOM      4  C4  IND d   1       0.020  -0.507   2.951  0.00  0.00     0.051 A 
ATOM      5  C5  IND d   1      -1.282  -0.719   3.308  0.00  0.00    -0.031 A 
ATOM      6  C6  IND d   1      -2.318  -0.564   2.410  0.00  0.00     0.015 A 
ATOM      7  C7  IND d   1      -2.089  -0.202   1.113  0.00  0.00    -0.016 A 
ATOM      8  C8  IND d   1      -0.768   0.021   0.749  0.00  0.00    -0.047 A 
ATOM      9  C9  IND d   1       0.284  -0.093   1.667  0.00  0.00    -0.096 A 
ATOM     10  HN1 IND d   1      -0.659   0.558  -1.180  0.00  0.00     0.298 HD
ENDROOT
TORSDOF 0
ENDMDL
