MODEL 1
REMARK minimizedAffinity -3.73073602
REMARK minimizedRMSD -1
REMARK  0 active torsions:
REMARK  status: ('A' for Active; 'I' for Inactive)
ROOT
ATOM      1  N1  IND d   1      -0.325  -0.384  -0.969  0.00  0.00    -0.196 N 
ATOM      2  C2  IND d   1       1.010  -0.181  -1.183  0.00  0.00     0.054 A 
ATOM      3  C3  IND d   1       1.653  -0.006  -0.007  0.00  0.00    -0.031 A 
ATOM      4  C4  IND d   1       0.730  -0.115   2.394  0.00  0.00     0.051 A 
ATOM      5  C5  IND d   1      -0.436  -0.239   3.095  0.00  0.00    -0.031 A 
ATOM      6  C6  IND d   1      -1.650  -0.424   2.464  0.00  0.00     0.015 A 
ATOM      7  C7  IND d   1      -1.740  -0.504   1.104  0.00  0.00    -0.016 A 
ATOM      8  C8  IND d   1      -0.558  -0.371   0.388  0.00  0.00    -0.047 A 
ATOM      9  C9  IND d   1       0.670  -0.141   1.021  0.00  0.00    -0.096 A 
ATOM     10  HN1 IND d   1      -0.919  -0.500  -1.580  0.00  0.00     0.298 HD
ENDROOT
TORSDOF 0
ENDMDL
