MODEL 1
REMARK minimizedAffinity -3.55622077
REMARK minimizedRMSD -1
REMARK  0 active torsions:
REMARK  status: ('A' for Active; 'I' for Inactive)
ROOT
ATOM      1  N1  IND d   1      -1.979   0.451   0.081  0.00  0.00    -0.196 N 
ATOM      2  C2  IND d   1      -1.482   0.600  -1.184  0.00  0.00     0.054 A 
ATOM      3  C3  IND d   1      -0.132   0.543  -1.169  0.00  0.00    -0.031 A 
ATOM      4  C4  IND d   1       1.466   0.111   0.803  0.00  0.00     0.051 A 
ATOM      5  C5  IND d   1       1.483  -0.049   2.160  0.00  0.00    -0.031 A 
ATOM      6  C6  IND d   1       0.323  -0.053   2.909  0.00  0.00     0.015 A 
ATOM      7  C7  IND d   1      -0.903   0.092   2.324  0.00  0.00    -0.016 A 
ATOM      8  C8  IND d   1      -0.923   0.261   0.946  0.00  0.00    -0.047 A 
ATOM      9  C9  IND d   1       0.253   0.309   0.187  0.00  0.00    -0.096 A 
ATOM     10  HN1 IND d   1      -2.810   0.472   0.300  0.00  0.00     0.298 HD
ENDROOT
TORSDOF 0
ENDMDL
