MODEL 1
REMARK minimizedAffinity -4.68022537
REMARK minimizedRMSD -1
REMARK  0 active torsions:
REMARK  status: ('A' for Active; 'I' for Inactive)
ROOT
ATOM      1  C1  BNZ d   1      -0.567   3.214   0.309  0.00  0.00     0.000 A 
ATOM      2  C2  BNZ d   1       0.449   2.440  -0.185  0.00  0.00     0.000 A 
ATOM      3  C3  BNZ d   1       0.484   1.094   0.053  0.00  0.00     0.000 A 
ATOM      4  C4  BNZ d   1      -0.474   0.532   0.818  0.00  0.00     0.000 A 
ATOM      5  C5  BNZ d   1      -1.500   1.300   1.332  0.00  0.00     0.000 A 
ATOM      6  C6  BNZ d   1      -1.552   2.647   1.057  0.00  0.00     0.000 A 
ENDROOT
TORSDOF 0
ENDMDL
