MODEL 1
REMARK minimizedAffinity -4.67280817
REMARK minimizedRMSD -1
REMARK  0 active torsions:
REMARK  status: ('A' for Active; 'I' for Inactive)
ROOT
ATOM      1  C1  BNZ d   1       0.003   3.685   0.374  0.00  0.00     0.000 A 
ATOM      2  C2  BNZ d   1       1.066   2.996  -0.148  0.00  0.00     0.000 A 
ATOM      3  C3  BNZ d   1       1.068   1.629  -0.173  0.00  0.00     0.000 A 
ATOM      4  C4  BNZ d   1       0.029   0.954   0.359  0.00  0.00     0.000 A 
ATOM      5  C5  BNZ d   1      -1.045   1.635   0.896  0.00  0.00     0.000 A 
ATOM      6  C6  BNZ d   1      -1.062   3.011   0.885  0.00  0.00     0.000 A 
ENDROOT
TORSDOF 0
ENDMDL
