MODEL 1
REMARK minimizedAffinity -4.11403418
REMARK minimizedRMSD -1
REMARK  0 active torsions:
REMARK  status: ('A' for Active; 'I' for Inactive)
ROOT
ATOM      1  C1  BNZ d   1      -1.219   0.556   1.114  0.00  0.00     0.000 A 
ATOM      2  C2  BNZ d   1      -1.050   1.910   0.998  0.00  0.00     0.000 A 
ATOM      3  C3  BNZ d   1       0.075   2.428   0.420  0.00  0.00     0.000 A 
ATOM      4  C4  BNZ d   1       1.047   1.594  -0.004  0.00  0.00     0.000 A 
ATOM      5  C5  BNZ d   1       0.895   0.227   0.116  0.00  0.00     0.000 A 
ATOM      6  C6  BNZ d   1      -0.256  -0.292   0.663  0.00  0.00     0.000 A 
ENDROOT
TORSDOF 0
ENDMDL
