MODEL 1
REMARK minimizedAffinity -3.85969448
REMARK minimizedRMSD -1
REMARK  0 active torsions:
REMARK  status: ('A' for Active; 'I' for Inactive)
ROOT
ATOM      1  C1  BNZ d   1      -1.149   1.352   0.474  0.00  0.00     0.000 A 
ATOM      2  C2  BNZ d   1      -1.133   2.659   0.881  0.00  0.00     0.000 A 
ATOM      3  C3  BNZ d   1       0.023   3.387   0.852  0.00  0.00     0.000 A 
ATOM      4  C4  BNZ d   1       1.168   2.797   0.453  0.00  0.00     0.000 A 
ATOM      5  C5  BNZ d   1       1.170   1.477   0.049  0.00  0.00     0.000 A 
ATOM      6  C6  BNZ d   1      -0.003   0.758   0.043  0.00  0.00     0.000 A 
ENDROOT
TORSDOF 0
ENDMDL
