MODEL 1
REMARK minimizedAffinity -3.5825057
REMARK minimizedRMSD -1
REMARK  0 active torsions:
REMARK  status: ('A' for Active; 'I' for Inactive)
ROOT
ATOM      1  C1  BNZ d   1       0.697   1.310   0.054  0.00  0.00     0.000 A 
ATOM      2  C2  BNZ d   1       0.123   0.077  -0.111  0.00  0.00     0.000 A 
ATOM      3  C3  BNZ d   1      -1.090  -0.211   0.449  0.00  0.00     0.000 A 
ATOM      4  C4  BNZ d   1      -1.709   0.719   1.205  0.00  0.00     0.000 A 
ATOM      5  C5  BNZ d   1      -1.139   1.963   1.388  0.00  0.00     0.000 A 
ATOM      6  C6  BNZ d   1       0.064   2.263   0.791  0.00  0.00     0.000 A 
ENDROOT
TORSDOF 0
ENDMDL
