MODEL 1
REMARK minimizedAffinity -3.84843206
REMARK minimizedRMSD -1
REMARK  0 active torsions:
REMARK  status: ('A' for Active; 'I' for Inactive)
ROOT
ATOM      1  C1  BNZ d   1       0.014   1.714  -0.906  0.00  0.00     0.000 A 
ATOM      2  C2  BNZ d   1       0.349   3.041  -0.893  0.00  0.00     0.000 A 
ATOM      3  C3  BNZ d   1       0.002   3.841   0.160  0.00  0.00     0.000 A 
ATOM      4  C4  BNZ d   1      -0.714   3.322   1.178  0.00  0.00     0.000 A 
ATOM      5  C5  BNZ d   1      -1.068   1.987   1.175  0.00  0.00     0.000 A 
ATOM      6  C6  BNZ d   1      -0.683   1.177   0.132  0.00  0.00     0.000 A 
ENDROOT
TORSDOF 0
ENDMDL
