MODEL 1
REMARK minimizedAffinity -2.17545247
REMARK minimizedRMSD -1
REMARK  0 active torsions:
REMARK  status: ('A' for Active; 'I' for Inactive)
ROOT
ATOM      1  C1  BNZ d   1       0.251   2.504   0.491  0.00  0.00     0.000 A 
ATOM      2  C2  BNZ d   1       1.301   1.701   0.136  0.00  0.00     0.000 A 
ATOM      3  C3  BNZ d   1       1.128   0.356  -0.034  0.00  0.00     0.000 A 
ATOM      4  C4  BNZ d   1      -0.085  -0.190   0.191  0.00  0.00     0.000 A 
ATOM      5  C5  BNZ d   1      -1.152   0.606   0.559  0.00  0.00     0.000 A 
ATOM      6  C6  BNZ d   1      -0.982   1.965   0.691  0.00  0.00     0.000 A 
ENDROOT
TORSDOF 0
ENDMDL
