MODEL 1
REMARK minimizedAffinity -4.64466095
REMARK minimizedRMSD -1
REMARK  0 active torsions:
REMARK  status: ('A' for Active; 'I' for Inactive)
ROOT
ATOM      1  C1  BNZ d   1       0.576   2.891  -1.021  0.00  0.00     0.000 A 
ATOM      2  C2  BNZ d   1       0.479   1.527  -1.102  0.00  0.00     0.000 A 
ATOM      3  C3  BNZ d   1      -0.171   0.813  -0.134  0.00  0.00     0.000 A 
ATOM      4  C4  BNZ d   1      -0.688   1.458   0.931  0.00  0.00     0.000 A 
ATOM      5  C5  BNZ d   1      -0.591   2.832   1.032  0.00  0.00     0.000 A 
ATOM      6  C6  BNZ d   1       0.030   3.551   0.037  0.00  0.00     0.000 A 
ENDROOT
TORSDOF 0
ENDMDL
