MODEL 1
REMARK minimizedAffinity -3.69040632
REMARK minimizedRMSD -1
REMARK  0 active torsions:
REMARK  status: ('A' for Active; 'I' for Inactive)
ROOT
ATOM      1  C1  BNZ d   1      -0.272   2.717  -1.040  0.00  0.00     0.000 A 
ATOM      2  C2  BNZ d   1      -0.770   1.442  -1.030  0.00  0.00     0.000 A 
ATOM      3  C3  BNZ d   1      -1.259   0.889   0.120  0.00  0.00     0.000 A 
ATOM      4  C4  BNZ d   1      -1.212   1.597   1.267  0.00  0.00     0.000 A 
ATOM      5  C5  BNZ d   1      -0.705   2.881   1.276  0.00  0.00     0.000 A 
ATOM      6  C6  BNZ d   1      -0.249   3.448   0.108  0.00  0.00     0.000 A 
ENDROOT
TORSDOF 0
ENDMDL
