MODEL 1
REMARK minimizedAffinity -3.61725473
REMARK minimizedRMSD -1
REMARK  0 active torsions:
REMARK  status: ('A' for Active; 'I' for Inactive)
ROOT
ATOM      1  C1  BNZ d   1      -1.074   0.099   0.575  0.00  0.00     0.000 A 
ATOM      2  C2  BNZ d   1      -1.884   1.023   1.180  0.00  0.00     0.000 A 
ATOM      3  C3  BNZ d   1      -1.631   2.361   1.060  0.00  0.00     0.000 A 
ATOM      4  C4  BNZ d   1      -0.547   2.772   0.370  0.00  0.00     0.000 A 
ATOM      5  C5  BNZ d   1       0.284   1.852  -0.238  0.00  0.00     0.000 A 
ATOM      6  C6  BNZ d   1       0.004   0.508  -0.148  0.00  0.00     0.000 A 
ENDROOT
TORSDOF 0
ENDMDL
