MODEL 1
REMARK minimizedAffinity -3.75283623
REMARK minimizedRMSD -1
REMARK  0 active torsions:
REMARK  status: ('A' for Active; 'I' for Inactive)
ROOT
ATOM      1  C1  BNZ d   1      -0.216   0.182   0.511  0.00  0.00     0.000 A 
ATOM      2  C2  BNZ d   1      -1.041   1.269   0.626  0.00  0.00     0.000 A 
ATOM      3  C3  BNZ d   1      -0.531   2.509   0.891  0.00  0.00     0.000 A 
ATOM      4  C4  BNZ d   1       0.796   2.654   1.081  0.00  0.00     0.000 A 
ATOM      5  C5  BNZ d   1       1.640   1.566   0.978  0.00  0.00     0.000 A 
ATOM      6  C6  BNZ d   1       1.127   0.326   0.672  0.00  0.00     0.000 A 
ENDROOT
TORSDOF 0
ENDMDL
