MODEL 1
REMARK minimizedAffinity -4.07233047
REMARK minimizedRMSD -1
REMARK  0 active torsions:
REMARK  status: ('A' for Active; 'I' for Inactive)
ROOT
ATOM      1  C1  BNZ d   1      -1.801   1.761   1.006  0.00  0.00     0.000 A 
ATOM      2  C2  BNZ d   1      -1.863   0.407   0.809  0.00  0.00     0.000 A 
ATOM      3  C3  BNZ d   1      -0.934  -0.231   0.036  0.00  0.00     0.000 A 
ATOM      4  C4  BNZ d   1       0.031   0.489  -0.571  0.00  0.00     0.000 A 
ATOM      5  C5  BNZ d   1       0.101   1.856  -0.390  0.00  0.00     0.000 A 
ATOM      6  C6  BNZ d   1      -0.813   2.490   0.420  0.00  0.00     0.000 A 
ENDROOT
TORSDOF 0
ENDMDL
