MODEL 1
REMARK minimizedAffinity -2.18082047
REMARK minimizedRMSD -1
REMARK  0 active torsions:
REMARK  status: ('A' for Active; 'I' for Inactive)
ROOT
ATOM      1  C1  BNZ d   1       0.222   2.086  -0.135  0.00  0.00     0.000 A 
ATOM      2  C2  BNZ d   1      -0.295   0.820  -0.050  0.00  0.00     0.000 A 
ATOM      3  C3  BNZ d   1      -1.225   0.507   0.901  0.00  0.00     0.000 A 
ATOM      4  C4  BNZ d   1      -1.607   1.446   1.790  0.00  0.00     0.000 A 
ATOM      5  C5  BNZ d   1      -1.089   2.724   1.723  0.00  0.00     0.000 A 
ATOM      6  C6  BNZ d   1      -0.182   3.047   0.740  0.00  0.00     0.000 A 
ENDROOT
TORSDOF 0
ENDMDL
