MODEL 1
REMARK minimizedAffinity -3.9600656
REMARK minimizedRMSD -1
REMARK  0 active torsions:
REMARK  status: ('A' for Active; 'I' for Inactive)
ROOT
ATOM      1  C1  BNZ d   1      -0.507   2.330   1.239  0.00  0.00     0.000 A 
ATOM      2  C2  BNZ d   1       0.220   2.730   0.150  0.00  0.00     0.000 A 
ATOM      3  C3  BNZ d   1       0.586   1.834  -0.815  0.00  0.00     0.000 A 
ATOM      4  C4  BNZ d   1       0.260   0.533  -0.670  0.00  0.00     0.000 A 
ATOM      5  C5  BNZ d   1      -0.464   0.113   0.427  0.00  0.00     0.000 A 
ATOM      6  C6  BNZ d   1      -0.864   1.024   1.377  0.00  0.00     0.000 A 
ENDROOT
TORSDOF 0
ENDMDL
