MODEL 1
REMARK minimizedAffinity -5.09231186
REMARK minimizedRMSD -1
REMARK  0 active torsions:
REMARK  status: ('A' for Active; 'I' for Inactive)
ROOT
ATOM      1  C1  BNZ d   1       0.960   1.718  -0.110  0.00  0.00     0.000 A 
ATOM      2  C2  BNZ d   1      -0.076   2.463   0.388  0.00  0.00     0.000 A 
ATOM      3  C3  BNZ d   1      -1.201   1.859   0.876  0.00  0.00     0.000 A 
ATOM      4  C4  BNZ d   1      -1.306   0.515   0.828  0.00  0.00     0.000 A 
ATOM      5  C5  BNZ d   1      -0.274  -0.249   0.320  0.00  0.00     0.000 A 
ATOM      6  C6  BNZ d   1       0.873   0.360  -0.134  0.00  0.00     0.000 A 
ENDROOT
TORSDOF 0
ENDMDL
