MODEL 1
REMARK minimizedAffinity -2.33470774
REMARK minimizedRMSD -1
REMARK  0 active torsions:
REMARK  status: ('A' for Active; 'I' for Inactive)
ROOT
ATOM      1  C1  BNZ d   1       0.257   1.648  -0.048  0.00  0.00     0.000 A 
ATOM      2  C2  BNZ d   1       0.881   0.436  -0.191  0.00  0.00     0.000 A 
ATOM      3  C3  BNZ d   1       0.182  -0.730  -0.056  0.00  0.00     0.000 A 
ATOM      4  C4  BNZ d   1      -1.129  -0.686   0.260  0.00  0.00     0.000 A 
ATOM      5  C5  BNZ d   1      -1.769   0.527   0.417  0.00  0.00     0.000 A 
ATOM      6  C6  BNZ d   1      -1.071   1.700   0.242  0.00  0.00     0.000 A 
ENDROOT
TORSDOF 0
ENDMDL
