MODEL 1
REMARK minimizedAffinity -4.23856592
REMARK minimizedRMSD -1
REMARK  0 active torsions:
REMARK  status: ('A' for Active; 'I' for Inactive)
ROOT
ATOM      1  C1  BNZ d   1       0.755   1.914  -0.172  0.00  0.00     0.000 A 
ATOM      2  C2  BNZ d   1       1.483   0.756  -0.255  0.00  0.00     0.000 A 
ATOM      3  C3  BNZ d   1       0.893  -0.458  -0.039  0.00  0.00     0.000 A 
ATOM      4  C4  BNZ d   1      -0.412  -0.511   0.299  0.00  0.00     0.000 A 
ATOM      5  C5  BNZ d   1      -1.156   0.648   0.395  0.00  0.00     0.000 A 
ATOM      6  C6  BNZ d   1      -0.569   1.866   0.139  0.00  0.00     0.000 A 
ENDROOT
TORSDOF 0
ENDMDL
