MODEL 1
REMARK minimizedAffinity -3.47466183
REMARK minimizedRMSD -1
REMARK  0 active torsions:
REMARK  status: ('A' for Active; 'I' for Inactive)
ROOT
ATOM      1  C1  BNZ d   1       1.077   1.276  -0.287  0.00  0.00     0.000 A 
ATOM      2  C2  BNZ d   1       1.304  -0.063  -0.110  0.00  0.00     0.000 A 
ATOM      3  C3  BNZ d   1       0.284  -0.907   0.229  0.00  0.00     0.000 A 
ATOM      4  C4  BNZ d   1      -0.952  -0.406   0.429  0.00  0.00     0.000 A 
ATOM      5  C5  BNZ d   1      -1.195   0.943   0.263  0.00  0.00     0.000 A 
ATOM      6  C6  BNZ d   1      -0.174   1.783  -0.116  0.00  0.00     0.000 A 
ENDROOT
TORSDOF 0
ENDMDL
