MODEL 1
REMARK minimizedAffinity 13.8409748
REMARK minimizedRMSD -1
REMARK  0 active torsions:
REMARK  status: ('A' for Active; 'I' for Inactive)
ROOT
ATOM      1  O1  BZF d   1       4.423   0.756   1.714  0.00  0.00    -0.204 OA
ATOM      2  C2  BZF d   1       4.534   2.102   2.003  0.00  0.00     0.174 A 
ATOM      3  C3  BZF d   1       3.942   2.847   1.047  0.00  0.00    -0.012 A 
ATOM      4  C3A BZF d   1       3.349   1.904   0.149  0.00  0.00    -0.107 A 
ATOM      5  C4  BZF d   1       2.608   2.031  -0.991  0.00  0.00     0.055 A 
ATOM      6  C5  BZF d   1       2.244   0.912  -1.671  0.00  0.00    -0.016 A 
ATOM      7  C6  BZF d   1       2.607  -0.348  -1.242  0.00  0.00     0.022 A 
ATOM      8  C7  BZF d   1       3.338  -0.525  -0.114  0.00  0.00     0.029 A 
ATOM      9  C7A BZF d   1       3.679   0.603   0.593  0.00  0.00     0.058 A 
ENDROOT
TORSDOF 0
ENDMDL
