MODEL 1
REMARK minimizedAffinity 5.28553629
REMARK minimizedRMSD -1
REMARK  0 active torsions:
REMARK  status: ('A' for Active; 'I' for Inactive)
ROOT
ATOM      1  O1  BZF d   1      -1.845  -3.389   3.652  0.00  0.00    -0.204 OA
ATOM      2  C2  BZF d   1      -2.099  -2.055   3.906  0.00  0.00     0.174 A 
ATOM      3  C3  BZF d   1      -1.927  -1.315   2.792  0.00  0.00    -0.012 A 
ATOM      4  C3A BZF d   1      -1.631  -2.256   1.756  0.00  0.00    -0.107 A 
ATOM      5  C4  BZF d   1      -1.377  -2.132   0.420  0.00  0.00     0.055 A 
ATOM      6  C5  BZF d   1      -1.052  -3.241  -0.295  0.00  0.00    -0.016 A 
ATOM      7  C6  BZF d   1      -0.969  -4.486   0.293  0.00  0.00     0.022 A 
ATOM      8  C7  BZF d   1      -1.218  -4.659   1.614  0.00  0.00     0.029 A 
ATOM      9  C7A BZF d   1      -1.578  -3.546   2.333  0.00  0.00     0.058 A 
ENDROOT
TORSDOF 0
ENDMDL
