MODEL 1
REMARK minimizedAffinity 12.905159
REMARK minimizedRMSD -1
REMARK  0 active torsions:
REMARK  status: ('A' for Active; 'I' for Inactive)
ROOT
ATOM      1  O1  BZF d   1      -1.104  -4.712   2.879  0.00  0.00    -0.204 OA
ATOM      2  C2  BZF d   1      -0.602  -5.944   2.507  0.00  0.00     0.174 A 
ATOM      3  C3  BZF d   1      -0.411  -6.000   1.173  0.00  0.00    -0.012 A 
ATOM      4  C3A BZF d   1      -0.732  -4.691   0.692  0.00  0.00    -0.107 A 
ATOM      5  C4  BZF d   1      -0.722  -4.118  -0.548  0.00  0.00     0.055 A 
ATOM      6  C5  BZF d   1      -1.163  -2.840  -0.688  0.00  0.00    -0.016 A 
ATOM      7  C6  BZF d   1      -1.624  -2.109   0.387  0.00  0.00     0.022 A 
ATOM      8  C7  BZF d   1      -1.648  -2.633   1.637  0.00  0.00     0.029 A 
ATOM      9  C7A BZF d   1      -1.172  -3.913   1.787  0.00  0.00     0.058 A 
ENDROOT
TORSDOF 0
ENDMDL
