MODEL 1
REMARK minimizedAffinity 11.0859385
REMARK minimizedRMSD -1
REMARK  0 active torsions:
REMARK  status: ('A' for Active; 'I' for Inactive)
ROOT
ATOM      1  O1  BZF d   1       2.019   1.766   1.064  0.00  0.00    -0.204 OA
ATOM      2  C2  BZF d   1       3.183   2.494   1.216  0.00  0.00     0.174 A 
ATOM      3  C3  BZF d   1       4.050   2.224   0.219  0.00  0.00    -0.012 A 
ATOM      4  C3A BZF d   1       3.348   1.339  -0.660  0.00  0.00    -0.107 A 
ATOM      5  C4  BZF d   1       3.676   0.732  -1.838  0.00  0.00     0.055 A 
ATOM      6  C5  BZF d   1       2.792  -0.132  -2.404  0.00  0.00    -0.016 A 
ATOM      7  C6  BZF d   1       1.576  -0.415  -1.817  0.00  0.00     0.022 A 
ATOM      8  C7  BZF d   1       1.205   0.167  -0.651  0.00  0.00     0.029 A 
ATOM      9  C7A BZF d   1       2.082   1.065  -0.093  0.00  0.00     0.058 A 
ENDROOT
TORSDOF 0
ENDMDL
