MODEL 1
REMARK minimizedAffinity 4.74698782
REMARK minimizedRMSD -1
REMARK  0 active torsions:
REMARK  status: ('A' for Active; 'I' for Inactive)
ROOT
ATOM      1  O1  BZF d   1      -0.764  -4.079  -1.849  0.00  0.00    -0.204 OA
ATOM      2  C2  BZF d   1      -1.334  -3.262  -2.806  0.00  0.00     0.174 A 
ATOM      3  C3  BZF d   1      -2.014  -2.251  -2.228  0.00  0.00    -0.012 A 
ATOM      4  C3A BZF d   1      -1.782  -2.396  -0.823  0.00  0.00    -0.107 A 
ATOM      5  C4  BZF d   1      -2.179  -1.684   0.272  0.00  0.00     0.055 A 
ATOM      6  C5  BZF d   1      -1.841  -2.132   1.510  0.00  0.00    -0.016 A 
ATOM      7  C6  BZF d   1      -1.112  -3.290   1.688  0.00  0.00     0.022 A 
ATOM      8  C7  BZF d   1      -0.691  -4.027   0.632  0.00  0.00     0.029 A 
ATOM      9  C7A BZF d   1      -1.003  -3.558  -0.621  0.00  0.00     0.058 A 
ENDROOT
TORSDOF 0
ENDMDL
