MODEL 1
REMARK minimizedAffinity 8.63683033
REMARK minimizedRMSD -1
REMARK  0 active torsions:
REMARK  status: ('A' for Active; 'I' for Inactive)
ROOT
ATOM      1  O1  BZF d   1       3.435   2.572  -0.748  0.00  0.00    -0.204 OA
ATOM      2  C2  BZF d   1       4.517   3.328  -0.340  0.00  0.00     0.174 A 
ATOM      3  C3  BZF d   1       5.675   2.729  -0.681  0.00  0.00    -0.012 A 
ATOM      4  C3A BZF d   1       5.294   1.567  -1.425  0.00  0.00    -0.107 A 
ATOM      5  C4  BZF d   1       5.999   0.575  -2.044  0.00  0.00     0.055 A 
ATOM      6  C5  BZF d   1       5.324  -0.454  -2.620  0.00  0.00    -0.016 A 
ATOM      7  C6  BZF d   1       3.947  -0.527  -2.590  0.00  0.00     0.022 A 
ATOM      8  C7  BZF d   1       3.204   0.436  -1.992  0.00  0.00     0.029 A 
ATOM      9  C7A BZF d   1       3.882   1.495  -1.438  0.00  0.00     0.058 A 
ENDROOT
TORSDOF 0
ENDMDL
