MODEL 1
REMARK minimizedAffinity 7.09321356
REMARK minimizedRMSD -1
REMARK  0 active torsions:
REMARK  status: ('A' for Active; 'I' for Inactive)
ROOT
ATOM      1  O1  BZF d   1       2.892  -0.682  -2.252  0.00  0.00    -0.204 OA
ATOM      2  C2  BZF d   1       3.862  -0.202  -3.111  0.00  0.00     0.174 A 
ATOM      3  C3  BZF d   1       4.352   0.975  -2.669  0.00  0.00    -0.012 A 
ATOM      4  C3A BZF d   1       3.710   1.201  -1.411  0.00  0.00    -0.107 A 
ATOM      5  C4  BZF d   1       3.795   2.196  -0.479  0.00  0.00     0.055 A 
ATOM      6  C5  BZF d   1       2.980   2.156   0.607  0.00  0.00    -0.016 A 
ATOM      7  C6  BZF d   1       2.066   1.139   0.791  0.00  0.00     0.022 A 
ATOM      8  C7  BZF d   1       1.948   0.127  -0.103  0.00  0.00     0.029 A 
ATOM      9  C7A BZF d   1       2.794   0.148  -1.185  0.00  0.00     0.058 A 
ENDROOT
TORSDOF 0
ENDMDL
