MODEL 1
REMARK minimizedAffinity 14.2410851
REMARK minimizedRMSD -1
REMARK  0 active torsions:
REMARK  status: ('A' for Active; 'I' for Inactive)
ROOT
ATOM      1  O1  BZF d   1      -2.372  -0.892   3.220  0.00  0.00    -0.204 OA
ATOM      2  C2  BZF d   1      -2.015  -1.660   4.311  0.00  0.00     0.174 A 
ATOM      3  C3  BZF d   1      -1.369  -2.777   3.919  0.00  0.00    -0.012 A 
ATOM      4  C3A BZF d   1      -1.237  -2.657   2.500  0.00  0.00    -0.107 A 
ATOM      5  C4  BZF d   1      -0.670  -3.445   1.540  0.00  0.00     0.055 A 
ATOM      6  C5  BZF d   1      -0.777  -3.077   0.236  0.00  0.00    -0.016 A 
ATOM      7  C6  BZF d   1      -1.446  -1.933  -0.144  0.00  0.00     0.022 A 
ATOM      8  C7  BZF d   1      -2.021  -1.117   0.773  0.00  0.00     0.029 A 
ATOM      9  C7A BZF d   1      -1.887  -1.468   2.094  0.00  0.00     0.058 A 
ENDROOT
TORSDOF 0
ENDMDL
