MODEL 1
REMARK minimizedAffinity 23.947052
REMARK minimizedRMSD -1
REMARK  0 active torsions:
REMARK  status: ('A' for Active; 'I' for Inactive)
ROOT
ATOM      1  O1  BZF d   1       4.192   5.788   5.526  0.00  0.00    -0.204 OA
ATOM      2  C2  BZF d   1       2.911   6.000   5.998  0.00  0.00     0.174 A 
ATOM      3  C3  BZF d   1       2.145   4.906   5.811  0.00  0.00    -0.012 A 
ATOM      4  C3A BZF d   1       3.026   3.919   5.266  0.00  0.00    -0.107 A 
ATOM      5  C4  BZF d   1       2.857   2.619   4.883  0.00  0.00     0.055 A 
ATOM      6  C5  BZF d   1       3.902   1.955   4.322  0.00  0.00    -0.016 A 
ATOM      7  C6  BZF d   1       5.126   2.561   4.125  0.00  0.00     0.022 A 
ATOM      8  C7  BZF d   1       5.343   3.847   4.494  0.00  0.00     0.029 A 
ATOM      9  C7A BZF d   1       4.299   4.510   5.091  0.00  0.00     0.058 A 
ENDROOT
TORSDOF 0
ENDMDL
