MODEL 1
REMARK minimizedAffinity 13.2400503
REMARK minimizedRMSD -1
REMARK  0 active torsions:
REMARK  status: ('A' for Active; 'I' for Inactive)
ROOT
ATOM      1  O1  BZF d   1      -0.088  -5.076   0.147  0.00  0.00    -0.204 OA
ATOM      2  C2  BZF d   1      -0.315  -5.823   1.287  0.00  0.00     0.174 A 
ATOM      3  C3  BZF d   1      -1.105  -5.151   2.149  0.00  0.00    -0.012 A 
ATOM      4  C3A BZF d   1      -1.465  -3.945   1.468  0.00  0.00    -0.107 A 
ATOM      5  C4  BZF d   1      -2.247  -2.876   1.802  0.00  0.00     0.055 A 
ATOM      6  C5  BZF d   1      -2.333  -1.827   0.942  0.00  0.00    -0.016 A 
ATOM      7  C6  BZF d   1      -1.648  -1.812  -0.255  0.00  0.00     0.022 A 
ATOM      8  C7  BZF d   1      -0.864  -2.851  -0.632  0.00  0.00     0.029 A 
ATOM      9  C7A BZF d   1      -0.801  -3.927   0.220  0.00  0.00     0.058 A 
ENDROOT
TORSDOF 0
ENDMDL
