MODEL 1
REMARK minimizedAffinity 19.8544579
REMARK minimizedRMSD -1
REMARK  0 active torsions:
REMARK  status: ('A' for Active; 'I' for Inactive)
ROOT
ATOM      1  O1  BZF d   1       4.346   5.648   5.396  0.00  0.00    -0.204 OA
ATOM      2  C2  BZF d   1       3.120   5.863   5.996  0.00  0.00     0.174 A 
ATOM      3  C3  BZF d   1       2.384   4.733   6.000  0.00  0.00    -0.012 A 
ATOM      4  C3A BZF d   1       3.236   3.727   5.444  0.00  0.00    -0.107 A 
ATOM      5  C4  BZF d   1       3.078   2.392   5.201  0.00  0.00     0.055 A 
ATOM      6  C5  BZF d   1       4.078   1.711   4.581  0.00  0.00    -0.016 A 
ATOM      7  C6  BZF d   1       5.245   2.333   4.188  0.00  0.00     0.022 A 
ATOM      8  C7  BZF d   1       5.449   3.654   4.412  0.00  0.00     0.029 A 
ATOM      9  C7A BZF d   1       4.455   4.338   5.068  0.00  0.00     0.058 A 
ENDROOT
TORSDOF 0
ENDMDL
