MODEL 1
REMARK minimizedAffinity 14.6574926
REMARK minimizedRMSD -1
REMARK  0 active torsions:
REMARK  status: ('A' for Active; 'I' for Inactive)
ROOT
ATOM      1  O1  BZF d   1      -4.657   6.000   1.734  0.00  0.00    -0.204 OA
ATOM      2  C2  BZF d   1      -5.876   5.968   1.085  0.00  0.00     0.174 A 
ATOM      3  C3  BZF d   1      -5.996   4.845   0.347  0.00  0.00    -0.012 A 
ATOM      4  C3A BZF d   1      -4.813   4.088   0.620  0.00  0.00    -0.107 A 
ATOM      5  C4  BZF d   1      -4.358   2.872   0.196  0.00  0.00     0.055 A 
ATOM      6  C5  BZF d   1      -3.129   2.451   0.593  0.00  0.00    -0.016 A 
ATOM      7  C6  BZF d   1      -2.326   3.222   1.409  0.00  0.00     0.022 A 
ATOM      8  C7  BZF d   1      -2.736   4.433   1.859  0.00  0.00     0.029 A 
ATOM      9  C7A BZF d   1      -3.992   4.846   1.486  0.00  0.00     0.058 A 
ENDROOT
TORSDOF 0
ENDMDL
