MODEL 1
REMARK minimizedAffinity 14.0726242
REMARK minimizedRMSD -1
REMARK  0 active torsions:
REMARK  status: ('A' for Active; 'I' for Inactive)
ROOT
ATOM      1  O1  BZF d   1       1.456   0.747  -1.140  0.00  0.00    -0.204 OA
ATOM      2  C2  BZF d   1       2.621   0.899  -1.868  0.00  0.00     0.174 A 
ATOM      3  C3  BZF d   1       2.569   0.180  -3.008  0.00  0.00    -0.012 A 
ATOM      4  C3A BZF d   1       1.256  -0.388  -3.036  0.00  0.00    -0.107 A 
ATOM      5  C4  BZF d   1       0.599  -1.189  -3.925  0.00  0.00     0.055 A 
ATOM      6  C5  BZF d   1      -0.651  -1.627  -3.621  0.00  0.00    -0.016 A 
ATOM      7  C6  BZF d   1      -1.271  -1.288  -2.436  0.00  0.00     0.022 A 
ATOM      8  C7  BZF d   1      -0.660  -0.491  -1.525  0.00  0.00     0.029 A 
ATOM      9  C7A BZF d   1       0.590  -0.020  -1.845  0.00  0.00     0.058 A 
ENDROOT
TORSDOF 0
ENDMDL
