MODEL 1
REMARK minimizedAffinity 17.6169472
REMARK minimizedRMSD -1
REMARK  0 active torsions:
REMARK  status: ('A' for Active; 'I' for Inactive)
ROOT
ATOM      1  O1  BZF d   1      -0.314  -4.229  -0.983  0.00  0.00    -0.204 OA
ATOM      2  C2  BZF d   1      -0.165  -5.312  -0.138  0.00  0.00     0.174 A 
ATOM      3  C3  BZF d   1      -0.523  -4.989   1.121  0.00  0.00    -0.012 A 
ATOM      4  C3A BZF d   1      -1.008  -3.645   1.041  0.00  0.00    -0.107 A 
ATOM      5  C4  BZF d   1      -1.522  -2.776   1.961  0.00  0.00     0.055 A 
ATOM      6  C5  BZF d   1      -1.833  -1.512   1.573  0.00  0.00    -0.016 A 
ATOM      7  C6  BZF d   1      -1.639  -1.081   0.277  0.00  0.00     0.022 A 
ATOM      8  C7  BZF d   1      -1.137  -1.909  -0.672  0.00  0.00     0.029 A 
ATOM      9  C7A BZF d   1      -0.853  -3.197  -0.291  0.00  0.00     0.058 A 
ENDROOT
TORSDOF 0
ENDMDL
