MODEL 1
REMARK minimizedAffinity 11.5732946
REMARK minimizedRMSD -1
REMARK  0 active torsions:
REMARK  status: ('A' for Active; 'I' for Inactive)
ROOT
ATOM      1  O1  BZF d   1       3.425   0.935  -1.830  0.00  0.00    -0.204 OA
ATOM      2  C2  BZF d   1       2.483  -0.066  -1.689  0.00  0.00     0.174 A 
ATOM      3  C3  BZF d   1       1.989  -0.083  -0.434  0.00  0.00    -0.012 A 
ATOM      4  C3A BZF d   1       2.597   1.031   0.226  0.00  0.00    -0.107 A 
ATOM      5  C4  BZF d   1       2.493   1.547   1.486  0.00  0.00     0.055 A 
ATOM      6  C5  BZF d   1       3.277   2.600   1.835  0.00  0.00    -0.016 A 
ATOM      7  C6  BZF d   1       4.179   3.158   0.952  0.00  0.00     0.022 A 
ATOM      8  C7  BZF d   1       4.313   2.684  -0.310  0.00  0.00     0.029 A 
ATOM      9  C7A BZF d   1       3.499   1.641  -0.676  0.00  0.00     0.058 A 
ENDROOT
TORSDOF 0
ENDMDL
