MODEL 1
REMARK minimizedAffinity 12.2901182
REMARK minimizedRMSD -1
REMARK  0 active torsions:
REMARK  status: ('A' for Active; 'I' for Inactive)
ROOT
ATOM      1  O1  BZF d   1      -0.236  -4.090  -0.642  0.00  0.00    -0.204 OA
ATOM      2  C2  BZF d   1      -1.207  -5.042  -0.401  0.00  0.00     0.174 A 
ATOM      3  C3  BZF d   1      -2.308  -4.477   0.135  0.00  0.00    -0.012 A 
ATOM      4  C3A BZF d   1      -2.040  -3.072   0.152  0.00  0.00    -0.107 A 
ATOM      5  C4  BZF d   1      -2.760  -1.984   0.555  0.00  0.00     0.055 A 
ATOM      6  C5  BZF d   1      -2.182  -0.754   0.506  0.00  0.00    -0.016 A 
ATOM      7  C6  BZF d   1      -0.887  -0.578   0.065  0.00  0.00     0.022 A 
ATOM      8  C7  BZF d   1      -0.136  -1.627  -0.351  0.00  0.00     0.029 A 
ATOM      9  C7A BZF d   1      -0.728  -2.866  -0.333  0.00  0.00     0.058 A 
ENDROOT
TORSDOF 0
ENDMDL
