MODEL 1
REMARK minimizedAffinity 9.46130276
REMARK minimizedRMSD -1
REMARK  0 active torsions:
REMARK  status: ('A' for Active; 'I' for Inactive)
ROOT
ATOM      1  O1  BZF d   1       4.682   3.269   3.208  0.00  0.00    -0.204 OA
ATOM      2  C2  BZF d   1       3.892   2.884   4.274  0.00  0.00     0.174 A 
ATOM      3  C3  BZF d   1       2.717   2.384   3.843  0.00  0.00    -0.012 A 
ATOM      4  C3A BZF d   1       2.812   2.375   2.415  0.00  0.00    -0.107 A 
ATOM      5  C4  BZF d   1       1.967   1.976   1.420  0.00  0.00     0.055 A 
ATOM      6  C5  BZF d   1       2.333   2.169   0.126  0.00  0.00    -0.016 A 
ATOM      7  C6  BZF d   1       3.532   2.762  -0.209  0.00  0.00     0.022 A 
ATOM      8  C7  BZF d   1       4.406   3.170   0.743  0.00  0.00     0.029 A 
ATOM      9  C7A BZF d   1       4.054   2.946   2.052  0.00  0.00     0.058 A 
ENDROOT
TORSDOF 0
ENDMDL
