MODEL 1
REMARK minimizedAffinity 10.7276068
REMARK minimizedRMSD -1
REMARK  0 active torsions:
REMARK  status: ('A' for Active; 'I' for Inactive)
ROOT
ATOM      1  O1  BZF d   1      -1.523  -3.194  -0.140  0.00  0.00    -0.204 OA
ATOM      2  C2  BZF d   1      -2.415  -2.252   0.337  0.00  0.00     0.174 A 
ATOM      3  C3  BZF d   1      -2.820  -2.565   1.585  0.00  0.00    -0.012 A 
ATOM      4  C3A BZF d   1      -2.068  -3.729   1.944  0.00  0.00    -0.107 A 
ATOM      5  C4  BZF d   1      -2.015  -4.502   3.068  0.00  0.00     0.055 A 
ATOM      6  C5  BZF d   1      -1.229  -5.611   3.070  0.00  0.00    -0.016 A 
ATOM      7  C6  BZF d   1      -0.489  -5.979   1.965  0.00  0.00     0.022 A 
ATOM      8  C7  BZF d   1      -0.506  -5.240   0.829  0.00  0.00     0.029 A 
ATOM      9  C7A BZF d   1      -1.273  -4.101   0.835  0.00  0.00     0.058 A 
ENDROOT
TORSDOF 0
ENDMDL
