MODEL 1
REMARK minimizedAffinity -5.21032095
REMARK minimizedRMSD -1
REMARK  0 active torsions:
REMARK  status: ('A' for Active; 'I' for Inactive)
ROOT
ATOM      1  N1  IND d   1       0.758   0.365  -0.877  0.00  0.00    -0.196 N 
ATOM      2  C2  IND d   1       0.352   0.773   0.363  0.00  0.00     0.054 A 
ATOM      3  C3  IND d   1      -0.167  -0.267   1.054  0.00  0.00    -0.031 A 
ATOM      4  C4  IND d   1      -0.354  -2.745   0.383  0.00  0.00     0.051 A 
ATOM      5  C5  IND d   1      -0.151  -3.595  -0.668  0.00  0.00    -0.031 A 
ATOM      6  C6  IND d   1       0.380  -3.160  -1.865  0.00  0.00     0.015 A 
ATOM      7  C7  IND d   1       0.738  -1.855  -2.053  0.00  0.00    -0.016 A 
ATOM      8  C8  IND d   1       0.526  -0.988  -0.991  0.00  0.00    -0.047 A 
ATOM      9  C9  IND d   1      -0.051  -1.415   0.212  0.00  0.00    -0.096 A 
ATOM     10  HN1 IND d   1       1.101   0.869  -1.484  0.00  0.00     0.298 HD
ENDROOT
TORSDOF 0
ENDMDL
