MODEL 1
REMARK minimizedAffinity -5.37683487
REMARK minimizedRMSD -1
REMARK  0 active torsions:
REMARK  status: ('A' for Active; 'I' for Inactive)
ROOT
ATOM      1  N1  IND d   1      -0.068  -0.213  -2.694  0.00  0.00    -0.196 N 
ATOM      2  C2  IND d   1      -0.223   0.976  -2.037  0.00  0.00     0.054 A 
ATOM      3  C3  IND d   1      -0.402   0.762  -0.714  0.00  0.00    -0.031 A 
ATOM      4  C4  IND d   1      -0.376  -1.449   0.604  0.00  0.00     0.051 A 
ATOM      5  C5  IND d   1      -0.306  -2.803   0.435  0.00  0.00    -0.031 A 
ATOM      6  C6  IND d   1      -0.147  -3.375  -0.811  0.00  0.00     0.015 A 
ATOM      7  C7  IND d   1      -0.040  -2.610  -1.937  0.00  0.00    -0.016 A 
ATOM      8  C8  IND d   1      -0.118  -1.234  -1.770  0.00  0.00    -0.047 A 
ATOM      9  C9  IND d   1      -0.323  -0.650  -0.513  0.00  0.00    -0.096 A 
ATOM     10  HN1 IND d   1       0.042  -0.308  -3.541  0.00  0.00     0.298 HD
ENDROOT
TORSDOF 0
ENDMDL
