MODEL 1
REMARK minimizedAffinity -5.97383976
REMARK minimizedRMSD -1
REMARK  0 active torsions:
REMARK  status: ('A' for Active; 'I' for Inactive)
ROOT
ATOM      1  N1  IND d   1       0.219   0.329  -0.962  0.00  0.00    -0.196 N 
ATOM      2  C2  IND d   1      -0.185   0.688   0.294  0.00  0.00     0.054 A 
ATOM      3  C3  IND d   1      -0.439  -0.412   1.038  0.00  0.00    -0.031 A 
ATOM      4  C4  IND d   1      -0.158  -2.898   0.431  0.00  0.00     0.051 A 
ATOM      5  C5  IND d   1       0.150  -3.724  -0.613  0.00  0.00    -0.031 A 
ATOM      6  C6  IND d   1       0.507  -3.231  -1.851  0.00  0.00     0.015 A 
ATOM      7  C7  IND d   1       0.580  -1.888  -2.089  0.00  0.00    -0.016 A 
ATOM      8  C8  IND d   1       0.261  -1.046  -1.033  0.00  0.00    -0.047 A 
ATOM      9  C9  IND d   1      -0.143  -1.541   0.214  0.00  0.00    -0.096 A 
ATOM     10  HN1 IND d   1       0.415   0.871  -1.600  0.00  0.00     0.298 HD
ENDROOT
TORSDOF 0
ENDMDL
