MODEL 1
REMARK minimizedAffinity -3.8458159
REMARK minimizedRMSD -1
REMARK  0 active torsions:
REMARK  status: ('A' for Active; 'I' for Inactive)
ROOT
ATOM      1  N1  IND d   1       0.260  -0.286  -1.479  0.00  0.00    -0.196 N 
ATOM      2  C2  IND d   1      -0.020   0.268  -0.261  0.00  0.00     0.054 A 
ATOM      3  C3  IND d   1      -0.173  -0.698   0.672  0.00  0.00    -0.031 A 
ATOM      4  C4  IND d   1       0.091  -3.249   0.443  0.00  0.00     0.051 A 
ATOM      5  C5  IND d   1       0.306  -4.231  -0.483  0.00  0.00    -0.031 A 
ATOM      6  C6  IND d   1       0.523  -3.942  -1.815  0.00  0.00     0.015 A 
ATOM      7  C7  IND d   1       0.545  -2.654  -2.270  0.00  0.00    -0.016 A 
ATOM      8  C8  IND d   1       0.321  -1.655  -1.334  0.00  0.00    -0.047 A 
ATOM      9  C9  IND d   1       0.058  -1.944   0.011  0.00  0.00    -0.096 A 
ATOM     10  HN1 IND d   1       0.378   0.147  -2.212  0.00  0.00     0.298 HD
ENDROOT
TORSDOF 0
ENDMDL
