MODEL 1
REMARK minimizedAffinity -3.77956414
REMARK minimizedRMSD -1
REMARK  0 active torsions:
REMARK  status: ('A' for Active; 'I' for Inactive)
ROOT
ATOM      1  N1  IND d   1      -1.931  -2.822   0.108  0.00  0.00    -0.196 N 
ATOM      2  C2  IND d   1      -1.019  -3.648  -0.488  0.00  0.00     0.054 A 
ATOM      3  C3  IND d   1       0.153  -3.000  -0.670  0.00  0.00    -0.031 A 
ATOM      4  C4  IND d   1       0.830  -0.616   0.026  0.00  0.00     0.051 A 
ATOM      5  C5  IND d   1       0.325   0.533   0.568  0.00  0.00    -0.031 A 
ATOM      6  C6  IND d   1      -0.984   0.622   0.996  0.00  0.00     0.015 A 
ATOM      7  C7  IND d   1      -1.837  -0.441   0.907  0.00  0.00    -0.016 A 
ATOM      8  C8  IND d   1      -1.329  -1.607   0.351  0.00  0.00    -0.047 A 
ATOM      9  C9  IND d   1      -0.014  -1.691  -0.124  0.00  0.00    -0.096 A 
ATOM     10  HN1 IND d   1      -2.744  -3.027   0.300  0.00  0.00     0.298 HD
ENDROOT
TORSDOF 0
ENDMDL
