MODEL 1
REMARK minimizedAffinity -4.31231928
REMARK minimizedRMSD -1
REMARK  0 active torsions:
REMARK  status: ('A' for Active; 'I' for Inactive)
ROOT
ATOM      1  N1  IND d   1       0.077   0.009  -0.937  0.00  0.00    -0.196 N 
ATOM      2  C2  IND d   1      -0.191   0.500   0.310  0.00  0.00     0.054 A 
ATOM      3  C3  IND d   1      -0.372  -0.513   1.186  0.00  0.00    -0.031 A 
ATOM      4  C4  IND d   1      -0.173  -3.053   0.813  0.00  0.00     0.051 A 
ATOM      5  C5  IND d   1       0.018  -3.986  -0.167  0.00  0.00    -0.031 A 
ATOM      6  C6  IND d   1       0.246  -3.628  -1.480  0.00  0.00     0.015 A 
ATOM      7  C7  IND d   1       0.302  -2.317  -1.861  0.00  0.00    -0.016 A 
ATOM      8  C8  IND d   1       0.102  -1.367  -0.870  0.00  0.00    -0.047 A 
ATOM      9  C9  IND d   1      -0.172  -1.725   0.456  0.00  0.00    -0.096 A 
ATOM     10  HN1 IND d   1       0.208   0.479  -1.645  0.00  0.00     0.298 HD
ENDROOT
TORSDOF 0
ENDMDL
