MODEL 1
REMARK minimizedAffinity -3.81481147
REMARK minimizedRMSD -1
REMARK  0 active torsions:
REMARK  status: ('A' for Active; 'I' for Inactive)
ROOT
ATOM      1  N1  IND d   1       0.499   0.256  -1.242  0.00  0.00    -0.196 N 
ATOM      2  C2  IND d   1      -0.066   1.211  -0.444  0.00  0.00     0.054 A 
ATOM      3  C3  IND d   1      -0.688   0.636   0.610  0.00  0.00    -0.031 A 
ATOM      4  C4  IND d   1      -0.817  -1.847   1.276  0.00  0.00     0.051 A 
ATOM      5  C5  IND d   1      -0.485  -3.099   0.839  0.00  0.00    -0.031 A 
ATOM      6  C6  IND d   1       0.209  -3.300  -0.337  0.00  0.00     0.015 A 
ATOM      7  C7  IND d   1       0.608  -2.251  -1.116  0.00  0.00    -0.016 A 
ATOM      8  C8  IND d   1       0.266  -0.980  -0.679  0.00  0.00    -0.047 A 
ATOM      9  C9  IND d   1      -0.475  -0.772   0.491  0.00  0.00    -0.096 A 
ATOM     10  HN1 IND d   1       0.928   0.402  -1.973  0.00  0.00     0.298 HD
ENDROOT
TORSDOF 0
ENDMDL
