MODEL 1
REMARK minimizedAffinity -1.71379018
REMARK minimizedRMSD -1
REMARK  0 active torsions:
REMARK  status: ('A' for Active; 'I' for Inactive)
ROOT
ATOM      1  N1  IND d   1       0.190   0.919  -1.609  0.00  0.00    -0.196 N 
ATOM      2  C2  IND d   1       0.294   1.952  -0.720  0.00  0.00     0.054 A 
ATOM      3  C3  IND d   1       0.173   1.497   0.547  0.00  0.00    -0.031 A 
ATOM      4  C4  IND d   1      -0.098  -0.918   1.398  0.00  0.00     0.051 A 
ATOM      5  C5  IND d   1      -0.279  -2.200   0.961  0.00  0.00    -0.031 A 
ATOM      6  C6  IND d   1      -0.311  -2.515  -0.382  0.00  0.00     0.015 A 
ATOM      7  C7  IND d   1      -0.151  -1.556  -1.343  0.00  0.00    -0.016 A 
ATOM      8  C8  IND d   1       0.026  -0.252  -0.903  0.00  0.00    -0.047 A 
ATOM      9  C9  IND d   1       0.017   0.080   0.458  0.00  0.00    -0.096 A 
ATOM     10  HN1 IND d   1       0.222   0.989  -2.466  0.00  0.00     0.298 HD
ENDROOT
TORSDOF 0
ENDMDL
