MODEL 1
REMARK minimizedAffinity -6.13819456
REMARK minimizedRMSD -1
REMARK  0 active torsions:
REMARK  status: ('A' for Active; 'I' for Inactive)
ROOT
ATOM      1  N1  IND d   1      -0.079   0.399  -1.196  0.00  0.00    -0.196 N 
ATOM      2  C2  IND d   1      -0.530   1.074  -0.096  0.00  0.00     0.054 A 
ATOM      3  C3  IND d   1      -0.789   0.211   0.912  0.00  0.00    -0.031 A 
ATOM      4  C4  IND d   1      -0.447  -2.339   1.010  0.00  0.00     0.051 A 
ATOM      5  C5  IND d   1      -0.091  -3.408   0.238  0.00  0.00    -0.031 A 
ATOM      6  C6  IND d   1       0.297  -3.260  -1.078  0.00  0.00     0.015 A 
ATOM      7  C7  IND d   1       0.355  -2.030  -1.670  0.00  0.00    -0.016 A 
ATOM      8  C8  IND d   1      -0.012  -0.942  -0.890  0.00  0.00    -0.047 A 
ATOM      9  C9  IND d   1      -0.448  -1.091   0.433  0.00  0.00    -0.096 A 
ATOM     10  HN1 IND d   1       0.127   0.753  -1.952  0.00  0.00     0.298 HD
ENDROOT
TORSDOF 0
ENDMDL
