MODEL 1
REMARK minimizedAffinity -4.08357906
REMARK minimizedRMSD -1
REMARK  0 active torsions:
REMARK  status: ('A' for Active; 'I' for Inactive)
ROOT
ATOM      1  N1  IND d   1      -0.176   0.628  -0.712  0.00  0.00    -0.196 N 
ATOM      2  C2  IND d   1      -0.655   0.898   0.540  0.00  0.00     0.054 A 
ATOM      3  C3  IND d   1      -1.029  -0.245   1.157  0.00  0.00    -0.031 A 
ATOM      4  C4  IND d   1      -0.849  -2.680   0.340  0.00  0.00     0.051 A 
ATOM      5  C5  IND d   1      -0.510  -3.427  -0.753  0.00  0.00    -0.031 A 
ATOM      6  C6  IND d   1      -0.030  -2.849  -1.911  0.00  0.00     0.015 A 
ATOM      7  C7  IND d   1       0.140  -1.497  -2.015  0.00  0.00    -0.016 A 
ATOM      8  C8  IND d   1      -0.210  -0.735  -0.909  0.00  0.00    -0.047 A 
ATOM      9  C9  IND d   1      -0.737  -1.312   0.253  0.00  0.00    -0.096 A 
ATOM     10  HN1 IND d   1       0.099   1.211  -1.280  0.00  0.00     0.298 HD
ENDROOT
TORSDOF 0
ENDMDL
