MODEL 1
REMARK minimizedAffinity -2.75720215
REMARK minimizedRMSD -1
REMARK  0 active torsions:
REMARK  status: ('A' for Active; 'I' for Inactive)
ROOT
ATOM      1  N1  IND d   1       0.003   1.915   0.521  0.00  0.00    -0.196 N 
ATOM      2  C2  IND d   1       0.196   2.063  -0.824  0.00  0.00     0.054 A 
ATOM      3  C3  IND d   1      -0.040   0.896  -1.465  0.00  0.00    -0.031 A 
ATOM      4  C4  IND d   1      -0.851  -1.355  -0.516  0.00  0.00     0.051 A 
ATOM      5  C5  IND d   1      -1.130  -1.990   0.662  0.00  0.00    -0.031 A 
ATOM      6  C6  IND d   1      -1.047  -1.342   1.877  0.00  0.00     0.015 A 
ATOM      7  C7  IND d   1      -0.691  -0.026   1.959  0.00  0.00    -0.016 A 
ATOM      8  C8  IND d   1      -0.399   0.620   0.766  0.00  0.00    -0.047 A 
ATOM      9  C9  IND d   1      -0.441  -0.044  -0.466  0.00  0.00    -0.096 A 
ATOM     10  HN1 IND d   1       0.115   2.527   1.115  0.00  0.00     0.298 HD
ENDROOT
TORSDOF 0
ENDMDL
