MODEL 1
REMARK minimizedAffinity -6.35194159
REMARK minimizedRMSD -1
REMARK  0 active torsions:
REMARK  status: ('A' for Active; 'I' for Inactive)
ROOT
ATOM      1  N1  IND d   1       0.065   0.168  -0.756  0.00  0.00    -0.196 N 
ATOM      2  C2  IND d   1      -0.232   0.641   0.492  0.00  0.00     0.054 A 
ATOM      3  C3  IND d   1      -0.463  -0.385   1.341  0.00  0.00    -0.031 A 
ATOM      4  C4  IND d   1      -0.309  -2.921   0.923  0.00  0.00     0.051 A 
ATOM      5  C5  IND d   1      -0.107  -3.838  -0.070  0.00  0.00    -0.031 A 
ATOM      6  C6  IND d   1       0.170  -3.460  -1.368  0.00  0.00     0.015 A 
ATOM      7  C7  IND d   1       0.268  -2.144  -1.720  0.00  0.00    -0.016 A 
ATOM      8  C8  IND d   1       0.057  -1.209  -0.716  0.00  0.00    -0.047 A 
ATOM      9  C9  IND d   1      -0.267  -1.587   0.593  0.00  0.00    -0.096 A 
ATOM     10  HN1 IND d   1       0.229   0.650  -1.449  0.00  0.00     0.298 HD
ENDROOT
TORSDOF 0
ENDMDL
