MODEL 1
REMARK minimizedAffinity -4.59864378
REMARK minimizedRMSD -1
REMARK  0 active torsions:
REMARK  status: ('A' for Active; 'I' for Inactive)
ROOT
ATOM      1  N1  IND d   1      -0.660  -1.394  -2.941  0.00  0.00    -0.196 N 
ATOM      2  C2  IND d   1      -0.635  -2.758  -2.858  0.00  0.00     0.054 A 
ATOM      3  C3  IND d   1      -0.390  -3.147  -1.586  0.00  0.00    -0.031 A 
ATOM      4  C4  IND d   1      -0.102  -1.716   0.535  0.00  0.00     0.051 A 
ATOM      5  C5  IND d   1      -0.009  -0.419   0.955  0.00  0.00    -0.031 A 
ATOM      6  C6  IND d   1      -0.134   0.641   0.080  0.00  0.00     0.015 A 
ATOM      7  C7  IND d   1      -0.369   0.442  -1.251  0.00  0.00    -0.016 A 
ATOM      8  C8  IND d   1      -0.456  -0.874  -1.682  0.00  0.00    -0.047 A 
ATOM      9  C9  IND d   1      -0.288  -1.954  -0.807  0.00  0.00    -0.096 A 
ATOM     10  HN1 IND d   1      -0.783  -0.937  -3.660  0.00  0.00     0.298 HD
ENDROOT
TORSDOF 0
ENDMDL
