MODEL 1
REMARK minimizedAffinity -2.69135952
REMARK minimizedRMSD -1
REMARK  0 active torsions:
REMARK  status: ('A' for Active; 'I' for Inactive)
ROOT
ATOM      1  N1  IND d   1       0.486   0.134  -1.400  0.00  0.00    -0.196 N 
ATOM      2  C2  IND d   1       0.286   1.385  -0.887  0.00  0.00     0.054 A 
ATOM      3  C3  IND d   1      -0.248   1.306   0.352  0.00  0.00    -0.031 A 
ATOM      4  C4  IND d   1      -0.783  -0.774   1.772  0.00  0.00     0.051 A 
ATOM      5  C5  IND d   1      -0.806  -2.140   1.717  0.00  0.00    -0.031 A 
ATOM      6  C6  IND d   1      -0.389  -2.831   0.598  0.00  0.00     0.015 A 
ATOM      7  C7  IND d   1       0.080  -2.180  -0.508  0.00  0.00    -0.016 A 
ATOM      8  C8  IND d   1       0.098  -0.793  -0.458  0.00  0.00    -0.047 A 
ATOM      9  C9  IND d   1      -0.364  -0.085   0.659  0.00  0.00    -0.096 A 
ATOM     10  HN1 IND d   1       0.800  -0.044  -2.180  0.00  0.00     0.298 HD
ENDROOT
TORSDOF 0
ENDMDL
