MODEL 1
REMARK minimizedAffinity -0.474867672
REMARK minimizedRMSD -1
REMARK  0 active torsions:
REMARK  status: ('A' for Active; 'I' for Inactive)
ROOT
ATOM      1  N1  IND d   1       0.216   0.086  -2.613  0.00  0.00    -0.196 N 
ATOM      2  C2  IND d   1       0.684  -1.059  -3.196  0.00  0.00     0.054 A 
ATOM      3  C3  IND d   1       0.654  -2.082  -2.313  0.00  0.00    -0.031 A 
ATOM      4  C4  IND d   1      -0.218  -2.129   0.108  0.00  0.00     0.051 A 
ATOM      5  C5  IND d   1      -0.708  -1.317   1.093  0.00  0.00    -0.031 A 
ATOM      6  C6  IND d   1      -0.922   0.031   0.887  0.00  0.00     0.015 A 
ATOM      7  C7  IND d   1      -0.663   0.617  -0.320  0.00  0.00    -0.016 A 
ATOM      8  C8  IND d   1      -0.159  -0.203  -1.319  0.00  0.00    -0.047 A 
ATOM      9  C9  IND d   1       0.100  -1.562  -1.103  0.00  0.00    -0.096 A 
ATOM     10  HN1 IND d   1       0.165   0.857  -2.991  0.00  0.00     0.298 HD
ENDROOT
TORSDOF 0
ENDMDL
