MODEL 1
REMARK minimizedAffinity 1.69114411
REMARK minimizedRMSD -1
REMARK  0 active torsions:
REMARK  status: ('A' for Active; 'I' for Inactive)
ROOT
ATOM      1  C2' OXE d   1       1.722  -4.737  -0.677  0.00  0.00     0.078 C 
ATOM      2  C1' OXE d   1       2.521  -3.551  -3.093  0.00  0.00     0.078 C 
ATOM      3  C1  OXE d   1       1.944  -2.654  -2.026  0.00  0.00    -0.078 A 
ATOM      4  C2  OXE d   1       1.513  -3.250  -0.865  0.00  0.00    -0.078 A 
ATOM      5  C3  OXE d   1       1.024  -2.462   0.173  0.00  0.00     0.003 A 
ATOM      6  C4  OXE d   1       0.824  -1.089  -0.012  0.00  0.00    -0.002 A 
ATOM      7  C5  OXE d   1       1.220  -0.468  -1.202  0.00  0.00    -0.002 A 
ATOM      8  C6  OXE d   1       1.819  -1.228  -2.200  0.00  0.00     0.003 A 
ENDROOT
TORSDOF 0
ENDMDL
