MODEL 1
REMARK minimizedAffinity 0.716798186
REMARK minimizedRMSD -1
REMARK  0 active torsions:
REMARK  status: ('A' for Active; 'I' for Inactive)
ROOT
ATOM      1  C2' OXE d   1       5.587  -5.555  -0.590  0.00  0.00     0.078 C 
ATOM      2  C1' OXE d   1       4.493  -5.498  -3.175  0.00  0.00     0.078 C 
ATOM      3  C1  OXE d   1       4.436  -4.231  -2.359  0.00  0.00    -0.078 A 
ATOM      4  C2  OXE d   1       4.932  -4.280  -1.078  0.00  0.00    -0.078 A 
ATOM      5  C3  OXE d   1       4.954  -3.125  -0.303  0.00  0.00     0.003 A 
ATOM      6  C4  OXE d   1       4.338  -1.953  -0.758  0.00  0.00    -0.002 A 
ATOM      7  C5  OXE d   1       3.791  -1.893  -2.045  0.00  0.00    -0.002 A 
ATOM      8  C6  OXE d   1       3.870  -3.008  -2.872  0.00  0.00     0.003 A 
ENDROOT
TORSDOF 0
ENDMDL
