MODEL 1
REMARK minimizedAffinity 4.95445395
REMARK minimizedRMSD -1
REMARK  0 active torsions:
REMARK  status: ('A' for Active; 'I' for Inactive)
ROOT
ATOM      1  C2' OXE d   1       3.685  -1.578  -3.159  0.00  0.00     0.078 C 
ATOM      2  C1' OXE d   1       4.556  -2.091  -0.540  0.00  0.00     0.078 C 
ATOM      3  C1  OXE d   1       4.367  -3.269  -1.462  0.00  0.00    -0.078 A 
ATOM      4  C2  OXE d   1       3.896  -3.013  -2.727  0.00  0.00    -0.078 A 
ATOM      5  C3  OXE d   1       3.756  -4.059  -3.635  0.00  0.00     0.003 A 
ATOM      6  C4  OXE d   1       3.944  -5.384  -3.225  0.00  0.00    -0.002 A 
ATOM      7  C5  OXE d   1       4.385  -5.670  -1.929  0.00  0.00    -0.002 A 
ATOM      8  C6  OXE d   1       4.642  -4.624  -1.050  0.00  0.00     0.003 A 
ENDROOT
TORSDOF 0
ENDMDL
