MODEL 1
REMARK minimizedAffinity -1.11444843
REMARK minimizedRMSD -1
REMARK  0 active torsions:
REMARK  status: ('A' for Active; 'I' for Inactive)
ROOT
ATOM      1  C2' OXE d   1       3.751  -2.465  -3.791  0.00  0.00     0.078 C 
ATOM      2  C1' OXE d   1       4.490  -1.964  -1.129  0.00  0.00     0.078 C 
ATOM      3  C1  OXE d   1       4.536  -3.391  -1.615  0.00  0.00    -0.078 A 
ATOM      4  C2  OXE d   1       4.128  -3.633  -2.905  0.00  0.00    -0.078 A 
ATOM      5  C3  OXE d   1       4.203  -4.924  -3.421  0.00  0.00     0.003 A 
ATOM      6  C4  OXE d   1       4.544  -6.000  -2.593  0.00  0.00    -0.002 A 
ATOM      7  C5  OXE d   1       4.924  -5.780  -1.264  0.00  0.00    -0.002 A 
ATOM      8  C6  OXE d   1       4.966  -4.480  -0.774  0.00  0.00     0.003 A 
ENDROOT
TORSDOF 0
ENDMDL
