MODEL 1
REMARK minimizedAffinity 1.88960099
REMARK minimizedRMSD -1
REMARK  0 active torsions:
REMARK  status: ('A' for Active; 'I' for Inactive)
ROOT
ATOM      1  C2' OXE d   1      -1.755   3.008   1.867  0.00  0.00     0.078 C 
ATOM      2  C1' OXE d   1      -2.565   5.644   1.340  0.00  0.00     0.078 C 
ATOM      3  C1  OXE d   1      -1.570   5.012   0.399  0.00  0.00    -0.078 A 
ATOM      4  C2  OXE d   1      -1.144   3.738   0.691  0.00  0.00    -0.078 A 
ATOM      5  C3  OXE d   1      -0.269   3.089  -0.175  0.00  0.00     0.003 A 
ATOM      6  C4  OXE d   1       0.299   3.775  -1.255  0.00  0.00    -0.002 A 
ATOM      7  C5  OXE d   1      -0.091   5.086  -1.547  0.00  0.00    -0.002 A 
ATOM      8  C6  OXE d   1      -1.054   5.703  -0.757  0.00  0.00     0.003 A 
ENDROOT
TORSDOF 0
ENDMDL
