MODEL 1
REMARK minimizedAffinity -0.970392346
REMARK minimizedRMSD -1
REMARK  0 active torsions:
REMARK  status: ('A' for Active; 'I' for Inactive)
ROOT
ATOM      1  C2' OXE d   1       5.648  -4.503  -0.443  0.00  0.00     0.078 C 
ATOM      2  C1' OXE d   1       3.999  -2.296  -0.983  0.00  0.00     0.078 C 
ATOM      3  C1  OXE d   1       4.104  -3.370  -2.037  0.00  0.00    -0.078 A 
ATOM      4  C2  OXE d   1       4.950  -4.423  -1.784  0.00  0.00    -0.078 A 
ATOM      5  C3  OXE d   1       5.042  -5.468  -2.699  0.00  0.00     0.003 A 
ATOM      6  C4  OXE d   1       4.401  -5.382  -3.940  0.00  0.00    -0.002 A 
ATOM      7  C5  OXE d   1       3.567  -4.298  -4.235  0.00  0.00    -0.002 A 
ATOM      8  C6  OXE d   1       3.374  -3.307  -3.279  0.00  0.00     0.003 A 
ENDROOT
TORSDOF 0
ENDMDL
