MODEL 1
REMARK minimizedAffinity -2.83015132
REMARK minimizedRMSD -1
REMARK  0 active torsions:
REMARK  status: ('A' for Active; 'I' for Inactive)
ROOT
ATOM      1  C2' OXE d   1       2.802  -4.407  -3.905  0.00  0.00     0.078 C 
ATOM      2  C1' OXE d   1       5.360  -5.450  -3.406  0.00  0.00     0.078 C 
ATOM      3  C1  OXE d   1       4.936  -4.227  -2.632  0.00  0.00    -0.078 A 
ATOM      4  C2  OXE d   1       3.701  -3.696  -2.916  0.00  0.00    -0.078 A 
ATOM      5  C3  OXE d   1       3.239  -2.600  -2.193  0.00  0.00     0.003 A 
ATOM      6  C4  OXE d   1       4.080  -1.942  -1.288  0.00  0.00    -0.002 A 
ATOM      7  C5  OXE d   1       5.357  -2.443  -1.012  0.00  0.00    -0.002 A 
ATOM      8  C6  OXE d   1       5.783  -3.607  -1.643  0.00  0.00     0.003 A 
ENDROOT
TORSDOF 0
ENDMDL
