MODEL 1
REMARK minimizedAffinity 2.6759243
REMARK minimizedRMSD -1
REMARK  0 active torsions:
REMARK  status: ('A' for Active; 'I' for Inactive)
ROOT
ATOM      1  C2' OXE d   1       3.949  -2.810  -3.185  0.00  0.00     0.078 C 
ATOM      2  C1' OXE d   1       5.091  -2.267  -0.679  0.00  0.00     0.078 C 
ATOM      3  C1  OXE d   1       3.997  -3.304  -0.744  0.00  0.00    -0.078 A 
ATOM      4  C2  OXE d   1       3.412  -3.529  -1.966  0.00  0.00    -0.078 A 
ATOM      5  C3  OXE d   1       2.436  -4.513  -2.092  0.00  0.00     0.003 A 
ATOM      6  C4  OXE d   1       1.938  -5.167  -0.959  0.00  0.00    -0.002 A 
ATOM      7  C5  OXE d   1       2.492  -4.923   0.302  0.00  0.00    -0.002 A 
ATOM      8  C6  OXE d   1       3.550  -4.028   0.420  0.00  0.00     0.003 A 
ENDROOT
TORSDOF 0
ENDMDL
