MODEL 1
REMARK minimizedAffinity 0.870811224
REMARK minimizedRMSD -1
REMARK  0 active torsions:
REMARK  status: ('A' for Active; 'I' for Inactive)
ROOT
ATOM      1  C2' OXE d   1      -0.192   1.626  -0.736  0.00  0.00     0.078 C 
ATOM      2  C1' OXE d   1      -2.634   2.136  -2.023  0.00  0.00     0.078 C 
ATOM      3  C1  OXE d   1      -1.792   3.320  -1.616  0.00  0.00    -0.078 A 
ATOM      4  C2  OXE d   1      -0.621   3.062  -0.945  0.00  0.00    -0.078 A 
ATOM      5  C3  OXE d   1       0.219   4.115  -0.595  0.00  0.00     0.003 A 
ATOM      6  C4  OXE d   1      -0.190   5.441  -0.783  0.00  0.00    -0.002 A 
ATOM      7  C5  OXE d   1      -1.398   5.726  -1.429  0.00  0.00    -0.002 A 
ATOM      8  C6  OXE d   1      -2.189   4.679  -1.889  0.00  0.00     0.003 A 
ENDROOT
TORSDOF 0
ENDMDL
