MODEL 1
REMARK minimizedAffinity -1.30382788
REMARK minimizedRMSD -1
REMARK  0 active torsions:
REMARK  status: ('A' for Active; 'I' for Inactive)
ROOT
ATOM      1  C2' OXE d   1       2.651  -4.459   1.248  0.00  0.00     0.078 C 
ATOM      2  C1' OXE d   1       1.138  -5.153  -1.012  0.00  0.00     0.078 C 
ATOM      3  C1  OXE d   1       2.511  -4.572  -1.237  0.00  0.00    -0.078 A 
ATOM      4  C2  OXE d   1       3.226  -4.192  -0.126  0.00  0.00    -0.078 A 
ATOM      5  C3  OXE d   1       4.520  -3.701  -0.275  0.00  0.00     0.003 A 
ATOM      6  C4  OXE d   1       5.041  -3.447  -1.550  0.00  0.00    -0.002 A 
ATOM      7  C5  OXE d   1       4.313  -3.791  -2.694  0.00  0.00    -0.002 A 
ATOM      8  C6  OXE d   1       3.067  -4.392  -2.555  0.00  0.00     0.003 A 
ENDROOT
TORSDOF 0
ENDMDL
