MODEL 1
REMARK minimizedAffinity 7.20406008
REMARK minimizedRMSD -1
REMARK  0 active torsions:
REMARK  status: ('A' for Active; 'I' for Inactive)
ROOT
ATOM      1  C2' OXE d   1       0.250   4.776  -1.331  0.00  0.00     0.078 C 
ATOM      2  C1' OXE d   1      -0.843   2.610  -2.744  0.00  0.00     0.078 C 
ATOM      3  C1  OXE d   1      -0.576   2.426  -1.271  0.00  0.00    -0.078 A 
ATOM      4  C2  OXE d   1       0.002   3.475  -0.598  0.00  0.00    -0.078 A 
ATOM      5  C3  OXE d   1       0.220   3.378   0.774  0.00  0.00     0.003 A 
ATOM      6  C4  OXE d   1      -0.003   2.168   1.442  0.00  0.00    -0.002 A 
ATOM      7  C5  OXE d   1      -0.554   1.074   0.767  0.00  0.00    -0.002 A 
ATOM      8  C6  OXE d   1      -0.885   1.200  -0.578  0.00  0.00     0.003 A 
ENDROOT
TORSDOF 0
ENDMDL
