MODEL 1
REMARK minimizedAffinity 0.744429827
REMARK minimizedRMSD -1
REMARK  0 active torsions:
REMARK  status: ('A' for Active; 'I' for Inactive)
ROOT
ATOM      1  C2' OXE d   1       4.294  -2.340  -0.591  0.00  0.00     0.078 C 
ATOM      2  C1' OXE d   1       3.664  -2.073  -3.314  0.00  0.00     0.078 C 
ATOM      3  C1  OXE d   1       3.982  -3.454  -2.797  0.00  0.00    -0.078 A 
ATOM      4  C2  OXE d   1       4.334  -3.569  -1.474  0.00  0.00    -0.078 A 
ATOM      5  C3  OXE d   1       4.583  -4.827  -0.933  0.00  0.00     0.003 A 
ATOM      6  C4  OXE d   1       4.628  -5.957  -1.759  0.00  0.00    -0.002 A 
ATOM      7  C5  OXE d   1       4.311  -5.857  -3.118  0.00  0.00    -0.002 A 
ATOM      8  C6  OXE d   1       3.945  -4.622  -3.643  0.00  0.00     0.003 A 
ENDROOT
TORSDOF 0
ENDMDL
