MODEL 1
REMARK minimizedAffinity -1.4371531
REMARK minimizedRMSD -1
REMARK  0 active torsions:
REMARK  status: ('A' for Active; 'I' for Inactive)
ROOT
ATOM      1  C1  DEN d   1       0.025  -1.592  -1.047  0.00  0.00     0.130 A 
ATOM      2  C2  DEN d   1       0.390  -1.844   0.344  0.00  0.00    -0.031 A 
ATOM      3  C3  DEN d   1       0.876  -0.577   0.926  0.00  0.00     0.027 A 
ATOM      4  C4  DEN d   1       1.094   1.740  -0.185  0.00  0.00     0.027 A 
ATOM      5  C5  DEN d   1       0.919   2.445  -1.356  0.00  0.00    -0.003 A 
ATOM      6  C6  DEN d   1       0.469   1.851  -2.505  0.00  0.00     0.001 A 
ATOM      7  C7  DEN d   1       0.136   0.522  -2.497  0.00  0.00     0.017 A 
ATOM      8  C8  DEN d   1       0.318  -0.197  -1.323  0.00  0.00    -0.094 A 
ATOM      9  C9  DEN d   1       0.762   0.425  -0.168  0.00  0.00    -0.072 A 
ENDROOT
TORSDOF 0
ENDMDL
