MODEL 1
REMARK minimizedAffinity -4.81625414
REMARK minimizedRMSD -1
REMARK  0 active torsions:
REMARK  status: ('A' for Active; 'I' for Inactive)
ROOT
ATOM      1  C1  DEN d   1       3.595   1.987  -3.604  0.00  0.00     0.130 A 
ATOM      2  C2  DEN d   1       4.229   2.249  -2.315  0.00  0.00    -0.031 A 
ATOM      3  C3  DEN d   1       3.228   2.011  -1.256  0.00  0.00     0.027 A 
ATOM      4  C4  DEN d   1       0.771   1.261  -1.486  0.00  0.00     0.027 A 
ATOM      5  C5  DEN d   1      -0.221   0.926  -2.381  0.00  0.00    -0.003 A 
ATOM      6  C6  DEN d   1      -0.023   0.953  -3.736  0.00  0.00     0.001 A 
ATOM      7  C7  DEN d   1       1.211   1.280  -4.235  0.00  0.00     0.017 A 
ATOM      8  C8  DEN d   1       2.214   1.627  -3.339  0.00  0.00    -0.094 A 
ATOM      9  C9  DEN d   1       1.997   1.581  -1.972  0.00  0.00    -0.072 A 
ENDROOT
TORSDOF 0
ENDMDL
