MODEL 1
REMARK minimizedAffinity -5.02527332
REMARK minimizedRMSD -1
REMARK  0 active torsions:
REMARK  status: ('A' for Active; 'I' for Inactive)
ROOT
ATOM      1  C1  DEN d   1      -2.288  -0.382   2.198  0.00  0.00     0.130 A 
ATOM      2  C2  DEN d   1      -2.059  -1.823   2.257  0.00  0.00    -0.031 A 
ATOM      3  C3  DEN d   1      -0.868  -2.131   1.439  0.00  0.00     0.027 A 
ATOM      4  C4  DEN d   1       0.638  -0.523   0.098  0.00  0.00     0.027 A 
ATOM      5  C5  DEN d   1       0.834   0.791  -0.265  0.00  0.00    -0.003 A 
ATOM      6  C6  DEN d   1      -0.009   1.794   0.137  0.00  0.00     0.001 A 
ATOM      7  C7  DEN d   1      -1.062   1.504   0.963  0.00  0.00     0.017 A 
ATOM      8  C8  DEN d   1      -1.271   0.180   1.327  0.00  0.00    -0.094 A 
ATOM      9  C9  DEN d   1      -0.401  -0.817   0.920  0.00  0.00    -0.072 A 
ENDROOT
TORSDOF 0
ENDMDL
