MODEL 1
REMARK minimizedAffinity -4.41664743
REMARK minimizedRMSD -1
REMARK  0 active torsions:
REMARK  status: ('A' for Active; 'I' for Inactive)
ROOT
ATOM      1  C1  DEN d   1       0.942   0.207   1.112  0.00  0.00     0.130 A 
ATOM      2  C2  DEN d   1       0.404   1.493   0.676  0.00  0.00    -0.031 A 
ATOM      3  C3  DEN d   1      -1.020   1.301   0.338  0.00  0.00     0.027 A 
ATOM      4  C4  DEN d   1      -2.438  -0.851   0.451  0.00  0.00     0.027 A 
ATOM      5  C5  DEN d   1      -2.417  -2.195   0.749  0.00  0.00    -0.003 A 
ATOM      6  C6  DEN d   1      -1.275  -2.835   1.154  0.00  0.00     0.001 A 
ATOM      7  C7  DEN d   1      -0.117  -2.121   1.314  0.00  0.00     0.017 A 
ATOM      8  C8  DEN d   1      -0.129  -0.766   1.008  0.00  0.00    -0.094 A 
ATOM      9  C9  DEN d   1      -1.297  -0.135   0.612  0.00  0.00    -0.072 A 
ENDROOT
TORSDOF 0
ENDMDL
