MODEL 1
REMARK minimizedAffinity -5.36697435
REMARK minimizedRMSD -1
REMARK  0 active torsions:
REMARK  status: ('A' for Active; 'I' for Inactive)
ROOT
ATOM      1  C1  DEN d   1       0.668   0.742   0.823  0.00  0.00     0.130 A 
ATOM      2  C2  DEN d   1       0.982   1.267  -0.503  0.00  0.00    -0.031 A 
ATOM      3  C3  DEN d   1       0.390   0.359  -1.505  0.00  0.00     0.027 A 
ATOM      4  C4  DEN d   1      -0.979  -1.796  -1.136  0.00  0.00     0.027 A 
ATOM      5  C5  DEN d   1      -1.494  -2.649  -0.185  0.00  0.00    -0.003 A 
ATOM      6  C6  DEN d   1      -1.297  -2.452   1.156  0.00  0.00     0.001 A 
ATOM      7  C7  DEN d   1      -0.605  -1.351   1.586  0.00  0.00     0.017 A 
ATOM      8  C8  DEN d   1      -0.076  -0.490   0.634  0.00  0.00    -0.094 A 
ATOM      9  C9  DEN d   1      -0.296  -0.700  -0.717  0.00  0.00    -0.072 A 
ENDROOT
TORSDOF 0
ENDMDL
