MODEL 1
REMARK minimizedAffinity -3.83556843
REMARK minimizedRMSD -1
REMARK  0 active torsions:
REMARK  status: ('A' for Active; 'I' for Inactive)
ROOT
ATOM      1  C1  DEN d   1      -1.698  -1.280   1.326  0.00  0.00     0.130 A 
ATOM      2  C2  DEN d   1      -1.305  -2.524   1.982  0.00  0.00    -0.031 A 
ATOM      3  C3  DEN d   1       0.152  -2.694   1.805  0.00  0.00     0.027 A 
ATOM      4  C4  DEN d   1       1.828  -1.157   0.588  0.00  0.00     0.027 A 
ATOM      5  C5  DEN d   1       1.962   0.008  -0.135  0.00  0.00    -0.003 A 
ATOM      6  C6  DEN d   1       0.890   0.800  -0.449  0.00  0.00     0.001 A 
ATOM      7  C7  DEN d   1      -0.359   0.462   0.001  0.00  0.00     0.017 A 
ATOM      8  C8  DEN d   1      -0.503  -0.714   0.725  0.00  0.00    -0.094 A 
ATOM      9  C9  DEN d   1       0.595  -1.496   1.042  0.00  0.00    -0.072 A 
ENDROOT
TORSDOF 0
ENDMDL
