MODEL 1
REMARK minimizedAffinity -5.04760027
REMARK minimizedRMSD -1
REMARK  0 active torsions:
REMARK  status: ('A' for Active; 'I' for Inactive)
ROOT
ATOM      1  C1  DEN d   1      -0.019  -0.389  -0.884  0.00  0.00     0.130 A 
ATOM      2  C2  DEN d   1       0.356   0.279   0.359  0.00  0.00    -0.031 A 
ATOM      3  C3  DEN d   1       0.897   1.610   0.017  0.00  0.00     0.027 A 
ATOM      4  C4  DEN d   1       1.184   2.698  -2.304  0.00  0.00     0.027 A 
ATOM      5  C5  DEN d   1       1.018   2.512  -3.659  0.00  0.00    -0.003 A 
ATOM      6  C6  DEN d   1       0.531   1.344  -4.181  0.00  0.00     0.001 A 
ATOM      7  C7  DEN d   1       0.149   0.331  -3.341  0.00  0.00     0.017 A 
ATOM      8  C8  DEN d   1       0.321   0.508  -1.975  0.00  0.00    -0.094 A 
ATOM      9  C9  DEN d   1       0.804   1.701  -1.465  0.00  0.00    -0.072 A 
ENDROOT
TORSDOF 0
ENDMDL
