MODEL 1
REMARK minimizedAffinity -3.0576694
REMARK minimizedRMSD -1
REMARK  0 active torsions:
REMARK  status: ('A' for Active; 'I' for Inactive)
ROOT
ATOM      1  C1  DEN d   1       0.341  -1.618  -0.587  0.00  0.00     0.130 A 
ATOM      2  C2  DEN d   1       0.482  -1.407   0.851  0.00  0.00    -0.031 A 
ATOM      3  C3  DEN d   1       0.990  -0.037   1.064  0.00  0.00     0.027 A 
ATOM      4  C4  DEN d   1       1.564   1.771  -0.684  0.00  0.00     0.027 A 
ATOM      5  C5  DEN d   1       1.618   2.053  -2.031  0.00  0.00    -0.003 A 
ATOM      6  C6  DEN d   1       1.285   1.127  -2.985  0.00  0.00     0.001 A 
ATOM      7  C7  DEN d   1       0.840  -0.111  -2.603  0.00  0.00     0.017 A 
ATOM      8  C8  DEN d   1       0.790  -0.405  -1.247  0.00  0.00    -0.094 A 
ATOM      9  C9  DEN d   1       1.119   0.548  -0.298  0.00  0.00    -0.072 A 
ENDROOT
TORSDOF 0
ENDMDL
