MODEL 1
REMARK minimizedAffinity -2.61046004
REMARK minimizedRMSD -1
REMARK  0 active torsions:
REMARK  status: ('A' for Active; 'I' for Inactive)
ROOT
ATOM      1  C1  DEN d   1       1.220   0.376  -3.494  0.00  0.00     0.130 A 
ATOM      2  C2  DEN d   1       1.242   1.829  -3.641  0.00  0.00    -0.031 A 
ATOM      3  C3  DEN d   1       0.863   2.425  -2.344  0.00  0.00     0.027 A 
ATOM      4  C4  DEN d   1       0.253   1.246  -0.133  0.00  0.00     0.027 A 
ATOM      5  C5  DEN d   1       0.085   0.023   0.478  0.00  0.00    -0.003 A 
ATOM      6  C6  DEN d   1       0.248  -1.158  -0.196  0.00  0.00     0.001 A 
ATOM      7  C7  DEN d   1       0.635  -1.142  -1.510  0.00  0.00     0.017 A 
ATOM      8  C8  DEN d   1       0.800   0.087  -2.134  0.00  0.00    -0.094 A 
ATOM      9  C9  DEN d   1       0.642   1.270  -1.433  0.00  0.00    -0.072 A 
ENDROOT
TORSDOF 0
ENDMDL
