MODEL 1
REMARK minimizedAffinity -4.45559597
REMARK minimizedRMSD -1
REMARK  0 active torsions:
REMARK  status: ('A' for Active; 'I' for Inactive)
ROOT
ATOM      1  C1  DEN d   1      -1.422  -1.695   1.364  0.00  0.00     0.130 A 
ATOM      2  C2  DEN d   1      -0.640  -2.895   1.650  0.00  0.00    -0.031 A 
ATOM      3  C3  DEN d   1       0.698  -2.722   1.050  0.00  0.00     0.027 A 
ATOM      4  C4  DEN d   1       1.632  -0.721  -0.283  0.00  0.00     0.027 A 
ATOM      5  C5  DEN d   1       1.337   0.524  -0.793  0.00  0.00    -0.003 A 
ATOM      6  C6  DEN d   1       0.102   1.098  -0.649  0.00  0.00     0.001 A 
ATOM      7  C7  DEN d   1      -0.872   0.444   0.059  0.00  0.00     0.017 A 
ATOM      8  C8  DEN d   1      -0.585  -0.815   0.569  0.00  0.00    -0.094 A 
ATOM      9  C9  DEN d   1       0.674  -1.373   0.424  0.00  0.00    -0.072 A 
ENDROOT
TORSDOF 0
ENDMDL
