MODEL 1
REMARK minimizedAffinity -2.71695304
REMARK minimizedRMSD -1
REMARK  0 active torsions:
REMARK  status: ('A' for Active; 'I' for Inactive)
ROOT
ATOM      1  C1  DEN d   1      -0.341   0.580  -1.691  0.00  0.00     0.130 A 
ATOM      2  C2  DEN d   1       0.365   1.848  -1.527  0.00  0.00    -0.031 A 
ATOM      3  C3  DEN d   1       1.388   1.669  -0.478  0.00  0.00     0.027 A 
ATOM      4  C4  DEN d   1       1.949  -0.438   0.899  0.00  0.00     0.027 A 
ATOM      5  C5  DEN d   1       1.613  -1.755   1.124  0.00  0.00    -0.003 A 
ATOM      6  C6  DEN d   1       0.588  -2.371   0.456  0.00  0.00     0.001 A 
ATOM      7  C7  DEN d   1      -0.108  -1.682  -0.503  0.00  0.00     0.017 A 
ATOM      8  C8  DEN d   1       0.220  -0.352  -0.729  0.00  0.00    -0.094 A 
ATOM      9  C9  DEN d   1       1.268   0.249  -0.052  0.00  0.00    -0.072 A 
ENDROOT
TORSDOF 0
ENDMDL
