MODEL 1
REMARK minimizedAffinity -3.36030126
REMARK minimizedRMSD -1
REMARK  0 active torsions:
REMARK  status: ('A' for Active; 'I' for Inactive)
ROOT
ATOM      1  C   UNL d   1      -1.535  -5.247  -5.260  0.00  0.00     0.078 C 
ATOM      2  C1  UNL d   1      -2.940  -4.733  -5.159  0.00  0.00    -0.077 A 
ATOM      3  C2  UNL d   1      -3.283  -3.749  -4.224  0.00  0.00    -0.001 A 
ATOM      4  C3  UNL d   1      -4.597  -3.286  -4.135  0.00  0.00     0.003 A 
ATOM      5  C4  UNL d   1      -5.579  -3.803  -4.978  0.00  0.00    -0.005 A 
ATOM      6  C5  UNL d   1      -5.248  -4.785  -5.910  0.00  0.00     0.003 A 
ATOM      7  C6  UNL d   1      -3.935  -5.249  -6.000  0.00  0.00    -0.001 A 
ENDROOT
TORSDOF 0
ENDMDL
