MODEL 1
REMARK minimizedAffinity -4.13914537
REMARK minimizedRMSD -1
REMARK  0 active torsions:
REMARK  status: ('A' for Active; 'I' for Inactive)
ROOT
ATOM      1  C   UNL d   1      -2.160  -4.847  -5.183  0.00  0.00     0.078 C 
ATOM      2  C1  UNL d   1      -3.497  -4.191  -5.007  0.00  0.00    -0.077 A 
ATOM      3  C2  UNL d   1      -4.439  -4.703  -4.107  0.00  0.00    -0.001 A 
ATOM      4  C3  UNL d   1      -5.683  -4.088  -3.961  0.00  0.00     0.003 A 
ATOM      5  C4  UNL d   1      -5.997  -2.957  -4.713  0.00  0.00    -0.005 A 
ATOM      6  C5  UNL d   1      -5.067  -2.441  -5.612  0.00  0.00     0.003 A 
ATOM      7  C6  UNL d   1      -3.822  -3.055  -5.760  0.00  0.00    -0.001 A 
ENDROOT
TORSDOF 0
ENDMDL
