MODEL 1
REMARK minimizedAffinity -3.65395141
REMARK minimizedRMSD -1
REMARK  0 active torsions:
REMARK  status: ('A' for Active; 'I' for Inactive)
ROOT
ATOM      1  C   UNL d   1      -6.000  -1.528  -3.399  0.00  0.00     0.078 C 
ATOM      2  C1  UNL d   1      -5.184  -2.720  -3.801  0.00  0.00    -0.077 A 
ATOM      3  C2  UNL d   1      -5.798  -3.919  -4.182  0.00  0.00    -0.001 A 
ATOM      4  C3  UNL d   1      -5.026  -5.024  -4.544  0.00  0.00     0.003 A 
ATOM      5  C4  UNL d   1      -3.635  -4.940  -4.529  0.00  0.00    -0.005 A 
ATOM      6  C5  UNL d   1      -3.014  -3.752  -4.149  0.00  0.00     0.003 A 
ATOM      7  C6  UNL d   1      -3.785  -2.646  -3.786  0.00  0.00    -0.001 A 
ENDROOT
TORSDOF 0
ENDMDL
