MODEL 1
REMARK minimizedAffinity -3.5618186
REMARK minimizedRMSD -1
REMARK  0 active torsions:
REMARK  status: ('A' for Active; 'I' for Inactive)
ROOT
ATOM      1  C   UNL d   1      -2.457  -5.137  -5.300  0.00  0.00     0.078 C 
ATOM      2  C1  UNL d   1      -3.673  -4.323  -4.973  0.00  0.00    -0.077 A 
ATOM      3  C2  UNL d   1      -4.128  -4.203  -3.654  0.00  0.00    -0.001 A 
ATOM      4  C3  UNL d   1      -5.266  -3.449  -3.365  0.00  0.00     0.003 A 
ATOM      5  C4  UNL d   1      -5.961  -2.810  -4.391  0.00  0.00    -0.005 A 
ATOM      6  C5  UNL d   1      -5.517  -2.925  -5.707  0.00  0.00     0.003 A 
ATOM      7  C6  UNL d   1      -4.379  -3.679  -5.997  0.00  0.00    -0.001 A 
ENDROOT
TORSDOF 0
ENDMDL
