MODEL 1
REMARK minimizedAffinity -3.71312213
REMARK minimizedRMSD -1
REMARK  0 active torsions:
REMARK  status: ('A' for Active; 'I' for Inactive)
ROOT
ATOM      1  C   UNL d   1      -1.937  -4.865  -5.297  0.00  0.00     0.078 C 
ATOM      2  C1  UNL d   1      -3.352  -4.425  -5.072  0.00  0.00    -0.077 A 
ATOM      3  C2  UNL d   1      -3.770  -3.135  -5.421  0.00  0.00    -0.001 A 
ATOM      4  C3  UNL d   1      -5.089  -2.736  -5.198  0.00  0.00     0.003 A 
ATOM      5  C4  UNL d   1      -6.000  -3.620  -4.623  0.00  0.00    -0.005 A 
ATOM      6  C5  UNL d   1      -5.593  -4.904  -4.270  0.00  0.00     0.003 A 
ATOM      7  C6  UNL d   1      -4.275  -5.306  -4.493  0.00  0.00    -0.001 A 
ENDROOT
TORSDOF 0
ENDMDL
