MODEL 1
REMARK minimizedAffinity -4.12467146
REMARK minimizedRMSD -1
REMARK  0 active torsions:
REMARK  status: ('A' for Active; 'I' for Inactive)
ROOT
ATOM      1  C   UNL d   1      -1.881  -4.878  -5.640  0.00  0.00     0.078 C 
ATOM      2  C1  UNL d   1      -3.158  -4.193  -5.255  0.00  0.00    -0.077 A 
ATOM      3  C2  UNL d   1      -3.653  -3.116  -6.000  0.00  0.00    -0.001 A 
ATOM      4  C3  UNL d   1      -4.838  -2.482  -5.624  0.00  0.00     0.003 A 
ATOM      5  C4  UNL d   1      -5.539  -2.918  -4.501  0.00  0.00    -0.005 A 
ATOM      6  C5  UNL d   1      -5.054  -3.988  -3.752  0.00  0.00     0.003 A 
ATOM      7  C6  UNL d   1      -3.868  -4.623  -4.126  0.00  0.00    -0.001 A 
ENDROOT
TORSDOF 0
ENDMDL
