MODEL 1
REMARK minimizedAffinity -3.56281424
REMARK minimizedRMSD -1
REMARK  0 active torsions:
REMARK  status: ('A' for Active; 'I' for Inactive)
ROOT
ATOM      1  C   UNL d   1      -2.781  -5.592  -5.712  0.00  0.00     0.078 C 
ATOM      2  C1  UNL d   1      -3.862  -4.953  -4.892  0.00  0.00    -0.077 A 
ATOM      3  C2  UNL d   1      -4.997  -5.676  -4.505  0.00  0.00    -0.001 A 
ATOM      4  C3  UNL d   1      -6.000  -5.066  -3.751  0.00  0.00     0.003 A 
ATOM      5  C4  UNL d   1      -5.879  -3.729  -3.378  0.00  0.00    -0.005 A 
ATOM      6  C5  UNL d   1      -4.755  -3.000  -3.760  0.00  0.00     0.003 A 
ATOM      7  C6  UNL d   1      -3.751  -3.609  -4.515  0.00  0.00    -0.001 A 
ENDROOT
TORSDOF 0
ENDMDL
