MODEL 1
REMARK minimizedAffinity -3.61029696
REMARK minimizedRMSD -1
REMARK  0 active torsions:
REMARK  status: ('A' for Active; 'I' for Inactive)
ROOT
ATOM      1  C   UNL d   1      -1.945  -4.870  -5.276  0.00  0.00     0.078 C 
ATOM      2  C1  UNL d   1      -3.354  -4.454  -4.973  0.00  0.00    -0.077 A 
ATOM      3  C2  UNL d   1      -3.743  -4.120  -3.670  0.00  0.00    -0.001 A 
ATOM      4  C3  UNL d   1      -5.060  -3.743  -3.401  0.00  0.00     0.003 A 
ATOM      5  C4  UNL d   1      -5.999  -3.699  -4.430  0.00  0.00    -0.005 A 
ATOM      6  C5  UNL d   1      -5.621  -4.031  -5.729  0.00  0.00     0.003 A 
ATOM      7  C6  UNL d   1      -4.305  -4.408  -6.000  0.00  0.00    -0.001 A 
ENDROOT
TORSDOF 0
ENDMDL
