MODEL 1
REMARK minimizedAffinity -3.52537537
REMARK minimizedRMSD -1
REMARK  0 active torsions:
REMARK  status: ('A' for Active; 'I' for Inactive)
ROOT
ATOM      1  C   UNL d   1      -6.000  -2.969  -3.952  0.00  0.00     0.078 C 
ATOM      2  C1  UNL d   1      -5.127  -4.024  -4.564  0.00  0.00    -0.077 A 
ATOM      3  C2  UNL d   1      -3.742  -4.024  -4.354  0.00  0.00    -0.001 A 
ATOM      4  C3  UNL d   1      -2.940  -5.006  -4.938  0.00  0.00     0.003 A 
ATOM      5  C4  UNL d   1      -3.513  -5.994  -5.737  0.00  0.00    -0.005 A 
ATOM      6  C5  UNL d   1      -4.890  -6.000  -5.953  0.00  0.00     0.003 A 
ATOM      7  C6  UNL d   1      -5.693  -5.019  -5.370  0.00  0.00    -0.001 A 
ENDROOT
TORSDOF 0
ENDMDL
