MODEL 1
REMARK minimizedAffinity -3.88514423
REMARK minimizedRMSD -1
REMARK  0 active torsions:
REMARK  status: ('A' for Active; 'I' for Inactive)
ROOT
ATOM      1  C   UNL d   1      -2.226  -4.769  -5.767  0.00  0.00     0.078 C 
ATOM      2  C1  UNL d   1      -3.540  -4.150  -5.394  0.00  0.00    -0.077 A 
ATOM      3  C2  UNL d   1      -4.407  -4.784  -4.496  0.00  0.00    -0.001 A 
ATOM      4  C3  UNL d   1      -5.631  -4.201  -4.165  0.00  0.00     0.003 A 
ATOM      5  C4  UNL d   1      -6.000  -2.981  -4.728  0.00  0.00    -0.005 A 
ATOM      6  C5  UNL d   1      -5.144  -2.343  -5.624  0.00  0.00     0.003 A 
ATOM      7  C6  UNL d   1      -3.920  -2.925  -5.956  0.00  0.00    -0.001 A 
ENDROOT
TORSDOF 0
ENDMDL
