MODEL 1
REMARK minimizedAffinity -3.31865764
REMARK minimizedRMSD -1
REMARK  0 active torsions:
REMARK  status: ('A' for Active; 'I' for Inactive)
ROOT
ATOM      1  C   UNL d   1      -6.000  -2.625  -3.832  0.00  0.00     0.078 C 
ATOM      2  C1  UNL d   1      -5.251  -3.746  -4.488  0.00  0.00    -0.077 A 
ATOM      3  C2  UNL d   1      -3.880  -3.926  -4.263  0.00  0.00    -0.001 A 
ATOM      4  C3  UNL d   1      -3.193  -4.968  -4.889  0.00  0.00     0.003 A 
ATOM      5  C4  UNL d   1      -3.868  -5.837  -5.744  0.00  0.00    -0.005 A 
ATOM      6  C5  UNL d   1      -5.231  -5.664  -5.975  0.00  0.00     0.003 A 
ATOM      7  C6  UNL d   1      -5.920  -4.623  -5.351  0.00  0.00    -0.001 A 
ENDROOT
TORSDOF 0
ENDMDL
