MODEL 1
REMARK minimizedAffinity -4.38256693
REMARK minimizedRMSD -1
REMARK  0 active torsions:
REMARK  status: ('A' for Active; 'I' for Inactive)
ROOT
ATOM      1  C   UNL d   1      -2.004  -4.504  -5.238  0.00  0.00     0.078 C 
ATOM      2  C1  UNL d   1      -3.392  -4.005  -4.969  0.00  0.00    -0.077 A 
ATOM      3  C2  UNL d   1      -3.969  -4.129  -3.699  0.00  0.00    -0.001 A 
ATOM      4  C3  UNL d   1      -5.266  -3.670  -3.465  0.00  0.00     0.003 A 
ATOM      5  C4  UNL d   1      -5.997  -3.084  -4.496  0.00  0.00    -0.005 A 
ATOM      6  C5  UNL d   1      -5.433  -2.959  -5.764  0.00  0.00     0.003 A 
ATOM      7  C6  UNL d   1      -4.136  -3.418  -6.000  0.00  0.00    -0.001 A 
ENDROOT
TORSDOF 0
ENDMDL
