MODEL 1
REMARK minimizedAffinity -3.6123054
REMARK minimizedRMSD -1
REMARK  0 active torsions:
REMARK  status: ('A' for Active; 'I' for Inactive)
ROOT
ATOM      1  C   UNL d   1      -4.998  -5.644  -3.374  0.00  0.00     0.078 C 
ATOM      2  C1  UNL d   1      -4.275  -4.708  -4.296  0.00  0.00    -0.077 A 
ATOM      3  C2  UNL d   1      -3.026  -5.045  -4.831  0.00  0.00    -0.001 A 
ATOM      4  C3  UNL d   1      -2.359  -4.159  -5.680  0.00  0.00     0.003 A 
ATOM      5  C4  UNL d   1      -2.934  -2.931  -6.000  0.00  0.00    -0.005 A 
ATOM      6  C5  UNL d   1      -4.175  -2.585  -5.470  0.00  0.00     0.003 A 
ATOM      7  C6  UNL d   1      -4.843  -3.470  -4.621  0.00  0.00    -0.001 A 
ENDROOT
TORSDOF 0
ENDMDL
