MODEL 1
REMARK minimizedAffinity -3.67908669
REMARK minimizedRMSD -1
REMARK  0 active torsions:
REMARK  status: ('A' for Active; 'I' for Inactive)
ROOT
ATOM      1  C   UNL d   1      -5.997  -1.205  -5.709  0.00  0.00     0.078 C 
ATOM      2  C1  UNL d   1      -5.287  -2.503  -5.470  0.00  0.00    -0.077 A 
ATOM      3  C2  UNL d   1      -5.878  -3.519  -4.708  0.00  0.00    -0.001 A 
ATOM      4  C3  UNL d   1      -5.202  -4.719  -4.485  0.00  0.00     0.003 A 
ATOM      5  C4  UNL d   1      -3.929  -4.915  -5.018  0.00  0.00    -0.005 A 
ATOM      6  C5  UNL d   1      -3.332  -3.909  -5.776  0.00  0.00     0.003 A 
ATOM      7  C6  UNL d   1      -4.007  -2.708  -6.000  0.00  0.00    -0.001 A 
ENDROOT
TORSDOF 0
ENDMDL
