MODEL 1
REMARK minimizedAffinity -4.35641909
REMARK minimizedRMSD -1
REMARK  0 active torsions:
REMARK  status: ('A' for Active; 'I' for Inactive)
ROOT
ATOM      1  C   UNL d   1      -1.612  -4.852  -5.305  0.00  0.00     0.078 C 
ATOM      2  C1  UNL d   1      -2.936  -4.253  -4.936  0.00  0.00    -0.077 A 
ATOM      3  C2  UNL d   1      -3.793  -4.896  -4.034  0.00  0.00    -0.001 A 
ATOM      4  C3  UNL d   1      -5.027  -4.331  -3.708  0.00  0.00     0.003 A 
ATOM      5  C4  UNL d   1      -5.416  -3.122  -4.280  0.00  0.00    -0.005 A 
ATOM      6  C5  UNL d   1      -4.572  -2.476  -5.181  0.00  0.00     0.003 A 
ATOM      7  C6  UNL d   1      -3.337  -3.039  -5.508  0.00  0.00    -0.001 A 
ENDROOT
TORSDOF 0
ENDMDL
