MODEL 1
REMARK minimizedAffinity -3.83908916
REMARK minimizedRMSD -1
REMARK  0 active torsions:
REMARK  status: ('A' for Active; 'I' for Inactive)
ROOT
ATOM      1  C   UNL d   1      -1.914  -4.696  -5.982  0.00  0.00     0.078 C 
ATOM      2  C1  UNL d   1      -3.256  -4.317  -5.430  0.00  0.00    -0.077 A 
ATOM      3  C2  UNL d   1      -3.965  -5.190  -4.596  0.00  0.00    -0.001 A 
ATOM      4  C3  UNL d   1      -5.217  -4.828  -4.096  0.00  0.00     0.003 A 
ATOM      5  C4  UNL d   1      -5.771  -3.593  -4.426  0.00  0.00    -0.005 A 
ATOM      6  C5  UNL d   1      -5.074  -2.718  -5.257  0.00  0.00     0.003 A 
ATOM      7  C6  UNL d   1      -3.822  -3.078  -5.757  0.00  0.00    -0.001 A 
ENDROOT
TORSDOF 0
ENDMDL
