MODEL 1
REMARK minimizedAffinity 8.44727325
REMARK minimizedRMSD -1
REMARK  0 active torsions:
REMARK  status: ('A' for Active; 'I' for Inactive)
ROOT
ATOM      1  C   UNL d   1       5.994  -5.698  -0.192  0.00  0.00    -0.002 A 
ATOM      2  C1  UNL d   1       5.999  -6.000   1.162  0.00  0.00     0.010 A 
ATOM      3  C2  UNL d   1       4.916  -5.651   1.972  0.00  0.00     0.041 A 
ATOM      4  C3  UNL d   1       3.817  -4.989   1.390  0.00  0.00    -0.075 A 
ATOM      5  S   UNL d   1       2.379  -4.466   2.186  0.00  0.00     0.015 SA
ATOM      6  C4  UNL d   1       1.724  -3.831   0.746  0.00  0.00     0.022 A 
ATOM      7  C5  UNL d   1       2.569  -4.005  -0.325  0.00  0.00     0.026 A 
ATOM      8  C6  UNL d   1       3.788  -4.676   0.029  0.00  0.00    -0.082 A 
ATOM      9  C7  UNL d   1       4.902  -5.042  -0.765  0.00  0.00     0.045 A 
ENDROOT
TORSDOF 0
ENDMDL
