MODEL 1
REMARK minimizedAffinity 16.6499443
REMARK minimizedRMSD -1
REMARK  0 active torsions:
REMARK  status: ('A' for Active; 'I' for Inactive)
ROOT
ATOM      1  C   UNL d   1      -3.990   3.290  -2.643  0.00  0.00    -0.002 A 
ATOM      2  C1  UNL d   1      -5.305   3.611  -2.948  0.00  0.00     0.010 A 
ATOM      3  C2  UNL d   1      -6.000   2.903  -3.930  0.00  0.00     0.041 A 
ATOM      4  C3  UNL d   1      -5.345   1.855  -4.607  0.00  0.00    -0.075 A 
ATOM      5  S   UNL d   1      -5.997   0.850  -5.846  0.00  0.00     0.015 SA
ATOM      6  C4  UNL d   1      -4.545  -0.030  -5.999  0.00  0.00     0.022 A 
ATOM      7  C5  UNL d   1      -3.576   0.419  -5.134  0.00  0.00     0.026 A 
ATOM      8  C6  UNL d   1      -4.021   1.513  -4.317  0.00  0.00    -0.082 A 
ATOM      9  C7  UNL d   1      -3.344   2.250  -3.316  0.00  0.00     0.045 A 
ENDROOT
TORSDOF 0
ENDMDL
