MODEL 1
REMARK minimizedAffinity 1.80868304
REMARK minimizedRMSD -1
REMARK  0 active torsions:
REMARK  status: ('A' for Active; 'I' for Inactive)
ROOT
ATOM      1  C   UNL d   1       3.984  -4.845   1.830  0.00  0.00    -0.002 A 
ATOM      2  C1  UNL d   1       4.675  -5.938   2.333  0.00  0.00     0.010 A 
ATOM      3  C2  UNL d   1       5.251  -5.891   3.604  0.00  0.00     0.041 A 
ATOM      4  C3  UNL d   1       5.118  -4.716   4.369  0.00  0.00    -0.075 A 
ATOM      5  S   UNL d   1       5.740  -4.431   5.952  0.00  0.00     0.015 SA
ATOM      6  C4  UNL d   1       5.102  -2.851   5.999  0.00  0.00     0.022 A 
ATOM      7  C5  UNL d   1       4.428  -2.533   4.844  0.00  0.00     0.026 A 
ATOM      8  C6  UNL d   1       4.426  -3.602   3.885  0.00  0.00    -0.082 A 
ATOM      9  C7  UNL d   1       3.854  -3.681   2.593  0.00  0.00     0.045 A 
ENDROOT
TORSDOF 0
ENDMDL
