MODEL 1
REMARK minimizedAffinity 11.6392117
REMARK minimizedRMSD -1
REMARK  0 active torsions:
REMARK  status: ('A' for Active; 'I' for Inactive)
ROOT
ATOM      1  C   UNL d   1       4.490   5.252   0.746  0.00  0.00    -0.002 A 
ATOM      2  C1  UNL d   1       5.601   4.912   1.505  0.00  0.00     0.010 A 
ATOM      3  C2  UNL d   1       5.999   3.578   1.624  0.00  0.00     0.041 A 
ATOM      4  C3  UNL d   1       5.255   2.584   0.959  0.00  0.00    -0.075 A 
ATOM      5  S   UNL d   1       5.556   0.886   0.960  0.00  0.00     0.015 SA
ATOM      6  C4  UNL d   1       4.218   0.573  -0.048  0.00  0.00     0.022 A 
ATOM      7  C5  UNL d   1       3.547   1.724  -0.387  0.00  0.00     0.026 A 
ATOM      8  C6  UNL d   1       4.134   2.902   0.187  0.00  0.00    -0.082 A 
ATOM      9  C7  UNL d   1       3.756   4.262   0.087  0.00  0.00     0.045 A 
ENDROOT
TORSDOF 0
ENDMDL
