MODEL 1
REMARK minimizedAffinity 12.0737295
REMARK minimizedRMSD -1
REMARK  0 active torsions:
REMARK  status: ('A' for Active; 'I' for Inactive)
ROOT
ATOM      1  C   UNL d   1       5.362  -0.628   0.388  0.00  0.00    -0.002 A 
ATOM      2  C1  UNL d   1       6.000  -0.045   1.473  0.00  0.00     0.010 A 
ATOM      3  C2  UNL d   1       5.999   1.342   1.637  0.00  0.00     0.041 A 
ATOM      4  C3  UNL d   1       5.338   2.140   0.683  0.00  0.00    -0.075 A 
ATOM      5  S   UNL d   1       5.206   3.859   0.678  0.00  0.00     0.015 SA
ATOM      6  C4  UNL d   1       4.297   3.860  -0.765  0.00  0.00     0.022 A 
ATOM      7  C5  UNL d   1       4.091   2.588  -1.245  0.00  0.00     0.026 A 
ATOM      8  C6  UNL d   1       4.687   1.576  -0.418  0.00  0.00    -0.082 A 
ATOM      9  C7  UNL d   1       4.707   0.167  -0.556  0.00  0.00     0.045 A 
ENDROOT
TORSDOF 0
ENDMDL
