MODEL 1
REMARK minimizedAffinity 1.9742713
REMARK minimizedRMSD -1
REMARK  0 active torsions:
REMARK  status: ('A' for Active; 'I' for Inactive)
ROOT
ATOM      1  C   UNL d   1       2.076  -2.826   0.974  0.00  0.00    -0.002 A 
ATOM      2  C1  UNL d   1       1.910  -2.122  -0.211  0.00  0.00     0.010 A 
ATOM      3  C2  UNL d   1       0.981  -1.082  -0.294  0.00  0.00     0.041 A 
ATOM      4  C3  UNL d   1       0.217  -0.758   0.844  0.00  0.00    -0.075 A 
ATOM      5  S   UNL d   1      -0.978   0.477   0.976  0.00  0.00     0.015 SA
ATOM      6  C4  UNL d   1      -1.295   0.100   2.608  0.00  0.00     0.022 A 
ATOM      7  C5  UNL d   1      -0.517  -0.940   3.057  0.00  0.00     0.026 A 
ATOM      8  C6  UNL d   1       0.368  -1.452   2.048  0.00  0.00    -0.082 A 
ATOM      9  C7  UNL d   1       1.317  -2.501   2.101  0.00  0.00     0.045 A 
ENDROOT
TORSDOF 0
ENDMDL
