MODEL 1
REMARK minimizedAffinity -3.66355896
REMARK minimizedRMSD -1
REMARK  0 active torsions:
REMARK  status: ('A' for Active; 'I' for Inactive)
ROOT
ATOM      1  C   UNL d   1       1.534  -1.128   0.870  0.00  0.00     0.023 A 
ATOM      2  C1  UNL d   1       0.572  -2.018   1.347  0.00  0.00     0.003 A 
ATOM      3  C2  UNL d   1      -0.742  -1.945   0.881  0.00  0.00     0.048 A 
ATOM      4  C3  UNL d   1      -1.087  -0.979  -0.064  0.00  0.00     0.023 A 
ATOM      5  C4  UNL d   1      -0.128  -0.087  -0.546  0.00  0.00     0.048 A 
ATOM      6  C5  UNL d   1       1.185  -0.164  -0.075  0.00  0.00     0.003 A 
ATOM      7  I   UNL d   1      -3.042  -0.868  -0.761  0.00  0.00    -0.146 I 
ENDROOT
TORSDOF 0
ENDMDL
