MODEL 1
REMARK minimizedAffinity -4.39781094
REMARK minimizedRMSD -1
REMARK  0 active torsions:
REMARK  status: ('A' for Active; 'I' for Inactive)
ROOT
ATOM      1  C   UNL d   1      -2.148  -0.425  -1.294  0.00  0.00     0.023 A 
ATOM      2  C1  UNL d   1      -1.121   0.202  -2.000  0.00  0.00     0.003 A 
ATOM      3  C2  UNL d   1       0.078   0.518  -1.358  0.00  0.00     0.048 A 
ATOM      4  C3  UNL d   1       0.243   0.203  -0.009  0.00  0.00     0.023 A 
ATOM      5  C4  UNL d   1      -0.781  -0.424   0.701  0.00  0.00     0.048 A 
ATOM      6  C5  UNL d   1      -1.979  -0.737   0.055  0.00  0.00     0.003 A 
ATOM      7  I   UNL d   1       2.027   0.672   0.949  0.00  0.00    -0.146 I 
ENDROOT
TORSDOF 0
ENDMDL
