MODEL 1
REMARK minimizedAffinity -3.35302401
REMARK minimizedRMSD -1
REMARK  0 active torsions:
REMARK  status: ('A' for Active; 'I' for Inactive)
ROOT
ATOM      1  C   UNL d   1      -2.398  -0.753  -1.055  0.00  0.00     0.023 A 
ATOM      2  C1  UNL d   1      -1.550  -0.021  -1.887  0.00  0.00     0.003 A 
ATOM      3  C2  UNL d   1      -0.319   0.431  -1.408  0.00  0.00     0.048 A 
ATOM      4  C3  UNL d   1       0.059   0.148  -0.096  0.00  0.00     0.023 A 
ATOM      5  C4  UNL d   1      -0.785  -0.585   0.740  0.00  0.00     0.048 A 
ATOM      6  C5  UNL d   1      -2.016  -1.034   0.257  0.00  0.00     0.003 A 
ATOM      7  I   UNL d   1       1.891   0.820   0.619  0.00  0.00    -0.146 I 
ENDROOT
TORSDOF 0
ENDMDL
