MODEL 1
REMARK minimizedAffinity -3.64198494
REMARK minimizedRMSD -1
REMARK  0 active torsions:
REMARK  status: ('A' for Active; 'I' for Inactive)
ROOT
ATOM      1  C   UNL d   1      -3.320  -0.979  -0.518  0.00  0.00     0.023 A 
ATOM      2  C1  UNL d   1      -2.352  -1.118  -1.513  0.00  0.00     0.003 A 
ATOM      3  C2  UNL d   1      -1.034  -0.728  -1.266  0.00  0.00     0.048 A 
ATOM      4  C3  UNL d   1      -0.691  -0.201  -0.022  0.00  0.00     0.023 A 
ATOM      5  C4  UNL d   1      -1.656  -0.060   0.977  0.00  0.00     0.048 A 
ATOM      6  C5  UNL d   1      -2.972  -0.450   0.725  0.00  0.00     0.003 A 
ATOM      7  I   UNL d   1       1.270   0.380   0.348  0.00  0.00    -0.146 I 
ENDROOT
TORSDOF 0
ENDMDL
