MODEL 1
REMARK minimizedAffinity -5.02807474
REMARK minimizedRMSD -1
REMARK  0 active torsions:
REMARK  status: ('A' for Active; 'I' for Inactive)
ROOT
ATOM      1  C   UNL d   1      -2.706  -0.796  -0.707  0.00  0.00     0.023 A 
ATOM      2  C1  UNL d   1      -1.838  -0.304  -1.682  0.00  0.00     0.003 A 
ATOM      3  C2  UNL d   1      -0.548   0.100  -1.332  0.00  0.00     0.048 A 
ATOM      4  C3  UNL d   1      -0.132   0.009  -0.005  0.00  0.00     0.023 A 
ATOM      5  C4  UNL d   1      -0.996  -0.483   0.975  0.00  0.00     0.048 A 
ATOM      6  C5  UNL d   1      -2.285  -0.885   0.620  0.00  0.00     0.003 A 
ATOM      7  I   UNL d   1       1.788   0.609   0.519  0.00  0.00    -0.146 I 
ENDROOT
TORSDOF 0
ENDMDL
