MODEL 1
REMARK minimizedAffinity -4.69038773
REMARK minimizedRMSD -1
REMARK  0 active torsions:
REMARK  status: ('A' for Active; 'I' for Inactive)
ROOT
ATOM      1  C   UNL d   1      -2.669  -0.480  -0.952  0.00  0.00     0.023 A 
ATOM      2  C1  UNL d   1      -2.321  -0.609   0.392  0.00  0.00     0.003 A 
ATOM      3  C2  UNL d   1      -1.053  -0.218   0.828  0.00  0.00     0.048 A 
ATOM      4  C3  UNL d   1      -0.138   0.303  -0.086  0.00  0.00     0.023 A 
ATOM      5  C4  UNL d   1      -0.482   0.435  -1.433  0.00  0.00     0.048 A 
ATOM      6  C5  UNL d   1      -1.750   0.042  -1.864  0.00  0.00     0.003 A 
ATOM      7  I   UNL d   1       1.749   0.886   0.560  0.00  0.00    -0.146 I 
ENDROOT
TORSDOF 0
ENDMDL
