MODEL 1
REMARK minimizedAffinity -4.89193773
REMARK minimizedRMSD -1
REMARK  0 active torsions:
REMARK  status: ('A' for Active; 'I' for Inactive)
ROOT
ATOM      1  C   UNL d   1      -3.149  -1.582   0.208  0.00  0.00     0.023 A 
ATOM      2  C1  UNL d   1      -2.145  -2.146   0.996  0.00  0.00     0.003 A 
ATOM      3  C2  UNL d   1      -0.885  -1.547   1.058  0.00  0.00     0.048 A 
ATOM      4  C3  UNL d   1      -0.636  -0.383   0.332  0.00  0.00     0.023 A 
ATOM      5  C4  UNL d   1      -1.638   0.185  -0.457  0.00  0.00     0.048 A 
ATOM      6  C5  UNL d   1      -2.895  -0.418  -0.517  0.00  0.00     0.003 A 
ATOM      7  I   UNL d   1       1.238   0.511   0.424  0.00  0.00    -0.146 I 
ENDROOT
TORSDOF 0
ENDMDL
