MODEL 1
REMARK minimizedAffinity -1.35252118
REMARK minimizedRMSD -1
REMARK  0 active torsions:
REMARK  status: ('A' for Active; 'I' for Inactive)
ROOT
ATOM      1  C   UNL d   1      -3.114  -0.670  -0.409  0.00  0.00     0.023 A 
ATOM      2  C1  UNL d   1      -2.475   0.029  -1.433  0.00  0.00     0.003 A 
ATOM      3  C2  UNL d   1      -1.130   0.382  -1.306  0.00  0.00     0.048 A 
ATOM      4  C3  UNL d   1      -0.429   0.032  -0.153  0.00  0.00     0.023 A 
ATOM      5  C4  UNL d   1      -1.064  -0.668   0.875  0.00  0.00     0.048 A 
ATOM      6  C5  UNL d   1      -2.409  -1.018   0.744  0.00  0.00     0.003 A 
ATOM      7  I   UNL d   1       1.573   0.556   0.039  0.00  0.00    -0.146 I 
ENDROOT
TORSDOF 0
ENDMDL
