MODEL 1
REMARK minimizedAffinity -1.10554802
REMARK minimizedRMSD -1
REMARK  0 active torsions:
REMARK  status: ('A' for Active; 'I' for Inactive)
ROOT
ATOM      1  C   UNL d   1      -2.108  -0.798  -1.194  0.00  0.00     0.023 A 
ATOM      2  C1  UNL d   1      -1.402   0.036  -2.061  0.00  0.00     0.003 A 
ATOM      3  C2  UNL d   1      -0.182   0.586  -1.663  0.00  0.00     0.048 A 
ATOM      4  C3  UNL d   1       0.328   0.297  -0.398  0.00  0.00     0.023 A 
ATOM      5  C4  UNL d   1      -0.374  -0.539   0.472  0.00  0.00     0.048 A 
ATOM      6  C5  UNL d   1      -1.594  -1.085   0.071  0.00  0.00     0.003 A 
ATOM      7  I   UNL d   1       2.145   1.114   0.195  0.00  0.00    -0.146 I 
ENDROOT
TORSDOF 0
ENDMDL
