MODEL 1
REMARK minimizedAffinity -2.49282479
REMARK minimizedRMSD -1
REMARK  0 active torsions:
REMARK  status: ('A' for Active; 'I' for Inactive)
ROOT
ATOM      1  C   UNL d   1      -2.805  -1.035  -0.499  0.00  0.00     0.023 A 
ATOM      2  C1  UNL d   1      -2.397  -0.719   0.797  0.00  0.00     0.003 A 
ATOM      3  C2  UNL d   1      -1.157  -0.113   1.012  0.00  0.00     0.048 A 
ATOM      4  C3  UNL d   1      -0.331   0.175  -0.073  0.00  0.00     0.023 A 
ATOM      5  C4  UNL d   1      -0.735  -0.138  -1.372  0.00  0.00     0.048 A 
ATOM      6  C5  UNL d   1      -1.975  -0.745  -1.582  0.00  0.00     0.003 A 
ATOM      7  I   UNL d   1       1.514   1.077   0.245  0.00  0.00    -0.146 I 
ENDROOT
TORSDOF 0
ENDMDL
