MODEL 1
REMARK minimizedAffinity -4.0431881
REMARK minimizedRMSD -1
REMARK  0 active torsions:
REMARK  status: ('A' for Active; 'I' for Inactive)
ROOT
ATOM      1  C   UNL d   1      -2.849  -1.004  -0.402  0.00  0.00     0.023 A 
ATOM      2  C1  UNL d   1      -2.113  -0.393  -1.418  0.00  0.00     0.003 A 
ATOM      3  C2  UNL d   1      -0.834   0.103  -1.154  0.00  0.00     0.048 A 
ATOM      4  C3  UNL d   1      -0.297  -0.017   0.127  0.00  0.00     0.023 A 
ATOM      5  C4  UNL d   1      -1.029  -0.628   1.146  0.00  0.00     0.048 A 
ATOM      6  C5  UNL d   1      -2.307  -1.121   0.878  0.00  0.00     0.003 A 
ATOM      7  I   UNL d   1       1.606   0.719   0.522  0.00  0.00    -0.146 I 
ENDROOT
TORSDOF 0
ENDMDL
