MODEL 1
REMARK minimizedAffinity -3.51219225
REMARK minimizedRMSD -1
REMARK  0 active torsions:
REMARK  status: ('A' for Active; 'I' for Inactive)
ROOT
ATOM      1  C   UNL d   1      -2.854  -2.252  -0.032  0.00  0.00     0.023 A 
ATOM      2  C1  UNL d   1      -1.865  -2.659   0.864  0.00  0.00     0.003 A 
ATOM      3  C2  UNL d   1      -0.697  -1.907   1.005  0.00  0.00     0.048 A 
ATOM      4  C3  UNL d   1      -0.525  -0.749   0.248  0.00  0.00     0.023 A 
ATOM      5  C4  UNL d   1      -1.512  -0.337  -0.648  0.00  0.00     0.048 A 
ATOM      6  C5  UNL d   1      -2.678  -1.092  -0.787  0.00  0.00     0.003 A 
ATOM      7  I   UNL d   1       1.213   0.373   0.457  0.00  0.00    -0.146 I 
ENDROOT
TORSDOF 0
ENDMDL
