MODEL 1
REMARK minimizedAffinity -4.26105022
REMARK minimizedRMSD -1
REMARK  0 active torsions:
REMARK  status: ('A' for Active; 'I' for Inactive)
ROOT
ATOM      1  C   UNL d   1      -2.608  -0.812  -0.549  0.00  0.00     0.023 A 
ATOM      2  C1  UNL d   1      -2.169  -0.621   0.762  0.00  0.00     0.003 A 
ATOM      3  C2  UNL d   1      -0.896  -0.101   1.004  0.00  0.00     0.048 A 
ATOM      4  C3  UNL d   1      -0.067   0.227  -0.068  0.00  0.00     0.023 A 
ATOM      5  C4  UNL d   1      -0.502   0.038  -1.381  0.00  0.00     0.048 A 
ATOM      6  C5  UNL d   1      -1.775  -0.483  -1.619  0.00  0.00     0.003 A 
ATOM      7  I   UNL d   1       1.828   1.001   0.291  0.00  0.00    -0.146 I 
ENDROOT
TORSDOF 0
ENDMDL
