MODEL 1
REMARK minimizedAffinity 1.14362276
REMARK minimizedRMSD -1
REMARK  0 active torsions:
REMARK  status: ('A' for Active; 'I' for Inactive)
ROOT
ATOM      1  C   UNL d   1       3.475   3.310   0.698  0.00  0.00     0.023 A 
ATOM      2  C1  UNL d   1       3.338   2.421  -0.368  0.00  0.00     0.003 A 
ATOM      3  C2  UNL d   1       2.510   1.304  -0.245  0.00  0.00     0.048 A 
ATOM      4  C3  UNL d   1       1.822   1.081   0.948  0.00  0.00     0.023 A 
ATOM      5  C4  UNL d   1       1.956   1.968   2.017  0.00  0.00     0.048 A 
ATOM      6  C5  UNL d   1       2.786   3.084   1.889  0.00  0.00     0.003 A 
ATOM      7  I   UNL d   1       0.590  -0.582   1.134  0.00  0.00    -0.146 I 
ENDROOT
TORSDOF 0
ENDMDL
