MODEL 1
REMARK minimizedAffinity -4.0502634
REMARK minimizedRMSD -1
REMARK  0 active torsions:
REMARK  status: ('A' for Active; 'I' for Inactive)
ROOT
ATOM      1  C   UNL d   1      -3.394  -0.676  -0.369  0.00  0.00     0.023 A 
ATOM      2  C1  UNL d   1      -2.793  -0.836   0.879  0.00  0.00     0.003 A 
ATOM      3  C2  UNL d   1      -1.427  -0.588   1.035  0.00  0.00     0.048 A 
ATOM      4  C3  UNL d   1      -0.670  -0.180  -0.062  0.00  0.00     0.023 A 
ATOM      5  C4  UNL d   1      -1.268  -0.018  -1.313  0.00  0.00     0.048 A 
ATOM      6  C5  UNL d   1      -2.633  -0.268  -1.464  0.00  0.00     0.003 A 
ATOM      7  I   UNL d   1       1.363   0.190   0.166  0.00  0.00    -0.146 I 
ENDROOT
TORSDOF 0
ENDMDL
