MODEL 1
REMARK minimizedAffinity -1.46786404
REMARK minimizedRMSD -1
REMARK  0 active torsions:
REMARK  status: ('A' for Active; 'I' for Inactive)
ROOT
ATOM      1  C   UNL d   1      -2.625  -0.532  -0.973  0.00  0.00     0.023 A 
ATOM      2  C1  UNL d   1      -2.018   0.473  -1.726  0.00  0.00     0.003 A 
ATOM      3  C2  UNL d   1      -0.743   0.929  -1.386  0.00  0.00     0.048 A 
ATOM      4  C3  UNL d   1      -0.080   0.374  -0.292  0.00  0.00     0.023 A 
ATOM      5  C4  UNL d   1      -0.683  -0.633   0.464  0.00  0.00     0.048 A 
ATOM      6  C5  UNL d   1      -1.959  -1.085   0.120  0.00  0.00     0.003 A 
ATOM      7  I   UNL d   1       1.819   1.050   0.217  0.00  0.00    -0.146 I 
ENDROOT
TORSDOF 0
ENDMDL
