MODEL 1
REMARK minimizedAffinity -0.961383522
REMARK minimizedRMSD -1
REMARK  0 active torsions:
REMARK  status: ('A' for Active; 'I' for Inactive)
ROOT
ATOM      1  C   UNL d   1      -1.369   1.115   2.669  0.00  0.00     0.077 C 
ATOM      2  C1  UNL d   1      -0.794   1.722   1.424  0.00  0.00    -0.074 A 
ATOM      3  C2  UNL d   1      -0.841   3.104   1.209  0.00  0.00    -0.005 A 
ATOM      4  C3  UNL d   1      -0.293   3.655   0.051  0.00  0.00     0.006 A 
ATOM      5  C4  UNL d   1       0.306   2.832  -0.903  0.00  0.00    -0.005 A 
ATOM      6  C5  UNL d   1       0.364   1.449  -0.705  0.00  0.00    -0.074 A 
ATOM      7  C6  UNL d   1       1.013   0.551  -1.716  0.00  0.00     0.077 C 
ATOM      8  C7  UNL d   1      -0.183   0.903   0.464  0.00  0.00    -0.001 A 
ENDROOT
TORSDOF 0
ENDMDL
