MODEL 1
REMARK minimizedAffinity -1.27083087
REMARK minimizedRMSD -1
REMARK  0 active torsions:
REMARK  status: ('A' for Active; 'I' for Inactive)
ROOT
ATOM      1  C   UNL d   1       0.625  -1.408  -0.537  0.00  0.00     0.077 C 
ATOM      2  C1  UNL d   1       0.125  -0.254   0.280  0.00  0.00    -0.074 A 
ATOM      3  C2  UNL d   1      -0.516  -0.465   1.505  0.00  0.00    -0.005 A 
ATOM      4  C3  UNL d   1      -0.967   0.618   2.259  0.00  0.00     0.006 A 
ATOM      5  C4  UNL d   1      -0.783   1.921   1.796  0.00  0.00    -0.005 A 
ATOM      6  C5  UNL d   1      -0.144   2.152   0.574  0.00  0.00    -0.074 A 
ATOM      7  C6  UNL d   1       0.071   3.547   0.066  0.00  0.00     0.077 C 
ATOM      8  C7  UNL d   1       0.313   1.059  -0.174  0.00  0.00    -0.001 A 
ENDROOT
TORSDOF 0
ENDMDL
