MODEL 1
REMARK minimizedAffinity -3.40439606
REMARK minimizedRMSD -1
REMARK  0 active torsions:
REMARK  status: ('A' for Active; 'I' for Inactive)
ROOT
ATOM      1  C   UNL d   1       1.118  -1.338  -1.280  0.00  0.00     0.077 C 
ATOM      2  C1  UNL d   1       0.437  -0.337  -0.395  0.00  0.00    -0.074 A 
ATOM      3  C2  UNL d   1      -0.128  -0.722   0.825  0.00  0.00    -0.005 A 
ATOM      4  C3  UNL d   1      -0.749   0.223   1.642  0.00  0.00     0.006 A 
ATOM      5  C4  UNL d   1      -0.812   1.560   1.248  0.00  0.00    -0.005 A 
ATOM      6  C5  UNL d   1      -0.252   1.964   0.032  0.00  0.00    -0.074 A 
ATOM      7  C6  UNL d   1      -0.302   3.399  -0.402  0.00  0.00     0.077 C 
ATOM      8  C7  UNL d   1       0.377   1.010  -0.780  0.00  0.00    -0.001 A 
ENDROOT
TORSDOF 0
ENDMDL
