MODEL 1
REMARK minimizedAffinity -4.37060261
REMARK minimizedRMSD -1
REMARK  0 active torsions:
REMARK  status: ('A' for Active; 'I' for Inactive)
ROOT
ATOM      1  C   UNL d   1      -0.121  -0.695   1.062  0.00  0.00     0.077 C 
ATOM      2  C1  UNL d   1      -0.586   0.724   0.925  0.00  0.00    -0.074 A 
ATOM      3  C2  UNL d   1      -1.469   1.285   1.853  0.00  0.00    -0.005 A 
ATOM      4  C3  UNL d   1      -1.885   2.609   1.718  0.00  0.00     0.006 A 
ATOM      5  C4  UNL d   1      -1.423   3.385   0.654  0.00  0.00    -0.005 A 
ATOM      6  C5  UNL d   1      -0.539   2.843  -0.284  0.00  0.00    -0.074 A 
ATOM      7  C6  UNL d   1      -0.025   3.666  -1.427  0.00  0.00     0.077 C 
ATOM      8  C7  UNL d   1      -0.120   1.513  -0.137  0.00  0.00    -0.001 A 
ENDROOT
TORSDOF 0
ENDMDL
