MODEL 1
REMARK minimizedAffinity -2.2435298
REMARK minimizedRMSD -1
REMARK  0 active torsions:
REMARK  status: ('A' for Active; 'I' for Inactive)
ROOT
ATOM      1  C   UNL d   1      -0.868   3.012   1.414  0.00  0.00     0.077 C 
ATOM      2  C1  UNL d   1      -0.837   1.513   1.418  0.00  0.00    -0.074 A 
ATOM      3  C2  UNL d   1      -1.467   0.783   2.432  0.00  0.00    -0.005 A 
ATOM      4  C3  UNL d   1      -1.438  -0.611   2.417  0.00  0.00     0.006 A 
ATOM      5  C4  UNL d   1      -0.781  -1.289   1.390  0.00  0.00    -0.005 A 
ATOM      6  C5  UNL d   1      -0.146  -0.577   0.367  0.00  0.00    -0.074 A 
ATOM      7  C6  UNL d   1       0.557  -1.290  -0.749  0.00  0.00     0.077 C 
ATOM      8  C7  UNL d   1      -0.185   0.824   0.386  0.00  0.00    -0.001 A 
ENDROOT
TORSDOF 0
ENDMDL
