MODEL 1
REMARK minimizedAffinity -3.13594961
REMARK minimizedRMSD -1
REMARK  0 active torsions:
REMARK  status: ('A' for Active; 'I' for Inactive)
ROOT
ATOM      1  C   UNL d   1       0.141   4.106   0.360  0.00  0.00     0.077 C 
ATOM      2  C1  UNL d   1      -0.145   2.678   0.720  0.00  0.00    -0.074 A 
ATOM      3  C2  UNL d   1      -0.858   2.359   1.881  0.00  0.00    -0.005 A 
ATOM      4  C3  UNL d   1      -1.125   1.028   2.198  0.00  0.00     0.006 A 
ATOM      5  C4  UNL d   1      -0.683   0.003   1.360  0.00  0.00    -0.005 A 
ATOM      6  C5  UNL d   1       0.030   0.303   0.195  0.00  0.00    -0.074 A 
ATOM      7  C6  UNL d   1       0.504  -0.785  -0.722  0.00  0.00     0.077 C 
ATOM      8  C7  UNL d   1       0.289   1.644  -0.121  0.00  0.00    -0.001 A 
ENDROOT
TORSDOF 0
ENDMDL
