MODEL 1
REMARK minimizedAffinity -3.45845461
REMARK minimizedRMSD -1
REMARK  0 active torsions:
REMARK  status: ('A' for Active; 'I' for Inactive)
ROOT
ATOM      1  C   UNL d   1      -0.755  -1.055   2.124  0.00  0.00     0.077 C 
ATOM      2  C1  UNL d   1      -0.186  -0.014   1.207  0.00  0.00    -0.074 A 
ATOM      3  C2  UNL d   1       0.568  -0.378   0.086  0.00  0.00    -0.005 A 
ATOM      4  C3  UNL d   1       1.082   0.600  -0.764  0.00  0.00     0.006 A 
ATOM      5  C4  UNL d   1       0.850   1.951  -0.503  0.00  0.00    -0.005 A 
ATOM      6  C5  UNL d   1       0.098   2.335   0.613  0.00  0.00    -0.074 A 
ATOM      7  C6  UNL d   1      -0.169   3.782   0.903  0.00  0.00     0.077 C 
ATOM      8  C7  UNL d   1      -0.422   1.345   1.458  0.00  0.00    -0.001 A 
ENDROOT
TORSDOF 0
ENDMDL
