MODEL 1
REMARK minimizedAffinity -2.31269383
REMARK minimizedRMSD -1
REMARK  0 active torsions:
REMARK  status: ('A' for Active; 'I' for Inactive)
ROOT
ATOM      1  C   UNL d   1       1.104  -4.595  -0.508  0.00  0.00     0.077 C 
ATOM      2  C1  UNL d   1       0.790  -3.307  -1.209  0.00  0.00    -0.074 A 
ATOM      3  C2  UNL d   1       0.510  -3.284  -2.579  0.00  0.00    -0.005 A 
ATOM      4  C3  UNL d   1       0.210  -2.080  -3.216  0.00  0.00     0.006 A 
ATOM      5  C4  UNL d   1       0.187  -0.888  -2.490  0.00  0.00    -0.005 A 
ATOM      6  C5  UNL d   1       0.463  -0.891  -1.119  0.00  0.00    -0.074 A 
ATOM      7  C6  UNL d   1       0.433   0.379  -0.323  0.00  0.00     0.077 C 
ATOM      8  C7  UNL d   1       0.757  -2.106  -0.485  0.00  0.00    -0.001 A 
ENDROOT
TORSDOF 0
ENDMDL
