MODEL 1
REMARK minimizedAffinity -1.6289587
REMARK minimizedRMSD -1
REMARK  0 active torsions:
REMARK  status: ('A' for Active; 'I' for Inactive)
ROOT
ATOM      1  C   UNL d   1      -1.141   2.610   1.348  0.00  0.00     0.077 C 
ATOM      2  C1  UNL d   1      -0.763   1.159   1.404  0.00  0.00    -0.074 A 
ATOM      3  C2  UNL d   1      -0.998   0.399   2.554  0.00  0.00    -0.005 A 
ATOM      4  C3  UNL d   1      -0.649  -0.951   2.588  0.00  0.00     0.006 A 
ATOM      5  C4  UNL d   1      -0.063  -1.554   1.474  0.00  0.00    -0.005 A 
ATOM      6  C5  UNL d   1       0.178  -0.810   0.315  0.00  0.00    -0.074 A 
ATOM      7  C6  UNL d   1       0.798  -1.444  -0.894  0.00  0.00     0.077 C 
ATOM      8  C7  UNL d   1      -0.181   0.545   0.286  0.00  0.00    -0.001 A 
ENDROOT
TORSDOF 0
ENDMDL
