MODEL 1
REMARK minimizedAffinity -5.00603008
REMARK minimizedRMSD -1
REMARK  0 active torsions:
REMARK  status: ('A' for Active; 'I' for Inactive)
ROOT
ATOM      1  C   UNL d   1       0.316   3.617  -1.077  0.00  0.00     0.077 C 
ATOM      2  C1  UNL d   1       0.025   2.491  -0.130  0.00  0.00    -0.074 A 
ATOM      3  C2  UNL d   1      -0.558   2.734   1.117  0.00  0.00    -0.005 A 
ATOM      4  C3  UNL d   1      -0.832   1.675   1.983  0.00  0.00     0.006 A 
ATOM      5  C4  UNL d   1      -0.527   0.366   1.611  0.00  0.00    -0.005 A 
ATOM      6  C5  UNL d   1       0.056   0.104   0.367  0.00  0.00    -0.074 A 
ATOM      7  C6  UNL d   1       0.381  -1.299  -0.053  0.00  0.00     0.077 C 
ATOM      8  C7  UNL d   1       0.322   1.172  -0.501  0.00  0.00    -0.001 A 
ENDROOT
TORSDOF 0
ENDMDL
