MODEL 1
REMARK minimizedAffinity -1.98657894
REMARK minimizedRMSD -1
REMARK  0 active torsions:
REMARK  status: ('A' for Active; 'I' for Inactive)
ROOT
ATOM      1  C   UNL d   1       0.681  -1.014  -0.793  0.00  0.00     0.077 C 
ATOM      2  C1  UNL d   1      -0.043  -0.138   0.186  0.00  0.00    -0.074 A 
ATOM      3  C2  UNL d   1      -0.777  -0.691   1.240  0.00  0.00    -0.005 A 
ATOM      4  C3  UNL d   1      -1.437   0.137   2.148  0.00  0.00     0.006 A 
ATOM      5  C4  UNL d   1      -1.370   1.524   2.011  0.00  0.00    -0.005 A 
ATOM      6  C5  UNL d   1      -0.641   2.096   0.964  0.00  0.00    -0.074 A 
ATOM      7  C6  UNL d   1      -0.551   3.585   0.808  0.00  0.00     0.077 C 
ATOM      8  C7  UNL d   1       0.026   1.257   0.059  0.00  0.00    -0.001 A 
ENDROOT
TORSDOF 0
ENDMDL
