MODEL 1
REMARK minimizedAffinity -3.24174643
REMARK minimizedRMSD -1
REMARK  0 active torsions:
REMARK  status: ('A' for Active; 'I' for Inactive)
ROOT
ATOM      1  C   UNL d   1      -0.270   3.779   0.566  0.00  0.00     0.077 C 
ATOM      2  C1  UNL d   1      -0.350   2.297   0.782  0.00  0.00    -0.074 A 
ATOM      3  C2  UNL d   1      -0.997   1.768   1.904  0.00  0.00    -0.005 A 
ATOM      4  C3  UNL d   1      -1.072   0.387   2.086  0.00  0.00     0.006 A 
ATOM      5  C4  UNL d   1      -0.500  -0.477   1.152  0.00  0.00    -0.005 A 
ATOM      6  C5  UNL d   1       0.150   0.033   0.024  0.00  0.00    -0.074 A 
ATOM      7  C6  UNL d   1       0.761  -0.882  -0.995  0.00  0.00     0.077 C 
ATOM      8  C7  UNL d   1       0.215   1.422  -0.156  0.00  0.00    -0.001 A 
ENDROOT
TORSDOF 0
ENDMDL
