MODEL 1
REMARK minimizedAffinity -4.79163551
REMARK minimizedRMSD -1
REMARK  0 active torsions:
REMARK  status: ('A' for Active; 'I' for Inactive)
ROOT
ATOM      1  C   UNL d   1       0.088   3.411  -0.143  0.00  0.00     0.077 C 
ATOM      2  C1  UNL d   1      -0.106   1.999   0.325  0.00  0.00    -0.074 A 
ATOM      3  C2  UNL d   1      -0.928   1.711   1.419  0.00  0.00    -0.005 A 
ATOM      4  C3  UNL d   1      -1.107   0.392   1.837  0.00  0.00     0.006 A 
ATOM      5  C4  UNL d   1      -0.467  -0.650   1.166  0.00  0.00    -0.005 A 
ATOM      6  C5  UNL d   1       0.358  -0.382   0.069  0.00  0.00    -0.074 A 
ATOM      7  C6  UNL d   1       1.045  -1.491  -0.670  0.00  0.00     0.077 C 
ATOM      8  C7  UNL d   1       0.527   0.945  -0.349  0.00  0.00    -0.001 A 
ENDROOT
TORSDOF 0
ENDMDL
