MODEL 1
REMARK minimizedAffinity -3.67861986
REMARK minimizedRMSD -1
REMARK  0 active torsions:
REMARK  status: ('A' for Active; 'I' for Inactive)
ROOT
ATOM      1  C   UNL d   1       1.072  -1.142  -0.716  0.00  0.00     0.077 C 
ATOM      2  C1  UNL d   1       0.432  -0.097   0.149  0.00  0.00    -0.074 A 
ATOM      3  C2  UNL d   1      -0.281  -0.453   1.298  0.00  0.00    -0.005 A 
ATOM      4  C3  UNL d   1      -0.863   0.531   2.098  0.00  0.00     0.006 A 
ATOM      5  C4  UNL d   1      -0.738   1.878   1.756  0.00  0.00    -0.005 A 
ATOM      6  C5  UNL d   1      -0.028   2.253   0.611  0.00  0.00    -0.074 A 
ATOM      7  C6  UNL d   1       0.124   3.697   0.235  0.00  0.00     0.077 C 
ATOM      8  C7  UNL d   1       0.560   1.259  -0.183  0.00  0.00    -0.001 A 
ENDROOT
TORSDOF 0
ENDMDL
