MODEL 1
REMARK minimizedAffinity -4.08561659
REMARK minimizedRMSD -1
REMARK  0 active torsions:
REMARK  status: ('A' for Active; 'I' for Inactive)
ROOT
ATOM      1  C   UNL d   1      -0.906  -3.055  -2.337  0.00  0.00     0.077 C 
ATOM      2  C1  UNL d   1      -0.259  -2.181  -1.304  0.00  0.00    -0.074 A 
ATOM      3  C2  UNL d   1       1.073  -1.777  -1.437  0.00  0.00    -0.005 A 
ATOM      4  C3  UNL d   1       1.659  -0.956  -0.473  0.00  0.00     0.006 A 
ATOM      5  C4  UNL d   1       0.920  -0.533   0.632  0.00  0.00    -0.005 A 
ATOM      6  C5  UNL d   1      -0.414  -0.927   0.782  0.00  0.00    -0.074 A 
ATOM      7  C6  UNL d   1      -1.225  -0.473   1.959  0.00  0.00     0.077 C 
ATOM      8  C7  UNL d   1      -0.997  -1.746  -0.195  0.00  0.00    -0.001 A 
ENDROOT
TORSDOF 0
ENDMDL
