MODEL 1
REMARK minimizedAffinity -2.58050132
REMARK minimizedRMSD -1
REMARK  0 active torsions:
REMARK  status: ('A' for Active; 'I' for Inactive)
ROOT
ATOM      1  C   UNL d   1      -0.501   0.249   1.488  0.00  0.00     0.077 C 
ATOM      2  C1  UNL d   1       0.166  -0.402   0.313  0.00  0.00    -0.074 A 
ATOM      3  C2  UNL d   1       1.334   0.135  -0.239  0.00  0.00    -0.005 A 
ATOM      4  C3  UNL d   1       1.949  -0.487  -1.326  0.00  0.00     0.006 A 
ATOM      5  C4  UNL d   1       1.402  -1.650  -1.871  0.00  0.00    -0.005 A 
ATOM      6  C5  UNL d   1       0.236  -2.201  -1.333  0.00  0.00    -0.074 A 
ATOM      7  C6  UNL d   1      -0.359  -3.456  -1.901  0.00  0.00     0.077 C 
ATOM      8  C7  UNL d   1      -0.372  -1.574  -0.236  0.00  0.00    -0.001 A 
ENDROOT
TORSDOF 0
ENDMDL
