MODEL 1
REMARK minimizedAffinity -2.63139415
REMARK minimizedRMSD -1
REMARK  0 active torsions:
REMARK  status: ('A' for Active; 'I' for Inactive)
ROOT
ATOM      1  C   UNL d   1       0.547  -0.660  -0.419  0.00  0.00     0.077 C 
ATOM      2  C1  UNL d   1       0.009   0.562   0.264  0.00  0.00    -0.074 A 
ATOM      3  C2  UNL d   1      -0.700   0.461   1.465  0.00  0.00    -0.005 A 
ATOM      4  C3  UNL d   1      -1.186   1.608   2.093  0.00  0.00     0.006 A 
ATOM      5  C4  UNL d   1      -0.968   2.865   1.527  0.00  0.00    -0.005 A 
ATOM      6  C5  UNL d   1      -0.261   2.985   0.327  0.00  0.00    -0.074 A 
ATOM      7  C6  UNL d   1      -0.009   4.329  -0.290  0.00  0.00     0.077 C 
ATOM      8  C7  UNL d   1       0.231   1.829  -0.294  0.00  0.00    -0.001 A 
ENDROOT
TORSDOF 0
ENDMDL
