MODEL 1
REMARK minimizedAffinity -2.37915874
REMARK minimizedRMSD -1
REMARK  0 active torsions:
REMARK  status: ('A' for Active; 'I' for Inactive)
ROOT
ATOM      1  C2' OXE d   1      -0.130  -1.543  -0.759  0.00  0.00     0.078 C 
ATOM      2  C1' OXE d   1       0.787   0.911   0.250  0.00  0.00     0.078 C 
ATOM      3  C1  OXE d   1      -0.609   0.475   0.621  0.00  0.00    -0.078 A 
ATOM      4  C2  OXE d   1      -1.066  -0.704   0.084  0.00  0.00    -0.078 A 
ATOM      5  C3  OXE d   1      -2.326  -1.179   0.437  0.00  0.00     0.003 A 
ATOM      6  C4  OXE d   1      -3.190  -0.393   1.209  0.00  0.00    -0.002 A 
ATOM      7  C5  OXE d   1      -2.758   0.831   1.733  0.00  0.00    -0.002 A 
ATOM      8  C6  OXE d   1      -1.459   1.258   1.484  0.00  0.00     0.003 A 
ENDROOT
TORSDOF 0
ENDMDL
