MODEL 1
REMARK minimizedAffinity -3.70425797
REMARK minimizedRMSD -1
REMARK  0 active torsions:
REMARK  status: ('A' for Active; 'I' for Inactive)
ROOT
ATOM      1  C2' OXE d   1       0.182   0.728   0.581  0.00  0.00     0.078 C 
ATOM      2  C1' OXE d   1      -0.395  -1.801   1.655  0.00  0.00     0.078 C 
ATOM      3  C1  OXE d   1      -1.446  -0.727   1.780  0.00  0.00    -0.078 A 
ATOM      4  C2  OXE d   1      -1.137   0.521   1.294  0.00  0.00    -0.078 A 
ATOM      5  C3  OXE d   1      -2.092   1.533   1.335  0.00  0.00     0.003 A 
ATOM      6  C4  OXE d   1      -3.306   1.336   2.004  0.00  0.00    -0.002 A 
ATOM      7  C5  OXE d   1      -3.625   0.084   2.542  0.00  0.00    -0.002 A 
ATOM      8  C6  OXE d   1      -2.725  -0.967   2.402  0.00  0.00     0.003 A 
ENDROOT
TORSDOF 0
ENDMDL
