MODEL 1
REMARK minimizedAffinity -3.57621241
REMARK minimizedRMSD -1
REMARK  0 active torsions:
REMARK  status: ('A' for Active; 'I' for Inactive)
ROOT
ATOM      1  C2' OXE d   1      -0.104  -0.021   0.643  0.00  0.00     0.078 C 
ATOM      2  C1' OXE d   1       0.464  -2.714   0.090  0.00  0.00     0.078 C 
ATOM      3  C1  OXE d   1       1.090  -1.666  -0.797  0.00  0.00    -0.078 A 
ATOM      4  C2  OXE d   1       0.770  -0.353  -0.548  0.00  0.00    -0.078 A 
ATOM      5  C3  OXE d   1       1.362   0.656  -1.301  0.00  0.00     0.003 A 
ATOM      6  C4  OXE d   1       2.161   0.339  -2.407  0.00  0.00    -0.002 A 
ATOM      7  C5  OXE d   1       2.468  -0.993  -2.703  0.00  0.00    -0.002 A 
ATOM      8  C6  OXE d   1       1.976  -2.004  -1.884  0.00  0.00     0.003 A 
ENDROOT
TORSDOF 0
ENDMDL
