MODEL 1
REMARK minimizedAffinity -4.25252342
REMARK minimizedRMSD -1
REMARK  0 active torsions:
REMARK  status: ('A' for Active; 'I' for Inactive)
ROOT
ATOM      1  C2' OXE d   1       2.159  -0.730  -3.192  0.00  0.00     0.078 C 
ATOM      2  C1' OXE d   1       3.863   0.664  -1.450  0.00  0.00     0.078 C 
ATOM      3  C1  OXE d   1       2.446   0.414  -0.997  0.00  0.00    -0.078 A 
ATOM      4  C2  OXE d   1       1.606  -0.228  -1.875  0.00  0.00    -0.078 A 
ATOM      5  C3  OXE d   1       0.305  -0.532  -1.487  0.00  0.00     0.003 A 
ATOM      6  C4  OXE d   1      -0.202  -0.055  -0.271  0.00  0.00    -0.002 A 
ATOM      7  C5  OXE d   1       0.626   0.635   0.621  0.00  0.00    -0.002 A 
ATOM      8  C6  OXE d   1       1.961   0.840   0.292  0.00  0.00     0.003 A 
ENDROOT
TORSDOF 0
ENDMDL
