MODEL 1
REMARK minimizedAffinity -3.10750937
REMARK minimizedRMSD -1
REMARK  0 active torsions:
REMARK  status: ('A' for Active; 'I' for Inactive)
ROOT
ATOM      1  C2' OXE d   1       1.668  -0.209  -3.255  0.00  0.00     0.078 C 
ATOM      2  C1' OXE d   1       2.610   1.678  -1.402  0.00  0.00     0.078 C 
ATOM      3  C1  OXE d   1       1.522   0.734  -0.954  0.00  0.00    -0.078 A 
ATOM      4  C2  OXE d   1       1.034  -0.155  -1.881  0.00  0.00    -0.078 A 
ATOM      5  C3  OXE d   1       0.069  -1.084  -1.504  0.00  0.00     0.003 A 
ATOM      6  C4  OXE d   1      -0.518  -1.021  -0.235  0.00  0.00    -0.002 A 
ATOM      7  C5  OXE d   1      -0.064  -0.097   0.712  0.00  0.00    -0.002 A 
ATOM      8  C6  OXE d   1       0.982   0.757   0.383  0.00  0.00     0.003 A 
ENDROOT
TORSDOF 0
ENDMDL
