MODEL 1
REMARK minimizedAffinity -2.9958725
REMARK minimizedRMSD -1
REMARK  0 active torsions:
REMARK  status: ('A' for Active; 'I' for Inactive)
ROOT
ATOM      1  C2' OXE d   1       0.559  -0.339  -1.038  0.00  0.00     0.078 C 
ATOM      2  C1' OXE d   1      -0.178  -1.254   1.512  0.00  0.00     0.078 C 
ATOM      3  C1  OXE d   1      -1.136  -0.342   0.787  0.00  0.00    -0.078 A 
ATOM      4  C2  OXE d   1      -0.747   0.138  -0.440  0.00  0.00    -0.078 A 
ATOM      5  C3  OXE d   1      -1.617   0.939  -1.175  0.00  0.00     0.003 A 
ATOM      6  C4  OXE d   1      -2.818   1.384  -0.611  0.00  0.00    -0.002 A 
ATOM      7  C5  OXE d   1      -3.216   0.939   0.654  0.00  0.00    -0.002 A 
ATOM      8  C6  OXE d   1      -2.408   0.044   1.347  0.00  0.00     0.003 A 
ENDROOT
TORSDOF 0
ENDMDL
