MODEL 1
REMARK minimizedAffinity -3.22703147
REMARK minimizedRMSD -1
REMARK  0 active torsions:
REMARK  status: ('A' for Active; 'I' for Inactive)
ROOT
ATOM      1  C2' OXE d   1      -1.416   0.286   1.645  0.00  0.00     0.078 C 
ATOM      2  C1' OXE d   1      -1.080   1.829  -0.676  0.00  0.00     0.078 C 
ATOM      3  C1  OXE d   1      -0.608   0.396  -0.708  0.00  0.00    -0.078 A 
ATOM      4  C2  OXE d   1      -0.734  -0.337   0.447  0.00  0.00    -0.078 A 
ATOM      5  C3  OXE d   1      -0.366  -1.680   0.455  0.00  0.00     0.003 A 
ATOM      6  C4  OXE d   1       0.274  -2.246  -0.655  0.00  0.00    -0.002 A 
ATOM      7  C5  OXE d   1       0.448  -1.504  -1.828  0.00  0.00    -0.002 A 
ATOM      8  C6  OXE d   1      -0.025  -0.198  -1.886  0.00  0.00     0.003 A 
ENDROOT
TORSDOF 0
ENDMDL
