MODEL 1
REMARK minimizedAffinity -1.11355948
REMARK minimizedRMSD -1
REMARK  0 active torsions:
REMARK  status: ('A' for Active; 'I' for Inactive)
ROOT
ATOM      1  C2' OXE d   1      -5.947   2.133  -5.888  0.00  0.00     0.078 C 
ATOM      2  C1' OXE d   1      -3.219   2.253  -5.237  0.00  0.00     0.078 C 
ATOM      3  C1  OXE d   1      -3.945   3.555  -5.466  0.00  0.00    -0.078 A 
ATOM      4  C2  OXE d   1      -5.268   3.485  -5.829  0.00  0.00    -0.078 A 
ATOM      5  C3  OXE d   1      -6.000   4.657  -5.999  0.00  0.00     0.003 A 
ATOM      6  C4  OXE d   1      -5.362   5.903  -5.953  0.00  0.00    -0.002 A 
ATOM      7  C5  OXE d   1      -4.006   5.995  -5.623  0.00  0.00    -0.002 A 
ATOM      8  C6  OXE d   1      -3.295   4.836  -5.335  0.00  0.00     0.003 A 
ENDROOT
TORSDOF 0
ENDMDL
