MODEL 1
REMARK minimizedAffinity -3.67915893
REMARK minimizedRMSD -1
REMARK  0 active torsions:
REMARK  status: ('A' for Active; 'I' for Inactive)
ROOT
ATOM      1  C2' OXE d   1      -4.364   0.811   1.582  0.00  0.00     0.078 C 
ATOM      2  C1' OXE d   1      -1.622   0.335   1.945  0.00  0.00     0.078 C 
ATOM      3  C1  OXE d   1      -2.199   1.602   2.525  0.00  0.00    -0.078 A 
ATOM      4  C2  OXE d   1      -3.532   1.850   2.302  0.00  0.00    -0.078 A 
ATOM      5  C3  OXE d   1      -4.127   2.977   2.862  0.00  0.00     0.003 A 
ATOM      6  C4  OXE d   1      -3.348   3.937   3.518  0.00  0.00    -0.002 A 
ATOM      7  C5  OXE d   1      -1.981   3.724   3.722  0.00  0.00    -0.002 A 
ATOM      8  C6  OXE d   1      -1.400   2.544   3.269  0.00  0.00     0.003 A 
ENDROOT
TORSDOF 0
ENDMDL
