MODEL 1
REMARK minimizedAffinity -1.88428307
REMARK minimizedRMSD -1
REMARK  0 active torsions:
REMARK  status: ('A' for Active; 'I' for Inactive)
ROOT
ATOM      1  C2' OXE d   1      -1.061  -0.226   1.060  0.00  0.00     0.078 C 
ATOM      2  C1' OXE d   1      -3.810  -0.765   0.889  0.00  0.00     0.078 C 
ATOM      3  C1  OXE d   1      -3.387   0.548   1.499  0.00  0.00    -0.078 A 
ATOM      4  C2  OXE d   1      -2.039   0.783   1.622  0.00  0.00    -0.078 A 
ATOM      5  C3  OXE d   1      -1.595   2.001   2.127  0.00  0.00     0.003 A 
ATOM      6  C4  OXE d   1      -2.506   2.925   2.654  0.00  0.00    -0.002 A 
ATOM      7  C5  OXE d   1      -3.883   2.688   2.575  0.00  0.00    -0.002 A 
ATOM      8  C6  OXE d   1      -4.340   1.525   1.964  0.00  0.00     0.003 A 
ENDROOT
TORSDOF 0
ENDMDL
