MODEL 1
REMARK minimizedAffinity -4.80518961
REMARK minimizedRMSD -1
REMARK  0 active torsions:
REMARK  status: ('A' for Active; 'I' for Inactive)
ROOT
ATOM      1  C2' OXE d   1       0.401  -2.559  -1.509  0.00  0.00     0.078 C 
ATOM      2  C1' OXE d   1       1.597  -0.364  -2.787  0.00  0.00     0.078 C 
ATOM      3  C1  OXE d   1       0.965  -0.134  -1.437  0.00  0.00    -0.078 A 
ATOM      4  C2  OXE d   1       0.341  -1.203  -0.840  0.00  0.00    -0.078 A 
ATOM      5  C3  OXE d   1      -0.209  -1.058   0.430  0.00  0.00     0.003 A 
ATOM      6  C4  OXE d   1      -0.269   0.201   1.038  0.00  0.00    -0.002 A 
ATOM      7  C5  OXE d   1       0.326   1.312   0.429  0.00  0.00    -0.002 A 
ATOM      8  C6  OXE d   1       0.983   1.153  -0.786  0.00  0.00     0.003 A 
ENDROOT
TORSDOF 0
ENDMDL
