MODEL 1
REMARK minimizedAffinity -0.81855911
REMARK minimizedRMSD -1
REMARK  0 active torsions:
REMARK  status: ('A' for Active; 'I' for Inactive)
ROOT
ATOM      1  C2' OXE d   1       0.765  -2.454  -0.907  0.00  0.00     0.078 C 
ATOM      2  C1' OXE d   1       1.977  -0.185  -2.032  0.00  0.00     0.078 C 
ATOM      3  C1  OXE d   1       1.045   0.021  -0.863  0.00  0.00    -0.078 A 
ATOM      4  C2  OXE d   1       0.421  -1.090  -0.349  0.00  0.00    -0.078 A 
ATOM      5  C3  OXE d   1      -0.406  -0.963   0.764  0.00  0.00     0.003 A 
ATOM      6  C4  OXE d   1      -0.727   0.304   1.267  0.00  0.00    -0.002 A 
ATOM      7  C5  OXE d   1      -0.132   1.452   0.733  0.00  0.00    -0.002 A 
ATOM      8  C6  OXE d   1       0.787   1.324  -0.302  0.00  0.00     0.003 A 
ENDROOT
TORSDOF 0
ENDMDL
