MODEL 1
REMARK minimizedAffinity -2.34138441
REMARK minimizedRMSD -1
REMARK  0 active torsions:
REMARK  status: ('A' for Active; 'I' for Inactive)
ROOT
ATOM      1  C2' OXE d   1      -3.611  -0.399   0.793  0.00  0.00     0.078 C 
ATOM      2  C1' OXE d   1      -0.969  -0.241   1.729  0.00  0.00     0.078 C 
ATOM      3  C1  OXE d   1      -1.903   0.896   2.062  0.00  0.00    -0.078 A 
ATOM      4  C2  OXE d   1      -3.180   0.832   1.561  0.00  0.00    -0.078 A 
ATOM      5  C3  OXE d   1      -4.098   1.828   1.884  0.00  0.00     0.003 A 
ATOM      6  C4  OXE d   1      -3.688   2.969   2.585  0.00  0.00    -0.002 A 
ATOM      7  C5  OXE d   1      -2.381   3.072   3.071  0.00  0.00    -0.002 A 
ATOM      8  C6  OXE d   1      -1.489   2.027   2.856  0.00  0.00     0.003 A 
ENDROOT
TORSDOF 0
ENDMDL
