MODEL 1
REMARK minimizedAffinity -3.85215592
REMARK minimizedRMSD -1
REMARK  0 active torsions:
REMARK  status: ('A' for Active; 'I' for Inactive)
ROOT
ATOM      1  C2' OXE d   1      -0.284   0.146   1.248  0.00  0.00     0.078 C 
ATOM      2  C1' OXE d   1       0.395  -2.079  -0.323  0.00  0.00     0.078 C 
ATOM      3  C1  OXE d   1       0.835  -0.718  -0.803  0.00  0.00    -0.078 A 
ATOM      4  C2  OXE d   1       0.458   0.369  -0.052  0.00  0.00    -0.078 A 
ATOM      5  C3  OXE d   1       0.883   1.643  -0.421  0.00  0.00     0.003 A 
ATOM      6  C4  OXE d   1       1.560   1.841  -1.630  0.00  0.00    -0.002 A 
ATOM      7  C5  OXE d   1       1.920   0.751  -2.430  0.00  0.00    -0.002 A 
ATOM      8  C6  OXE d   1       1.602  -0.536  -2.010  0.00  0.00     0.003 A 
ENDROOT
TORSDOF 0
ENDMDL
