MODEL 1
REMARK minimizedAffinity -4.9943819
REMARK minimizedRMSD -1
REMARK  0 active torsions:
REMARK  status: ('A' for Active; 'I' for Inactive)
ROOT
ATOM      1  C2' OXE d   1       0.132  -1.957   1.232  0.00  0.00     0.078 C 
ATOM      2  C1' OXE d   1      -1.378   0.385   1.569  0.00  0.00     0.078 C 
ATOM      3  C1  OXE d   1      -0.739   0.148   0.223  0.00  0.00    -0.078 A 
ATOM      4  C2  OXE d   1       0.036  -0.977   0.082  0.00  0.00    -0.078 A 
ATOM      5  C3  OXE d   1       0.604  -1.272  -1.154  0.00  0.00     0.003 A 
ATOM      6  C4  OXE d   1       0.520  -0.356  -2.210  0.00  0.00    -0.002 A 
ATOM      7  C5  OXE d   1      -0.233   0.815  -2.074  0.00  0.00    -0.002 A 
ATOM      8  C6  OXE d   1      -0.902   1.061  -0.881  0.00  0.00     0.003 A 
ENDROOT
TORSDOF 0
ENDMDL
