MODEL 1
REMARK minimizedAffinity 0.0142837875
REMARK minimizedRMSD -1
REMARK  0 active torsions:
REMARK  status: ('A' for Active; 'I' for Inactive)
ROOT
ATOM      1  C2' OXE d   1       0.155  -2.230   0.440  0.00  0.00     0.078 C 
ATOM      2  C1' OXE d   1      -1.410   0.063   0.856  0.00  0.00     0.078 C 
ATOM      3  C1  OXE d   1      -0.115   0.223   0.101  0.00  0.00    -0.078 A 
ATOM      4  C2  OXE d   1       0.667  -0.896  -0.058  0.00  0.00    -0.078 A 
ATOM      5  C3  OXE d   1       1.846  -0.814  -0.794  0.00  0.00     0.003 A 
ATOM      6  C4  OXE d   1       2.317   0.425  -1.242  0.00  0.00    -0.002 A 
ATOM      7  C5  OXE d   1       1.556   1.584  -1.056  0.00  0.00    -0.002 A 
ATOM      8  C6  OXE d   1       0.320   1.493  -0.426  0.00  0.00     0.003 A 
ENDROOT
TORSDOF 0
ENDMDL
