MODEL 1
REMARK minimizedAffinity 6.09090281
REMARK minimizedRMSD -1
REMARK  0 active torsions:
REMARK  status: ('A' for Active; 'I' for Inactive)
ROOT
ATOM      1  C   UNL d   1       1.501  -0.173   3.191  0.00  0.00     0.023 A 
ATOM      2  C1  UNL d   1       1.432  -1.123   2.172  0.00  0.00     0.003 A 
ATOM      3  C2  UNL d   1       0.437  -2.103   2.196  0.00  0.00     0.048 A 
ATOM      4  C3  UNL d   1      -0.486  -2.126   3.241  0.00  0.00     0.023 A 
ATOM      5  C4  UNL d   1      -0.421  -1.177   4.262  0.00  0.00     0.048 A 
ATOM      6  C5  UNL d   1       0.576  -0.199   4.235  0.00  0.00     0.003 A 
ATOM      7  I   UNL d   1      -1.967  -3.583   3.279  0.00  0.00    -0.146 I 
ENDROOT
TORSDOF 0
ENDMDL
