MODEL 1
REMARK minimizedAffinity 7.22163773
REMARK minimizedRMSD -1
REMARK  0 active torsions:
REMARK  status: ('A' for Active; 'I' for Inactive)
ROOT
ATOM      1  C   UNL d   1       5.267  -3.872  -6.000  0.00  0.00     0.023 A 
ATOM      2  C1  UNL d   1       5.996  -4.249  -4.872  0.00  0.00     0.003 A 
ATOM      3  C2  UNL d   1       5.993  -3.441  -3.734  0.00  0.00     0.048 A 
ATOM      4  C3  UNL d   1       5.258  -2.256  -3.730  0.00  0.00     0.023 A 
ATOM      5  C4  UNL d   1       4.526  -1.874  -4.855  0.00  0.00     0.048 A 
ATOM      6  C5  UNL d   1       4.533  -2.685  -5.991  0.00  0.00     0.003 A 
ATOM      7  I   UNL d   1       5.252  -1.050  -2.037  0.00  0.00    -0.146 I 
ENDROOT
TORSDOF 0
ENDMDL
