MODEL 1
REMARK minimizedAffinity 14.2180758
REMARK minimizedRMSD -1
REMARK  0 active torsions:
REMARK  status: ('A' for Active; 'I' for Inactive)
ROOT
ATOM      1  C   UNL d   1       0.978  -0.573   3.443  0.00  0.00     0.023 A 
ATOM      2  C1  UNL d   1       1.019  -1.309   2.259  0.00  0.00     0.003 A 
ATOM      3  C2  UNL d   1      -0.104  -2.027   1.842  0.00  0.00     0.048 A 
ATOM      4  C3  UNL d   1      -1.265  -2.004   2.614  0.00  0.00     0.023 A 
ATOM      5  C4  UNL d   1      -1.311  -1.268   3.799  0.00  0.00     0.048 A 
ATOM      6  C5  UNL d   1      -0.185  -0.553   4.212  0.00  0.00     0.003 A 
ATOM      7  I   UNL d   1      -2.938  -3.071   1.996  0.00  0.00    -0.146 I 
ENDROOT
TORSDOF 0
ENDMDL
