MODEL 1
REMARK minimizedAffinity 10.4701929
REMARK minimizedRMSD -1
REMARK  0 active torsions:
REMARK  status: ('A' for Active; 'I' for Inactive)
ROOT
ATOM      1  C   UNL d   1      -0.464   2.712  -3.002  0.00  0.00     0.023 A 
ATOM      2  C1  UNL d   1      -1.465   3.362  -3.725  0.00  0.00     0.003 A 
ATOM      3  C2  UNL d   1      -2.712   3.592  -3.141  0.00  0.00     0.048 A 
ATOM      4  C3  UNL d   1      -2.952   3.172  -1.833  0.00  0.00     0.023 A 
ATOM      5  C4  UNL d   1      -1.954   2.522  -1.106  0.00  0.00     0.048 A 
ATOM      6  C5  UNL d   1      -0.709   2.293  -1.694  0.00  0.00     0.003 A 
ATOM      7  I   UNL d   1      -4.808   3.514  -0.962  0.00  0.00    -0.146 I 
ENDROOT
TORSDOF 0
ENDMDL
