MODEL 1
REMARK minimizedAffinity 5.42711258
REMARK minimizedRMSD -1
REMARK  0 active torsions:
REMARK  status: ('A' for Active; 'I' for Inactive)
ROOT
ATOM      1  C   UNL d   1       0.913   2.596  -0.576  0.00  0.00     0.023 A 
ATOM      2  C1  UNL d   1      -0.039   1.737  -1.126  0.00  0.00     0.003 A 
ATOM      3  C2  UNL d   1      -0.780   2.136  -2.240  0.00  0.00     0.048 A 
ATOM      4  C3  UNL d   1      -0.564   3.395  -2.800  0.00  0.00     0.023 A 
ATOM      5  C4  UNL d   1       0.388   4.257  -2.253  0.00  0.00     0.048 A 
ATOM      6  C5  UNL d   1       1.126   3.854  -1.139  0.00  0.00     0.003 A 
ATOM      7  I   UNL d   1      -1.666   3.991  -4.458  0.00  0.00    -0.146 I 
ENDROOT
TORSDOF 0
ENDMDL
