MODEL 1
REMARK minimizedAffinity 6.87016821
REMARK minimizedRMSD -1
REMARK  0 active torsions:
REMARK  status: ('A' for Active; 'I' for Inactive)
ROOT
ATOM      1  C   UNL d   1       0.573  -5.594  -4.012  0.00  0.00     0.023 A 
ATOM      2  C1  UNL d   1       0.717  -5.587  -5.399  0.00  0.00     0.003 A 
ATOM      3  C2  UNL d   1       1.985  -5.703  -5.971  0.00  0.00     0.048 A 
ATOM      4  C3  UNL d   1       3.105  -5.826  -5.150  0.00  0.00     0.023 A 
ATOM      5  C4  UNL d   1       2.966  -5.835  -3.761  0.00  0.00     0.048 A 
ATOM      6  C5  UNL d   1       1.696  -5.718  -3.194  0.00  0.00     0.003 A 
ATOM      7  I   UNL d   1       4.995  -5.999  -5.999  0.00  0.00    -0.146 I 
ENDROOT
TORSDOF 0
ENDMDL
