MODEL 1
REMARK minimizedAffinity 6.31115007
REMARK minimizedRMSD -1
REMARK  0 active torsions:
REMARK  status: ('A' for Active; 'I' for Inactive)
ROOT
ATOM      1  C   UNL d   1      -1.057  -0.448   5.707  0.00  0.00     0.023 A 
ATOM      2  C1  UNL d   1      -0.007  -0.036   4.885  0.00  0.00     0.003 A 
ATOM      3  C2  UNL d   1       0.290  -0.746   3.720  0.00  0.00     0.048 A 
ATOM      4  C3  UNL d   1      -0.468  -1.867   3.382  0.00  0.00     0.023 A 
ATOM      5  C4  UNL d   1      -1.519  -2.282   4.200  0.00  0.00     0.048 A 
ATOM      6  C5  UNL d   1      -1.812  -1.570   5.365  0.00  0.00     0.003 A 
ATOM      7  I   UNL d   1      -0.028  -2.926   1.649  0.00  0.00    -0.146 I 
ENDROOT
TORSDOF 0
ENDMDL
