MODEL 1
REMARK minimizedAffinity 13.2544699
REMARK minimizedRMSD -1
REMARK  0 active torsions:
REMARK  status: ('A' for Active; 'I' for Inactive)
ROOT
ATOM      1  C   UNL d   1       2.404  -1.135   2.265  0.00  0.00     0.023 A 
ATOM      2  C1  UNL d   1       2.369  -0.114   3.214  0.00  0.00     0.003 A 
ATOM      3  C2  UNL d   1       1.328  -0.059   4.143  0.00  0.00     0.048 A 
ATOM      4  C3  UNL d   1       0.325  -1.028   4.117  0.00  0.00     0.023 A 
ATOM      5  C4  UNL d   1       0.357  -2.052   3.169  0.00  0.00     0.048 A 
ATOM      6  C5  UNL d   1       1.400  -2.103   2.242  0.00  0.00     0.003 A 
ATOM      7  I   UNL d   1      -1.226  -0.947   5.498  0.00  0.00    -0.146 I 
ENDROOT
TORSDOF 0
ENDMDL
