MODEL 1
REMARK minimizedAffinity 5.11872768
REMARK minimizedRMSD -1
REMARK  0 active torsions:
REMARK  status: ('A' for Active; 'I' for Inactive)
ROOT
ATOM      1  C   UNL d   1       0.716   2.748  -0.418  0.00  0.00     0.023 A 
ATOM      2  C1  UNL d   1       0.681   4.113  -0.707  0.00  0.00     0.003 A 
ATOM      3  C2  UNL d   1      -0.054   4.578  -1.799  0.00  0.00     0.048 A 
ATOM      4  C3  UNL d   1      -0.752   3.673  -2.598  0.00  0.00     0.023 A 
ATOM      5  C4  UNL d   1      -0.721   2.307  -2.312  0.00  0.00     0.048 A 
ATOM      6  C5  UNL d   1       0.015   1.847  -1.219  0.00  0.00     0.003 A 
ATOM      7  I   UNL d   1      -1.847   4.363  -4.225  0.00  0.00    -0.146 I 
ENDROOT
TORSDOF 0
ENDMDL
