MODEL 1
REMARK minimizedAffinity 13.3149576
REMARK minimizedRMSD -1
REMARK  0 active torsions:
REMARK  status: ('A' for Active; 'I' for Inactive)
ROOT
ATOM      1  C   UNL d   1      -1.873   1.435  -1.949  0.00  0.00     0.023 A 
ATOM      2  C1  UNL d   1      -2.999   1.940  -2.600  0.00  0.00     0.003 A 
ATOM      3  C2  UNL d   1      -2.999   3.251  -3.083  0.00  0.00     0.048 A 
ATOM      4  C3  UNL d   1      -1.869   4.050  -2.913  0.00  0.00     0.023 A 
ATOM      5  C4  UNL d   1      -0.740   3.548  -2.263  0.00  0.00     0.048 A 
ATOM      6  C5  UNL d   1      -0.745   2.238  -1.781  0.00  0.00     0.003 A 
ATOM      7  I   UNL d   1      -1.865   6.000  -3.632  0.00  0.00    -0.146 I 
ENDROOT
TORSDOF 0
ENDMDL
