MODEL 1
REMARK minimizedAffinity 11.3242502
REMARK minimizedRMSD -1
REMARK  0 active torsions:
REMARK  status: ('A' for Active; 'I' for Inactive)
ROOT
ATOM      1  C   UNL d   1       1.139  -0.550   2.712  0.00  0.00     0.023 A 
ATOM      2  C1  UNL d   1       1.094  -1.457   1.654  0.00  0.00     0.003 A 
ATOM      3  C2  UNL d   1      -0.051  -2.228   1.441  0.00  0.00     0.048 A 
ATOM      4  C3  UNL d   1      -1.148  -2.085   2.290  0.00  0.00     0.023 A 
ATOM      5  C4  UNL d   1      -1.108  -1.178   3.349  0.00  0.00     0.048 A 
ATOM      6  C5  UNL d   1       0.039  -0.410   3.559  0.00  0.00     0.003 A 
ATOM      7  I   UNL d   1      -2.853  -3.231   1.974  0.00  0.00    -0.146 I 
ENDROOT
TORSDOF 0
ENDMDL
