MODEL 1
REMARK minimizedAffinity 11.0566416
REMARK minimizedRMSD -1
REMARK  0 active torsions:
REMARK  status: ('A' for Active; 'I' for Inactive)
ROOT
ATOM      1  C   UNL d   1      -1.216  -1.424   2.479  0.00  0.00     0.023 A 
ATOM      2  C1  UNL d   1       0.144  -1.163   2.640  0.00  0.00     0.003 A 
ATOM      3  C2  UNL d   1       1.011  -2.184   3.035  0.00  0.00     0.048 A 
ATOM      4  C3  UNL d   1       0.510  -3.465   3.266  0.00  0.00     0.023 A 
ATOM      5  C4  UNL d   1      -0.851  -3.731   3.106  0.00  0.00     0.048 A 
ATOM      6  C5  UNL d   1      -1.713  -2.706   2.711  0.00  0.00     0.003 A 
ATOM      7  I   UNL d   1       1.798  -4.987   3.854  0.00  0.00    -0.146 I 
ENDROOT
TORSDOF 0
ENDMDL
