MODEL 1
REMARK minimizedAffinity 19.3581314
REMARK minimizedRMSD -1
REMARK  0 active torsions:
REMARK  status: ('A' for Active; 'I' for Inactive)
ROOT
ATOM      1  C   UNL d   1       1.452  -1.809   1.383  0.00  0.00     0.023 A 
ATOM      2  C1  UNL d   1       2.589  -1.009   1.278  0.00  0.00     0.003 A 
ATOM      3  C2  UNL d   1       2.485   0.294   0.785  0.00  0.00     0.048 A 
ATOM      4  C3  UNL d   1       1.240   0.789   0.399  0.00  0.00     0.023 A 
ATOM      5  C4  UNL d   1       0.099  -0.008   0.503  0.00  0.00     0.048 A 
ATOM      6  C5  UNL d   1       0.208  -1.310   0.995  0.00  0.00     0.003 A 
ATOM      7  I   UNL d   1       1.083   2.728  -0.334  0.00  0.00    -0.146 I 
ENDROOT
TORSDOF 0
ENDMDL
