MODEL 1
REMARK minimizedAffinity 23.7820396
REMARK minimizedRMSD -1
REMARK  0 active torsions:
REMARK  status: ('A' for Active; 'I' for Inactive)
ROOT
ATOM      1  C   UNL d   1       1.689  -1.969   2.014  0.00  0.00     0.023 A 
ATOM      2  C1  UNL d   1       2.668  -1.001   1.791  0.00  0.00     0.003 A 
ATOM      3  C2  UNL d   1       2.326   0.219   1.205  0.00  0.00     0.048 A 
ATOM      4  C3  UNL d   1       1.002   0.465   0.844  0.00  0.00     0.023 A 
ATOM      5  C4  UNL d   1       0.018  -0.500   1.066  0.00  0.00     0.048 A 
ATOM      6  C5  UNL d   1       0.365  -1.719   1.651  0.00  0.00     0.003 A 
ATOM      7  I   UNL d   1       0.489   2.280  -0.028  0.00  0.00    -0.146 I 
ENDROOT
TORSDOF 0
ENDMDL
