MODEL 1
REMARK minimizedAffinity 20.4264355
REMARK minimizedRMSD -1
REMARK  0 active torsions:
REMARK  status: ('A' for Active; 'I' for Inactive)
ROOT
ATOM      1  C   UNL d   1       1.823  -1.625   1.446  0.00  0.00     0.023 A 
ATOM      2  C1  UNL d   1       0.492  -1.316   1.162  0.00  0.00     0.003 A 
ATOM      3  C2  UNL d   1       0.153  -0.042   0.700  0.00  0.00     0.048 A 
ATOM      4  C3  UNL d   1       1.150   0.917   0.522  0.00  0.00     0.023 A 
ATOM      5  C4  UNL d   1       2.482   0.612   0.804  0.00  0.00     0.048 A 
ATOM      6  C5  UNL d   1       2.816  -0.662   1.267  0.00  0.00     0.003 A 
ATOM      7  I   UNL d   1       0.648   2.812  -0.167  0.00  0.00    -0.146 I 
ENDROOT
TORSDOF 0
ENDMDL
