MODEL 1
REMARK minimizedAffinity -2.18705034
REMARK minimizedRMSD -1
REMARK  0 active torsions:
REMARK  status: ('A' for Active; 'I' for Inactive)
ROOT
ATOM      1  N1  IND d   1      -3.229  -5.969   1.040  0.00  0.00    -0.196 N 
ATOM      2  C2  IND d   1      -3.416  -5.248   2.186  0.00  0.00     0.054 A 
ATOM      3  C3  IND d   1      -2.593  -4.175   2.205  0.00  0.00    -0.031 A 
ATOM      4  C4  IND d   1      -0.933  -3.355   0.417  0.00  0.00     0.051 A 
ATOM      5  C5  IND d   1      -0.386  -3.703  -0.786  0.00  0.00    -0.031 A 
ATOM      6  C6  IND d   1      -0.769  -4.846  -1.457  0.00  0.00     0.015 A 
ATOM      7  C7  IND d   1      -1.726  -5.681  -0.953  0.00  0.00    -0.016 A 
ATOM      8  C8  IND d   1      -2.277  -5.335   0.272  0.00  0.00    -0.047 A 
ATOM      9  C9  IND d   1      -1.862  -4.198   0.978  0.00  0.00    -0.096 A 
ATOM     10  HN1 IND d   1      -3.637  -6.697   0.833  0.00  0.00     0.298 HD
ENDROOT
TORSDOF 0
ENDMDL
