MODEL 1
REMARK minimizedAffinity -4.38292599
REMARK minimizedRMSD -1
REMARK  0 active torsions:
REMARK  status: ('A' for Active; 'I' for Inactive)
ROOT
ATOM      1  N1  IND d   1       0.079  -5.974  -3.669  0.00  0.00    -0.196 N 
ATOM      2  C2  IND d   1      -0.165  -5.977  -5.014  0.00  0.00     0.054 A 
ATOM      3  C3  IND d   1      -1.496  -6.000  -5.250  0.00  0.00    -0.031 A 
ATOM      4  C4  IND d   1      -3.455  -5.935  -3.580  0.00  0.00     0.051 A 
ATOM      5  C5  IND d   1      -3.731  -5.964  -2.242  0.00  0.00    -0.031 A 
ATOM      6  C6  IND d   1      -2.731  -5.996  -1.292  0.00  0.00     0.015 A 
ATOM      7  C7  IND d   1      -1.411  -5.988  -1.646  0.00  0.00    -0.016 A 
ATOM      8  C8  IND d   1      -1.127  -5.966  -3.004  0.00  0.00    -0.047 A 
ATOM      9  C9  IND d   1      -2.138  -5.977  -3.974  0.00  0.00    -0.096 A 
ATOM     10  HN1 IND d   1       0.856  -5.978  -3.300  0.00  0.00     0.298 HD
ENDROOT
TORSDOF 0
ENDMDL
