MODEL 1
REMARK minimizedAffinity -4.37587214
REMARK minimizedRMSD -1
REMARK  0 active torsions:
REMARK  status: ('A' for Active; 'I' for Inactive)
ROOT
ATOM      1  N1  IND d   1       1.009  -5.303   4.955  0.00  0.00    -0.196 N 
ATOM      2  C2  IND d   1       2.054  -5.390   5.832  0.00  0.00     0.054 A 
ATOM      3  C3  IND d   1       2.842  -4.296   5.734  0.00  0.00    -0.031 A 
ATOM      4  C4  IND d   1       2.549  -2.195   4.275  0.00  0.00     0.051 A 
ATOM      5  C5  IND d   1       1.766  -1.671   3.285  0.00  0.00    -0.031 A 
ATOM      6  C6  IND d   1       0.665  -2.343   2.794  0.00  0.00     0.015 A 
ATOM      7  C7  IND d   1       0.300  -3.565   3.284  0.00  0.00    -0.016 A 
ATOM      8  C8  IND d   1       1.098  -4.103   4.284  0.00  0.00    -0.047 A 
ATOM      9  C9  IND d   1       2.240  -3.445   4.757  0.00  0.00    -0.096 A 
ATOM     10  HN1 IND d   1       0.398  -5.898   4.842  0.00  0.00     0.298 HD
ENDROOT
TORSDOF 0
ENDMDL
