MODEL 1
REMARK minimizedAffinity -3.1988678
REMARK minimizedRMSD -1
REMARK  0 active torsions:
REMARK  status: ('A' for Active; 'I' for Inactive)
ROOT
ATOM      1  N1  IND d   1       1.889  -3.154   2.398  0.00  0.00    -0.196 N 
ATOM      2  C2  IND d   1       1.554  -1.936   2.922  0.00  0.00     0.054 A 
ATOM      3  C3  IND d   1       1.507  -2.001   4.271  0.00  0.00    -0.031 A 
ATOM      4  C4  IND d   1       2.042  -3.976   5.833  0.00  0.00     0.051 A 
ATOM      5  C5  IND d   1       2.359  -5.305   5.819  0.00  0.00    -0.031 A 
ATOM      6  C6  IND d   1       2.542  -5.999   4.640  0.00  0.00     0.015 A 
ATOM      7  C7  IND d   1       2.425  -5.383   3.426  0.00  0.00    -0.016 A 
ATOM      8  C8  IND d   1       2.096  -4.035   3.437  0.00  0.00    -0.047 A 
ATOM      9  C9  IND d   1       1.868  -3.336   4.629  0.00  0.00    -0.096 A 
ATOM     10  HN1 IND d   1       1.958  -3.338   1.561  0.00  0.00     0.298 HD
ENDROOT
TORSDOF 0
ENDMDL
