MODEL 1
REMARK minimizedAffinity -0.10263402
REMARK minimizedRMSD -1
REMARK  0 active torsions:
REMARK  status: ('A' for Active; 'I' for Inactive)
ROOT
ATOM      1  N1  IND d   1      -2.055  -5.855  -3.610  0.00  0.00    -0.196 N 
ATOM      2  C2  IND d   1      -3.226  -5.899  -4.313  0.00  0.00     0.054 A 
ATOM      3  C3  IND d   1      -4.278  -5.992  -3.469  0.00  0.00    -0.031 A 
ATOM      4  C4  IND d   1      -4.315  -5.986  -0.895  0.00  0.00     0.051 A 
ATOM      5  C5  IND d   1      -3.490  -5.999   0.194  0.00  0.00    -0.031 A 
ATOM      6  C6  IND d   1      -2.116  -5.962   0.069  0.00  0.00     0.015 A 
ATOM      7  C7  IND d   1      -1.514  -5.898  -1.156  0.00  0.00    -0.016 A 
ATOM      8  C8  IND d   1      -2.349  -5.891  -2.265  0.00  0.00    -0.047 A 
ATOM      9  C9  IND d   1      -3.743  -5.972  -2.145  0.00  0.00    -0.096 A 
ATOM     10  HN1 IND d   1      -1.266  -5.812  -3.951  0.00  0.00     0.298 HD
ENDROOT
TORSDOF 0
ENDMDL
