MODEL 1
REMARK minimizedAffinity -4.12810898
REMARK minimizedRMSD -1
REMARK  0 active torsions:
REMARK  status: ('A' for Active; 'I' for Inactive)
ROOT
ATOM      1  N1  IND d   1       0.789  -5.297   4.583  0.00  0.00    -0.196 N 
ATOM      2  C2  IND d   1       1.669  -5.459   5.617  0.00  0.00     0.054 A 
ATOM      3  C3  IND d   1       2.576  -4.457   5.624  0.00  0.00    -0.031 A 
ATOM      4  C4  IND d   1       2.744  -2.392   4.096  0.00  0.00     0.051 A 
ATOM      5  C5  IND d   1       2.186  -1.827   2.984  0.00  0.00    -0.031 A 
ATOM      6  C6  IND d   1       1.110  -2.399   2.337  0.00  0.00     0.015 A 
ATOM      7  C7  IND d   1       0.542  -3.558   2.786  0.00  0.00    -0.016 A 
ATOM      8  C8  IND d   1       1.111  -4.139   3.911  0.00  0.00    -0.047 A 
ATOM      9  C9  IND d   1       2.230  -3.585   4.547  0.00  0.00    -0.096 A 
ATOM     10  HN1 IND d   1       0.143  -5.829   4.386  0.00  0.00     0.298 HD
ENDROOT
TORSDOF 0
ENDMDL
