MODEL 1
REMARK minimizedAffinity 0.748921454
REMARK minimizedRMSD -1
REMARK  0 active torsions:
REMARK  status: ('A' for Active; 'I' for Inactive)
ROOT
ATOM      1  N1  IND d   1      -5.995  -5.995   0.233  0.00  0.00    -0.196 N 
ATOM      2  C2  IND d   1      -5.705  -5.999  -1.103  0.00  0.00     0.054 A 
ATOM      3  C3  IND d   1      -4.519  -5.392  -1.329  0.00  0.00    -0.031 A 
ATOM      4  C4  IND d   1      -2.836  -4.412   0.355  0.00  0.00     0.051 A 
ATOM      5  C5  IND d   1      -2.676  -4.144   1.685  0.00  0.00    -0.031 A 
ATOM      6  C6  IND d   1      -3.631  -4.489   2.619  0.00  0.00     0.015 A 
ATOM      7  C7  IND d   1      -4.783  -5.128   2.256  0.00  0.00    -0.016 A 
ATOM      8  C8  IND d   1      -4.953  -5.395   0.905  0.00  0.00    -0.047 A 
ATOM      9  C9  IND d   1      -4.006  -5.009  -0.052  0.00  0.00    -0.096 A 
ATOM     10  HN1 IND d   1      -6.707  -6.314   0.593  0.00  0.00     0.298 HD
ENDROOT
TORSDOF 0
ENDMDL
