MODEL 1
REMARK minimizedAffinity -6.49083185
REMARK minimizedRMSD -1
REMARK  0 active torsions:
REMARK  status: ('A' for Active; 'I' for Inactive)
ROOT
ATOM      1  N1  IND d   1       0.634  -5.144   3.677  0.00  0.00    -0.196 N 
ATOM      2  C2  IND d   1       1.292  -5.107   4.875  0.00  0.00     0.054 A 
ATOM      3  C3  IND d   1       1.952  -3.935   5.014  0.00  0.00    -0.031 A 
ATOM      4  C4  IND d   1       2.006  -1.893   3.446  0.00  0.00     0.051 A 
ATOM      5  C5  IND d   1       1.588  -1.468   2.216  0.00  0.00    -0.031 A 
ATOM      6  C6  IND d   1       0.813  -2.262   1.395  0.00  0.00     0.015 A 
ATOM      7  C7  IND d   1       0.416  -3.511   1.780  0.00  0.00    -0.016 A 
ATOM      8  C8  IND d   1       0.844  -3.949   3.025  0.00  0.00    -0.047 A 
ATOM      9  C9  IND d   1       1.666  -3.165   3.845  0.00  0.00    -0.096 A 
ATOM     10  HN1 IND d   1       0.168  -5.803   3.381  0.00  0.00     0.298 HD
ENDROOT
TORSDOF 0
ENDMDL
