MODEL 1
REMARK minimizedAffinity -6.20055103
REMARK minimizedRMSD -1
REMARK  0 active torsions:
REMARK  status: ('A' for Active; 'I' for Inactive)
ROOT
ATOM      1  N1  IND d   1       1.056  -5.582   3.583  0.00  0.00    -0.196 N 
ATOM      2  C2  IND d   1       1.544  -5.492   4.857  0.00  0.00     0.054 A 
ATOM      3  C3  IND d   1       1.895  -4.217   5.138  0.00  0.00    -0.031 A 
ATOM      4  C4  IND d   1       1.660  -2.100   3.691  0.00  0.00     0.051 A 
ATOM      5  C5  IND d   1       1.302  -1.685   2.439  0.00  0.00    -0.031 A 
ATOM      6  C6  IND d   1       0.831  -2.565   1.486  0.00  0.00     0.015 A 
ATOM      7  C7  IND d   1       0.690  -3.897   1.755  0.00  0.00    -0.016 A 
ATOM      8  C8  IND d   1       1.059  -4.323   3.023  0.00  0.00    -0.047 A 
ATOM      9  C9  IND d   1       1.578  -3.442   3.980  0.00  0.00    -0.096 A 
ATOM     10  HN1 IND d   1       0.791  -6.303   3.197  0.00  0.00     0.298 HD
ENDROOT
TORSDOF 0
ENDMDL
