MODEL 1
REMARK minimizedAffinity -2.03993011
REMARK minimizedRMSD -1
REMARK  0 active torsions:
REMARK  status: ('A' for Active; 'I' for Inactive)
ROOT
ATOM      1  N1  IND d   1      -0.347  -6.000  -5.998  0.00  0.00    -0.196 N 
ATOM      2  C2  IND d   1       1.017  -5.983  -5.899  0.00  0.00     0.054 A 
ATOM      3  C3  IND d   1       1.394  -5.941  -4.602  0.00  0.00    -0.031 A 
ATOM      4  C4  IND d   1      -0.055  -5.994  -2.475  0.00  0.00     0.051 A 
ATOM      5  C5  IND d   1      -1.356  -5.972  -2.057  0.00  0.00    -0.031 A 
ATOM      6  C6  IND d   1      -2.409  -5.961  -2.949  0.00  0.00     0.015 A 
ATOM      7  C7  IND d   1      -2.198  -5.983  -4.299  0.00  0.00    -0.016 A 
ATOM      8  C8  IND d   1      -0.878  -5.998  -4.727  0.00  0.00    -0.047 A 
ATOM      9  C9  IND d   1       0.194  -5.966  -3.826  0.00  0.00    -0.096 A 
ATOM     10  HN1 IND d   1      -0.797  -6.010  -6.731  0.00  0.00     0.298 HD
ENDROOT
TORSDOF 0
ENDMDL
