MODEL 1
REMARK minimizedAffinity -4.65292788
REMARK minimizedRMSD -1
REMARK  0 active torsions:
REMARK  status: ('A' for Active; 'I' for Inactive)
ROOT
ATOM      1  N1  IND d   1      -0.382  -5.487  -3.042  0.00  0.00    -0.196 N 
ATOM      2  C2  IND d   1      -0.366  -5.600  -4.404  0.00  0.00     0.054 A 
ATOM      3  C3  IND d   1      -1.611  -5.845  -4.870  0.00  0.00    -0.031 A 
ATOM      4  C4  IND d   1      -3.837  -5.999  -3.586  0.00  0.00     0.051 A 
ATOM      5  C5  IND d   1      -4.353  -6.000  -2.321  0.00  0.00    -0.031 A 
ATOM      6  C6  IND d   1      -3.556  -5.823  -1.208  0.00  0.00     0.015 A 
ATOM      7  C7  IND d   1      -2.208  -5.627  -1.322  0.00  0.00    -0.016 A 
ATOM      8  C8  IND d   1      -1.680  -5.633  -2.605  0.00  0.00    -0.047 A 
ATOM      9  C9  IND d   1      -2.478  -5.855  -3.735  0.00  0.00    -0.096 A 
ATOM     10  HN1 IND d   1       0.304  -5.348  -2.542  0.00  0.00     0.298 HD
ENDROOT
TORSDOF 0
ENDMDL
