MODEL 1
REMARK minimizedAffinity -4.28154469
REMARK minimizedRMSD -1
REMARK  0 active torsions:
REMARK  status: ('A' for Active; 'I' for Inactive)
ROOT
ATOM      1  N1  IND d   1      -2.359  -5.967  -4.504  0.00  0.00    -0.196 N 
ATOM      2  C2  IND d   1      -1.003  -5.933  -4.337  0.00  0.00     0.054 A 
ATOM      3  C3  IND d   1      -0.692  -5.901  -3.022  0.00  0.00    -0.031 A 
ATOM      4  C4  IND d   1      -2.245  -5.999  -0.971  0.00  0.00     0.051 A 
ATOM      5  C5  IND d   1      -3.565  -6.000  -0.619  0.00  0.00    -0.031 A 
ATOM      6  C6  IND d   1      -4.572  -5.993  -1.563  0.00  0.00     0.015 A 
ATOM      7  C7  IND d   1      -4.294  -5.996  -2.900  0.00  0.00    -0.016 A 
ATOM      8  C8  IND d   1      -2.954  -5.988  -3.261  0.00  0.00    -0.047 A 
ATOM      9  C9  IND d   1      -1.928  -5.952  -2.308  0.00  0.00    -0.096 A 
ATOM     10  HN1 IND d   1      -2.772  -5.975  -5.258  0.00  0.00     0.298 HD
ENDROOT
TORSDOF 0
ENDMDL
