MODEL 1
REMARK minimizedAffinity -3.9104073
REMARK minimizedRMSD -1
REMARK  0 active torsions:
REMARK  status: ('A' for Active; 'I' for Inactive)
ROOT
ATOM      1  N1  IND d   1      -1.377  -5.620  -5.015  0.00  0.00    -0.196 N 
ATOM      2  C2  IND d   1      -1.823  -5.903  -3.755  0.00  0.00     0.054 A 
ATOM      3  C3  IND d   1      -0.782  -6.000  -2.898  0.00  0.00    -0.031 A 
ATOM      4  C4  IND d   1       1.730  -5.632  -3.328  0.00  0.00     0.051 A 
ATOM      5  C5  IND d   1       2.627  -5.392  -4.330  0.00  0.00    -0.031 A 
ATOM      6  C6  IND d   1       2.227  -5.209  -5.638  0.00  0.00     0.015 A 
ATOM      7  C7  IND d   1       0.909  -5.248  -5.992  0.00  0.00    -0.016 A 
ATOM      8  C8  IND d   1      -0.005  -5.499  -4.978  0.00  0.00    -0.047 A 
ATOM      9  C9  IND d   1       0.398  -5.728  -3.656  0.00  0.00    -0.096 A 
ATOM     10  HN1 IND d   1      -1.870  -5.532  -5.714  0.00  0.00     0.298 HD
ENDROOT
TORSDOF 0
ENDMDL
