MODEL 1
REMARK minimizedAffinity 6.76952791
REMARK minimizedRMSD -1
REMARK  0 active torsions:
REMARK  status: ('A' for Active; 'I' for Inactive)
ROOT
ATOM      1  N1  IND d   1       1.154  -1.255   2.401  0.00  0.00    -0.196 N 
ATOM      2  C2  IND d   1       0.962  -0.744   1.148  0.00  0.00     0.054 A 
ATOM      3  C3  IND d   1       2.126  -0.266   0.652  0.00  0.00    -0.031 A 
ATOM      4  C4  IND d   1       4.484  -0.310   1.683  0.00  0.00     0.051 A 
ATOM      5  C5  IND d   1       5.153  -0.642   2.827  0.00  0.00    -0.031 A 
ATOM      6  C6  IND d   1       4.511  -1.210   3.909  0.00  0.00     0.015 A 
ATOM      7  C7  IND d   1       3.172  -1.478   3.882  0.00  0.00    -0.016 A 
ATOM      8  C8  IND d   1       2.488  -1.136   2.724  0.00  0.00    -0.047 A 
ATOM      9  C9  IND d   1       3.126  -0.521   1.640  0.00  0.00    -0.096 A 
ATOM     10  HN1 IND d   1       0.544  -1.595   2.903  0.00  0.00     0.298 HD
ENDROOT
TORSDOF 0
ENDMDL
