MODEL 1
REMARK minimizedAffinity 11.4850712
REMARK minimizedRMSD -1
REMARK  0 active torsions:
REMARK  status: ('A' for Active; 'I' for Inactive)
ROOT
ATOM      1  N1  IND d   1      -4.166   0.011  -2.976  0.00  0.00    -0.196 N 
ATOM      2  C2  IND d   1      -5.134   0.868  -3.421  0.00  0.00     0.054 A 
ATOM      3  C3  IND d   1      -6.000   1.158  -2.424  0.00  0.00    -0.031 A 
ATOM      4  C4  IND d   1      -5.962   0.420   0.042  0.00  0.00     0.051 A 
ATOM      5  C5  IND d   1      -5.292  -0.393   0.913  0.00  0.00    -0.031 A 
ATOM      6  C6  IND d   1      -4.189  -1.126   0.525  0.00  0.00     0.015 A 
ATOM      7  C7  IND d   1      -3.705  -1.063  -0.751  0.00  0.00    -0.016 A 
ATOM      8  C8  IND d   1      -4.387  -0.244  -1.640  0.00  0.00    -0.047 A 
ATOM      9  C9  IND d   1      -5.532   0.468  -1.263  0.00  0.00    -0.096 A 
ATOM     10  HN1 IND d   1      -3.526  -0.313  -3.450  0.00  0.00     0.298 HD
ENDROOT
TORSDOF 0
ENDMDL
