MODEL 1
REMARK minimizedAffinity -0.3825486
REMARK minimizedRMSD -1
REMARK  0 active torsions:
REMARK  status: ('A' for Active; 'I' for Inactive)
ROOT
ATOM      1  N1  IND d   1      -1.053  -5.140  -3.952  0.00  0.00    -0.196 N 
ATOM      2  C2  IND d   1      -1.706  -5.674  -5.027  0.00  0.00     0.054 A 
ATOM      3  C3  IND d   1      -0.825  -6.000  -5.999  0.00  0.00    -0.031 A 
ATOM      4  C4  IND d   1       1.744  -5.839  -5.998  0.00  0.00     0.051 A 
ATOM      5  C5  IND d   1       2.795  -5.381  -5.253  0.00  0.00    -0.031 A 
ATOM      6  C6  IND d   1       2.613  -4.810  -4.010  0.00  0.00     0.015 A 
ATOM      7  C7  IND d   1       1.369  -4.686  -3.458  0.00  0.00    -0.016 A 
ATOM      8  C8  IND d   1       0.300  -5.143  -4.215  0.00  0.00    -0.047 A 
ATOM      9  C9  IND d   1       0.474  -5.684  -5.495  0.00  0.00    -0.096 A 
ATOM     10  HN1 IND d   1      -1.424  -4.850  -3.232  0.00  0.00     0.298 HD
ENDROOT
TORSDOF 0
ENDMDL
