MODEL 1
REMARK minimizedAffinity 10.1618757
REMARK minimizedRMSD -1
REMARK  0 active torsions:
REMARK  status: ('A' for Active; 'I' for Inactive)
ROOT
ATOM      1  N1  IND d   1       1.266  -1.091   2.476  0.00  0.00    -0.196 N 
ATOM      2  C2  IND d   1       1.057  -0.676   1.190  0.00  0.00     0.054 A 
ATOM      3  C3  IND d   1       2.230  -0.352   0.604  0.00  0.00    -0.031 A 
ATOM      4  C4  IND d   1       4.625  -0.521   1.533  0.00  0.00     0.051 A 
ATOM      5  C5  IND d   1       5.320  -0.811   2.673  0.00  0.00    -0.031 A 
ATOM      6  C6  IND d   1       4.687  -1.220   3.829  0.00  0.00     0.015 A 
ATOM      7  C7  IND d   1       3.330  -1.366   3.884  0.00  0.00    -0.016 A 
ATOM      8  C8  IND d   1       2.620  -1.066   2.730  0.00  0.00    -0.047 A 
ATOM      9  C9  IND d   1       3.254  -0.609   1.567  0.00  0.00    -0.096 A 
ATOM     10  HN1 IND d   1       0.655  -1.328   3.033  0.00  0.00     0.298 HD
ENDROOT
TORSDOF 0
ENDMDL
