MODEL 1
REMARK minimizedAffinity -0.221525222
REMARK minimizedRMSD -1
REMARK  0 active torsions:
REMARK  status: ('A' for Active; 'I' for Inactive)
ROOT
ATOM      1  N1  IND d   1      -3.543   0.474  -3.517  0.00  0.00    -0.196 N 
ATOM      2  C2  IND d   1      -3.719   1.829  -3.471  0.00  0.00     0.054 A 
ATOM      3  C3  IND d   1      -4.294   2.189  -2.301  0.00  0.00    -0.031 A 
ATOM      4  C4  IND d   1      -4.938   0.733  -0.279  0.00  0.00     0.051 A 
ATOM      5  C5  IND d   1      -5.002  -0.568   0.135  0.00  0.00    -0.031 A 
ATOM      6  C6  IND d   1      -4.573  -1.609  -0.663  0.00  0.00     0.015 A 
ATOM      7  C7  IND d   1      -4.050  -1.386  -1.905  0.00  0.00    -0.016 A 
ATOM      8  C8  IND d   1      -3.989  -0.066  -2.331  0.00  0.00    -0.047 A 
ATOM      9  C9  IND d   1      -4.463   0.990  -1.543  0.00  0.00    -0.096 A 
ATOM     10  HN1 IND d   1      -3.211   0.034  -4.176  0.00  0.00     0.298 HD
ENDROOT
TORSDOF 0
ENDMDL
