MODEL 1
REMARK minimizedAffinity 8.2014637
REMARK minimizedRMSD -1
REMARK  0 active torsions:
REMARK  status: ('A' for Active; 'I' for Inactive)
ROOT
ATOM      1  C   UNL d   1       0.087   0.130   2.434  0.00  0.00     0.023 A 
ATOM      2  C1  UNL d   1       0.675   0.666   3.580  0.00  0.00     0.003 A 
ATOM      3  C2  UNL d   1       1.127  -0.180   4.595  0.00  0.00     0.048 A 
ATOM      4  C3  UNL d   1       0.989  -1.561   4.457  0.00  0.00     0.023 A 
ATOM      5  C4  UNL d   1       0.403  -2.102   3.311  0.00  0.00     0.048 A 
ATOM      6  C5  UNL d   1      -0.049  -1.252   2.300  0.00  0.00     0.003 A 
ATOM      7  I   UNL d   1       1.661  -2.822   5.966  0.00  0.00    -0.146 I 
ENDROOT
TORSDOF 0
ENDMDL
