MODEL 1
REMARK minimizedAffinity 7.72783089
REMARK minimizedRMSD -1
REMARK  0 active torsions:
REMARK  status: ('A' for Active; 'I' for Inactive)
ROOT
ATOM      1  C   UNL d   1       0.166  -0.504   2.050  0.00  0.00     0.023 A 
ATOM      2  C1  UNL d   1       0.683  -1.009   3.242  0.00  0.00     0.003 A 
ATOM      3  C2  UNL d   1       0.760  -0.193   4.373  0.00  0.00     0.048 A 
ATOM      4  C3  UNL d   1       0.315   1.127   4.304  0.00  0.00     0.023 A 
ATOM      5  C4  UNL d   1      -0.204   1.636   3.113  0.00  0.00     0.048 A 
ATOM      6  C5  UNL d   1      -0.278   0.817   1.985  0.00  0.00     0.003 A 
ATOM      7  I   UNL d   1       0.428   2.343   5.985  0.00  0.00    -0.146 I 
ENDROOT
TORSDOF 0
ENDMDL
