MODEL 1
REMARK minimizedAffinity 18.6647739
REMARK minimizedRMSD -1
REMARK  0 active torsions:
REMARK  status: ('A' for Active; 'I' for Inactive)
ROOT
ATOM      1  C   UNL d   1       1.225   0.149   3.605  0.00  0.00     0.023 A 
ATOM      2  C1  UNL d   1       1.501  -1.192   3.334  0.00  0.00     0.003 A 
ATOM      3  C2  UNL d   1       0.960  -1.802   2.201  0.00  0.00     0.048 A 
ATOM      4  C3  UNL d   1       0.145  -1.066   1.342  0.00  0.00     0.023 A 
ATOM      5  C4  UNL d   1      -0.133   0.276   1.608  0.00  0.00     0.048 A 
ATOM      6  C5  UNL d   1       0.410   0.882   2.743  0.00  0.00     0.003 A 
ATOM      7  I   UNL d   1      -0.662  -1.972  -0.346  0.00  0.00    -0.146 I 
ENDROOT
TORSDOF 0
ENDMDL
