MODEL 1
REMARK minimizedAffinity 9.45319366
REMARK minimizedRMSD -1
REMARK  0 active torsions:
REMARK  status: ('A' for Active; 'I' for Inactive)
ROOT
ATOM      1  C   UNL d   1       2.228  -0.558  -4.882  0.00  0.00     0.023 A 
ATOM      2  C1  UNL d   1       1.852  -0.198  -3.588  0.00  0.00     0.003 A 
ATOM      3  C2  UNL d   1       0.549  -0.435  -3.147  0.00  0.00     0.048 A 
ATOM      4  C3  UNL d   1      -0.373  -1.034  -4.004  0.00  0.00     0.023 A 
ATOM      5  C4  UNL d   1      -0.002  -1.397  -5.299  0.00  0.00     0.048 A 
ATOM      6  C5  UNL d   1       1.302  -1.157  -5.737  0.00  0.00     0.003 A 
ATOM      7  I   UNL d   1      -2.313  -1.389  -3.348  0.00  0.00    -0.146 I 
ENDROOT
TORSDOF 0
ENDMDL
