MODEL 1
REMARK minimizedAffinity 19.1229668
REMARK minimizedRMSD -1
REMARK  0 active torsions:
REMARK  status: ('A' for Active; 'I' for Inactive)
ROOT
ATOM      1  C   UNL d   1      -1.260  -2.244  -1.765  0.00  0.00     0.023 A 
ATOM      2  C1  UNL d   1      -1.467  -0.974  -2.304  0.00  0.00     0.003 A 
ATOM      3  C2  UNL d   1      -0.608  -0.485  -3.291  0.00  0.00     0.048 A 
ATOM      4  C3  UNL d   1       0.454  -1.271  -3.735  0.00  0.00     0.023 A 
ATOM      5  C4  UNL d   1       0.665  -2.543  -3.199  0.00  0.00     0.048 A 
ATOM      6  C5  UNL d   1      -0.196  -3.027  -2.212  0.00  0.00     0.003 A 
ATOM      7  I   UNL d   1       1.733  -0.545  -5.203  0.00  0.00    -0.146 I 
ENDROOT
TORSDOF 0
ENDMDL
