MODEL 1
REMARK minimizedAffinity 7.29816294
REMARK minimizedRMSD -1
REMARK  0 active torsions:
REMARK  status: ('A' for Active; 'I' for Inactive)
ROOT
ATOM      1  C   UNL d   1       4.174   5.492   0.643  0.00  0.00     0.023 A 
ATOM      2  C1  UNL d   1       4.178   4.116   0.417  0.00  0.00     0.003 A 
ATOM      3  C2  UNL d   1       4.581   3.242   1.430  0.00  0.00     0.048 A 
ATOM      4  C3  UNL d   1       4.979   3.752   2.665  0.00  0.00     0.023 A 
ATOM      5  C4  UNL d   1       4.976   5.129   2.895  0.00  0.00     0.048 A 
ATOM      6  C5  UNL d   1       4.573   5.998   1.880  0.00  0.00     0.003 A 
ATOM      7  I   UNL d   1       5.579   2.455   4.173  0.00  0.00    -0.146 I 
ENDROOT
TORSDOF 0
ENDMDL
