MODEL 1
REMARK minimizedAffinity 14.4798489
REMARK minimizedRMSD -1
REMARK  0 active torsions:
REMARK  status: ('A' for Active; 'I' for Inactive)
ROOT
ATOM      1  C   UNL d   1      -0.061  -0.059   1.994  0.00  0.00     0.023 A 
ATOM      2  C1  UNL d   1      -0.741   1.155   2.096  0.00  0.00     0.003 A 
ATOM      3  C2  UNL d   1      -0.608   1.937   3.245  0.00  0.00     0.048 A 
ATOM      4  C3  UNL d   1       0.208   1.499   4.288  0.00  0.00     0.023 A 
ATOM      5  C4  UNL d   1       0.891   0.286   4.190  0.00  0.00     0.048 A 
ATOM      6  C5  UNL d   1       0.754  -0.493   3.040  0.00  0.00     0.003 A 
ATOM      7  I   UNL d   1       0.408   2.661   6.000  0.00  0.00    -0.146 I 
ENDROOT
TORSDOF 0
ENDMDL
