MODEL 1
REMARK minimizedAffinity 17.3369541
REMARK minimizedRMSD -1
REMARK  0 active torsions:
REMARK  status: ('A' for Active; 'I' for Inactive)
ROOT
ATOM      1  C   UNL d   1       1.203   0.505   2.867  0.00  0.00     0.023 A 
ATOM      2  C1  UNL d   1       0.302   1.147   2.018  0.00  0.00     0.003 A 
ATOM      3  C2  UNL d   1      -0.356   0.424   1.020  0.00  0.00     0.048 A 
ATOM      4  C3  UNL d   1      -0.108  -0.941   0.878  0.00  0.00     0.023 A 
ATOM      5  C4  UNL d   1       0.792  -1.588   1.726  0.00  0.00     0.048 A 
ATOM      6  C5  UNL d   1       1.448  -0.861   2.722  0.00  0.00     0.003 A 
ATOM      7  I   UNL d   1      -1.086  -2.019  -0.606  0.00  0.00    -0.146 I 
ENDROOT
TORSDOF 0
ENDMDL
