MODEL 1
REMARK minimizedAffinity 14.1127329
REMARK minimizedRMSD -1
REMARK  0 active torsions:
REMARK  status: ('A' for Active; 'I' for Inactive)
ROOT
ATOM      1  C   UNL d   1      -5.226   2.224  -0.750  0.00  0.00     0.023 A 
ATOM      2  C1  UNL d   1      -5.459   1.208  -1.677  0.00  0.00     0.003 A 
ATOM      3  C2  UNL d   1      -4.866  -0.045  -1.506  0.00  0.00     0.048 A 
ATOM      4  C3  UNL d   1      -4.043  -0.275  -0.404  0.00  0.00     0.023 A 
ATOM      5  C4  UNL d   1      -3.808   0.738   0.527  0.00  0.00     0.048 A 
ATOM      6  C5  UNL d   1      -4.402   1.989   0.350  0.00  0.00     0.003 A 
ATOM      7  I   UNL d   1      -3.160  -2.139  -0.147  0.00  0.00    -0.146 I 
ENDROOT
TORSDOF 0
ENDMDL
