MODEL 1
REMARK minimizedAffinity 14.1416779
REMARK minimizedRMSD -1
REMARK  0 active torsions:
REMARK  status: ('A' for Active; 'I' for Inactive)
ROOT
ATOM      1  C   UNL d   1       1.201  -1.153  -5.836  0.00  0.00     0.023 A 
ATOM      2  C1  UNL d   1       1.245  -0.349  -4.696  0.00  0.00     0.003 A 
ATOM      3  C2  UNL d   1       0.383  -0.605  -3.627  0.00  0.00     0.048 A 
ATOM      4  C3  UNL d   1      -0.518  -1.666  -3.704  0.00  0.00     0.023 A 
ATOM      5  C4  UNL d   1      -0.564  -2.473  -4.842  0.00  0.00     0.048 A 
ATOM      6  C5  UNL d   1       0.298  -2.213  -5.909  0.00  0.00     0.003 A 
ATOM      7  I   UNL d   1      -1.800  -2.049  -2.114  0.00  0.00    -0.146 I 
ENDROOT
TORSDOF 0
ENDMDL
