MODEL 1
REMARK minimizedAffinity -0.742034018
REMARK minimizedRMSD -1
REMARK  3 active torsions:
REMARK  status: ('A' for Active; 'I' for Inactive)
REMARK    1  A    between atoms: C3'_2  and  C2'_3 
REMARK    2  A    between atoms: C2'_3  and  C1'_4 
REMARK    3  A    between atoms: C1'_4  and  C1_5 
ROOT
ATOM      1  C1  N4B d   1      -2.131   5.992  -2.995  0.00  0.00    -0.075 A 
ATOM      2  C2  N4B d   1      -2.851   5.998  -4.210  0.00  0.00     0.002 A 
ATOM      3  C3  N4B d   1      -4.224   6.000  -4.195  0.00  0.00     0.002 A 
ATOM      4  C4  N4B d   1      -4.897   5.977  -2.983  0.00  0.00    -0.004 A 
ATOM      5  C5  N4B d   1      -4.195   5.997  -1.813  0.00  0.00     0.002 A 
ATOM      6  C6  N4B d   1      -2.814   6.000  -1.813  0.00  0.00     0.002 A 
ENDROOT
BRANCH   1   7
ATOM      7  C1' N4B d   1      -0.630   5.904  -2.961  0.00  0.00     0.057 C 
BRANCH   7   8
ATOM      8  C2' N4B d   1      -0.095   5.925  -4.390  0.00  0.00     0.009 C 
BRANCH   8   9
ATOM      9  C3' N4B d   1       0.986   4.880  -4.607  0.00  0.00     0.004 C 
ATOM     10  C4' N4B d   1       2.327   5.484  -4.901  0.00  0.00     0.003 C 
ENDBRANCH   8   9
ENDBRANCH   7   8
ENDBRANCH   1   7
TORSDOF 3
ENDMDL
