MODEL 1
REMARK minimizedAffinity 8.8515234
REMARK minimizedRMSD -1
REMARK  3 active torsions:
REMARK  status: ('A' for Active; 'I' for Inactive)
REMARK    1  A    between atoms: C3'_2  and  C2'_3 
REMARK    2  A    between atoms: C2'_3  and  C1'_4 
REMARK    3  A    between atoms: C1'_4  and  C1_5 
ROOT
ATOM      1  C1  N4B d   1       0.848   1.029  -1.066  0.00  0.00    -0.075 A 
ATOM      2  C2  N4B d   1       1.700   1.733  -0.187  0.00  0.00     0.002 A 
ATOM      3  C3  N4B d   1       1.997   1.209   1.047  0.00  0.00     0.002 A 
ATOM      4  C4  N4B d   1       1.441  -0.002   1.430  0.00  0.00    -0.004 A 
ATOM      5  C5  N4B d   1       0.639  -0.688   0.565  0.00  0.00     0.002 A 
ATOM      6  C6  N4B d   1       0.335  -0.175  -0.680  0.00  0.00     0.002 A 
ENDROOT
BRANCH   1   7
ATOM      7  C1' N4B d   1       0.426   1.602  -2.391  0.00  0.00     0.057 C 
BRANCH   7   8
ATOM      8  C2' N4B d   1       0.498   3.125  -2.324  0.00  0.00     0.009 C 
BRANCH   8   9
ATOM      9  C3' N4B d   1      -0.614   3.782  -3.124  0.00  0.00     0.004 C 
ATOM     10  C4' N4B d   1      -1.256   4.924  -2.395  0.00  0.00     0.003 C 
ENDBRANCH   8   9
ENDBRANCH   7   8
ENDBRANCH   1   7
TORSDOF 3
ENDMDL
