MODEL 1
REMARK minimizedAffinity 5.02658272
REMARK minimizedRMSD -1
REMARK  3 active torsions:
REMARK  status: ('A' for Active; 'I' for Inactive)
REMARK    1  A    between atoms: C3'_2  and  C2'_3 
REMARK    2  A    between atoms: C2'_3  and  C1'_4 
REMARK    3  A    between atoms: C1'_4  and  C1_5 
ROOT
ATOM      1  C1  N4B d   1       1.815   1.351   0.613  0.00  0.00    -0.075 A 
ATOM      2  C2  N4B d   1       1.200   1.377  -0.658  0.00  0.00     0.002 A 
ATOM      3  C3  N4B d   1       0.024   0.699  -0.865  0.00  0.00     0.002 A 
ATOM      4  C4  N4B d   1      -0.543  -0.024   0.174  0.00  0.00    -0.004 A 
ATOM      5  C5  N4B d   1       0.044  -0.024   1.405  0.00  0.00     0.002 A 
ATOM      6  C6  N4B d   1       1.224   0.657   1.629  0.00  0.00     0.002 A 
ENDROOT
BRANCH   1   7
ATOM      7  C1' N4B d   1       3.146   2.005   0.865  0.00  0.00     0.057 C 
BRANCH   7   8
ATOM      8  C2' N4B d   1       3.977   1.115   1.783  0.00  0.00     0.009 C 
BRANCH   8   9
ATOM      9  C3' N4B d   1       5.449   1.489   1.759  0.00  0.00     0.004 C 
ATOM     10  C4' N4B d   1       5.750   2.597   0.795  0.00  0.00     0.003 C 
ENDBRANCH   8   9
ENDBRANCH   7   8
ENDBRANCH   1   7
TORSDOF 3
ENDMDL
