MODEL 1
REMARK minimizedAffinity -0.505486965
REMARK minimizedRMSD -1
REMARK  3 active torsions:
REMARK  status: ('A' for Active; 'I' for Inactive)
REMARK    1  A    between atoms: C3'_2  and  C2'_3 
REMARK    2  A    between atoms: C2'_3  and  C1'_4 
REMARK    3  A    between atoms: C1'_4  and  C1_5 
ROOT
ATOM      1  C1  N4B d   1      -0.780   5.953  -3.941  0.00  0.00    -0.075 A 
ATOM      2  C2  N4B d   1      -2.162   5.971  -4.231  0.00  0.00     0.002 A 
ATOM      3  C3  N4B d   1      -3.078   5.999  -3.208  0.00  0.00     0.002 A 
ATOM      4  C4  N4B d   1      -2.637   5.990  -1.893  0.00  0.00    -0.004 A 
ATOM      5  C5  N4B d   1      -1.300   5.998  -1.622  0.00  0.00     0.002 A 
ATOM      6  C6  N4B d   1      -0.369   5.974  -2.640  0.00  0.00     0.002 A 
ENDROOT
BRANCH   1   7
ATOM      7  C1' N4B d   1       0.257   5.835  -5.025  0.00  0.00     0.057 C 
BRANCH   7   8
ATOM      8  C2' N4B d   1       1.645   5.984  -4.408  0.00  0.00     0.009 C 
BRANCH   8   9
ATOM      9  C3' N4B d   1       2.692   5.187  -5.167  0.00  0.00     0.004 C 
ATOM     10  C4' N4B d   1       3.910   5.996  -5.498  0.00  0.00     0.003 C 
ENDBRANCH   8   9
ENDBRANCH   7   8
ENDBRANCH   1   7
TORSDOF 3
ENDMDL
