MODEL 1
REMARK minimizedAffinity -4.89131403
REMARK minimizedRMSD -1
REMARK  3 active torsions:
REMARK  status: ('A' for Active; 'I' for Inactive)
REMARK    1  A    between atoms: C3'_2  and  C2'_3 
REMARK    2  A    between atoms: C2'_3  and  C1'_4 
REMARK    3  A    between atoms: C1'_4  and  C1_5 
ROOT
ATOM      1  C1  N4B d   1      -1.403   5.733  -3.293  0.00  0.00    -0.075 A 
ATOM      2  C2  N4B d   1      -2.339   5.909  -2.251  0.00  0.00     0.002 A 
ATOM      3  C3  N4B d   1      -3.679   6.000  -2.539  0.00  0.00     0.002 A 
ATOM      4  C4  N4B d   1      -4.102   5.936  -3.858  0.00  0.00    -0.004 A 
ATOM      5  C5  N4B d   1      -3.194   5.740  -4.857  0.00  0.00     0.002 A 
ATOM      6  C6  N4B d   1      -1.845   5.644  -4.581  0.00  0.00     0.002 A 
ENDROOT
BRANCH   1   7
ATOM      7  C1' N4B d   1       0.079   5.715  -3.035  0.00  0.00     0.057 C 
BRANCH   7   8
ATOM      8  C2' N4B d   1       0.808   5.352  -4.326  0.00  0.00     0.009 C 
BRANCH   8   9
ATOM      9  C3' N4B d   1       2.311   5.533  -4.200  0.00  0.00     0.004 C 
ATOM     10  C4' N4B d   1       2.948   5.999  -5.475  0.00  0.00     0.003 C 
ENDBRANCH   8   9
ENDBRANCH   7   8
ENDBRANCH   1   7
TORSDOF 3
ENDMDL
