MODEL 1
REMARK minimizedAffinity -2.40474367
REMARK minimizedRMSD -1
REMARK  3 active torsions:
REMARK  status: ('A' for Active; 'I' for Inactive)
REMARK    1  A    between atoms: C3'_2  and  C2'_3 
REMARK    2  A    between atoms: C2'_3  and  C1'_4 
REMARK    3  A    between atoms: C1'_4  and  C1_5 
ROOT
ATOM      1  C1  N4B d   1      -0.551   5.872  -3.446  0.00  0.00    -0.075 A 
ATOM      2  C2  N4B d   1      -1.576   5.903  -4.417  0.00  0.00     0.002 A 
ATOM      3  C3  N4B d   1      -2.891   5.976  -4.026  0.00  0.00     0.002 A 
ATOM      4  C4  N4B d   1      -3.204   5.999  -2.675  0.00  0.00    -0.004 A 
ATOM      5  C5  N4B d   1      -2.207   5.994  -1.744  0.00  0.00     0.002 A 
ATOM      6  C6  N4B d   1      -0.881   5.925  -2.123  0.00  0.00     0.002 A 
ENDROOT
BRANCH   1   7
ATOM      7  C1' N4B d   1       0.895   5.706  -3.824  0.00  0.00     0.057 C 
BRANCH   7   8
ATOM      8  C2' N4B d   1       1.062   5.999  -5.312  0.00  0.00     0.009 C 
BRANCH   8   9
ATOM      9  C3' N4B d   1       2.478   5.728  -5.789  0.00  0.00     0.004 C 
ATOM     10  C4' N4B d   1       3.508   5.999  -4.734  0.00  0.00     0.003 C 
ENDBRANCH   8   9
ENDBRANCH   7   8
ENDBRANCH   1   7
TORSDOF 3
ENDMDL
