MODEL 1
REMARK minimizedAffinity -2.68692231
REMARK minimizedRMSD -1
REMARK  3 active torsions:
REMARK  status: ('A' for Active; 'I' for Inactive)
REMARK    1  A    between atoms: C3'_2  and  C2'_3 
REMARK    2  A    between atoms: C2'_3  and  C1'_4 
REMARK    3  A    between atoms: C1'_4  and  C1_5 
ROOT
ATOM      1  C1  N4B d   1      -0.045   5.905  -4.849  0.00  0.00    -0.075 A 
ATOM      2  C2  N4B d   1       0.773   5.915  -6.000  0.00  0.00     0.002 A 
ATOM      3  C3  N4B d   1       2.140   5.912  -5.870  0.00  0.00     0.002 A 
ATOM      4  C4  N4B d   1       2.710   5.918  -4.606  0.00  0.00    -0.004 A 
ATOM      5  C5  N4B d   1       1.912   5.883  -3.499  0.00  0.00     0.002 A 
ATOM      6  C6  N4B d   1       0.537   5.882  -3.614  0.00  0.00     0.002 A 
ENDROOT
BRANCH   1   7
ATOM      7  C1' N4B d   1      -1.544   5.995  -4.939  0.00  0.00     0.057 C 
BRANCH   7   8
ATOM      8  C2' N4B d   1      -2.164   4.890  -4.089  0.00  0.00     0.009 C 
BRANCH   8   9
ATOM      9  C3' N4B d   1      -3.388   5.374  -3.331  0.00  0.00     0.004 C 
ATOM     10  C4' N4B d   1      -3.044   5.998  -2.011  0.00  0.00     0.003 C 
ENDBRANCH   8   9
ENDBRANCH   7   8
ENDBRANCH   1   7
TORSDOF 3
ENDMDL
