MODEL 1
REMARK minimizedAffinity 3.54768586
REMARK minimizedRMSD -1
REMARK  1 active torsions:
REMARK  status: ('A' for Active; 'I' for Inactive)
REMARK    1  A    between atoms: C1_2  and  C2_3 
ROOT
ATOM      1  C2  UNL d   1      -0.349  -0.443   2.239  0.00  0.00    -0.076 A 
ATOM      2  C3  UNL d   1      -1.637  -0.280   2.776  0.00  0.00     0.004 A 
ATOM      3  C4  UNL d   1      -2.677   0.233   2.003  0.00  0.00    -0.003 A 
ATOM      4  C5  UNL d   1      -2.446   0.588   0.679  0.00  0.00     0.000 A 
ATOM      5  C6  UNL d   1      -1.179   0.416   0.124  0.00  0.00     0.000 A 
ATOM      6  C7  UNL d   1      -0.123  -0.114   0.885  0.00  0.00    -0.073 A 
ATOM      7  C8  UNL d   1       1.226  -0.273   0.237  0.00  0.00     0.078 C 
ENDROOT
BRANCH   1   8
ATOM      8  C1  UNL d   1       0.747  -0.978   3.133  0.00  0.00     0.053 C 
ATOM      9  C   UNL d   1       0.202  -1.646   4.386  0.00  0.00     0.018 C 
ENDBRANCH   1   8
TORSDOF 1
ENDMDL
