MODEL 1
REMARK minimizedAffinity 3.18747067
REMARK minimizedRMSD -1
REMARK  1 active torsions:
REMARK  status: ('A' for Active; 'I' for Inactive)
REMARK    1  A    between atoms: C1_2  and  C2_3 
ROOT
ATOM      1  C2  UNL d   1      -1.096  -0.083   1.913  0.00  0.00    -0.076 A 
ATOM      2  C3  UNL d   1      -1.477  -0.675   3.129  0.00  0.00     0.004 A 
ATOM      3  C4  UNL d   1      -0.539  -1.308   3.944  0.00  0.00    -0.003 A 
ATOM      4  C5  UNL d   1       0.795  -1.357   3.556  0.00  0.00     0.000 A 
ATOM      5  C6  UNL d   1       1.194  -0.759   2.361  0.00  0.00     0.000 A 
ATOM      6  C7  UNL d   1       0.264  -0.103   1.536  0.00  0.00    -0.073 A 
ATOM      7  C8  UNL d   1       0.748   0.519   0.255  0.00  0.00     0.078 C 
ENDROOT
BRANCH   1   8
ATOM      8  C1  UNL d   1      -2.161   0.564   1.057  0.00  0.00     0.053 C 
ATOM      9  C   UNL d   1      -2.560  -0.299  -0.129  0.00  0.00     0.018 C 
ENDBRANCH   1   8
TORSDOF 1
ENDMDL
