MODEL 1
REMARK minimizedAffinity 2.35757637
REMARK minimizedRMSD -1
REMARK  1 active torsions:
REMARK  status: ('A' for Active; 'I' for Inactive)
REMARK    1  A    between atoms: C1_2  and  C2_3 
ROOT
ATOM      1  C2  UNL d   1      -1.664  -0.330   1.984  0.00  0.00    -0.076 A 
ATOM      2  C3  UNL d   1      -3.009  -0.615   2.278  0.00  0.00     0.004 A 
ATOM      3  C4  UNL d   1      -3.361  -1.295   3.443  0.00  0.00    -0.003 A 
ATOM      4  C5  UNL d   1      -2.373  -1.700   4.333  0.00  0.00     0.000 A 
ATOM      5  C6  UNL d   1      -1.035  -1.411   4.067  0.00  0.00     0.000 A 
ATOM      6  C7  UNL d   1      -0.665  -0.712   2.905  0.00  0.00    -0.073 A 
ATOM      7  C8  UNL d   1       0.793  -0.432   2.664  0.00  0.00     0.078 C 
ENDROOT
BRANCH   1   8
ATOM      8  C1  UNL d   1      -1.341   0.386   0.692  0.00  0.00     0.053 C 
ATOM      9  C   UNL d   1      -2.232  -0.057  -0.458  0.00  0.00     0.018 C 
ENDBRANCH   1   8
TORSDOF 1
ENDMDL
