MODEL 1
REMARK minimizedAffinity 4.87998724
REMARK minimizedRMSD -1
REMARK  1 active torsions:
REMARK  status: ('A' for Active; 'I' for Inactive)
REMARK    1  A    between atoms: C1_2  and  C2_3 
ROOT
ATOM      1  C2  UNL d   1       0.285  -0.174   0.585  0.00  0.00    -0.076 A 
ATOM      2  C3  UNL d   1      -0.692   0.269  -0.323  0.00  0.00     0.004 A 
ATOM      3  C4  UNL d   1      -2.001   0.509   0.092  0.00  0.00    -0.003 A 
ATOM      4  C5  UNL d   1      -2.354   0.310   1.422  0.00  0.00     0.000 A 
ATOM      5  C6  UNL d   1      -1.394  -0.112   2.341  0.00  0.00     0.000 A 
ATOM      6  C7  UNL d   1      -0.066  -0.343   1.942  0.00  0.00    -0.073 A 
ATOM      7  C8  UNL d   1       0.928  -0.803   2.973  0.00  0.00     0.078 C 
ENDROOT
BRANCH   1   8
ATOM      8  C1  UNL d   1       1.681  -0.444   0.072  0.00  0.00     0.053 C 
ATOM      9  C   UNL d   1       2.328   0.793  -0.533  0.00  0.00     0.018 C 
ENDBRANCH   1   8
TORSDOF 1
ENDMDL
