MODEL 1
REMARK minimizedAffinity 2.25390506
REMARK minimizedRMSD -1
REMARK  1 active torsions:
REMARK  status: ('A' for Active; 'I' for Inactive)
REMARK    1  A    between atoms: C1_2  and  C2_3 
ROOT
ATOM      1  C2  UNL d   1      -0.249  -0.442   2.444  0.00  0.00    -0.076 A 
ATOM      2  C3  UNL d   1      -1.484  -0.283   3.096  0.00  0.00     0.004 A 
ATOM      3  C4  UNL d   1      -2.627   0.085   2.387  0.00  0.00    -0.003 A 
ATOM      4  C5  UNL d   1      -2.553   0.299   1.015  0.00  0.00     0.000 A 
ATOM      5  C6  UNL d   1      -1.340   0.128   0.350  0.00  0.00     0.000 A 
ATOM      6  C7  UNL d   1      -0.182  -0.258   1.046  0.00  0.00    -0.073 A 
ATOM      7  C8  UNL d   1       1.102  -0.421   0.279  0.00  0.00     0.078 C 
ENDROOT
BRANCH   1   8
ATOM      8  C1  UNL d   1       0.962  -0.815   3.269  0.00  0.00     0.053 C 
ATOM      9  C   UNL d   1       0.589  -1.351   4.642  0.00  0.00     0.018 C 
ENDBRANCH   1   8
TORSDOF 1
ENDMDL
