MODEL 1
REMARK minimizedAffinity 2.05864644
REMARK minimizedRMSD -1
REMARK  1 active torsions:
REMARK  status: ('A' for Active; 'I' for Inactive)
REMARK    1  A    between atoms: C1_2  and  C2_3 
ROOT
ATOM      1  C2  UNL d   1      -0.434  -1.068   2.871  0.00  0.00    -0.076 A 
ATOM      2  C3  UNL d   1       0.667  -1.218   2.010  0.00  0.00     0.004 A 
ATOM      3  C4  UNL d   1       0.593  -0.824   0.675  0.00  0.00    -0.003 A 
ATOM      4  C5  UNL d   1      -0.584  -0.274   0.179  0.00  0.00     0.000 A 
ATOM      5  C6  UNL d   1      -1.680  -0.102   1.023  0.00  0.00     0.000 A 
ATOM      6  C7  UNL d   1      -1.617  -0.478   2.376  0.00  0.00    -0.073 A 
ATOM      7  C8  UNL d   1      -2.831  -0.276   3.239  0.00  0.00     0.078 C 
ENDROOT
BRANCH   1   8
ATOM      8  C1  UNL d   1      -0.304  -1.538   4.302  0.00  0.00     0.053 C 
ATOM      9  C   UNL d   1       1.145  -1.635   4.753  0.00  0.00     0.018 C 
ENDBRANCH   1   8
TORSDOF 1
ENDMDL
