MODEL 1
REMARK minimizedAffinity -0.278726578
REMARK minimizedRMSD -1
REMARK  1 active torsions:
REMARK  status: ('A' for Active; 'I' for Inactive)
REMARK    1  A    between atoms: C1_2  and  C2_3 
ROOT
ATOM      1  C2  UNL d   1      -0.810  -0.496   2.109  0.00  0.00    -0.076 A 
ATOM      2  C3  UNL d   1       0.293  -0.735   1.271  0.00  0.00     0.004 A 
ATOM      3  C4  UNL d   1       0.141  -0.806  -0.112  0.00  0.00    -0.003 A 
ATOM      4  C5  UNL d   1      -1.117  -0.638  -0.681  0.00  0.00     0.000 A 
ATOM      5  C6  UNL d   1      -2.219  -0.383   0.134  0.00  0.00     0.000 A 
ATOM      6  C7  UNL d   1      -2.081  -0.292   1.530  0.00  0.00    -0.073 A 
ATOM      7  C8  UNL d   1      -3.305  -0.021   2.361  0.00  0.00     0.078 C 
ENDROOT
BRANCH   1   8
ATOM      8  C1  UNL d   1      -0.589  -0.457   3.604  0.00  0.00     0.053 C 
ATOM      9  C   UNL d   1       0.504  -1.413   4.057  0.00  0.00     0.018 C 
ENDBRANCH   1   8
TORSDOF 1
ENDMDL
