MODEL 1
REMARK minimizedAffinity -3.1359303
REMARK minimizedRMSD -1
REMARK  0 active torsions:
REMARK  status: ('A' for Active; 'I' for Inactive)
ROOT
ATOM      1  C   UNL d   1      -0.759   3.780  -2.009  0.00  0.00     0.077 C 
ATOM      2  C1  UNL d   1      -0.587   2.304  -1.799  0.00  0.00    -0.074 A 
ATOM      3  C2  UNL d   1      -0.686   1.410  -2.870  0.00  0.00    -0.005 A 
ATOM      4  C3  UNL d   1      -0.514   0.042  -2.662  0.00  0.00     0.006 A 
ATOM      5  C4  UNL d   1      -0.243  -0.446  -1.383  0.00  0.00    -0.005 A 
ATOM      6  C5  UNL d   1      -0.141   0.433  -0.300  0.00  0.00    -0.074 A 
ATOM      7  C6  UNL d   1       0.160  -0.073   1.080  0.00  0.00     0.077 C 
ATOM      8  C7  UNL d   1      -0.307   1.808  -0.519  0.00  0.00    -0.001 A 
ENDROOT
TORSDOF 0
ENDMDL
