MODEL 1
REMARK minimizedAffinity -4.00662899
REMARK minimizedRMSD -1
REMARK  0 active torsions:
REMARK  status: ('A' for Active; 'I' for Inactive)
ROOT
ATOM      1  C   UNL d   1       2.740  -2.313   0.082  0.00  0.00     0.077 C 
ATOM      2  C1  UNL d   1       1.513  -1.542   0.472  0.00  0.00    -0.074 A 
ATOM      3  C2  UNL d   1       1.040  -1.563   1.788  0.00  0.00    -0.005 A 
ATOM      4  C3  UNL d   1      -0.097  -0.834   2.138  0.00  0.00     0.006 A 
ATOM      5  C4  UNL d   1      -0.770  -0.077   1.177  0.00  0.00    -0.005 A 
ATOM      6  C5  UNL d   1      -0.310  -0.044  -0.143  0.00  0.00    -0.074 A 
ATOM      7  C6  UNL d   1      -1.016   0.771  -1.186  0.00  0.00     0.077 C 
ATOM      8  C7  UNL d   1       0.836  -0.774  -0.485  0.00  0.00    -0.001 A 
ENDROOT
TORSDOF 0
ENDMDL
