MODEL 1
REMARK minimizedAffinity -3.45088077
REMARK minimizedRMSD -1
REMARK  0 active torsions:
REMARK  status: ('A' for Active; 'I' for Inactive)
ROOT
ATOM      1  C   UNL d   1       1.726  -0.729   3.223  0.00  0.00     0.077 C 
ATOM      2  C1  UNL d   1       0.556  -0.385   2.350  0.00  0.00    -0.074 A 
ATOM      3  C2  UNL d   1      -0.713  -0.176   2.899  0.00  0.00    -0.005 A 
ATOM      4  C3  UNL d   1      -1.790   0.152   2.075  0.00  0.00     0.006 A 
ATOM      5  C4  UNL d   1      -1.609   0.274   0.697  0.00  0.00    -0.005 A 
ATOM      6  C5  UNL d   1      -0.347   0.069   0.130  0.00  0.00    -0.074 A 
ATOM      7  C6  UNL d   1      -0.133   0.206  -1.348  0.00  0.00     0.077 C 
ATOM      8  C7  UNL d   1       0.732  -0.253   0.965  0.00  0.00    -0.001 A 
ENDROOT
TORSDOF 0
ENDMDL
