MODEL 1
REMARK minimizedAffinity -6.43991184
REMARK minimizedRMSD -1
REMARK  0 active torsions:
REMARK  status: ('A' for Active; 'I' for Inactive)
ROOT
ATOM      1  C   UNL d   1      -0.775   0.166  -0.474  0.00  0.00     0.077 C 
ATOM      2  C1  UNL d   1       0.146  -0.452   0.536  0.00  0.00    -0.074 A 
ATOM      3  C2  UNL d   1      -0.222  -0.544   1.883  0.00  0.00    -0.005 A 
ATOM      4  C3  UNL d   1       0.642  -1.130   2.809  0.00  0.00     0.006 A 
ATOM      5  C4  UNL d   1       1.879  -1.627   2.399  0.00  0.00    -0.005 A 
ATOM      6  C5  UNL d   1       2.264  -1.544   1.057  0.00  0.00    -0.074 A 
ATOM      7  C6  UNL d   1       3.586  -2.082   0.598  0.00  0.00     0.077 C 
ATOM      8  C7  UNL d   1       1.388  -0.961   0.131  0.00  0.00    -0.001 A 
ENDROOT
TORSDOF 0
ENDMDL
