MODEL 1
REMARK minimizedAffinity -4.35572147
REMARK minimizedRMSD -1
REMARK  0 active torsions:
REMARK  status: ('A' for Active; 'I' for Inactive)
ROOT
ATOM      1  C   UNL d   1      -0.209   0.528  -1.516  0.00  0.00     0.077 C 
ATOM      2  C1  UNL d   1      -0.060  -0.010  -0.124  0.00  0.00    -0.074 A 
ATOM      3  C2  UNL d   1      -1.114   0.068   0.793  0.00  0.00    -0.005 A 
ATOM      4  C3  UNL d   1      -0.963  -0.445   2.081  0.00  0.00     0.006 A 
ATOM      5  C4  UNL d   1       0.239  -1.040   2.465  0.00  0.00    -0.005 A 
ATOM      6  C5  UNL d   1       1.303  -1.127   1.561  0.00  0.00    -0.074 A 
ATOM      7  C6  UNL d   1       2.599  -1.772   1.955  0.00  0.00     0.077 C 
ATOM      8  C7  UNL d   1       1.142  -0.616   0.266  0.00  0.00    -0.001 A 
ENDROOT
TORSDOF 0
ENDMDL
