MODEL 1
REMARK minimizedAffinity -3.78591871
REMARK minimizedRMSD -1
REMARK  0 active torsions:
REMARK  status: ('A' for Active; 'I' for Inactive)
ROOT
ATOM      1  C   UNL d   1       2.678  -2.186  -0.324  0.00  0.00     0.077 C 
ATOM      2  C1  UNL d   1       1.418  -1.449   0.020  0.00  0.00    -0.074 A 
ATOM      3  C2  UNL d   1       0.842  -1.563   1.289  0.00  0.00    -0.005 A 
ATOM      4  C3  UNL d   1      -0.325  -0.864   1.597  0.00  0.00     0.006 A 
ATOM      5  C4  UNL d   1      -0.928  -0.046   0.640  0.00  0.00    -0.005 A 
ATOM      6  C5  UNL d   1      -0.366   0.080  -0.634  0.00  0.00    -0.074 A 
ATOM      7  C6  UNL d   1      -0.995   0.963  -1.671  0.00  0.00     0.077 C 
ATOM      8  C7  UNL d   1       0.811  -0.619  -0.934  0.00  0.00    -0.001 A 
ENDROOT
TORSDOF 0
ENDMDL
