MODEL 1
REMARK minimizedAffinity -0.547768056
REMARK minimizedRMSD -1
REMARK  0 active torsions:
REMARK  status: ('A' for Active; 'I' for Inactive)
ROOT
ATOM      1  C   UNL d   1      -1.508  -1.158  -1.421  0.00  0.00     0.020 A 
ATOM      2  C1  UNL d   1      -0.835  -1.954  -0.495  0.00  0.00     0.020 A 
ATOM      3  C2  UNL d   1      -0.511  -3.275  -0.815  0.00  0.00     0.034 A 
ATOM      4  C3  UNL d   1      -0.861  -3.802  -2.064  0.00  0.00     0.017 A 
ATOM      5  C4  UNL d   1      -1.537  -3.002  -2.992  0.00  0.00     0.017 A 
ATOM      6  C5  UNL d   1      -1.858  -1.680  -2.666  0.00  0.00     0.034 A 
ATOM      7 Cl   UNL d   1      -2.001  -3.582  -4.552  0.00  0.00    -0.070 Cl
ATOM      8 Cl1  UNL d   1      -0.429  -5.443  -2.392  0.00  0.00    -0.070 Cl
ENDROOT
TORSDOF 0
ENDMDL
