MODEL 1
REMARK minimizedAffinity 4.82463694
REMARK minimizedRMSD -1
REMARK  0 active torsions:
REMARK  status: ('A' for Active; 'I' for Inactive)
ROOT
ATOM      1  C   UNL d   1       1.234  -0.994   1.552  0.00  0.00     0.020 A 
ATOM      2  C1  UNL d   1       1.903   0.164   1.156  0.00  0.00     0.020 A 
ATOM      3  C2  UNL d   1       1.742   0.652  -0.143  0.00  0.00     0.034 A 
ATOM      4  C3  UNL d   1       0.912  -0.017  -1.049  0.00  0.00     0.017 A 
ATOM      5  C4  UNL d   1       0.242  -1.179  -0.650  0.00  0.00     0.017 A 
ATOM      6  C5  UNL d   1       0.406  -1.664   0.651  0.00  0.00     0.034 A 
ATOM      7 Cl   UNL d   1      -0.800  -2.059  -1.712  0.00  0.00    -0.070 Cl
ATOM      8 Cl1  UNL d   1       0.760   0.644  -2.638  0.00  0.00    -0.070 Cl
ENDROOT
TORSDOF 0
ENDMDL
