MODEL 1
REMARK minimizedAffinity 2.63958168
REMARK minimizedRMSD -1
REMARK  0 active torsions:
REMARK  status: ('A' for Active; 'I' for Inactive)
ROOT
ATOM      1  C   UNL d   1       2.041   1.327   1.607  0.00  0.00     0.020 A 
ATOM      2  C1  UNL d   1       0.647   1.341   1.626  0.00  0.00     0.020 A 
ATOM      3  C2  UNL d   1      -0.072   0.510   0.763  0.00  0.00     0.034 A 
ATOM      4  C3  UNL d   1       0.603  -0.338  -0.121  0.00  0.00     0.017 A 
ATOM      5  C4  UNL d   1       2.003  -0.352  -0.140  0.00  0.00     0.017 A 
ATOM      6  C5  UNL d   1       2.717   0.482   0.726  0.00  0.00     0.034 A 
ATOM      7 Cl   UNL d   1       2.906  -1.372  -1.203  0.00  0.00    -0.070 Cl
ATOM      8 Cl1  UNL d   1      -0.349  -1.339  -1.159  0.00  0.00    -0.070 Cl
ENDROOT
TORSDOF 0
ENDMDL
