MODEL 1
REMARK minimizedAffinity 1.7503072
REMARK minimizedRMSD -1
REMARK  0 active torsions:
REMARK  status: ('A' for Active; 'I' for Inactive)
ROOT
ATOM      1  C   UNL d   1       2.671   1.741   2.472  0.00  0.00     0.020 A 
ATOM      2  C1  UNL d   1       2.940   1.530   1.120  0.00  0.00     0.020 A 
ATOM      3  C2  UNL d   1       2.162   0.632   0.386  0.00  0.00     0.034 A 
ATOM      4  C3  UNL d   1       1.112  -0.058   1.003  0.00  0.00     0.017 A 
ATOM      5  C4  UNL d   1       0.843   0.155   2.360  0.00  0.00     0.017 A 
ATOM      6  C5  UNL d   1       1.625   1.056   3.090  0.00  0.00     0.034 A 
ATOM      7 Cl   UNL d   1      -0.436  -0.658   3.191  0.00  0.00    -0.070 Cl
ATOM      8 Cl1  UNL d   1       0.190  -1.153   0.035  0.00  0.00    -0.070 Cl
ENDROOT
TORSDOF 0
ENDMDL
