MODEL 1
REMARK minimizedAffinity 1.92585301
REMARK minimizedRMSD -1
REMARK  0 active torsions:
REMARK  status: ('A' for Active; 'I' for Inactive)
ROOT
ATOM      1  C   UNL d   1      -0.415  -4.976  -2.759  0.00  0.00     0.020 A 
ATOM      2  C1  UNL d   1      -1.661  -4.656  -3.295  0.00  0.00     0.020 A 
ATOM      3  C2  UNL d   1      -2.270  -3.442  -2.973  0.00  0.00     0.034 A 
ATOM      4  C3  UNL d   1      -1.632  -2.542  -2.111  0.00  0.00     0.017 A 
ATOM      5  C4  UNL d   1      -0.380  -2.864  -1.573  0.00  0.00     0.017 A 
ATOM      6  C5  UNL d   1       0.224  -4.081  -1.899  0.00  0.00     0.034 A 
ATOM      7 Cl   UNL d   1       0.468  -1.805  -0.503  0.00  0.00    -0.070 Cl
ATOM      8 Cl1  UNL d   1      -2.442  -1.058  -1.755  0.00  0.00    -0.070 Cl
ENDROOT
TORSDOF 0
ENDMDL
