MODEL 1
REMARK minimizedAffinity 4.7275877
REMARK minimizedRMSD -1
REMARK  0 active torsions:
REMARK  status: ('A' for Active; 'I' for Inactive)
ROOT
ATOM      1  C   UNL d   1       2.316   2.209   1.467  0.00  0.00     0.020 A 
ATOM      2  C1  UNL d   1       0.997   1.867   1.764  0.00  0.00     0.020 A 
ATOM      3  C2  UNL d   1       0.451   0.687   1.255  0.00  0.00     0.034 A 
ATOM      4  C3  UNL d   1       1.223  -0.155   0.446  0.00  0.00     0.017 A 
ATOM      5  C4  UNL d   1       2.546   0.189   0.149  0.00  0.00     0.017 A 
ATOM      6  C5  UNL d   1       3.089   1.372   0.661  0.00  0.00     0.034 A 
ATOM      7 Cl   UNL d   1       3.561  -0.799  -0.842  0.00  0.00    -0.070 Cl
ATOM      8 Cl1  UNL d   1       0.482  -1.598  -0.148  0.00  0.00    -0.070 Cl
ENDROOT
TORSDOF 0
ENDMDL
