MODEL 1
REMARK minimizedAffinity 1.69542718
REMARK minimizedRMSD -1
REMARK  0 active torsions:
REMARK  status: ('A' for Active; 'I' for Inactive)
ROOT
ATOM      1  C   UNL d   1       2.829   3.472  -2.278  0.00  0.00     0.020 A 
ATOM      2  C1  UNL d   1       2.487   2.343  -3.022  0.00  0.00     0.020 A 
ATOM      3  C2  UNL d   1       1.906   1.241  -2.390  0.00  0.00     0.034 A 
ATOM      4  C3  UNL d   1       1.664   1.266  -1.012  0.00  0.00     0.017 A 
ATOM      5  C4  UNL d   1       2.008   2.400  -0.267  0.00  0.00     0.017 A 
ATOM      6  C5  UNL d   1       2.590   3.500  -0.904  0.00  0.00     0.034 A 
ATOM      7 Cl   UNL d   1       1.741   2.505   1.438  0.00  0.00    -0.070 Cl
ATOM      8 Cl1  UNL d   1       0.942  -0.131  -0.297  0.00  0.00    -0.070 Cl
ENDROOT
TORSDOF 0
ENDMDL
