MODEL 1
REMARK minimizedAffinity 7.33407259
REMARK minimizedRMSD -1
REMARK  0 active torsions:
REMARK  status: ('A' for Active; 'I' for Inactive)
ROOT
ATOM      1  C   UNL d   1       1.486   2.324   1.973  0.00  0.00     0.020 A 
ATOM      2  C1  UNL d   1       2.867   2.138   1.926  0.00  0.00     0.020 A 
ATOM      3  C2  UNL d   1       3.404   1.073   1.200  0.00  0.00     0.034 A 
ATOM      4  C3  UNL d   1       2.559   0.190   0.518  0.00  0.00     0.017 A 
ATOM      5  C4  UNL d   1       1.173   0.377   0.566  0.00  0.00     0.017 A 
ATOM      6  C5  UNL d   1       0.641   1.445   1.294  0.00  0.00     0.034 A 
ATOM      7 Cl   UNL d   1       0.068  -0.672  -0.250  0.00  0.00    -0.070 Cl
ATOM      8 Cl1  UNL d   1       3.292  -1.106  -0.360  0.00  0.00    -0.070 Cl
ENDROOT
TORSDOF 0
ENDMDL
