MODEL 1
REMARK minimizedAffinity 5.52998066
REMARK minimizedRMSD -1
REMARK  0 active torsions:
REMARK  status: ('A' for Active; 'I' for Inactive)
ROOT
ATOM      1  C   UNL d   1       2.258   1.651   2.654  0.00  0.00     0.020 A 
ATOM      2  C1  UNL d   1       1.299   0.722   3.055  0.00  0.00     0.020 A 
ATOM      3  C2  UNL d   1       0.835  -0.237   2.152  0.00  0.00     0.034 A 
ATOM      4  C3  UNL d   1       1.330  -0.269   0.844  0.00  0.00     0.017 A 
ATOM      5  C4  UNL d   1       2.292   0.663   0.441  0.00  0.00     0.017 A 
ATOM      6  C5  UNL d   1       2.754   1.622   1.349  0.00  0.00     0.034 A 
ATOM      7 Cl   UNL d   1       2.950   0.686  -1.157  0.00  0.00    -0.070 Cl
ATOM      8 Cl1  UNL d   1       0.711  -1.483  -0.219  0.00  0.00    -0.070 Cl
ENDROOT
TORSDOF 0
ENDMDL
