MODEL 1
REMARK minimizedAffinity 14.4003181
REMARK minimizedRMSD -1
REMARK  0 active torsions:
REMARK  status: ('A' for Active; 'I' for Inactive)
ROOT
ATOM      1  C   UNL d   1       3.786   0.258  -1.673  0.00  0.00     0.020 A 
ATOM      2  C1  UNL d   1       4.211   1.493  -2.162  0.00  0.00     0.020 A 
ATOM      3  C2  UNL d   1       3.776   1.936  -3.413  0.00  0.00     0.034 A 
ATOM      4  C3  UNL d   1       2.912   1.143  -4.179  0.00  0.00     0.017 A 
ATOM      5  C4  UNL d   1       2.487  -0.096  -3.687  0.00  0.00     0.017 A 
ATOM      6  C5  UNL d   1       2.926  -0.534  -2.434  0.00  0.00     0.034 A 
ATOM      7 Cl   UNL d   1       1.422  -1.129  -4.574  0.00  0.00    -0.070 Cl
ATOM      8 Cl1  UNL d   1       2.414   1.754  -5.716  0.00  0.00    -0.070 Cl
ENDROOT
TORSDOF 0
ENDMDL
