MODEL 1
REMARK minimizedAffinity 4.66315413
REMARK minimizedRMSD -1
REMARK  1 active torsions:
REMARK  status: ('A' for Active; 'I' for Inactive)
REMARK    1  A    between atoms: C1_2  and  C2_3 
ROOT
ATOM      1  C2  UNL d   1      -1.642  -3.326   1.462  0.00  0.00    -0.077 A 
ATOM      2  C3  UNL d   1      -1.067  -3.088   0.206  0.00  0.00     0.002 A 
ATOM      3  C4  UNL d   1      -0.295  -4.072  -0.415  0.00  0.00     0.002 A 
ATOM      4  C5  UNL d   1      -0.094  -5.300   0.211  0.00  0.00    -0.004 A 
ATOM      5  C6  UNL d   1      -0.660  -5.546   1.461  0.00  0.00     0.002 A 
ATOM      6  C7  UNL d   1      -1.431  -4.564   2.084  0.00  0.00     0.002 A 
ENDROOT
BRANCH   1   7
ATOM      7  C1  UNL d   1      -2.516  -2.285   2.112  0.00  0.00     0.055 C 
ATOM      8  C   UNL d   1      -2.242  -2.185   3.605  0.00  0.00     0.019 C 
ENDBRANCH   1   7
TORSDOF 1
ENDMDL
