MODEL 1
REMARK minimizedAffinity 11.6374941
REMARK minimizedRMSD -1
REMARK  1 active torsions:
REMARK  status: ('A' for Active; 'I' for Inactive)
REMARK    1  A    between atoms: C1_2  and  C2_3 
ROOT
ATOM      1  C2  UNL d   1      -1.832   2.143  -3.967  0.00  0.00    -0.077 A 
ATOM      2  C3  UNL d   1      -0.490   2.434  -3.684  0.00  0.00     0.002 A 
ATOM      3  C4  UNL d   1       0.258   3.231  -4.553  0.00  0.00     0.002 A 
ATOM      4  C5  UNL d   1      -0.327   3.745  -5.708  0.00  0.00    -0.004 A 
ATOM      5  C6  UNL d   1      -1.660   3.460  -5.999  0.00  0.00     0.002 A 
ATOM      6  C7  UNL d   1      -2.410   2.663  -5.132  0.00  0.00     0.002 A 
ENDROOT
BRANCH   1   7
ATOM      7  C1  UNL d   1      -2.655   1.326  -3.006  0.00  0.00     0.055 C 
ATOM      8  C   UNL d   1      -1.919   0.063  -2.582  0.00  0.00     0.019 C 
ENDBRANCH   1   7
TORSDOF 1
ENDMDL
