MODEL 1
REMARK minimizedAffinity 12.4168262
REMARK minimizedRMSD -1
REMARK  1 active torsions:
REMARK  status: ('A' for Active; 'I' for Inactive)
REMARK    1  A    between atoms: C1_2  and  C2_3 
ROOT
ATOM      1  C2  UNL d   1      -1.237   2.970  -4.609  0.00  0.00    -0.077 A 
ATOM      2  C3  UNL d   1      -0.400   4.094  -4.617  0.00  0.00     0.002 A 
ATOM      3  C4  UNL d   1       0.818   4.063  -5.299  0.00  0.00     0.002 A 
ATOM      4  C5  UNL d   1       1.207   2.912  -5.982  0.00  0.00    -0.004 A 
ATOM      5  C6  UNL d   1       0.382   1.788  -5.978  0.00  0.00     0.002 A 
ATOM      6  C7  UNL d   1      -0.835   1.817  -5.296  0.00  0.00     0.002 A 
ENDROOT
BRANCH   1   7
ATOM      7  C1  UNL d   1      -2.573   3.018  -3.915  0.00  0.00     0.055 C 
ATOM      8  C   UNL d   1      -3.692   3.354  -4.890  0.00  0.00     0.019 C 
ENDBRANCH   1   7
TORSDOF 1
ENDMDL
