MODEL 1
REMARK minimizedAffinity 13.3303337
REMARK minimizedRMSD -1
REMARK  1 active torsions:
REMARK  status: ('A' for Active; 'I' for Inactive)
REMARK    1  A    between atoms: C1_2  and  C2_3 
ROOT
ATOM      1  C2  UNL d   1      -1.729  -2.992   2.206  0.00  0.00    -0.077 A 
ATOM      2  C3  UNL d   1      -0.802  -3.948   1.767  0.00  0.00     0.002 A 
ATOM      3  C4  UNL d   1      -0.288  -3.890   0.470  0.00  0.00     0.002 A 
ATOM      4  C5  UNL d   1      -0.691  -2.876  -0.396  0.00  0.00    -0.004 A 
ATOM      5  C6  UNL d   1      -1.614  -1.922   0.030  0.00  0.00     0.002 A 
ATOM      6  C7  UNL d   1      -2.130  -1.979   1.326  0.00  0.00     0.002 A 
ENDROOT
BRANCH   1   7
ATOM      7  C1  UNL d   1      -2.248  -3.024   3.620  0.00  0.00     0.055 C 
ATOM      8  C   UNL d   1      -2.428  -1.619   4.176  0.00  0.00     0.019 C 
ENDBRANCH   1   7
TORSDOF 1
ENDMDL
