MODEL 1
REMARK minimizedAffinity 10.5130806
REMARK minimizedRMSD -1
REMARK  1 active torsions:
REMARK  status: ('A' for Active; 'I' for Inactive)
REMARK    1  A    between atoms: C1_2  and  C2_3 
ROOT
ATOM      1  C2  UNL d   1      -4.282   4.974  -0.716  0.00  0.00    -0.077 A 
ATOM      2  C3  UNL d   1      -5.155   6.000  -0.328  0.00  0.00     0.002 A 
ATOM      3  C4  UNL d   1      -5.999   5.831   0.772  0.00  0.00     0.002 A 
ATOM      4  C5  UNL d   1      -5.976   4.639   1.493  0.00  0.00    -0.004 A 
ATOM      5  C6  UNL d   1      -5.113   3.612   1.113  0.00  0.00     0.002 A 
ATOM      6  C7  UNL d   1      -4.270   3.779   0.014  0.00  0.00     0.002 A 
ENDROOT
BRANCH   1   7
ATOM      7  C1  UNL d   1      -3.336   5.173  -1.871  0.00  0.00     0.055 C 
ATOM      8  C   UNL d   1      -3.980   5.994  -2.979  0.00  0.00     0.019 C 
ENDBRANCH   1   7
TORSDOF 1
ENDMDL
