MODEL 1
REMARK minimizedAffinity 16.6127739
REMARK minimizedRMSD -1
REMARK  1 active torsions:
REMARK  status: ('A' for Active; 'I' for Inactive)
REMARK    1  A    between atoms: C1_2  and  C2_3 
ROOT
ATOM      1  C2  UNL d   1      -2.968   3.750  -4.703  0.00  0.00    -0.077 A 
ATOM      2  C3  UNL d   1      -2.921   5.037  -4.151  0.00  0.00     0.002 A 
ATOM      3  C4  UNL d   1      -3.861   6.000  -4.522  0.00  0.00     0.002 A 
ATOM      4  C5  UNL d   1      -4.858   5.684  -5.443  0.00  0.00    -0.004 A 
ATOM      5  C6  UNL d   1      -4.912   4.407  -6.000  0.00  0.00     0.002 A 
ATOM      6  C7  UNL d   1      -3.972   3.444  -5.631  0.00  0.00     0.002 A 
ENDROOT
BRANCH   1   7
ATOM      7  C1  UNL d   1      -1.985   2.695  -4.268  0.00  0.00     0.055 C 
ATOM      8  C   UNL d   1      -0.550   3.150  -4.493  0.00  0.00     0.019 C 
ENDBRANCH   1   7
TORSDOF 1
ENDMDL
