MODEL 1
REMARK minimizedAffinity 5.73044014
REMARK minimizedRMSD -1
REMARK  1 active torsions:
REMARK  status: ('A' for Active; 'I' for Inactive)
REMARK    1  A    between atoms: C1_2  and  C2_3 
ROOT
ATOM      1  C2  UNL d   1      -3.271  -0.058   5.980  0.00  0.00    -0.077 A 
ATOM      2  C3  UNL d   1      -4.605  -0.489   5.982  0.00  0.00     0.002 A 
ATOM      3  C4  UNL d   1      -5.647   0.440   5.994  0.00  0.00     0.002 A 
ATOM      4  C5  UNL d   1      -5.366   1.805   6.000  0.00  0.00    -0.004 A 
ATOM      5  C6  UNL d   1      -4.043   2.243   6.000  0.00  0.00     0.002 A 
ATOM      6  C7  UNL d   1      -3.000   1.316   5.989  0.00  0.00     0.002 A 
ENDROOT
BRANCH   1   7
ATOM      7  C1  UNL d   1      -2.146  -1.058   5.917  0.00  0.00     0.055 C 
ATOM      8  C   UNL d   1      -2.280  -1.967   4.703  0.00  0.00     0.019 C 
ENDBRANCH   1   7
TORSDOF 1
ENDMDL
