MODEL 1
REMARK minimizedAffinity 6.63870478
REMARK minimizedRMSD -1
REMARK  1 active torsions:
REMARK  status: ('A' for Active; 'I' for Inactive)
REMARK    1  A    between atoms: C1_2  and  C2_3 
ROOT
ATOM      1  C2  UNL d   1       0.634   1.720  -4.048  0.00  0.00    -0.077 A 
ATOM      2  C3  UNL d   1       1.923   2.173  -3.734  0.00  0.00     0.002 A 
ATOM      3  C4  UNL d   1       2.940   1.262  -3.439  0.00  0.00     0.002 A 
ATOM      4  C5  UNL d   1       2.679  -0.106  -3.461  0.00  0.00    -0.004 A 
ATOM      5  C6  UNL d   1       1.400  -0.567  -3.771  0.00  0.00     0.002 A 
ATOM      6  C7  UNL d   1       0.382   0.342  -4.064  0.00  0.00     0.002 A 
ENDROOT
BRANCH   1   7
ATOM      7  C1  UNL d   1      -0.451   2.699  -4.414  0.00  0.00     0.055 C 
ATOM      8  C   UNL d   1      -1.820   2.196  -3.978  0.00  0.00     0.019 C 
ENDBRANCH   1   7
TORSDOF 1
ENDMDL
