MODEL 1
REMARK minimizedAffinity 14.9869041
REMARK minimizedRMSD -1
REMARK  1 active torsions:
REMARK  status: ('A' for Active; 'I' for Inactive)
REMARK    1  A    between atoms: C1_2  and  C2_3 
ROOT
ATOM      1  C2  UNL d   1       4.237   3.381  -0.057  0.00  0.00    -0.077 A 
ATOM      2  C3  UNL d   1       4.078   4.667   0.478  0.00  0.00     0.002 A 
ATOM      3  C4  UNL d   1       4.874   5.722   0.029  0.00  0.00     0.002 A 
ATOM      4  C5  UNL d   1       5.832   5.503  -0.958  0.00  0.00    -0.004 A 
ATOM      5  C6  UNL d   1       6.000   4.227  -1.495  0.00  0.00     0.002 A 
ATOM      6  C7  UNL d   1       5.205   3.171  -1.048  0.00  0.00     0.002 A 
ENDROOT
BRANCH   1   7
ATOM      7  C1  UNL d   1       3.345   2.252   0.390  0.00  0.00     0.055 C 
ATOM      8  C   UNL d   1       2.345   1.874  -0.693  0.00  0.00     0.019 C 
ENDBRANCH   1   7
TORSDOF 1
ENDMDL
