MODEL 1
REMARK minimizedAffinity 12.0925341
REMARK minimizedRMSD -1
REMARK  1 active torsions:
REMARK  status: ('A' for Active; 'I' for Inactive)
REMARK    1  A    between atoms: C1_2  and  C2_3 
ROOT
ATOM      1  C2  UNL d   1      -3.598   0.987   5.292  0.00  0.00    -0.077 A 
ATOM      2  C3  UNL d   1      -3.402   2.322   5.671  0.00  0.00     0.002 A 
ATOM      3  C4  UNL d   1      -4.493   3.132   5.995  0.00  0.00     0.002 A 
ATOM      4  C5  UNL d   1      -5.785   2.614   5.948  0.00  0.00    -0.004 A 
ATOM      5  C6  UNL d   1      -5.991   1.288   5.570  0.00  0.00     0.002 A 
ATOM      6  C7  UNL d   1      -4.902   0.478   5.244  0.00  0.00     0.002 A 
ENDROOT
BRANCH   1   7
ATOM      7  C1  UNL d   1      -2.420   0.099   4.989  0.00  0.00     0.055 C 
ATOM      8  C   UNL d   1      -2.813  -1.048   4.070  0.00  0.00     0.019 C 
ENDBRANCH   1   7
TORSDOF 1
ENDMDL
