MODEL 1
REMARK minimizedAffinity 8.50421715
REMARK minimizedRMSD -1
REMARK  1 active torsions:
REMARK  status: ('A' for Active; 'I' for Inactive)
REMARK    1  A    between atoms: C1_2  and  C2_3 
ROOT
ATOM      1  C2  UNL d   1      -0.936  -4.203   1.587  0.00  0.00    -0.077 A 
ATOM      2  C3  UNL d   1      -1.269  -4.002   2.933  0.00  0.00     0.002 A 
ATOM      3  C4  UNL d   1      -2.029  -2.895   3.316  0.00  0.00     0.002 A 
ATOM      4  C5  UNL d   1      -2.465  -1.983   2.357  0.00  0.00    -0.004 A 
ATOM      5  C6  UNL d   1      -2.137  -2.173   1.015  0.00  0.00     0.002 A 
ATOM      6  C7  UNL d   1      -1.377  -3.278   0.632  0.00  0.00     0.002 A 
ENDROOT
BRANCH   1   7
ATOM      7  C1  UNL d   1      -0.158  -5.423   1.166  0.00  0.00     0.055 C 
ATOM      8  C   UNL d   1      -0.630  -5.942  -0.184  0.00  0.00     0.019 C 
ENDBRANCH   1   7
TORSDOF 1
ENDMDL
