MODEL 1
REMARK minimizedAffinity 13.2409039
REMARK minimizedRMSD -1
REMARK  1 active torsions:
REMARK  status: ('A' for Active; 'I' for Inactive)
REMARK    1  A    between atoms: C1_2  and  C2_3 
ROOT
ATOM      1  C2  UNL d   1      -1.310  -2.714   0.299  0.00  0.00    -0.077 A 
ATOM      2  C3  UNL d   1      -0.713  -2.477  -0.947  0.00  0.00     0.002 A 
ATOM      3  C4  UNL d   1      -1.253  -1.532  -1.822  0.00  0.00     0.002 A 
ATOM      4  C5  UNL d   1      -2.390  -0.814  -1.458  0.00  0.00    -0.004 A 
ATOM      5  C6  UNL d   1      -2.992  -1.043  -0.221  0.00  0.00     0.002 A 
ATOM      6  C7  UNL d   1      -2.454  -1.988   0.654  0.00  0.00     0.002 A 
ENDROOT
BRANCH   1   7
ATOM      7  C1  UNL d   1      -0.700  -3.697   1.263  0.00  0.00     0.055 C 
ATOM      8  C   UNL d   1      -0.720  -5.110   0.700  0.00  0.00     0.019 C 
ENDBRANCH   1   7
TORSDOF 1
ENDMDL
