MODEL 1
REMARK minimizedAffinity 11.7390757
REMARK minimizedRMSD -1
REMARK  1 active torsions:
REMARK  status: ('A' for Active; 'I' for Inactive)
REMARK    1  A    between atoms: C1_2  and  C2_3 
ROOT
ATOM      1  C2  UNL d   1      -2.964   1.354  -1.954  0.00  0.00    -0.081 A 
ATOM      2  C3  UNL d   1      -2.604   0.352  -2.863  0.00  0.00     0.006 A 
ATOM      3  C4  UNL d   1      -3.097   0.371  -4.170  0.00  0.00     0.002 A 
ATOM      4  C5  UNL d   1      -3.952   1.395  -4.591  0.00  0.00    -0.080 A 
ATOM      5  C6  UNL d   1      -4.464   1.443  -6.000  0.00  0.00     0.076 C 
ATOM      6  C7  UNL d   1      -4.326   2.386  -3.678  0.00  0.00     0.002 A 
ATOM      7  C8  UNL d   1      -3.833   2.368  -2.371  0.00  0.00     0.006 A 
ENDROOT
BRANCH   1   8
ATOM      8  C1  UNL d   1      -2.382   1.372  -0.563  0.00  0.00     0.054 C 
ATOM      9  C   UNL d   1      -1.853   0.001  -0.167  0.00  0.00     0.018 C 
ENDBRANCH   1   8
TORSDOF 1
ENDMDL
