MODEL 1
REMARK minimizedAffinity 4.85470343
REMARK minimizedRMSD -1
REMARK  1 active torsions:
REMARK  status: ('A' for Active; 'I' for Inactive)
REMARK    1  A    between atoms: C1_2  and  C2_3 
ROOT
ATOM      1  C2  UNL d   1       0.453  -1.507   0.321  0.00  0.00    -0.077 A 
ATOM      2  C3  UNL d   1      -0.831  -1.507  -0.241  0.00  0.00     0.002 A 
ATOM      3  C4  UNL d   1      -1.822  -0.660   0.259  0.00  0.00     0.002 A 
ATOM      4  C5  UNL d   1      -1.538   0.196   1.322  0.00  0.00    -0.004 A 
ATOM      5  C6  UNL d   1      -0.265   0.202   1.889  0.00  0.00     0.002 A 
ATOM      6  C7  UNL d   1       0.727  -0.645   1.391  0.00  0.00     0.002 A 
ENDROOT
BRANCH   1   7
ATOM      7  C1  UNL d   1       1.536  -2.384  -0.249  0.00  0.00     0.055 C 
ATOM      8  C   UNL d   1       1.785  -3.600   0.631  0.00  0.00     0.019 C 
ENDBRANCH   1   7
TORSDOF 1
ENDMDL
