MODEL 1
REMARK minimizedAffinity 6.06052494
REMARK minimizedRMSD -1
REMARK  1 active torsions:
REMARK  status: ('A' for Active; 'I' for Inactive)
REMARK    1  A    between atoms: C1_2  and  C2_3 
ROOT
ATOM      1  C2  UNL d   1       1.281  -1.794   0.486  0.00  0.00    -0.077 A 
ATOM      2  C3  UNL d   1      -0.020  -2.105   0.903  0.00  0.00     0.002 A 
ATOM      3  C4  UNL d   1      -0.722  -1.234   1.738  0.00  0.00     0.002 A 
ATOM      4  C5  UNL d   1      -0.131  -0.044   2.160  0.00  0.00    -0.004 A 
ATOM      5  C6  UNL d   1       1.164   0.273   1.752  0.00  0.00     0.002 A 
ATOM      6  C7  UNL d   1       1.867  -0.597   0.918  0.00  0.00     0.002 A 
ENDROOT
BRANCH   1   7
ATOM      7  C1  UNL d   1       2.021  -2.710  -0.455  0.00  0.00     0.055 C 
ATOM      8  C   UNL d   1       2.595  -3.912   0.280  0.00  0.00     0.019 C 
ENDBRANCH   1   7
TORSDOF 1
ENDMDL
