MODEL 1
REMARK minimizedAffinity 0.951898277
REMARK minimizedRMSD -1
REMARK  1 active torsions:
REMARK  status: ('A' for Active; 'I' for Inactive)
REMARK    1  A    between atoms: C1_2  and  C2_3 
ROOT
ATOM      1  C2  UNL d   1       1.087  -2.365   0.852  0.00  0.00    -0.077 A 
ATOM      2  C3  UNL d   1       1.387  -1.000   0.745  0.00  0.00     0.002 A 
ATOM      3  C4  UNL d   1       0.513  -0.042   1.262  0.00  0.00     0.002 A 
ATOM      4  C5  UNL d   1      -0.664  -0.439   1.893  0.00  0.00    -0.004 A 
ATOM      5  C6  UNL d   1      -0.973  -1.794   2.003  0.00  0.00     0.002 A 
ATOM      6  C7  UNL d   1      -0.101  -2.753   1.486  0.00  0.00     0.002 A 
ENDROOT
BRANCH   1   7
ATOM      7  C1  UNL d   1       2.052  -3.402   0.339  0.00  0.00     0.055 C 
ATOM      8  C   UNL d   1       2.982  -3.886   1.442  0.00  0.00     0.019 C 
ENDBRANCH   1   7
TORSDOF 1
ENDMDL
