MODEL 1
REMARK minimizedAffinity 0.772691488
REMARK minimizedRMSD -1
REMARK  1 active torsions:
REMARK  status: ('A' for Active; 'I' for Inactive)
REMARK    1  A    between atoms: C1_2  and  C2_3 
ROOT
ATOM      1  C2  UNL d   1       1.218  -3.524   1.010  0.00  0.00    -0.077 A 
ATOM      2  C3  UNL d   1       1.150  -2.151   1.283  0.00  0.00     0.002 A 
ATOM      3  C4  UNL d   1       0.086  -1.630   2.022  0.00  0.00     0.002 A 
ATOM      4  C5  UNL d   1      -0.914  -2.475   2.498  0.00  0.00    -0.004 A 
ATOM      5  C6  UNL d   1      -0.856  -3.842   2.231  0.00  0.00     0.002 A 
ATOM      6  C7  UNL d   1       0.206  -4.365   1.491  0.00  0.00     0.002 A 
ENDROOT
BRANCH   1   7
ATOM      7  C1  UNL d   1       2.390  -4.095   0.256  0.00  0.00     0.055 C 
ATOM      8  C   UNL d   1       3.247  -4.979   1.150  0.00  0.00     0.019 C 
ENDBRANCH   1   7
TORSDOF 1
ENDMDL
