MODEL 1
REMARK minimizedAffinity 0.0429867618
REMARK minimizedRMSD -1
REMARK  1 active torsions:
REMARK  status: ('A' for Active; 'I' for Inactive)
REMARK    1  A    between atoms: C1_2  and  C2_3 
ROOT
ATOM      1  C2  UNL d   1      -3.853   4.144   5.559  0.00  0.00    -0.077 A 
ATOM      2  C3  UNL d   1      -5.186   4.093   5.991  0.00  0.00     0.002 A 
ATOM      3  C4  UNL d   1      -6.000   3.012   5.646  0.00  0.00     0.002 A 
ATOM      4  C5  UNL d   1      -5.489   1.973   4.872  0.00  0.00    -0.004 A 
ATOM      5  C6  UNL d   1      -4.166   2.015   4.435  0.00  0.00     0.002 A 
ATOM      6  C7  UNL d   1      -3.351   3.095   4.778  0.00  0.00     0.002 A 
ENDROOT
BRANCH   1   7
ATOM      7  C1  UNL d   1      -2.960   5.285   5.971  0.00  0.00     0.055 C 
ATOM      8  C   UNL d   1      -1.498   4.863   5.995  0.00  0.00     0.019 C 
ENDBRANCH   1   7
TORSDOF 1
ENDMDL
