MODEL 1
REMARK minimizedAffinity 6.49445105
REMARK minimizedRMSD -1
REMARK  1 active torsions:
REMARK  status: ('A' for Active; 'I' for Inactive)
REMARK    1  A    between atoms: C1_2  and  C2_3 
ROOT
ATOM      1  C2  UNL d   1      -4.862   2.609   4.603  0.00  0.00    -0.077 A 
ATOM      2  C3  UNL d   1      -3.665   2.573   3.874  0.00  0.00     0.002 A 
ATOM      3  C4  UNL d   1      -3.607   1.914   2.645  0.00  0.00     0.002 A 
ATOM      4  C5  UNL d   1      -4.742   1.290   2.132  0.00  0.00    -0.004 A 
ATOM      5  C6  UNL d   1      -5.937   1.319   2.850  0.00  0.00     0.002 A 
ATOM      6  C7  UNL d   1      -5.997   1.976   4.080  0.00  0.00     0.002 A 
ENDROOT
BRANCH   1   7
ATOM      7  C1  UNL d   1      -4.940   3.362   5.906  0.00  0.00     0.055 C 
ATOM      8  C   UNL d   1      -4.240   4.709   5.810  0.00  0.00     0.019 C 
ENDBRANCH   1   7
TORSDOF 1
ENDMDL
