MODEL 1
REMARK minimizedAffinity 1.62296534
REMARK minimizedRMSD -1
REMARK  1 active torsions:
REMARK  status: ('A' for Active; 'I' for Inactive)
REMARK    1  A    between atoms: C1_2  and  C2_3 
ROOT
ATOM      1  C2  UNL d   1       0.485   2.911   0.603  0.00  0.00    -0.077 A 
ATOM      2  C3  UNL d   1      -0.778   2.699   0.032  0.00  0.00     0.002 A 
ATOM      3  C4  UNL d   1      -1.049   3.138  -1.265  0.00  0.00     0.002 A 
ATOM      4  C5  UNL d   1      -0.062   3.789  -2.003  0.00  0.00    -0.004 A 
ATOM      5  C6  UNL d   1       1.196   4.006  -1.443  0.00  0.00     0.002 A 
ATOM      6  C7  UNL d   1       1.469   3.568  -0.146  0.00  0.00     0.002 A 
ENDROOT
BRANCH   1   7
ATOM      7  C1  UNL d   1       0.795   2.393   1.983  0.00  0.00     0.055 C 
ATOM      8  C   UNL d   1       2.195   2.796   2.424  0.00  0.00     0.019 C 
ENDBRANCH   1   7
TORSDOF 1
ENDMDL
