MODEL 1
REMARK minimizedAffinity 5.3446064
REMARK minimizedRMSD -1
REMARK  1 active torsions:
REMARK  status: ('A' for Active; 'I' for Inactive)
REMARK    1  A    between atoms: C1_2  and  C2_3 
ROOT
ATOM      1  C2  UNL d   1       2.334  -2.898  -0.642  0.00  0.00    -0.077 A 
ATOM      2  C3  UNL d   1       1.402  -3.300  -1.609  0.00  0.00     0.002 A 
ATOM      3  C4  UNL d   1       0.666  -4.474  -1.437  0.00  0.00     0.002 A 
ATOM      4  C5  UNL d   1       0.852  -5.253  -0.297  0.00  0.00    -0.004 A 
ATOM      5  C6  UNL d   1       1.777  -4.863   0.670  0.00  0.00     0.002 A 
ATOM      6  C7  UNL d   1       2.514  -3.690   0.499  0.00  0.00     0.002 A 
ENDROOT
BRANCH   1   7
ATOM      7  C1  UNL d   1       3.093  -1.607  -0.803  0.00  0.00     0.055 C 
ATOM      8  C   UNL d   1       2.246  -0.412  -0.388  0.00  0.00     0.019 C 
ENDBRANCH   1   7
TORSDOF 1
ENDMDL
