MODEL 1
REMARK minimizedAffinity 11.4784269
REMARK minimizedRMSD -1
REMARK  1 active torsions:
REMARK  status: ('A' for Active; 'I' for Inactive)
REMARK    1  A    between atoms: C1_2  and  C2_3 
ROOT
ATOM      1  C2  UNL d   1       2.243   5.220  -3.423  0.00  0.00    -0.077 A 
ATOM      2  C3  UNL d   1       1.659   4.086  -2.842  0.00  0.00     0.002 A 
ATOM      3  C4  UNL d   1       1.955   3.737  -1.523  0.00  0.00     0.002 A 
ATOM      4  C5  UNL d   1       2.831   4.518  -0.773  0.00  0.00    -0.004 A 
ATOM      5  C6  UNL d   1       3.419   5.647  -1.343  0.00  0.00     0.002 A 
ATOM      6  C7  UNL d   1       3.125   5.997  -2.662  0.00  0.00     0.002 A 
ENDROOT
BRANCH   1   7
ATOM      7  C1  UNL d   1       1.887   5.626  -4.830  0.00  0.00     0.055 C 
ATOM      8  C   UNL d   1       3.127   5.998  -5.629  0.00  0.00     0.019 C 
ENDBRANCH   1   7
TORSDOF 1
ENDMDL
