MODEL 1
REMARK minimizedAffinity 11.2810936
REMARK minimizedRMSD -1
REMARK  1 active torsions:
REMARK  status: ('A' for Active; 'I' for Inactive)
REMARK    1  A    between atoms: C1_2  and  C2_3 
ROOT
ATOM      1  C2  UNL d   1       0.787   3.498  -0.978  0.00  0.00    -0.077 A 
ATOM      2  C3  UNL d   1      -0.611   3.557  -1.064  0.00  0.00     0.002 A 
ATOM      3  C4  UNL d   1      -1.405   2.872  -0.142  0.00  0.00     0.002 A 
ATOM      4  C5  UNL d   1      -0.811   2.126   0.874  0.00  0.00    -0.004 A 
ATOM      5  C6  UNL d   1       0.579   2.059   0.966  0.00  0.00     0.002 A 
ATOM      6  C7  UNL d   1       1.374   2.742   0.045  0.00  0.00     0.002 A 
ENDROOT
BRANCH   1   7
ATOM      7  C1  UNL d   1       1.644   4.276  -1.941  0.00  0.00     0.055 C 
ATOM      8  C   UNL d   1       2.665   5.133  -1.206  0.00  0.00     0.019 C 
ENDBRANCH   1   7
TORSDOF 1
ENDMDL
