MODEL 1
REMARK minimizedAffinity 10.8204498
REMARK minimizedRMSD -1
REMARK  1 active torsions:
REMARK  status: ('A' for Active; 'I' for Inactive)
REMARK    1  A    between atoms: C1_2  and  C2_3 
ROOT
ATOM      1  C2  UNL d   1       3.052  -2.392  -0.404  0.00  0.00    -0.077 A 
ATOM      2  C3  UNL d   1       2.323  -1.711  -1.389  0.00  0.00     0.002 A 
ATOM      3  C4  UNL d   1       1.294  -2.355  -2.078  0.00  0.00     0.002 A 
ATOM      4  C5  UNL d   1       0.982  -3.682  -1.788  0.00  0.00    -0.004 A 
ATOM      5  C6  UNL d   1       1.702  -4.369  -0.812  0.00  0.00     0.002 A 
ATOM      6  C7  UNL d   1       2.732  -3.727  -0.122  0.00  0.00     0.002 A 
ENDROOT
BRANCH   1   7
ATOM      7  C1  UNL d   1       4.129  -1.685   0.375  0.00  0.00     0.055 C 
ATOM      8  C   UNL d   1       5.505  -2.255   0.062  0.00  0.00     0.019 C 
ENDBRANCH   1   7
TORSDOF 1
ENDMDL
