MODEL 1
REMARK minimizedAffinity 10.1217489
REMARK minimizedRMSD -1
REMARK  1 active torsions:
REMARK  status: ('A' for Active; 'I' for Inactive)
REMARK    1  A    between atoms: C1_2  and  C2_3 
ROOT
ATOM      1  C2  UNL d   1      -1.290   3.650  -1.385  0.00  0.00    -0.077 A 
ATOM      2  C3  UNL d   1       0.030   3.827  -1.821  0.00  0.00     0.002 A 
ATOM      3  C4  UNL d   1       1.082   3.180  -1.170  0.00  0.00     0.002 A 
ATOM      4  C5  UNL d   1       0.824   2.347  -0.084  0.00  0.00    -0.004 A 
ATOM      5  C6  UNL d   1      -0.486   2.166   0.359  0.00  0.00     0.002 A 
ATOM      6  C7  UNL d   1      -1.538   2.813  -0.290  0.00  0.00     0.002 A 
ENDROOT
BRANCH   1   7
ATOM      7  C1  UNL d   1      -2.431   4.309  -2.117  0.00  0.00     0.055 C 
ATOM      8  C   UNL d   1      -3.395   3.277  -2.683  0.00  0.00     0.019 C 
ENDBRANCH   1   7
TORSDOF 1
ENDMDL
