MODEL 1
REMARK minimizedAffinity 14.2589569
REMARK minimizedRMSD -1
REMARK  1 active torsions:
REMARK  status: ('A' for Active; 'I' for Inactive)
REMARK    1  A    between atoms: C1_2  and  C2_3 
ROOT
ATOM      1  C2  UNL d   1       3.258  -5.309  -0.906  0.00  0.00    -0.077 A 
ATOM      2  C3  UNL d   1       2.056  -5.998  -1.119  0.00  0.00     0.002 A 
ATOM      3  C4  UNL d   1       0.831  -5.344  -0.969  0.00  0.00     0.002 A 
ATOM      4  C5  UNL d   1       0.798  -3.998  -0.611  0.00  0.00    -0.004 A 
ATOM      5  C6  UNL d   1       1.988  -3.305  -0.395  0.00  0.00     0.002 A 
ATOM      6  C7  UNL d   1       3.213  -3.957  -0.543  0.00  0.00     0.002 A 
ENDROOT
BRANCH   1   7
ATOM      7  C1  UNL d   1       4.581  -5.999  -1.115  0.00  0.00     0.055 C 
ATOM      8  C   UNL d   1       5.691  -5.318  -0.328  0.00  0.00     0.019 C 
ENDBRANCH   1   7
TORSDOF 1
ENDMDL
