MODEL 1
REMARK minimizedAffinity 9.59911251
REMARK minimizedRMSD -1
REMARK  0 active torsions:
REMARK  status: ('A' for Active; 'I' for Inactive)
ROOT
ATOM      1  C4' PXY d   1      -5.591  -5.319  -1.784  0.00  0.00     0.077 C 
ATOM      2  C1' PXY d   1      -0.294  -4.079  -3.737  0.00  0.00     0.077 C 
ATOM      3  C1  PXY d   1      -1.684  -4.392  -3.221  0.00  0.00    -0.082 A 
ATOM      4  C2  PXY d   1      -2.011  -5.643  -2.939  0.00  0.00     0.003 A 
ATOM      5  C3  PXY d   1      -3.274  -5.948  -2.502  0.00  0.00     0.003 A 
ATOM      6  C4  PXY d   1      -4.196  -4.956  -2.299  0.00  0.00    -0.082 A 
ATOM      7  C5  PXY d   1      -3.866  -3.676  -2.574  0.00  0.00     0.003 A 
ATOM      8  C6  PXY d   1      -2.592  -3.392  -3.057  0.00  0.00     0.003 A 
ENDROOT
TORSDOF 0
ENDMDL
