MODEL 1
REMARK minimizedAffinity 9.01779079
REMARK minimizedRMSD -1
REMARK  0 active torsions:
REMARK  status: ('A' for Active; 'I' for Inactive)
ROOT
ATOM      1  C4' PXY d   1       3.831   1.522  -1.014  0.00  0.00     0.077 C 
ATOM      2  C1' PXY d   1       0.584   0.818   3.717  0.00  0.00     0.077 C 
ATOM      3  C1  PXY d   1       1.445   0.996   2.482  0.00  0.00    -0.082 A 
ATOM      4  C2  PXY d   1       1.194   1.992   1.647  0.00  0.00     0.003 A 
ATOM      5  C3  PXY d   1       1.943   2.149   0.509  0.00  0.00     0.003 A 
ATOM      6  C4  PXY d   1       2.993   1.310   0.250  0.00  0.00    -0.082 A 
ATOM      7  C5  PXY d   1       3.262   0.298   1.102  0.00  0.00     0.003 A 
ATOM      8  C6  PXY d   1       2.465   0.131   2.230  0.00  0.00     0.003 A 
ENDROOT
TORSDOF 0
ENDMDL
