MODEL 1
REMARK minimizedAffinity 11.6713362
REMARK minimizedRMSD -1
REMARK  0 active torsions:
REMARK  status: ('A' for Active; 'I' for Inactive)
ROOT
ATOM      1  C4' PXY d   1       1.916   0.499   4.857  0.00  0.00     0.077 C 
ATOM      2  C1' PXY d   1       2.872   1.480  -0.759  0.00  0.00     0.077 C 
ATOM      3  C1  PXY d   1       2.630   1.212   0.714  0.00  0.00    -0.082 A 
ATOM      4  C2  PXY d   1       1.503   1.619   1.275  0.00  0.00     0.003 A 
ATOM      5  C3  PXY d   1       1.281   1.414   2.613  0.00  0.00     0.003 A 
ATOM      6  C4  PXY d   1       2.199   0.739   3.372  0.00  0.00    -0.082 A 
ATOM      7  C5  PXY d   1       3.347   0.312   2.804  0.00  0.00     0.003 A 
ATOM      8  C6  PXY d   1       3.571   0.566   1.454  0.00  0.00     0.003 A 
ENDROOT
TORSDOF 0
ENDMDL
