MODEL 1
REMARK minimizedAffinity 11.949605
REMARK minimizedRMSD -1
REMARK  0 active torsions:
REMARK  status: ('A' for Active; 'I' for Inactive)
ROOT
ATOM      1  C4' PXY d   1      -6.000  -6.000  -3.406  0.00  0.00     0.077 C 
ATOM      2  C1' PXY d   1      -2.174  -1.867  -2.102  0.00  0.00     0.077 C 
ATOM      3  C1  PXY d   1      -3.168  -2.960  -2.442  0.00  0.00    -0.082 A 
ATOM      4  C2  PXY d   1      -4.239  -2.669  -3.163  0.00  0.00     0.003 A 
ATOM      5  C3  PXY d   1      -5.164  -3.639  -3.454  0.00  0.00     0.003 A 
ATOM      6  C4  PXY d   1      -4.965  -4.931  -3.046  0.00  0.00    -0.082 A 
ATOM      7  C5  PXY d   1      -3.870  -5.238  -2.320  0.00  0.00     0.003 A 
ATOM      8  C6  PXY d   1      -2.963  -4.231  -2.001  0.00  0.00     0.003 A 
ENDROOT
TORSDOF 0
ENDMDL
