MODEL 1
REMARK minimizedAffinity 7.35464096
REMARK minimizedRMSD -1
REMARK  0 active torsions:
REMARK  status: ('A' for Active; 'I' for Inactive)
ROOT
ATOM      1  C4' PXY d   1       3.823   1.561  -1.868  0.00  0.00     0.077 C 
ATOM      2  C1' PXY d   1       3.659  -0.917   3.352  0.00  0.00     0.077 C 
ATOM      3  C1  PXY d   1       3.715  -0.271   1.982  0.00  0.00    -0.082 A 
ATOM      4  C2  PXY d   1       2.878   0.711   1.687  0.00  0.00     0.003 A 
ATOM      5  C3  PXY d   1       2.892   1.284   0.442  0.00  0.00     0.003 A 
ATOM      6  C4  PXY d   1       3.809   0.886  -0.494  0.00  0.00    -0.082 A 
ATOM      7  C5  PXY d   1       4.674  -0.108  -0.197  0.00  0.00     0.003 A 
ATOM      8  C6  PXY d   1       4.615  -0.705   1.059  0.00  0.00     0.003 A 
ENDROOT
TORSDOF 0
ENDMDL
