MODEL 1
REMARK minimizedAffinity 11.846961
REMARK minimizedRMSD -1
REMARK  0 active torsions:
REMARK  status: ('A' for Active; 'I' for Inactive)
ROOT
ATOM      1  C4' PXY d   1      -3.317  -5.949  -1.872  0.00  0.00     0.077 C 
ATOM      2  C1' PXY d   1      -0.901  -1.957  -5.284  0.00  0.00     0.077 C 
ATOM      3  C1  PXY d   1      -1.540  -2.995  -4.382  0.00  0.00    -0.082 A 
ATOM      4  C2  PXY d   1      -1.001  -4.199  -4.286  0.00  0.00     0.003 A 
ATOM      5  C3  PXY d   1      -1.584  -5.159  -3.500  0.00  0.00     0.003 A 
ATOM      6  C4  PXY d   1      -2.701  -4.867  -2.763  0.00  0.00    -0.082 A 
ATOM      7  C5  PXY d   1      -3.251  -3.638  -2.847  0.00  0.00     0.003 A 
ATOM      8  C6  PXY d   1      -2.667  -2.690  -3.683  0.00  0.00     0.003 A 
ENDROOT
TORSDOF 0
ENDMDL
