MODEL 1
REMARK minimizedAffinity 9.40062141
REMARK minimizedRMSD -1
REMARK  0 active torsions:
REMARK  status: ('A' for Active; 'I' for Inactive)
ROOT
ATOM      1  C4' PXY d   1      -4.651  -0.539   2.341  0.00  0.00     0.077 C 
ATOM      2  C1' PXY d   1      -5.779   3.792   5.999  0.00  0.00     0.077 C 
ATOM      3  C1  PXY d   1      -5.485   2.648   5.049  0.00  0.00    -0.082 A 
ATOM      4  C2  PXY d   1      -4.734   2.861   3.981  0.00  0.00     0.003 A 
ATOM      5  C3  PXY d   1      -4.485   1.845   3.095  0.00  0.00     0.003 A 
ATOM      6  C4  PXY d   1      -4.966   0.585   3.332  0.00  0.00    -0.082 A 
ATOM      7  C5  PXY d   1      -5.724   0.357   4.426  0.00  0.00     0.003 A 
ATOM      8  C6  PXY d   1      -5.999   1.411   5.291  0.00  0.00     0.003 A 
ENDROOT
TORSDOF 0
ENDMDL
