MODEL 1
REMARK minimizedAffinity 15.33673
REMARK minimizedRMSD -1
REMARK  0 active torsions:
REMARK  status: ('A' for Active; 'I' for Inactive)
ROOT
ATOM      1  C4' PXY d   1      -6.000  -6.000  -3.307  0.00  0.00     0.077 C 
ATOM      2  C1' PXY d   1      -2.346  -1.736  -1.932  0.00  0.00     0.077 C 
ATOM      3  C1  PXY d   1      -3.314  -2.846  -2.294  0.00  0.00    -0.082 A 
ATOM      4  C2  PXY d   1      -3.072  -4.083  -1.891  0.00  0.00     0.003 A 
ATOM      5  C3  PXY d   1      -3.920  -5.103  -2.236  0.00  0.00     0.003 A 
ATOM      6  C4  PXY d   1      -5.055  -4.847  -2.957  0.00  0.00    -0.082 A 
ATOM      7  C5  PXY d   1      -5.315  -3.586  -3.363  0.00  0.00     0.003 A 
ATOM      8  C6  PXY d   1      -4.420  -2.571  -3.037  0.00  0.00     0.003 A 
ENDROOT
TORSDOF 0
ENDMDL
