MODEL 1
REMARK minimizedAffinity 6.51565504
REMARK minimizedRMSD -1
REMARK  0 active torsions:
REMARK  status: ('A' for Active; 'I' for Inactive)
ROOT
ATOM      1  C4' PXY d   1       0.891   1.084   2.020  0.00  0.00     0.077 C 
ATOM      2  C1' PXY d   1       5.998   0.784  -0.672  0.00  0.00     0.077 C 
ATOM      3  C1  PXY d   1       4.659   0.875   0.033  0.00  0.00    -0.082 A 
ATOM      4  C2  PXY d   1       4.301  -0.072   0.884  0.00  0.00     0.003 A 
ATOM      5  C3  PXY d   1       3.080  -0.022   1.505  0.00  0.00     0.003 A 
ATOM      6  C4  PXY d   1       2.238   1.037   1.293  0.00  0.00    -0.082 A 
ATOM      7  C5  PXY d   1       2.601   2.014   0.435  0.00  0.00     0.003 A 
ATOM      8  C6  PXY d   1       3.827   1.923  -0.217  0.00  0.00     0.003 A 
ENDROOT
TORSDOF 0
ENDMDL
