MODEL 1
REMARK minimizedAffinity 11.8683853
REMARK minimizedRMSD -1
REMARK  0 active torsions:
REMARK  status: ('A' for Active; 'I' for Inactive)
ROOT
ATOM      1  C4' PXY d   1      -4.884   4.247   6.000  0.00  0.00     0.077 C 
ATOM      2  C1' PXY d   1      -5.647  -0.838   3.358  0.00  0.00     0.077 C 
ATOM      3  C1  PXY d   1      -5.458   0.494   4.058  0.00  0.00    -0.082 A 
ATOM      4  C2  PXY d   1      -4.756   1.448   3.469  0.00  0.00     0.003 A 
ATOM      5  C3  PXY d   1      -4.548   2.647   4.101  0.00  0.00     0.003 A 
ATOM      6  C4  PXY d   1      -5.109   2.890   5.326  0.00  0.00    -0.082 A 
ATOM      7  C5  PXY d   1      -5.835   1.925   5.929  0.00  0.00     0.003 A 
ATOM      8  C6  PXY d   1      -6.000   0.701   5.289  0.00  0.00     0.003 A 
ENDROOT
TORSDOF 0
ENDMDL
