MODEL 1
REMARK minimizedAffinity 13.3523941
REMARK minimizedRMSD -1
REMARK  0 active torsions:
REMARK  status: ('A' for Active; 'I' for Inactive)
ROOT
ATOM      1  C4' PXY d   1       1.171   1.510   1.919  0.00  0.00     0.077 C 
ATOM      2  C1' PXY d   1       5.999   0.998  -1.217  0.00  0.00     0.077 C 
ATOM      3  C1  PXY d   1       4.731   1.119  -0.395  0.00  0.00    -0.082 A 
ATOM      4  C2  PXY d   1       4.060   2.260  -0.392  0.00  0.00     0.003 A 
ATOM      5  C3  PXY d   1       2.929   2.397   0.371  0.00  0.00     0.003 A 
ATOM      6  C4  PXY d   1       2.451   1.339   1.097  0.00  0.00    -0.082 A 
ATOM      7  C5  PXY d   1       3.124   0.169   1.091  0.00  0.00     0.003 A 
ATOM      8  C6  PXY d   1       4.292   0.063   0.342  0.00  0.00     0.003 A 
ENDROOT
TORSDOF 0
ENDMDL
