MODEL 1
REMARK minimizedAffinity 11.2724733
REMARK minimizedRMSD -1
REMARK  0 active torsions:
REMARK  status: ('A' for Active; 'I' for Inactive)
ROOT
ATOM      1  C4' PXY d   1       0.502  -0.333   2.366  0.00  0.00     0.077 C 
ATOM      2  C1' PXY d   1       3.915   2.342  -1.456  0.00  0.00     0.077 C 
ATOM      3  C1  PXY d   1       3.024   1.629  -0.458  0.00  0.00    -0.082 A 
ATOM      4  C2  PXY d   1       1.931   2.226  -0.013  0.00  0.00     0.003 A 
ATOM      5  C3  PXY d   1       1.131   1.609   0.914  0.00  0.00     0.003 A 
ATOM      6  C4  PXY d   1       1.425   0.345   1.351  0.00  0.00    -0.082 A 
ATOM      7  C5  PXY d   1       2.534  -0.276   0.894  0.00  0.00     0.003 A 
ATOM      8  C6  PXY d   1       3.354   0.385  -0.016  0.00  0.00     0.003 A 
ENDROOT
TORSDOF 0
ENDMDL
