MODEL 1
REMARK minimizedAffinity 14.7931595
REMARK minimizedRMSD -1
REMARK  0 active torsions:
REMARK  status: ('A' for Active; 'I' for Inactive)
ROOT
ATOM      1  C4' PXY d   1      -2.896  -3.088  -2.297  0.00  0.00     0.077 C 
ATOM      2  C1' PXY d   1      -0.780  -1.220   2.748  0.00  0.00     0.077 C 
ATOM      3  C1  PXY d   1      -1.323  -1.713   1.421  0.00  0.00    -0.082 A 
ATOM      4  C2  PXY d   1      -2.504  -1.289   0.999  0.00  0.00     0.003 A 
ATOM      5  C3  PXY d   1      -3.024  -1.749  -0.183  0.00  0.00     0.003 A 
ATOM      6  C4  PXY d   1      -2.305  -2.610  -0.968  0.00  0.00    -0.082 A 
ATOM      7  C5  PXY d   1      -1.094  -3.038  -0.550  0.00  0.00     0.003 A 
ATOM      8  C6  PXY d   1      -0.602  -2.592   0.673  0.00  0.00     0.003 A 
ENDROOT
TORSDOF 0
ENDMDL
