MODEL 1
REMARK minimizedAffinity 22.8527603
REMARK minimizedRMSD -1
REMARK  0 active torsions:
REMARK  status: ('A' for Active; 'I' for Inactive)
ROOT
ATOM      1  C4' PXY d   1      -2.684  -2.510  -2.531  0.00  0.00     0.077 C 
ATOM      2  C1' PXY d   1      -1.010  -2.700   2.999  0.00  0.00     0.077 C 
ATOM      3  C1  PXY d   1      -1.462  -2.652   1.553  0.00  0.00    -0.082 A 
ATOM      4  C2  PXY d   1      -0.600  -2.935   0.589  0.00  0.00     0.003 A 
ATOM      5  C3  PXY d   1      -0.983  -2.865  -0.726  0.00  0.00     0.003 A 
ATOM      6  C4  PXY d   1      -2.275  -2.555  -1.056  0.00  0.00    -0.082 A 
ATOM      7  C5  PXY d   1      -3.163  -2.276  -0.078  0.00  0.00     0.003 A 
ATOM      8  C6  PXY d   1      -2.744  -2.312   1.249  0.00  0.00     0.003 A 
ENDROOT
TORSDOF 0
ENDMDL
