MODEL 1
REMARK minimizedAffinity 10.3658428
REMARK minimizedRMSD -1
REMARK  0 active torsions:
REMARK  status: ('A' for Active; 'I' for Inactive)
ROOT
ATOM      1  C4' PXY d   1       1.136   0.135   4.414  0.00  0.00     0.077 C 
ATOM      2  C1' PXY d   1       4.692  -0.608  -0.082  0.00  0.00     0.077 C 
ATOM      3  C1  PXY d   1       3.754  -0.403   1.090  0.00  0.00    -0.082 A 
ATOM      4  C2  PXY d   1       4.121  -0.797   2.299  0.00  0.00     0.003 A 
ATOM      5  C3  PXY d   1       3.272  -0.649   3.365  0.00  0.00     0.003 A 
ATOM      6  C4  PXY d   1       2.055  -0.043   3.202  0.00  0.00    -0.082 A 
ATOM      7  C5  PXY d   1       1.677   0.371   1.974  0.00  0.00     0.003 A 
ATOM      8  C6  PXY d   1       2.537   0.174   0.898  0.00  0.00     0.003 A 
ENDROOT
TORSDOF 0
ENDMDL
