MODEL 1
REMARK minimizedAffinity 15.6107569
REMARK minimizedRMSD -1
REMARK  0 active torsions:
REMARK  status: ('A' for Active; 'I' for Inactive)
ROOT
ATOM      1  C4' PXY d   1       3.760   2.182  -1.867  0.00  0.00     0.077 C 
ATOM      2  C1' PXY d   1       0.864   0.280   2.760  0.00  0.00     0.077 C 
ATOM      3  C1  PXY d   1       1.633   0.771   1.549  0.00  0.00    -0.082 A 
ATOM      4  C2  PXY d   1       1.377   1.971   1.054  0.00  0.00     0.003 A 
ATOM      5  C3  PXY d   1       2.041   2.417  -0.059  0.00  0.00     0.003 A 
ATOM      6  C4  PXY d   1       3.014   1.649  -0.640  0.00  0.00    -0.082 A 
ATOM      7  C5  PXY d   1       3.288   0.428  -0.135  0.00  0.00     0.003 A 
ATOM      8  C6  PXY d   1       2.574  -0.024   0.972  0.00  0.00     0.003 A 
ENDROOT
TORSDOF 0
ENDMDL
