MODEL 1
REMARK minimizedAffinity 12.8214674
REMARK minimizedRMSD -1
REMARK  0 active torsions:
REMARK  status: ('A' for Active; 'I' for Inactive)
ROOT
ATOM      1  C4' PXY d   1      -6.000   6.000   4.221  0.00  0.00     0.077 C 
ATOM      2  C1' PXY d   1      -3.718   0.716   3.679  0.00  0.00     0.077 C 
ATOM      3  C1  PXY d   1      -4.318   2.100   3.834  0.00  0.00    -0.082 A 
ATOM      4  C2  PXY d   1      -4.906   2.678   2.799  0.00  0.00     0.003 A 
ATOM      5  C3  PXY d   1      -5.425   3.942   2.913  0.00  0.00     0.003 A 
ATOM      6  C4  PXY d   1      -5.389   4.600   4.113  0.00  0.00    -0.082 A 
ATOM      7  C5  PXY d   1      -4.800   4.013   5.177  0.00  0.00     0.003 A 
ATOM      8  C6  PXY d   1      -4.243   2.746   5.030  0.00  0.00     0.003 A 
ENDROOT
TORSDOF 0
ENDMDL
