MODEL 1
REMARK minimizedAffinity 15.7580261
REMARK minimizedRMSD -1
REMARK  0 active torsions:
REMARK  status: ('A' for Active; 'I' for Inactive)
ROOT
ATOM      1  C4' PXY d   1       0.670  -4.940  -3.858  0.00  0.00     0.077 C 
ATOM      2  C1' PXY d   1      -4.707  -3.792  -2.074  0.00  0.00     0.077 C 
ATOM      3  C1  PXY d   1      -3.297  -4.104  -2.534  0.00  0.00    -0.082 A 
ATOM      4  C2  PXY d   1      -2.535  -3.133  -3.012  0.00  0.00     0.003 A 
ATOM      5  C3  PXY d   1      -1.268  -3.403  -3.462  0.00  0.00     0.003 A 
ATOM      6  C4  PXY d   1      -0.757  -4.670  -3.373  0.00  0.00    -0.082 A 
ATOM      7  C5  PXY d   1      -1.524  -5.664  -2.877  0.00  0.00     0.003 A 
ATOM      8  C6  PXY d   1      -2.822  -5.377  -2.464  0.00  0.00     0.003 A 
ENDROOT
TORSDOF 0
ENDMDL
