MODEL 1
REMARK minimizedAffinity 15.2968311
REMARK minimizedRMSD -1
REMARK  0 active torsions:
REMARK  status: ('A' for Active; 'I' for Inactive)
ROOT
ATOM      1  C4' PXY d   1       1.836   0.759   2.484  0.00  0.00     0.077 C 
ATOM      2  C1' PXY d   1       6.000   1.005  -1.518  0.00  0.00     0.077 C 
ATOM      3  C1  PXY d   1       4.909   0.927  -0.468  0.00  0.00    -0.082 A 
ATOM      4  C2  PXY d   1       4.006   1.891  -0.390  0.00  0.00     0.003 A 
ATOM      5  C3  PXY d   1       3.032   1.853   0.574  0.00  0.00     0.003 A 
ATOM      6  C4  PXY d   1       2.949   0.791   1.434  0.00  0.00    -0.082 A 
ATOM      7  C5  PXY d   1       3.861  -0.202   1.354  0.00  0.00     0.003 A 
ATOM      8  C6  PXY d   1       4.866  -0.124   0.395  0.00  0.00     0.003 A 
ENDROOT
TORSDOF 0
ENDMDL
