MODEL 1
REMARK minimizedAffinity 23.0286789
REMARK minimizedRMSD -1
REMARK  0 active torsions:
REMARK  status: ('A' for Active; 'I' for Inactive)
ROOT
ATOM      1  C4' PXY d   1      -5.674  -2.525  -4.807  0.00  0.00     0.077 C 
ATOM      2  C1' PXY d   1      -4.104  -6.000  -0.462  0.00  0.00     0.077 C 
ATOM      3  C1  PXY d   1      -4.508  -5.079  -1.596  0.00  0.00    -0.082 A 
ATOM      4  C2  PXY d   1      -5.631  -5.309  -2.257  0.00  0.00     0.003 A 
ATOM      5  C3  PXY d   1      -5.996  -4.505  -3.306  0.00  0.00     0.003 A 
ATOM      6  C4  PXY d   1      -5.231  -3.423  -3.648  0.00  0.00    -0.082 A 
ATOM      7  C5  PXY d   1      -4.089  -3.175  -2.972  0.00  0.00     0.003 A 
ATOM      8  C6  PXY d   1      -3.715  -4.027  -1.937  0.00  0.00     0.003 A 
ENDROOT
TORSDOF 0
ENDMDL
