MODEL 1
REMARK minimizedAffinity -5.10726881
REMARK minimizedRMSD -1
REMARK  0 active torsions:
REMARK  status: ('A' for Active; 'I' for Inactive)
ROOT
ATOM      1  C   UNL d   1      -1.306   1.269   1.494  0.00  0.00     0.023 A 
ATOM      2  C1  UNL d   1      -1.582  -0.058   1.823  0.00  0.00     0.003 A 
ATOM      3  C2  UNL d   1      -1.078  -1.094   1.034  0.00  0.00     0.048 A 
ATOM      4  C3  UNL d   1      -0.297  -0.796  -0.081  0.00  0.00     0.023 A 
ATOM      5  C4  UNL d   1      -0.016   0.531  -0.414  0.00  0.00     0.048 A 
ATOM      6  C5  UNL d   1      -0.524   1.563   0.377  0.00  0.00     0.003 A 
ATOM      7  I   UNL d   1       0.455  -2.336  -1.257  0.00  0.00    -0.146 I 
ENDROOT
TORSDOF 0
ENDMDL
