MODEL 1
REMARK minimizedAffinity -3.36747384
REMARK minimizedRMSD -1
REMARK  0 active torsions:
REMARK  status: ('A' for Active; 'I' for Inactive)
ROOT
ATOM      1  C   UNL d   1      -0.703   0.861   1.009  0.00  0.00     0.023 A 
ATOM      2  C1  UNL d   1      -0.293   1.016  -0.316  0.00  0.00     0.003 A 
ATOM      3  C2  UNL d   1       0.103  -0.096  -1.060  0.00  0.00     0.048 A 
ATOM      4  C3  UNL d   1       0.087  -1.362  -0.474  0.00  0.00     0.023 A 
ATOM      5  C4  UNL d   1      -0.323  -1.522   0.850  0.00  0.00     0.048 A 
ATOM      6  C5  UNL d   1      -0.718  -0.406   1.591  0.00  0.00     0.003 A 
ATOM      7  I   UNL d   1       0.677  -3.020  -1.580  0.00  0.00    -0.146 I 
ENDROOT
TORSDOF 0
ENDMDL
