MODEL 1
REMARK minimizedAffinity -4.6342864
REMARK minimizedRMSD -1
REMARK  0 active torsions:
REMARK  status: ('A' for Active; 'I' for Inactive)
ROOT
ATOM      1  C   UNL d   1      -1.517   2.523   0.734  0.00  0.00     0.023 A 
ATOM      2  C1  UNL d   1      -0.687   2.519  -0.387  0.00  0.00     0.003 A 
ATOM      3  C2  UNL d   1      -0.044   1.342  -0.776  0.00  0.00     0.048 A 
ATOM      4  C3  UNL d   1      -0.235   0.173  -0.040  0.00  0.00     0.023 A 
ATOM      5  C4  UNL d   1      -1.066   0.173   1.082  0.00  0.00     0.048 A 
ATOM      6  C5  UNL d   1      -1.706   1.352   1.468  0.00  0.00     0.003 A 
ATOM      7  I   UNL d   1       0.721  -1.579  -0.617  0.00  0.00    -0.146 I 
ENDROOT
TORSDOF 0
ENDMDL
