MODEL 1
REMARK minimizedAffinity -1.15412211
REMARK minimizedRMSD -1
REMARK  0 active torsions:
REMARK  status: ('A' for Active; 'I' for Inactive)
ROOT
ATOM      1  C   UNL d   1      -0.080  -4.037  -2.676  0.00  0.00     0.023 A 
ATOM      2  C1  UNL d   1      -0.665  -2.908  -3.249  0.00  0.00     0.003 A 
ATOM      3  C2  UNL d   1      -0.517  -1.659  -2.643  0.00  0.00     0.048 A 
ATOM      4  C3  UNL d   1       0.219  -1.545  -1.464  0.00  0.00     0.023 A 
ATOM      5  C4  UNL d   1       0.807  -2.672  -0.887  0.00  0.00     0.048 A 
ATOM      6  C5  UNL d   1       0.655  -3.919  -1.496  0.00  0.00     0.003 A 
ATOM      7  I   UNL d   1       0.441   0.313  -0.560  0.00  0.00    -0.146 I 
ENDROOT
TORSDOF 0
ENDMDL
