MODEL 1
REMARK minimizedAffinity -4.3925271
REMARK minimizedRMSD -1
REMARK  0 active torsions:
REMARK  status: ('A' for Active; 'I' for Inactive)
ROOT
ATOM      1  C   UNL d   1      -1.653   1.643   1.686  0.00  0.00     0.023 A 
ATOM      2  C1  UNL d   1      -1.128   0.493   2.276  0.00  0.00     0.003 A 
ATOM      3  C2  UNL d   1      -0.468  -0.456   1.493  0.00  0.00     0.048 A 
ATOM      4  C3  UNL d   1      -0.337  -0.249   0.120  0.00  0.00     0.023 A 
ATOM      5  C4  UNL d   1      -0.860   0.901  -0.475  0.00  0.00     0.048 A 
ATOM      6  C5  UNL d   1      -1.519   1.847   0.313  0.00  0.00     0.003 A 
ATOM      7  I   UNL d   1       0.645  -1.660  -1.048  0.00  0.00    -0.146 I 
ENDROOT
TORSDOF 0
ENDMDL
