MODEL 1
REMARK minimizedAffinity -3.94690394
REMARK minimizedRMSD -1
REMARK  0 active torsions:
REMARK  status: ('A' for Active; 'I' for Inactive)
ROOT
ATOM      1  C   UNL d   1      -2.104   2.054   1.998  0.00  0.00     0.023 A 
ATOM      2  C1  UNL d   1      -1.139   1.222   2.565  0.00  0.00     0.003 A 
ATOM      3  C2  UNL d   1      -0.344   0.413   1.750  0.00  0.00     0.048 A 
ATOM      4  C3  UNL d   1      -0.520   0.443   0.367  0.00  0.00     0.023 A 
ATOM      5  C4  UNL d   1      -1.484   1.274  -0.206  0.00  0.00     0.048 A 
ATOM      6  C5  UNL d   1      -2.276   2.080   0.614  0.00  0.00     0.003 A 
ATOM      7  I   UNL d   1       0.661  -0.760  -0.850  0.00  0.00    -0.146 I 
ENDROOT
TORSDOF 0
ENDMDL
