MODEL 1
REMARK minimizedAffinity -3.52501202
REMARK minimizedRMSD -1
REMARK  0 active torsions:
REMARK  status: ('A' for Active; 'I' for Inactive)
ROOT
ATOM      1  C   UNL d   1      -1.563   1.511   1.940  0.00  0.00     0.023 A 
ATOM      2  C1  UNL d   1      -0.999   0.322   2.402  0.00  0.00     0.003 A 
ATOM      3  C2  UNL d   1      -0.363  -0.544   1.510  0.00  0.00     0.048 A 
ATOM      4  C3  UNL d   1      -0.294  -0.213   0.157  0.00  0.00     0.023 A 
ATOM      5  C4  UNL d   1      -0.856   0.976  -0.310  0.00  0.00     0.048 A 
ATOM      6  C5  UNL d   1      -1.491   1.838   0.586  0.00  0.00     0.003 A 
ATOM      7  I   UNL d   1       0.653  -1.500  -1.173  0.00  0.00    -0.146 I 
ENDROOT
TORSDOF 0
ENDMDL
