MODEL 1
REMARK minimizedAffinity -2.88450837
REMARK minimizedRMSD -1
REMARK  0 active torsions:
REMARK  status: ('A' for Active; 'I' for Inactive)
ROOT
ATOM      1  C   UNL d   1      -0.542   1.775   1.440  0.00  0.00     0.023 A 
ATOM      2  C1  UNL d   1      -0.921   0.462   1.720  0.00  0.00     0.003 A 
ATOM      3  C2  UNL d   1      -0.570  -0.569   0.846  0.00  0.00     0.048 A 
ATOM      4  C3  UNL d   1       0.162  -0.280  -0.305  0.00  0.00     0.023 A 
ATOM      5  C4  UNL d   1       0.544   1.032  -0.589  0.00  0.00     0.048 A 
ATOM      6  C5  UNL d   1       0.190   2.059   0.287  0.00  0.00     0.003 A 
ATOM      7  I   UNL d   1       0.686  -1.813  -1.607  0.00  0.00    -0.146 I 
ENDROOT
TORSDOF 0
ENDMDL
