MODEL 1
REMARK minimizedAffinity -2.86639023
REMARK minimizedRMSD -1
REMARK  0 active torsions:
REMARK  status: ('A' for Active; 'I' for Inactive)
ROOT
ATOM      1  C   UNL d   1      -1.684   1.772   1.736  0.00  0.00     0.023 A 
ATOM      2  C1  UNL d   1      -1.868   1.846   0.355  0.00  0.00     0.003 A 
ATOM      3  C2  UNL d   1      -1.394   0.823  -0.469  0.00  0.00     0.048 A 
ATOM      4  C3  UNL d   1      -0.738  -0.271   0.094  0.00  0.00     0.023 A 
ATOM      5  C4  UNL d   1      -0.552  -0.349   1.475  0.00  0.00     0.048 A 
ATOM      6  C5  UNL d   1      -1.026   0.676   2.295  0.00  0.00     0.003 A 
ATOM      7  I   UNL d   1      -0.032  -1.794  -1.132  0.00  0.00    -0.146 I 
ENDROOT
TORSDOF 0
ENDMDL
