MODEL 1
REMARK minimizedAffinity -3.17235374
REMARK minimizedRMSD -1
REMARK  0 active torsions:
REMARK  status: ('A' for Active; 'I' for Inactive)
ROOT
ATOM      1  C   UNL d   1       1.676  -0.969  -2.039  0.00  0.00     0.023 A 
ATOM      2  C1  UNL d   1       1.792   0.344  -1.584  0.00  0.00     0.003 A 
ATOM      3  C2  UNL d   1       0.993   0.792  -0.530  0.00  0.00     0.048 A 
ATOM      4  C3  UNL d   1       0.081  -0.079   0.065  0.00  0.00     0.023 A 
ATOM      5  C4  UNL d   1      -0.039  -1.394  -0.387  0.00  0.00     0.048 A 
ATOM      6  C5  UNL d   1       0.762  -1.837  -1.442  0.00  0.00     0.003 A 
ATOM      7  I   UNL d   1      -1.110   0.585   1.634  0.00  0.00    -0.146 I 
ENDROOT
TORSDOF 0
ENDMDL
