MODEL 1
REMARK minimizedAffinity -2.14072466
REMARK minimizedRMSD -1
REMARK  0 active torsions:
REMARK  status: ('A' for Active; 'I' for Inactive)
ROOT
ATOM      1  C   UNL d   1      -1.724   1.725   1.610  0.00  0.00     0.023 A 
ATOM      2  C1  UNL d   1      -0.853   0.831   2.232  0.00  0.00     0.003 A 
ATOM      3  C2  UNL d   1      -0.021   0.015   1.463  0.00  0.00     0.048 A 
ATOM      4  C3  UNL d   1      -0.064   0.099   0.072  0.00  0.00     0.023 A 
ATOM      5  C4  UNL d   1      -0.933   0.994  -0.555  0.00  0.00     0.048 A 
ATOM      6  C5  UNL d   1      -1.764   1.807   0.218  0.00  0.00     0.003 A 
ATOM      7  I   UNL d   1       1.174  -1.114  -1.075  0.00  0.00    -0.146 I 
ENDROOT
TORSDOF 0
ENDMDL
