MODEL 1
REMARK minimizedAffinity -3.71356893
REMARK minimizedRMSD -1
REMARK  0 active torsions:
REMARK  status: ('A' for Active; 'I' for Inactive)
ROOT
ATOM      1  C   UNL d   1      -0.370   0.671  -0.218  0.00  0.00     0.172 C 
ATOM      2  N   UNL d   1       0.632  -0.252   0.259  0.00  0.00    -0.070 N 
ATOM      3  C1  UNL d   1       1.954  -0.249  -0.097  0.00  0.00    -0.004 A 
ATOM      4  C2  UNL d   1       2.574  -1.282   0.572  0.00  0.00    -0.047 A 
ATOM      5  C3  UNL d   1       1.590  -1.929   1.357  0.00  0.00    -0.047 A 
ATOM      6  C4  UNL d   1       0.397  -1.271   1.144  0.00  0.00    -0.004 A 
ENDROOT
TORSDOF 0
ENDMDL
