MODEL 1
REMARK minimizedAffinity -3.58267188
REMARK minimizedRMSD -1
REMARK  0 active torsions:
REMARK  status: ('A' for Active; 'I' for Inactive)
ROOT
ATOM      1  C   UNL d   1      -0.755   0.422  -0.044  0.00  0.00     0.172 C 
ATOM      2  N   UNL d   1       0.045  -0.763   0.156  0.00  0.00    -0.070 N 
ATOM      3  C1  UNL d   1       1.382  -0.782   0.455  0.00  0.00    -0.004 A 
ATOM      4  C2  UNL d   1       1.770  -2.100   0.566  0.00  0.00    -0.047 A 
ATOM      5  C3  UNL d   1       0.628  -2.900   0.324  0.00  0.00    -0.047 A 
ATOM      6  C4  UNL d   1      -0.426  -2.046   0.074  0.00  0.00    -0.004 A 
ENDROOT
TORSDOF 0
ENDMDL
