MODEL 1
REMARK minimizedAffinity -3.24129462
REMARK minimizedRMSD -1
REMARK  0 active torsions:
REMARK  status: ('A' for Active; 'I' for Inactive)
ROOT
ATOM      1  C   UNL d   1       0.501  -0.017  -1.122  0.00  0.00     0.172 C 
ATOM      2  N   UNL d   1       0.383  -0.934  -0.013  0.00  0.00    -0.070 N 
ATOM      3  C1  UNL d   1      -0.698  -1.042   0.822  0.00  0.00    -0.004 A 
ATOM      4  C2  UNL d   1      -0.420  -2.027   1.746  0.00  0.00    -0.047 A 
ATOM      5  C3  UNL d   1       0.872  -2.527   1.457  0.00  0.00    -0.047 A 
ATOM      6  C4  UNL d   1       1.346  -1.832   0.364  0.00  0.00    -0.004 A 
ENDROOT
TORSDOF 0
ENDMDL
