MODEL 1
REMARK minimizedAffinity -1.12066746
REMARK minimizedRMSD -1
REMARK  0 active torsions:
REMARK  status: ('A' for Active; 'I' for Inactive)
ROOT
ATOM      1  C   UNL d   1      -0.065   0.555  -0.398  0.00  0.00     0.172 C 
ATOM      2  N   UNL d   1      -0.289  -0.335   0.717  0.00  0.00    -0.070 N 
ATOM      3  C1  UNL d   1      -1.397  -0.345   1.521  0.00  0.00    -0.004 A 
ATOM      4  C2  UNL d   1      -1.227  -1.337   2.463  0.00  0.00    -0.047 A 
ATOM      5  C3  UNL d   1       0.028  -1.944   2.217  0.00  0.00    -0.047 A 
ATOM      6  C4  UNL d   1       0.587  -1.304   1.131  0.00  0.00    -0.004 A 
ENDROOT
TORSDOF 0
ENDMDL
