MODEL 1
REMARK minimizedAffinity -3.58920908
REMARK minimizedRMSD -1
REMARK  0 active torsions:
REMARK  status: ('A' for Active; 'I' for Inactive)
ROOT
ATOM      1  C   UNL d   1      -0.760   1.168  -0.102  0.00  0.00     0.172 C 
ATOM      2  N   UNL d   1       0.209   0.098  -0.077  0.00  0.00    -0.070 N 
ATOM      3  C1  UNL d   1       1.570   0.252  -0.097  0.00  0.00    -0.004 A 
ATOM      4  C2  UNL d   1       2.137  -1.003  -0.061  0.00  0.00    -0.047 A 
ATOM      5  C3  UNL d   1       1.082  -1.944  -0.018  0.00  0.00    -0.047 A 
ATOM      6  C4  UNL d   1      -0.101  -1.236  -0.029  0.00  0.00    -0.004 A 
ENDROOT
TORSDOF 0
ENDMDL
