MODEL 1
REMARK minimizedAffinity -3.03955007
REMARK minimizedRMSD -1
REMARK  0 active torsions:
REMARK  status: ('A' for Active; 'I' for Inactive)
ROOT
ATOM      1  C   UNL d   1      -0.481  -0.277  -0.456  0.00  0.00     0.172 C 
ATOM      2  N   UNL d   1       0.646  -0.913   0.186  0.00  0.00    -0.070 N 
ATOM      3  C1  UNL d   1       1.961  -0.580   0.003  0.00  0.00    -0.004 A 
ATOM      4  C2  UNL d   1       2.722  -1.416   0.791  0.00  0.00    -0.047 A 
ATOM      5  C3  UNL d   1       1.833  -2.282   1.471  0.00  0.00    -0.047 A 
ATOM      6  C4  UNL d   1       0.554  -1.948   1.078  0.00  0.00    -0.004 A 
ENDROOT
TORSDOF 0
ENDMDL
