MODEL 1
REMARK minimizedAffinity -3.82230783
REMARK minimizedRMSD -1
REMARK  0 active torsions:
REMARK  status: ('A' for Active; 'I' for Inactive)
ROOT
ATOM      1  C   UNL d   1       1.600   0.565  -0.426  0.00  0.00     0.172 C 
ATOM      2  N   UNL d   1       1.298  -0.770   0.034  0.00  0.00    -0.070 N 
ATOM      3  C1  UNL d   1       2.096  -1.536   0.842  0.00  0.00    -0.004 A 
ATOM      4  C2  UNL d   1       1.456  -2.738   1.051  0.00  0.00    -0.047 A 
ATOM      5  C3  UNL d   1       0.231  -2.694   0.343  0.00  0.00    -0.047 A 
ATOM      6  C4  UNL d   1       0.159  -1.465  -0.278  0.00  0.00    -0.004 A 
ENDROOT
TORSDOF 0
ENDMDL
