MODEL 1
REMARK minimizedAffinity -3.48167086
REMARK minimizedRMSD -1
REMARK  0 active torsions:
REMARK  status: ('A' for Active; 'I' for Inactive)
ROOT
ATOM      1  C   UNL d   1      -0.361   0.936  -0.034  0.00  0.00     0.172 C 
ATOM      2  N   UNL d   1       0.585  -0.131   0.195  0.00  0.00    -0.070 N 
ATOM      3  C1  UNL d   1       0.291  -1.360   0.721  0.00  0.00    -0.004 A 
ATOM      4  C2  UNL d   1       1.461  -2.086   0.777  0.00  0.00    -0.047 A 
ATOM      5  C3  UNL d   1       2.494  -1.264   0.269  0.00  0.00    -0.047 A 
ATOM      6  C4  UNL d   1       1.925  -0.059  -0.083  0.00  0.00    -0.004 A 
ENDROOT
TORSDOF 0
ENDMDL
