MODEL 1
REMARK minimizedAffinity -3.01819253
REMARK minimizedRMSD -1
REMARK  0 active torsions:
REMARK  status: ('A' for Active; 'I' for Inactive)
ROOT
ATOM      1  C   UNL d   1       2.442  -1.001   0.287  0.00  0.00     0.172 C 
ATOM      2  N   UNL d   1       1.229  -0.467  -0.289  0.00  0.00    -0.070 N 
ATOM      3  C1  UNL d   1       0.228   0.162   0.401  0.00  0.00    -0.004 A 
ATOM      4  C2  UNL d   1      -0.747   0.521  -0.504  0.00  0.00    -0.047 A 
ATOM      5  C3  UNL d   1      -0.318   0.092  -1.782  0.00  0.00    -0.047 A 
ATOM      6  C4  UNL d   1       0.909  -0.516  -1.620  0.00  0.00    -0.004 A 
ENDROOT
TORSDOF 0
ENDMDL
