MODEL 1
REMARK minimizedAffinity -4.09930992
REMARK minimizedRMSD -1
REMARK  0 active torsions:
REMARK  status: ('A' for Active; 'I' for Inactive)
ROOT
ATOM      1  C   UNL d   1      -0.708   0.195  -0.705  0.00  0.00     0.172 C 
ATOM      2  N   UNL d   1       0.331  -0.674  -0.204  0.00  0.00    -0.070 N 
ATOM      3  C1  UNL d   1       1.676  -0.422  -0.255  0.00  0.00    -0.004 A 
ATOM      4  C2  UNL d   1       2.328  -1.489   0.325  0.00  0.00    -0.047 A 
ATOM      5  C3  UNL d   1       1.340  -2.415   0.737  0.00  0.00    -0.047 A 
ATOM      6  C4  UNL d   1       0.113  -1.885   0.397  0.00  0.00    -0.004 A 
ENDROOT
TORSDOF 0
ENDMDL
