MODEL 1
REMARK minimizedAffinity -1.92366195
REMARK minimizedRMSD -1
REMARK  0 active torsions:
REMARK  status: ('A' for Active; 'I' for Inactive)
ROOT
ATOM      1  C   UNL d   1       0.023   0.539  -0.830  0.00  0.00     0.172 C 
ATOM      2  N   UNL d   1       1.101  -0.289  -0.344  0.00  0.00    -0.070 N 
ATOM      3  C1  UNL d   1       1.927   0.010   0.706  0.00  0.00    -0.004 A 
ATOM      4  C2  UNL d   1       2.819  -1.030   0.852  0.00  0.00    -0.047 A 
ATOM      5  C3  UNL d   1       2.519  -1.988  -0.146  0.00  0.00    -0.047 A 
ATOM      6  C4  UNL d   1       1.451  -1.504  -0.872  0.00  0.00    -0.004 A 
ENDROOT
TORSDOF 0
ENDMDL
