MODEL 1
REMARK minimizedAffinity -2.95868158
REMARK minimizedRMSD -1
REMARK  0 active torsions:
REMARK  status: ('A' for Active; 'I' for Inactive)
ROOT
ATOM      1  C   UNL d   1       3.265  -1.113   0.893  0.00  0.00     0.172 C 
ATOM      2  N   UNL d   1       1.927  -0.770   0.473  0.00  0.00    -0.070 N 
ATOM      3  C1  UNL d   1       0.782  -1.423   0.844  0.00  0.00    -0.004 A 
ATOM      4  C2  UNL d   1      -0.281  -0.792   0.234  0.00  0.00    -0.047 A 
ATOM      5  C3  UNL d   1       0.244   0.277  -0.530  0.00  0.00    -0.047 A 
ATOM      6  C4  UNL d   1       1.613   0.267  -0.364  0.00  0.00    -0.004 A 
ENDROOT
TORSDOF 0
ENDMDL
