MODEL 1
REMARK minimizedAffinity -2.15218663
REMARK minimizedRMSD -1
REMARK  0 active torsions:
REMARK  status: ('A' for Active; 'I' for Inactive)
ROOT
ATOM      1  C   UNL d   1       1.881  -1.756   1.247  0.00  0.00     0.172 C 
ATOM      2  N   UNL d   1       0.912  -0.805   0.756  0.00  0.00    -0.070 N 
ATOM      3  C1  UNL d   1      -0.307  -0.543   1.322  0.00  0.00    -0.004 A 
ATOM      4  C2  UNL d   1      -0.929   0.421   0.558  0.00  0.00    -0.047 A 
ATOM      5  C3  UNL d   1      -0.054   0.749  -0.504  0.00  0.00    -0.047 A 
ATOM      6  C4  UNL d   1       1.078  -0.024  -0.358  0.00  0.00    -0.004 A 
ENDROOT
TORSDOF 0
ENDMDL
