MODEL 1
REMARK minimizedAffinity -3.89772344
REMARK minimizedRMSD -1
REMARK  0 active torsions:
REMARK  status: ('A' for Active; 'I' for Inactive)
ROOT
ATOM      1  C   UNL d   1       2.821   0.566  -0.871  0.00  0.00     0.172 C 
ATOM      2  N   UNL d   1       2.004  -0.324  -0.079  0.00  0.00    -0.070 N 
ATOM      3  C1  UNL d   1       2.439  -1.461   0.547  0.00  0.00    -0.004 A 
ATOM      4  C2  UNL d   1       1.362  -2.025   1.196  0.00  0.00    -0.047 A 
ATOM      5  C3  UNL d   1       0.240  -1.197   0.950  0.00  0.00    -0.047 A 
ATOM      6  C4  UNL d   1       0.666  -0.152   0.159  0.00  0.00    -0.004 A 
ENDROOT
TORSDOF 0
ENDMDL
