MODEL 1
REMARK minimizedAffinity 0.0931763947
REMARK minimizedRMSD -1
REMARK  0 active torsions:
REMARK  status: ('A' for Active; 'I' for Inactive)
ROOT
ATOM      1  C   UNL d   1       2.052  -1.975   1.882  0.00  0.00     0.172 C 
ATOM      2  N   UNL d   1       0.999  -1.079   1.465  0.00  0.00    -0.070 N 
ATOM      3  C1  UNL d   1       0.033  -0.549   2.278  0.00  0.00    -0.004 A 
ATOM      4  C2  UNL d   1      -0.777   0.253   1.504  0.00  0.00    -0.047 A 
ATOM      5  C3  UNL d   1      -0.281   0.203   0.180  0.00  0.00    -0.047 A 
ATOM      6  C4  UNL d   1       0.819  -0.628   0.184  0.00  0.00    -0.004 A 
ENDROOT
TORSDOF 0
ENDMDL
