MODEL 1
REMARK minimizedAffinity -1.85983551
REMARK minimizedRMSD -1
REMARK  0 active torsions:
REMARK  status: ('A' for Active; 'I' for Inactive)
ROOT
ATOM      1  C   UNL d   1      -1.008   1.247  -0.526  0.00  0.00     0.172 C 
ATOM      2  N   UNL d   1      -0.008   0.217  -0.374  0.00  0.00    -0.070 N 
ATOM      3  C1  UNL d   1      -0.236  -1.132  -0.425  0.00  0.00    -0.004 A 
ATOM      4  C2  UNL d   1       0.970  -1.772  -0.236  0.00  0.00    -0.047 A 
ATOM      5  C3  UNL d   1       1.957  -0.773  -0.065  0.00  0.00    -0.047 A 
ATOM      6  C4  UNL d   1       1.324   0.449  -0.155  0.00  0.00    -0.004 A 
ENDROOT
TORSDOF 0
ENDMDL
