MODEL 1
REMARK minimizedAffinity -2.46106148
REMARK minimizedRMSD -1
REMARK  0 active torsions:
REMARK  status: ('A' for Active; 'I' for Inactive)
ROOT
ATOM      1  C   UNL d   1       2.436  -1.158   0.526  0.00  0.00     0.172 C 
ATOM      2  N   UNL d   1       1.329  -0.505  -0.131  0.00  0.00    -0.070 N 
ATOM      3  C1  UNL d   1       0.712  -0.937  -1.274  0.00  0.00    -0.004 A 
ATOM      4  C2  UNL d   1      -0.293  -0.043  -1.576  0.00  0.00    -0.047 A 
ATOM      5  C3  UNL d   1      -0.279   0.962  -0.580  0.00  0.00    -0.047 A 
ATOM      6  C4  UNL d   1       0.735   0.651   0.302  0.00  0.00    -0.004 A 
ENDROOT
TORSDOF 0
ENDMDL
