MODEL 1
REMARK minimizedAffinity -2.84366155
REMARK minimizedRMSD -1
REMARK  0 active torsions:
REMARK  status: ('A' for Active; 'I' for Inactive)
ROOT
ATOM      1  C   UNL d   1      -2.064   2.013  -2.622  0.00  0.00     0.172 C 
ATOM      2  N   UNL d   1      -1.205   1.119  -1.883  0.00  0.00    -0.070 N 
ATOM      3  C1  UNL d   1      -0.941   1.193  -0.541  0.00  0.00    -0.004 A 
ATOM      4  C2  UNL d   1      -0.081   0.164  -0.223  0.00  0.00    -0.047 A 
ATOM      5  C3  UNL d   1       0.181  -0.553  -1.414  0.00  0.00    -0.047 A 
ATOM      6  C4  UNL d   1      -0.528   0.060  -2.426  0.00  0.00    -0.004 A 
ENDROOT
TORSDOF 0
ENDMDL
