MODEL 1
REMARK minimizedAffinity -1.9281764
REMARK minimizedRMSD -1
REMARK  0 active torsions:
REMARK  status: ('A' for Active; 'I' for Inactive)
ROOT
ATOM      1  C   UNL d   1      -0.228   0.403  -0.669  0.00  0.00     0.172 C 
ATOM      2  N   UNL d   1       0.948  -0.223  -0.112  0.00  0.00    -0.070 N 
ATOM      3  C1  UNL d   1       2.224   0.270  -0.183  0.00  0.00    -0.004 A 
ATOM      4  C2  UNL d   1       3.056  -0.616   0.468  0.00  0.00    -0.047 A 
ATOM      5  C3  UNL d   1       2.252  -1.679   0.945  0.00  0.00    -0.047 A 
ATOM      6  C4  UNL d   1       0.952  -1.410   0.573  0.00  0.00    -0.004 A 
ENDROOT
TORSDOF 0
ENDMDL
