MODEL 1
REMARK minimizedAffinity -5.09435415
REMARK minimizedRMSD -1
REMARK  0 active torsions:
REMARK  status: ('A' for Active; 'I' for Inactive)
ROOT
ATOM      1  C4' PXY d   1       2.390   2.433   0.662  0.00  0.00     0.077 C 
ATOM      2  C1' PXY d   1      -2.249  -0.916  -0.167  0.00  0.00     0.077 C 
ATOM      3  C1  PXY d   1      -1.026  -0.048   0.055  0.00  0.00    -0.082 A 
ATOM      4  C2  PXY d   1      -1.169   1.260   0.198  0.00  0.00     0.003 A 
ATOM      5  C3  PXY d   1      -0.071   2.063   0.367  0.00  0.00     0.003 A 
ATOM      6  C4  PXY d   1       1.182   1.516   0.445  0.00  0.00    -0.082 A 
ATOM      7  C5  PXY d   1       1.336   0.182   0.312  0.00  0.00     0.003 A 
ATOM      8  C6  PXY d   1       0.212  -0.612   0.099  0.00  0.00     0.003 A 
ENDROOT
TORSDOF 0
ENDMDL
