MODEL 1
REMARK minimizedAffinity -5.62751102
REMARK minimizedRMSD -1
REMARK  0 active torsions:
REMARK  status: ('A' for Active; 'I' for Inactive)
ROOT
ATOM      1  C4' PXY d   1      -0.540   1.839  -1.631  0.00  0.00     0.077 C 
ATOM      2  C1' PXY d   1      -2.792  -2.942   0.709  0.00  0.00     0.077 C 
ATOM      3  C1  PXY d   1      -2.194  -1.686   0.106  0.00  0.00    -0.082 A 
ATOM      4  C2  PXY d   1      -2.840  -1.054  -0.860  0.00  0.00     0.003 A 
ATOM      5  C3  PXY d   1      -2.299   0.066  -1.438  0.00  0.00     0.003 A 
ATOM      6  C4  PXY d   1      -1.110   0.573  -0.987  0.00  0.00    -0.082 A 
ATOM      7  C5  PXY d   1      -0.450  -0.061   0.006  0.00  0.00     0.003 A 
ATOM      8  C6  PXY d   1      -0.997  -1.219   0.552  0.00  0.00     0.003 A 
ENDROOT
TORSDOF 0
ENDMDL
