MODEL 1
REMARK minimizedAffinity -0.174807429
REMARK minimizedRMSD -1
REMARK  0 active torsions:
REMARK  status: ('A' for Active; 'I' for Inactive)
ROOT
ATOM      1  C4' PXY d   1       2.748   2.979   0.869  0.00  0.00     0.077 C 
ATOM      2  C1' PXY d   1      -1.953  -0.366   1.226  0.00  0.00     0.077 C 
ATOM      3  C1  PXY d   1      -0.713   0.501   1.131  0.00  0.00    -0.082 A 
ATOM      4  C2  PXY d   1      -0.724   1.718   1.649  0.00  0.00     0.003 A 
ATOM      5  C3  PXY d   1       0.378   2.527   1.544  0.00  0.00     0.003 A 
ATOM      6  C4  PXY d   1       1.522   2.066   0.949  0.00  0.00    -0.082 A 
ATOM      7  C5  PXY d   1       1.545   0.821   0.428  0.00  0.00     0.003 A 
ATOM      8  C6  PXY d   1       0.402   0.031   0.508  0.00  0.00     0.003 A 
ENDROOT
TORSDOF 0
ENDMDL
