MODEL 1
REMARK minimizedAffinity -1.07947433
REMARK minimizedRMSD -1
REMARK  0 active torsions:
REMARK  status: ('A' for Active; 'I' for Inactive)
ROOT
ATOM      1  C4' PXY d   1       5.999   3.766  -3.107  0.00  0.00     0.077 C 
ATOM      2  C1' PXY d   1       3.151   4.016   1.917  0.00  0.00     0.077 C 
ATOM      3  C1  PXY d   1       3.902   3.939   0.602  0.00  0.00    -0.082 A 
ATOM      4  C2  PXY d   1       4.282   5.053  -0.001  0.00  0.00     0.003 A 
ATOM      5  C3  PXY d   1       4.933   5.002  -1.206  0.00  0.00     0.003 A 
ATOM      6  C4  PXY d   1       5.247   3.796  -1.774  0.00  0.00    -0.082 A 
ATOM      7  C5  PXY d   1       4.872   2.654  -1.159  0.00  0.00     0.003 A 
ATOM      8  C6  PXY d   1       4.175   2.728   0.043  0.00  0.00     0.003 A 
ENDROOT
TORSDOF 0
ENDMDL
