MODEL 1
REMARK minimizedAffinity -5.00081396
REMARK minimizedRMSD -1
REMARK  0 active torsions:
REMARK  status: ('A' for Active; 'I' for Inactive)
ROOT
ATOM      1  C4' PXY d   1      -3.727  -2.004   0.229  0.00  0.00     0.077 C 
ATOM      2  C1' PXY d   1       1.657   0.095   0.394  0.00  0.00     0.077 C 
ATOM      3  C1  PXY d   1       0.249  -0.467   0.355  0.00  0.00    -0.082 A 
ATOM      4  C2  PXY d   1      -0.643   0.059  -0.468  0.00  0.00     0.003 A 
ATOM      5  C3  PXY d   1      -1.929  -0.415  -0.493  0.00  0.00     0.003 A 
ATOM      6  C4  PXY d   1      -2.292  -1.475   0.295  0.00  0.00    -0.082 A 
ATOM      7  C5  PXY d   1      -1.384  -2.025   1.130  0.00  0.00     0.003 A 
ATOM      8  C6  PXY d   1      -0.095  -1.501   1.170  0.00  0.00     0.003 A 
ENDROOT
TORSDOF 0
ENDMDL
