MODEL 1
REMARK minimizedAffinity -5.57717752
REMARK minimizedRMSD -1
REMARK  0 active torsions:
REMARK  status: ('A' for Active; 'I' for Inactive)
ROOT
ATOM      1  C4' PXY d   1       0.326   0.927   0.098  0.00  0.00     0.077 C 
ATOM      2  C1' PXY d   1      -4.231  -2.627  -0.050  0.00  0.00     0.077 C 
ATOM      3  C1  PXY d   1      -3.039  -1.689  -0.023  0.00  0.00    -0.082 A 
ATOM      4  C2  PXY d   1      -1.970  -2.012   0.686  0.00  0.00     0.003 A 
ATOM      5  C3  PXY d   1      -0.896  -1.161   0.748  0.00  0.00     0.003 A 
ATOM      6  C4  PXY d   1      -0.896   0.007   0.034  0.00  0.00    -0.082 A 
ATOM      7  C5  PXY d   1      -1.979   0.338  -0.700  0.00  0.00     0.003 A 
ATOM      8  C6  PXY d   1      -3.075  -0.520  -0.717  0.00  0.00     0.003 A 
ENDROOT
TORSDOF 0
ENDMDL
