MODEL 1
REMARK minimizedAffinity 1.75184715
REMARK minimizedRMSD -1
REMARK  0 active torsions:
REMARK  status: ('A' for Active; 'I' for Inactive)
ROOT
ATOM      1  C4' PXY d   1       0.535   0.603   3.489  0.00  0.00     0.077 C 
ATOM      2  C1' PXY d   1       0.456  -0.402  -2.203  0.00  0.00     0.077 C 
ATOM      3  C1  PXY d   1       0.472  -0.151  -0.708  0.00  0.00    -0.082 A 
ATOM      4  C2  PXY d   1       0.386   1.089  -0.252  0.00  0.00     0.003 A 
ATOM      5  C3  PXY d   1       0.432   1.337   1.096  0.00  0.00     0.003 A 
ATOM      6  C4  PXY d   1       0.513   0.301   1.988  0.00  0.00    -0.082 A 
ATOM      7  C5  PXY d   1       0.591  -0.966   1.532  0.00  0.00     0.003 A 
ATOM      8  C6  PXY d   1       0.584  -1.194   0.158  0.00  0.00     0.003 A 
ENDROOT
TORSDOF 0
ENDMDL
