MODEL 1
REMARK minimizedAffinity -3.80156422
REMARK minimizedRMSD -1
REMARK  0 active torsions:
REMARK  status: ('A' for Active; 'I' for Inactive)
ROOT
ATOM      1  C4' PXY d   1       2.830   1.949   1.555  0.00  0.00     0.077 C 
ATOM      2  C1' PXY d   1      -1.495  -0.694  -1.223  0.00  0.00     0.077 C 
ATOM      3  C1  PXY d   1      -0.366   0.010  -0.498  0.00  0.00    -0.082 A 
ATOM      4  C2  PXY d   1       0.761  -0.639  -0.254  0.00  0.00     0.003 A 
ATOM      5  C3  PXY d   1       1.780  -0.027   0.429  0.00  0.00     0.003 A 
ATOM      6  C4  PXY d   1       1.666   1.280   0.818  0.00  0.00    -0.082 A 
ATOM      7  C5  PXY d   1       0.524   1.953   0.563  0.00  0.00     0.003 A 
ATOM      8  C6  PXY d   1      -0.515   1.301  -0.094  0.00  0.00     0.003 A 
ENDROOT
TORSDOF 0
ENDMDL
