MODEL 1
REMARK minimizedAffinity -5.36049366
REMARK minimizedRMSD -1
REMARK  0 active torsions:
REMARK  status: ('A' for Active; 'I' for Inactive)
ROOT
ATOM      1  C4' PXY d   1       1.148   0.200  -0.007  0.00  0.00     0.077 C 
ATOM      2  C1' PXY d   1      -4.065  -2.250   0.472  0.00  0.00     0.077 C 
ATOM      3  C1  PXY d   1      -2.701  -1.602   0.335  0.00  0.00    -0.082 A 
ATOM      4  C2  PXY d   1      -1.675  -2.089   1.014  0.00  0.00     0.003 A 
ATOM      5  C3  PXY d   1      -0.442  -1.496   0.926  0.00  0.00     0.003 A 
ATOM      6  C4  PXY d   1      -0.245  -0.427   0.094  0.00  0.00    -0.082 A 
ATOM      7  C5  PXY d   1      -1.284   0.069  -0.611  0.00  0.00     0.003 A 
ATOM      8  C6  PXY d   1      -2.537  -0.522  -0.476  0.00  0.00     0.003 A 
ENDROOT
TORSDOF 0
ENDMDL
