MODEL 1
REMARK minimizedAffinity -5.31953764
REMARK minimizedRMSD -1
REMARK  0 active torsions:
REMARK  status: ('A' for Active; 'I' for Inactive)
ROOT
ATOM      1  C4' PXY d   1      -1.804  -3.256   1.752  0.00  0.00     0.077 C 
ATOM      2  C1' PXY d   1      -0.976   1.821  -0.886  0.00  0.00     0.077 C 
ATOM      3  C1  PXY d   1      -1.206   0.492  -0.194  0.00  0.00    -0.082 A 
ATOM      4  C2  PXY d   1      -0.221  -0.068   0.491  0.00  0.00     0.003 A 
ATOM      5  C3  PXY d   1      -0.402  -1.285   1.096  0.00  0.00     0.003 A 
ATOM      6  C4  PXY d   1      -1.619  -1.910   1.045  0.00  0.00    -0.082 A 
ATOM      7  C5  PXY d   1      -2.632  -1.340   0.358  0.00  0.00     0.003 A 
ATOM      8  C6  PXY d   1      -2.416  -0.124  -0.284  0.00  0.00     0.003 A 
ENDROOT
TORSDOF 0
ENDMDL
