MODEL 1
REMARK minimizedAffinity -3.74391532
REMARK minimizedRMSD -1
REMARK  0 active torsions:
REMARK  status: ('A' for Active; 'I' for Inactive)
ROOT
ATOM      1  C4' PXY d   1      -1.246  -1.155  -0.593  0.00  0.00     0.077 C 
ATOM      2  C1' PXY d   1       2.827   2.454   1.356  0.00  0.00     0.077 C 
ATOM      3  C1  PXY d   1       1.767   1.504   0.835  0.00  0.00    -0.082 A 
ATOM      4  C2  PXY d   1       0.495   1.719   1.128  0.00  0.00     0.003 A 
ATOM      5  C3  PXY d   1      -0.474   0.852   0.692  0.00  0.00     0.003 A 
ATOM      6  C4  PXY d   1      -0.143  -0.217  -0.096  0.00  0.00    -0.082 A 
ATOM      7  C5  PXY d   1       1.152  -0.438  -0.408  0.00  0.00     0.003 A 
ATOM      8  C6  PXY d   1       2.124   0.431   0.079  0.00  0.00     0.003 A 
ENDROOT
TORSDOF 0
ENDMDL
