MODEL 1
REMARK minimizedAffinity -3.53772783
REMARK minimizedRMSD -1
REMARK  0 active torsions:
REMARK  status: ('A' for Active; 'I' for Inactive)
ROOT
ATOM      1  C4' PXY d   1       2.562   1.269   0.407  0.00  0.00     0.077 C 
ATOM      2  C1' PXY d   1      -2.526  -0.816  -1.376  0.00  0.00     0.077 C 
ATOM      3  C1  PXY d   1      -1.195  -0.272  -0.896  0.00  0.00    -0.082 A 
ATOM      4  C2  PXY d   1      -0.553   0.626  -1.626  0.00  0.00     0.003 A 
ATOM      5  C3  PXY d   1       0.667   1.105  -1.223  0.00  0.00     0.003 A 
ATOM      6  C4  PXY d   1       1.211   0.699  -0.034  0.00  0.00    -0.082 A 
ATOM      7  C5  PXY d   1       0.558  -0.209   0.722  0.00  0.00     0.003 A 
ATOM      8  C6  PXY d   1      -0.660  -0.713   0.274  0.00  0.00     0.003 A 
ENDROOT
TORSDOF 0
ENDMDL
