MODEL 1
REMARK minimizedAffinity -4.8410387
REMARK minimizedRMSD -1
REMARK  0 active torsions:
REMARK  status: ('A' for Active; 'I' for Inactive)
ROOT
ATOM      1  C4' PXY d   1       2.840   1.936   1.364  0.00  0.00     0.077 C 
ATOM      2  C1' PXY d   1      -1.751  -0.747  -0.903  0.00  0.00     0.077 C 
ATOM      3  C1  PXY d   1      -0.542  -0.055  -0.305  0.00  0.00    -0.082 A 
ATOM      4  C2  PXY d   1      -0.630   1.213   0.064  0.00  0.00     0.003 A 
ATOM      5  C3  PXY d   1       0.463   1.863   0.577  0.00  0.00     0.003 A 
ATOM      6  C4  PXY d   1       1.642   1.194   0.764  0.00  0.00    -0.082 A 
ATOM      7  C5  PXY d   1       1.737  -0.102   0.400  0.00  0.00     0.003 A 
ATOM      8  C6  PXY d   1       0.628  -0.733  -0.157  0.00  0.00     0.003 A 
ENDROOT
TORSDOF 0
ENDMDL
