MODEL 1
REMARK minimizedAffinity -2.53041792
REMARK minimizedRMSD -1
REMARK  0 active torsions:
REMARK  status: ('A' for Active; 'I' for Inactive)
ROOT
ATOM      1  C4' PXY d   1       2.924   2.484   1.967  0.00  0.00     0.077 C 
ATOM      2  C1' PXY d   1      -1.077  -1.687   1.856  0.00  0.00     0.077 C 
ATOM      3  C1  PXY d   1      -0.037  -0.585   1.889  0.00  0.00    -0.082 A 
ATOM      4  C2  PXY d   1       1.042  -0.681   1.129  0.00  0.00     0.003 A 
ATOM      5  C3  PXY d   1       2.008   0.292   1.171  0.00  0.00     0.003 A 
ATOM      6  C4  PXY d   1       1.843   1.399   1.958  0.00  0.00    -0.082 A 
ATOM      7  C5  PXY d   1       0.740   1.510   2.728  0.00  0.00     0.003 A 
ATOM      8  C6  PXY d   1      -0.210   0.492   2.703  0.00  0.00     0.003 A 
ENDROOT
TORSDOF 0
ENDMDL
