MODEL 1
REMARK minimizedAffinity 7.57553005
REMARK minimizedRMSD -1
REMARK  0 active torsions:
REMARK  status: ('A' for Active; 'I' for Inactive)
ROOT
ATOM      1  C4' PXY d   1      -1.873  -1.306  -0.630  0.00  0.00     0.077 C 
ATOM      2  C1' PXY d   1       1.996  -1.899   3.624  0.00  0.00     0.077 C 
ATOM      3  C1  PXY d   1       0.973  -1.751   2.515  0.00  0.00    -0.082 A 
ATOM      4  C2  PXY d   1       1.376  -1.463   1.288  0.00  0.00     0.003 A 
ATOM      5  C3  PXY d   1       0.461  -1.294   0.280  0.00  0.00     0.003 A 
ATOM      6  C4  PXY d   1      -0.875  -1.474   0.519  0.00  0.00    -0.082 A 
ATOM      7  C5  PXY d   1      -1.292  -1.779   1.766  0.00  0.00     0.003 A 
ATOM      8  C6  PXY d   1      -0.352  -1.906   2.784  0.00  0.00     0.003 A 
ENDROOT
TORSDOF 0
ENDMDL
