MODEL 1
REMARK minimizedAffinity -1.95562148
REMARK minimizedRMSD -1
REMARK  0 active torsions:
REMARK  status: ('A' for Active; 'I' for Inactive)
ROOT
ATOM      1  C4' PXY d   1       1.846   1.103   0.366  0.00  0.00     0.077 C 
ATOM      2  C1' PXY d   1      -3.122  -1.660  -0.679  0.00  0.00     0.077 C 
ATOM      3  C1  PXY d   1      -1.816  -0.937  -0.418  0.00  0.00    -0.082 A 
ATOM      4  C2  PXY d   1      -1.308  -0.924   0.804  0.00  0.00     0.003 A 
ATOM      5  C3  PXY d   1      -0.145  -0.248   1.065  0.00  0.00     0.003 A 
ATOM      6  C4  PXY d   1       0.534   0.378   0.053  0.00  0.00    -0.082 A 
ATOM      7  C5  PXY d   1       0.028   0.361  -1.198  0.00  0.00     0.003 A 
ATOM      8  C6  PXY d   1      -1.176  -0.297  -1.434  0.00  0.00     0.003 A 
ENDROOT
TORSDOF 0
ENDMDL
