MODEL 1
REMARK minimizedAffinity -3.95467544
REMARK minimizedRMSD -1
REMARK  0 active torsions:
REMARK  status: ('A' for Active; 'I' for Inactive)
ROOT
ATOM      1  C4' PXY d   1       3.304   1.974   1.468  0.00  0.00     0.077 C 
ATOM      2  C1' PXY d   1      -1.357  -0.276  -1.105  0.00  0.00     0.077 C 
ATOM      3  C1  PXY d   1      -0.130   0.302  -0.429  0.00  0.00    -0.082 A 
ATOM      4  C2  PXY d   1      -0.212   1.468   0.191  0.00  0.00     0.003 A 
ATOM      5  C3  PXY d   1       0.896   2.020   0.780  0.00  0.00     0.003 A 
ATOM      6  C4  PXY d   1       2.088   1.348   0.780  0.00  0.00    -0.082 A 
ATOM      7  C5  PXY d   1       2.178   0.152   0.159  0.00  0.00     0.003 A 
ATOM      8  C6  PXY d   1       1.052  -0.372  -0.468  0.00  0.00     0.003 A 
ENDROOT
TORSDOF 0
ENDMDL
