MODEL 1
REMARK minimizedAffinity -1.78887331
REMARK minimizedRMSD -1
REMARK  0 active torsions:
REMARK  status: ('A' for Active; 'I' for Inactive)
ROOT
ATOM      1  C4' PXY d   1       3.220   2.433   1.921  0.00  0.00     0.077 C 
ATOM      2  C1' PXY d   1      -1.292   0.140  -0.871  0.00  0.00     0.077 C 
ATOM      3  C1  PXY d   1      -0.105   0.729  -0.136  0.00  0.00    -0.082 A 
ATOM      4  C2  PXY d   1      -0.166   1.972   0.316  0.00  0.00     0.003 A 
ATOM      5  C3  PXY d   1       0.911   2.531   0.955  0.00  0.00     0.003 A 
ATOM      6  C4  PXY d   1       2.042   1.793   1.182  0.00  0.00    -0.082 A 
ATOM      7  C5  PXY d   1       2.108   0.522   0.733  0.00  0.00     0.003 A 
ATOM      8  C6  PXY d   1       1.020  -0.014   0.050  0.00  0.00     0.003 A 
ENDROOT
TORSDOF 0
ENDMDL
