MODEL 1
REMARK minimizedAffinity -5.3235755
REMARK minimizedRMSD -1
REMARK  0 active torsions:
REMARK  status: ('A' for Active; 'I' for Inactive)
ROOT
ATOM      1  C4' PXY d   1       2.529   1.252   0.131  0.00  0.00     0.077 C 
ATOM      2  C1' PXY d   1      -2.705  -0.950  -0.949  0.00  0.00     0.077 C 
ATOM      3  C1  PXY d   1      -1.334  -0.375  -0.653  0.00  0.00    -0.082 A 
ATOM      4  C2  PXY d   1      -0.789   0.484  -1.499  0.00  0.00     0.003 A 
ATOM      5  C3  PXY d   1       0.464   0.989  -1.263  0.00  0.00     0.003 A 
ATOM      6  C4  PXY d   1       1.143   0.653  -0.122  0.00  0.00    -0.082 A 
ATOM      7  C5  PXY d   1       0.589  -0.215   0.751  0.00  0.00     0.003 A 
ATOM      8  C6  PXY d   1      -0.666  -0.748   0.472  0.00  0.00     0.003 A 
ENDROOT
TORSDOF 0
ENDMDL
