MODEL 1
REMARK minimizedAffinity -2.84839177
REMARK minimizedRMSD -1
REMARK  0 active torsions:
REMARK  status: ('A' for Active; 'I' for Inactive)
ROOT
ATOM      1  C4' PXY d   1       2.427   3.207   1.437  0.00  0.00     0.077 C 
ATOM      2  C1' PXY d   1       5.430   3.495  -3.494  0.00  0.00     0.077 C 
ATOM      3  C1  PXY d   1       4.639   3.407  -2.204  0.00  0.00    -0.082 A 
ATOM      4  C2  PXY d   1       4.205   4.516  -1.626  0.00  0.00     0.003 A 
ATOM      5  C3  PXY d   1       3.516   4.457  -0.442  0.00  0.00     0.003 A 
ATOM      6  C4  PXY d   1       3.221   3.247   0.129  0.00  0.00    -0.082 A 
ATOM      7  C5  PXY d   1       3.650   2.111  -0.461  0.00  0.00     0.003 A 
ATOM      8  C6  PXY d   1       4.384   2.195  -1.640  0.00  0.00     0.003 A 
ENDROOT
TORSDOF 0
ENDMDL
