MODEL 1
REMARK minimizedAffinity 0.62051791
REMARK minimizedRMSD -1
REMARK  0 active torsions:
REMARK  status: ('A' for Active; 'I' for Inactive)
ROOT
ATOM      1  C   UNL d   1       4.115  -1.009   0.644  0.00  0.00     0.077 C 
ATOM      2  C1  UNL d   1       2.673  -0.810   0.279  0.00  0.00    -0.074 A 
ATOM      3  C2  UNL d   1       1.860  -1.897  -0.056  0.00  0.00    -0.005 A 
ATOM      4  C3  UNL d   1       0.519  -1.697  -0.384  0.00  0.00     0.006 A 
ATOM      5  C4  UNL d   1      -0.021  -0.410  -0.380  0.00  0.00    -0.005 A 
ATOM      6  C5  UNL d   1       0.777   0.689  -0.047  0.00  0.00    -0.074 A 
ATOM      7  C6  UNL d   1       0.210   2.077  -0.029  0.00  0.00     0.077 C 
ATOM      8  C7  UNL d   1       2.122   0.479   0.288  0.00  0.00    -0.001 A 
ENDROOT
TORSDOF 0
ENDMDL
