MODEL 1
REMARK minimizedAffinity -2.49615622
REMARK minimizedRMSD -1
REMARK  0 active torsions:
REMARK  status: ('A' for Active; 'I' for Inactive)
ROOT
ATOM      1  C   UNL d   1      -3.475   0.778   0.729  0.00  0.00     0.077 C 
ATOM      2  C1  UNL d   1      -2.028   0.675   0.351  0.00  0.00    -0.074 A 
ATOM      3  C2  UNL d   1      -1.221   1.814   0.277  0.00  0.00    -0.005 A 
ATOM      4  C3  UNL d   1       0.127   1.701  -0.066  0.00  0.00     0.006 A 
ATOM      5  C4  UNL d   1       0.680   0.450  -0.338  0.00  0.00    -0.005 A 
ATOM      6  C5  UNL d   1      -0.112  -0.701  -0.269  0.00  0.00    -0.074 A 
ATOM      7  C6  UNL d   1       0.469  -2.056  -0.549  0.00  0.00     0.077 C 
ATOM      8  C7  UNL d   1      -1.463  -0.580   0.083  0.00  0.00    -0.001 A 
ENDROOT
TORSDOF 0
ENDMDL
