MODEL 1
REMARK minimizedAffinity -0.703493416
REMARK minimizedRMSD -1
REMARK  0 active torsions:
REMARK  status: ('A' for Active; 'I' for Inactive)
ROOT
ATOM      1  C   UNL d   1      -2.833   0.266   1.628  0.00  0.00     0.077 C 
ATOM      2  C1  UNL d   1      -1.593   0.079   0.804  0.00  0.00    -0.074 A 
ATOM      3  C2  UNL d   1      -0.850   1.179   0.365  0.00  0.00    -0.005 A 
ATOM      4  C3  UNL d   1       0.306   0.990  -0.393  0.00  0.00     0.006 A 
ATOM      5  C4  UNL d   1       0.729  -0.300  -0.718  0.00  0.00    -0.005 A 
ATOM      6  C5  UNL d   1      -0.001  -1.412  -0.287  0.00  0.00    -0.074 A 
ATOM      7  C6  UNL d   1       0.445  -2.804  -0.619  0.00  0.00     0.077 C 
ATOM      8  C7  UNL d   1      -1.157  -1.213   0.480  0.00  0.00    -0.001 A 
ENDROOT
TORSDOF 0
ENDMDL
