MODEL 1
REMARK minimizedAffinity -0.967100024
REMARK minimizedRMSD -1
REMARK  0 active torsions:
REMARK  status: ('A' for Active; 'I' for Inactive)
ROOT
ATOM      1  C   UNL d   1       0.658  -2.470  -0.368  0.00  0.00     0.077 C 
ATOM      2  C1  UNL d   1       0.145  -1.063  -0.292  0.00  0.00    -0.074 A 
ATOM      3  C2  UNL d   1       1.016   0.026  -0.398  0.00  0.00    -0.005 A 
ATOM      4  C3  UNL d   1       0.523   1.330  -0.334  0.00  0.00     0.006 A 
ATOM      5  C4  UNL d   1      -0.843   1.556  -0.165  0.00  0.00    -0.005 A 
ATOM      6  C5  UNL d   1      -1.729   0.480  -0.057  0.00  0.00    -0.074 A 
ATOM      7  C6  UNL d   1      -3.202   0.706   0.115  0.00  0.00     0.077 C 
ATOM      8  C7  UNL d   1      -1.227  -0.827  -0.129  0.00  0.00    -0.001 A 
ENDROOT
TORSDOF 0
ENDMDL
