MODEL 1
REMARK minimizedAffinity -3.86155224
REMARK minimizedRMSD -1
REMARK  0 active torsions:
REMARK  status: ('A' for Active; 'I' for Inactive)
ROOT
ATOM      1  C   UNL d   1       3.195  -1.091   0.885  0.00  0.00     0.077 C 
ATOM      2  C1  UNL d   1       2.186  -0.059   0.479  0.00  0.00    -0.074 A 
ATOM      3  C2  UNL d   1       2.551   1.283   0.325  0.00  0.00    -0.005 A 
ATOM      4  C3  UNL d   1       1.603   2.230  -0.062  0.00  0.00     0.006 A 
ATOM      5  C4  UNL d   1       0.282   1.845  -0.300  0.00  0.00    -0.005 A 
ATOM      6  C5  UNL d   1      -0.101   0.509  -0.152  0.00  0.00    -0.074 A 
ATOM      7  C6  UNL d   1      -1.514   0.077  -0.412  0.00  0.00     0.077 C 
ATOM      8  C7  UNL d   1       0.859  -0.438   0.231  0.00  0.00    -0.001 A 
ENDROOT
TORSDOF 0
ENDMDL
