MODEL 1
REMARK minimizedAffinity -4.91923809
REMARK minimizedRMSD -1
REMARK  0 active torsions:
REMARK  status: ('A' for Active; 'I' for Inactive)
ROOT
ATOM      1  C   UNL d   1       3.491   1.986   0.448  0.00  0.00     0.077 C 
ATOM      2  C1  UNL d   1       2.506   0.856   0.376  0.00  0.00    -0.074 A 
ATOM      3  C2  UNL d   1       2.927  -0.472   0.490  0.00  0.00    -0.005 A 
ATOM      4  C3  UNL d   1       1.999  -1.512   0.431  0.00  0.00     0.006 A 
ATOM      5  C4  UNL d   1       0.643  -1.233   0.258  0.00  0.00    -0.005 A 
ATOM      6  C5  UNL d   1       0.203   0.089   0.144  0.00  0.00    -0.074 A 
ATOM      7  C6  UNL d   1      -1.253   0.406  -0.032  0.00  0.00     0.077 C 
ATOM      8  C7  UNL d   1       1.141   1.128   0.211  0.00  0.00    -0.001 A 
ENDROOT
TORSDOF 0
ENDMDL
