MODEL 1
REMARK minimizedAffinity -6.17852259
REMARK minimizedRMSD -1
REMARK  0 active torsions:
REMARK  status: ('A' for Active; 'I' for Inactive)
ROOT
ATOM      1  C   UNL d   1       0.906   2.841  -0.070  0.00  0.00     0.077 C 
ATOM      2  C1  UNL d   1       1.345   1.407  -0.064  0.00  0.00    -0.074 A 
ATOM      3  C2  UNL d   1       2.689   1.067   0.118  0.00  0.00    -0.005 A 
ATOM      4  C3  UNL d   1       3.081  -0.272   0.130  0.00  0.00     0.006 A 
ATOM      5  C4  UNL d   1       2.134  -1.282  -0.039  0.00  0.00    -0.005 A 
ATOM      6  C5  UNL d   1       0.785  -0.962  -0.221  0.00  0.00    -0.074 A 
ATOM      7  C6  UNL d   1      -0.248  -2.036  -0.394  0.00  0.00     0.077 C 
ATOM      8  C7  UNL d   1       0.398   0.385  -0.226  0.00  0.00    -0.001 A 
ENDROOT
TORSDOF 0
ENDMDL
