MODEL 1
REMARK minimizedAffinity -5.27102327
REMARK minimizedRMSD -1
REMARK  0 active torsions:
REMARK  status: ('A' for Active; 'I' for Inactive)
ROOT
ATOM      1  C   UNL d   1       3.263  -0.903   1.433  0.00  0.00     0.077 C 
ATOM      2  C1  UNL d   1       2.125  -0.488   0.550  0.00  0.00    -0.074 A 
ATOM      3  C2  UNL d   1       1.848   0.864   0.322  0.00  0.00    -0.005 A 
ATOM      4  C3  UNL d   1       0.792   1.236  -0.510  0.00  0.00     0.006 A 
ATOM      5  C4  UNL d   1       0.002   0.260  -1.121  0.00  0.00    -0.005 A 
ATOM      6  C5  UNL d   1       0.264  -1.096  -0.905  0.00  0.00    -0.074 A 
ATOM      7  C6  UNL d   1      -0.569  -2.157  -1.561  0.00  0.00     0.077 C 
ATOM      8  C7  UNL d   1       1.332  -1.461  -0.073  0.00  0.00    -0.001 A 
ENDROOT
TORSDOF 0
ENDMDL
