MODEL 1
REMARK minimizedAffinity -5.2484479
REMARK minimizedRMSD -1
REMARK  0 active torsions:
REMARK  status: ('A' for Active; 'I' for Inactive)
ROOT
ATOM      1  C   UNL d   1       2.254  -1.504   1.028  0.00  0.00     0.077 C 
ATOM      2  C1  UNL d   1       1.526  -0.258   0.618  0.00  0.00    -0.074 A 
ATOM      3  C2  UNL d   1       2.134   0.997   0.722  0.00  0.00    -0.005 A 
ATOM      4  C3  UNL d   1       1.449   2.146   0.327  0.00  0.00     0.006 A 
ATOM      5  C4  UNL d   1       0.150   2.051  -0.174  0.00  0.00    -0.005 A 
ATOM      6  C5  UNL d   1      -0.474   0.805  -0.287  0.00  0.00    -0.074 A 
ATOM      7  C6  UNL d   1      -1.865   0.685  -0.834  0.00  0.00     0.077 C 
ATOM      8  C7  UNL d   1       0.224  -0.346   0.105  0.00  0.00    -0.001 A 
ENDROOT
TORSDOF 0
ENDMDL
