MODEL 1
REMARK minimizedAffinity -0.941767871
REMARK minimizedRMSD -1
REMARK  0 active torsions:
REMARK  status: ('A' for Active; 'I' for Inactive)
ROOT
ATOM      1  C   UNL d   1       2.445  -2.147  -0.356  0.00  0.00     0.077 C 
ATOM      2  C1  UNL d   1       1.845  -0.780  -0.217  0.00  0.00    -0.074 A 
ATOM      3  C2  UNL d   1       2.655   0.345  -0.033  0.00  0.00    -0.005 A 
ATOM      4  C3  UNL d   1       2.083   1.612   0.085  0.00  0.00     0.006 A 
ATOM      5  C4  UNL d   1       0.698   1.766   0.021  0.00  0.00    -0.005 A 
ATOM      6  C5  UNL d   1      -0.128   0.653  -0.164  0.00  0.00    -0.074 A 
ATOM      7  C6  UNL d   1      -1.618   0.802  -0.245  0.00  0.00     0.077 C 
ATOM      8  C7  UNL d   1       0.455  -0.616  -0.289  0.00  0.00    -0.001 A 
ENDROOT
TORSDOF 0
ENDMDL
