MODEL 1
REMARK minimizedAffinity 0.533892572
REMARK minimizedRMSD -1
REMARK  0 active torsions:
REMARK  status: ('A' for Active; 'I' for Inactive)
ROOT
ATOM      1  C   UNL d   1      -4.959   0.362   2.604  0.00  0.00     0.023 A 
ATOM      2  C1  UNL d   1      -5.694   0.724   3.733  0.00  0.00     0.003 A 
ATOM      3  C2  UNL d   1      -5.994  -0.230   4.708  0.00  0.00     0.048 A 
ATOM      4  C3  UNL d   1      -5.555  -1.544   4.549  0.00  0.00     0.023 A 
ATOM      5  C4  UNL d   1      -4.818  -1.910   3.421  0.00  0.00     0.048 A 
ATOM      6  C5  UNL d   1      -4.521  -0.954   2.449  0.00  0.00     0.003 A 
ATOM      7  I   UNL d   1      -5.999  -2.965   5.998  0.00  0.00    -0.146 I 
ENDROOT
TORSDOF 0
ENDMDL
