MODEL 1
REMARK minimizedAffinity 8.35445118
REMARK minimizedRMSD -1
REMARK  0 active torsions:
REMARK  status: ('A' for Active; 'I' for Inactive)
ROOT
ATOM      1  C   UNL d   1      -3.790  -4.745  -5.959  0.00  0.00     0.023 A 
ATOM      2  C1  UNL d   1      -2.981  -5.881  -5.938  0.00  0.00     0.003 A 
ATOM      3  C2  UNL d   1      -1.591  -5.750  -5.946  0.00  0.00     0.048 A 
ATOM      4  C3  UNL d   1      -1.016  -4.480  -5.974  0.00  0.00     0.023 A 
ATOM      5  C4  UNL d   1      -1.822  -3.340  -5.994  0.00  0.00     0.048 A 
ATOM      6  C5  UNL d   1      -3.212  -3.476  -5.987  0.00  0.00     0.003 A 
ATOM      7  I   UNL d   1       1.052  -4.282  -5.985  0.00  0.00    -0.146 I 
ENDROOT
TORSDOF 0
ENDMDL
