MODEL 1
REMARK minimizedAffinity 1.44173563
REMARK minimizedRMSD -1
REMARK  0 active torsions:
REMARK  status: ('A' for Active; 'I' for Inactive)
ROOT
ATOM      1  C   UNL d   1      -0.150  -3.639  -5.954  0.00  0.00     0.023 A 
ATOM      2  C1  UNL d   1      -0.174  -5.033  -5.941  0.00  0.00     0.003 A 
ATOM      3  C2  UNL d   1      -1.394  -5.712  -5.953  0.00  0.00     0.048 A 
ATOM      4  C3  UNL d   1      -2.587  -4.990  -5.980  0.00  0.00     0.023 A 
ATOM      5  C4  UNL d   1      -2.568  -3.594  -5.994  0.00  0.00     0.048 A 
ATOM      6  C5  UNL d   1      -1.345  -2.920  -5.980  0.00  0.00     0.003 A 
ATOM      7  I   UNL d   1      -4.404  -5.998  -5.998  0.00  0.00    -0.146 I 
ENDROOT
TORSDOF 0
ENDMDL
