MODEL 1
REMARK minimizedAffinity 0.958765864
REMARK minimizedRMSD -1
REMARK  0 active torsions:
REMARK  status: ('A' for Active; 'I' for Inactive)
ROOT
ATOM      1  C   UNL d   1      -5.949  -0.656   2.780  0.00  0.00     0.023 A 
ATOM      2  C1  UNL d   1      -5.977  -1.977   2.336  0.00  0.00     0.003 A 
ATOM      3  C2  UNL d   1      -5.987  -3.026   3.258  0.00  0.00     0.048 A 
ATOM      4  C3  UNL d   1      -5.970  -2.745   4.624  0.00  0.00     0.023 A 
ATOM      5  C4  UNL d   1      -5.942  -1.424   5.073  0.00  0.00     0.048 A 
ATOM      6  C5  UNL d   1      -5.931  -0.379   4.147  0.00  0.00     0.003 A 
ATOM      7  I   UNL d   1      -5.984  -4.303   5.999  0.00  0.00    -0.146 I 
ENDROOT
TORSDOF 0
ENDMDL
