MODEL 1
REMARK minimizedAffinity 0.45068422
REMARK minimizedRMSD -1
REMARK  0 active torsions:
REMARK  status: ('A' for Active; 'I' for Inactive)
ROOT
ATOM      1  C   UNL d   1      -4.692  -5.051  -5.864  0.00  0.00     0.023 A 
ATOM      2  C1  UNL d   1      -4.534  -3.669  -5.961  0.00  0.00     0.003 A 
ATOM      3  C2  UNL d   1      -3.255  -3.112  -6.000  0.00  0.00     0.048 A 
ATOM      4  C3  UNL d   1      -2.137  -3.943  -5.941  0.00  0.00     0.023 A 
ATOM      5  C4  UNL d   1      -2.290  -5.327  -5.845  0.00  0.00     0.048 A 
ATOM      6  C5  UNL d   1      -3.572  -5.880  -5.806  0.00  0.00     0.003 A 
ATOM      7  I   UNL d   1      -0.231  -3.117  -5.999  0.00  0.00    -0.146 I 
ENDROOT
TORSDOF 0
ENDMDL
