MODEL 1
REMARK minimizedAffinity 9.11890888
REMARK minimizedRMSD -1
REMARK  0 active torsions:
REMARK  status: ('A' for Active; 'I' for Inactive)
ROOT
ATOM      1  C   UNL d   1       0.359  -2.662  -5.689  0.00  0.00     0.023 A 
ATOM      2  C1  UNL d   1       0.605  -4.034  -5.650  0.00  0.00     0.003 A 
ATOM      3  C2  UNL d   1      -0.456  -4.938  -5.738  0.00  0.00     0.048 A 
ATOM      4  C3  UNL d   1      -1.760  -4.462  -5.866  0.00  0.00     0.023 A 
ATOM      5  C4  UNL d   1      -2.011  -3.090  -5.907  0.00  0.00     0.048 A 
ATOM      6  C5  UNL d   1      -0.947  -2.190  -5.817  0.00  0.00     0.003 A 
ATOM      7  I   UNL d   1      -3.341  -5.805  -5.998  0.00  0.00    -0.146 I 
ENDROOT
TORSDOF 0
ENDMDL
