MODEL 1
REMARK minimizedAffinity -1.94350111
REMARK minimizedRMSD -1
REMARK  0 active torsions:
REMARK  status: ('A' for Active; 'I' for Inactive)
ROOT
ATOM      1  C   UNL d   1      -1.253  -3.806  -5.976  0.00  0.00     0.023 A 
ATOM      2  C1  UNL d   1      -1.433  -5.189  -5.967  0.00  0.00     0.003 A 
ATOM      3  C2  UNL d   1      -2.722  -5.726  -5.973  0.00  0.00     0.048 A 
ATOM      4  C3  UNL d   1      -3.826  -4.875  -5.990  0.00  0.00     0.023 A 
ATOM      5  C4  UNL d   1      -3.651  -3.490  -6.000  0.00  0.00     0.048 A 
ATOM      6  C5  UNL d   1      -2.360  -2.957  -5.992  0.00  0.00     0.003 A 
ATOM      7  I   UNL d   1      -5.745  -5.673  -6.000  0.00  0.00    -0.146 I 
ENDROOT
TORSDOF 0
ENDMDL
