MODEL 1
REMARK minimizedAffinity 8.00758266
REMARK minimizedRMSD -1
REMARK  0 active torsions:
REMARK  status: ('A' for Active; 'I' for Inactive)
ROOT
ATOM      1  C   UNL d   1      -4.088  -4.825  -5.865  0.00  0.00     0.023 A 
ATOM      2  C1  UNL d   1      -3.532  -3.548  -5.950  0.00  0.00     0.003 A 
ATOM      3  C2  UNL d   1      -2.145  -3.390  -5.985  0.00  0.00     0.048 A 
ATOM      4  C3  UNL d   1      -1.320  -4.513  -5.936  0.00  0.00     0.023 A 
ATOM      5  C4  UNL d   1      -1.871  -5.792  -5.852  0.00  0.00     0.048 A 
ATOM      6  C5  UNL d   1      -3.258  -5.945  -5.816  0.00  0.00     0.003 A 
ATOM      7  I   UNL d   1       0.745  -4.279  -5.988  0.00  0.00    -0.146 I 
ENDROOT
TORSDOF 0
ENDMDL
