MODEL 1
REMARK minimizedAffinity 3.97547007
REMARK minimizedRMSD -1
REMARK  0 active torsions:
REMARK  status: ('A' for Active; 'I' for Inactive)
ROOT
ATOM      1  C   UNL d   1      -0.750   5.751  -2.249  0.00  0.00     0.023 A 
ATOM      2  C1  UNL d   1      -0.993   6.000  -0.898  0.00  0.00     0.003 A 
ATOM      3  C2  UNL d   1      -0.770   4.998   0.049  0.00  0.00     0.048 A 
ATOM      4  C3  UNL d   1      -0.303   3.750  -0.362  0.00  0.00     0.023 A 
ATOM      5  C4  UNL d   1      -0.058   3.497  -1.712  0.00  0.00     0.048 A 
ATOM      6  C5  UNL d   1      -0.283   4.501  -2.656  0.00  0.00     0.003 A 
ATOM      7  I   UNL d   1       0.029   2.257   1.046  0.00  0.00    -0.146 I 
ENDROOT
TORSDOF 0
ENDMDL
