MODEL 1
REMARK minimizedAffinity -0.679955542
REMARK minimizedRMSD -1
REMARK  0 active torsions:
REMARK  status: ('A' for Active; 'I' for Inactive)
ROOT
ATOM      1  C   UNL d   1       1.198  -3.084  -4.147  0.00  0.00     0.077 C 
ATOM      2  C1  UNL d   1       0.629  -2.571  -2.858  0.00  0.00    -0.074 A 
ATOM      3  C2  UNL d   1       0.270  -3.451  -1.831  0.00  0.00    -0.005 A 
ATOM      4  C3  UNL d   1      -0.249  -2.959  -0.634  0.00  0.00     0.006 A 
ATOM      5  C4  UNL d   1      -0.415  -1.585  -0.451  0.00  0.00    -0.005 A 
ATOM      6  C5  UNL d   1      -0.061  -0.691  -1.466  0.00  0.00    -0.074 A 
ATOM      7  C6  UNL d   1      -0.223   0.789  -1.283  0.00  0.00     0.077 C 
ATOM      8  C7  UNL d   1       0.467  -1.193  -2.664  0.00  0.00    -0.001 A 
ENDROOT
TORSDOF 0
ENDMDL
