MODEL 1
REMARK minimizedAffinity 0.678273916
REMARK minimizedRMSD -1
REMARK  0 active torsions:
REMARK  status: ('A' for Active; 'I' for Inactive)
ROOT
ATOM      1  C   UNL d   1      -1.515   0.822  -0.456  0.00  0.00     0.077 C 
ATOM      2  C1  UNL d   1      -1.275  -0.386   0.401  0.00  0.00    -0.074 A 
ATOM      3  C2  UNL d   1      -0.830  -1.588  -0.159  0.00  0.00    -0.005 A 
ATOM      4  C3  UNL d   1      -0.602  -2.699   0.652  0.00  0.00     0.006 A 
ATOM      5  C4  UNL d   1      -0.817  -2.620   2.029  0.00  0.00    -0.005 A 
ATOM      6  C5  UNL d   1      -1.261  -1.427   2.606  0.00  0.00    -0.074 A 
ATOM      7  C6  UNL d   1      -1.487  -1.322   4.085  0.00  0.00     0.077 C 
ATOM      8  C7  UNL d   1      -1.481  -0.312   1.786  0.00  0.00    -0.001 A 
ENDROOT
TORSDOF 0
ENDMDL
