MODEL 1
REMARK minimizedAffinity 4.35534477
REMARK minimizedRMSD -1
REMARK  0 active torsions:
REMARK  status: ('A' for Active; 'I' for Inactive)
ROOT
ATOM      1  C   UNL d   1      -0.115   0.859  -1.663  0.00  0.00     0.077 C 
ATOM      2  C1  UNL d   1      -0.684   2.119  -1.082  0.00  0.00    -0.074 A 
ATOM      3  C2  UNL d   1       0.032   2.862  -0.138  0.00  0.00    -0.005 A 
ATOM      4  C3  UNL d   1      -0.507   4.037   0.387  0.00  0.00     0.006 A 
ATOM      5  C4  UNL d   1      -1.764   4.480  -0.025  0.00  0.00    -0.005 A 
ATOM      6  C5  UNL d   1      -2.494   3.750  -0.969  0.00  0.00    -0.074 A 
ATOM      7  C6  UNL d   1      -3.842   4.217  -1.431  0.00  0.00     0.077 C 
ATOM      8  C7  UNL d   1      -1.943   2.574  -1.497  0.00  0.00    -0.001 A 
ENDROOT
TORSDOF 0
ENDMDL
