MODEL 1
REMARK minimizedAffinity -4.32269001
REMARK minimizedRMSD -1
REMARK  0 active torsions:
REMARK  status: ('A' for Active; 'I' for Inactive)
ROOT
ATOM      1  C   UNL d   1       0.671  -5.285  -0.827  0.00  0.00     0.077 C 
ATOM      2  C1  UNL d   1       0.289  -3.877  -0.480  0.00  0.00    -0.074 A 
ATOM      3  C2  UNL d   1       0.328  -2.863  -1.443  0.00  0.00    -0.005 A 
ATOM      4  C3  UNL d   1      -0.039  -1.560  -1.107  0.00  0.00     0.006 A 
ATOM      5  C4  UNL d   1      -0.448  -1.258   0.193  0.00  0.00    -0.005 A 
ATOM      6  C5  UNL d   1      -0.493  -2.259   1.169  0.00  0.00    -0.074 A 
ATOM      7  C6  UNL d   1      -0.940  -1.953   2.568  0.00  0.00     0.077 C 
ATOM      8  C7  UNL d   1      -0.130  -3.567   0.822  0.00  0.00    -0.001 A 
ENDROOT
TORSDOF 0
ENDMDL
