MODEL 1
REMARK minimizedAffinity 1.99533999
REMARK minimizedRMSD -1
REMARK  0 active torsions:
REMARK  status: ('A' for Active; 'I' for Inactive)
ROOT
ATOM      1  C   UNL d   1       0.542  -2.451  -3.174  0.00  0.00     0.077 C 
ATOM      2  C1  UNL d   1       0.279  -2.731  -1.724  0.00  0.00    -0.074 A 
ATOM      3  C2  UNL d   1       0.695  -3.930  -1.137  0.00  0.00    -0.005 A 
ATOM      4  C3  UNL d   1       0.452  -4.173   0.214  0.00  0.00     0.006 A 
ATOM      5  C4  UNL d   1      -0.209  -3.221   0.992  0.00  0.00    -0.005 A 
ATOM      6  C5  UNL d   1      -0.632  -2.016   0.422  0.00  0.00    -0.074 A 
ATOM      7  C6  UNL d   1      -1.335  -0.978   1.245  0.00  0.00     0.077 C 
ATOM      8  C7  UNL d   1      -0.378  -1.776  -0.935  0.00  0.00    -0.001 A 
ENDROOT
TORSDOF 0
ENDMDL
