MODEL 1
REMARK minimizedAffinity 8.57530689
REMARK minimizedRMSD -1
REMARK  0 active torsions:
REMARK  status: ('A' for Active; 'I' for Inactive)
ROOT
ATOM      1  C   UNL d   1      -0.759  -3.151   2.160  0.00  0.00     0.077 C 
ATOM      2  C1  UNL d   1      -0.903  -3.042   0.671  0.00  0.00    -0.074 A 
ATOM      3  C2  UNL d   1      -2.148  -3.200   0.056  0.00  0.00    -0.005 A 
ATOM      4  C3  UNL d   1      -2.267  -3.087  -1.329  0.00  0.00     0.006 A 
ATOM      5  C4  UNL d   1      -1.144  -2.814  -2.111  0.00  0.00    -0.005 A 
ATOM      6  C5  UNL d   1       0.109  -2.651  -1.513  0.00  0.00    -0.074 A 
ATOM      7  C6  UNL d   1       1.325  -2.348  -2.338  0.00  0.00     0.077 C 
ATOM      8  C7  UNL d   1       0.220  -2.760  -0.120  0.00  0.00    -0.001 A 
ENDROOT
TORSDOF 0
ENDMDL
