MODEL 1
REMARK minimizedAffinity 3.05120206
REMARK minimizedRMSD -1
REMARK  0 active torsions:
REMARK  status: ('A' for Active; 'I' for Inactive)
ROOT
ATOM      1  C   UNL d   1       1.144   0.933  -2.144  0.00  0.00     0.077 C 
ATOM      2  C1  UNL d   1       0.589  -0.456  -2.262  0.00  0.00    -0.074 A 
ATOM      3  C2  UNL d   1       0.362  -1.035  -3.514  0.00  0.00    -0.005 A 
ATOM      4  C3  UNL d   1      -0.146  -2.331  -3.608  0.00  0.00     0.006 A 
ATOM      5  C4  UNL d   1      -0.431  -3.059  -2.452  0.00  0.00    -0.005 A 
ATOM      6  C5  UNL d   1      -0.209  -2.496  -1.191  0.00  0.00    -0.074 A 
ATOM      7  C6  UNL d   1      -0.500  -3.269   0.061  0.00  0.00     0.077 C 
ATOM      8  C7  UNL d   1       0.308  -1.196  -1.105  0.00  0.00    -0.001 A 
ENDROOT
TORSDOF 0
ENDMDL
