MODEL 1
REMARK minimizedAffinity 5.03725958
REMARK minimizedRMSD -1
REMARK  0 active torsions:
REMARK  status: ('A' for Active; 'I' for Inactive)
ROOT
ATOM      1  C   UNL d   1      -1.254   1.136  -0.169  0.00  0.00     0.077 C 
ATOM      2  C1  UNL d   1      -0.896  -0.319  -0.252  0.00  0.00    -0.074 A 
ATOM      3  C2  UNL d   1      -1.027  -1.156   0.861  0.00  0.00    -0.005 A 
ATOM      4  C3  UNL d   1      -0.700  -2.508   0.766  0.00  0.00     0.006 A 
ATOM      5  C4  UNL d   1      -0.239  -3.036  -0.441  0.00  0.00    -0.005 A 
ATOM      6  C5  UNL d   1      -0.102  -2.215  -1.564  0.00  0.00    -0.074 A 
ATOM      7  C6  UNL d   1       0.383  -2.768  -2.871  0.00  0.00     0.077 C 
ATOM      8  C7  UNL d   1      -0.440  -0.858  -1.463  0.00  0.00    -0.001 A 
ENDROOT
TORSDOF 0
ENDMDL
