MODEL 1
REMARK minimizedAffinity 2.12152052
REMARK minimizedRMSD -1
REMARK  0 active torsions:
REMARK  status: ('A' for Active; 'I' for Inactive)
ROOT
ATOM      1  C   UNL d   1       1.279   1.204  -0.491  0.00  0.00     0.077 C 
ATOM      2  C1  UNL d   1       0.979  -0.063  -1.235  0.00  0.00    -0.074 A 
ATOM      3  C2  UNL d   1       1.197  -0.156  -2.614  0.00  0.00    -0.005 A 
ATOM      4  C3  UNL d   1       0.923  -1.344  -3.291  0.00  0.00     0.006 A 
ATOM      5  C4  UNL d   1       0.429  -2.450  -2.597  0.00  0.00    -0.005 A 
ATOM      6  C5  UNL d   1       0.205  -2.376  -1.219  0.00  0.00    -0.074 A 
ATOM      7  C6  UNL d   1      -0.316  -3.558  -0.457  0.00  0.00     0.077 C 
ATOM      8  C7  UNL d   1       0.490  -1.181  -0.544  0.00  0.00    -0.001 A 
ENDROOT
TORSDOF 0
ENDMDL
