MODEL 1
REMARK minimizedAffinity 7.55228806
REMARK minimizedRMSD -1
REMARK  0 active torsions:
REMARK  status: ('A' for Active; 'I' for Inactive)
ROOT
ATOM      1  C   UNL d   1       3.874  -0.663   1.135  0.00  0.00     0.077 C 
ATOM      2  C1  UNL d   1       2.895  -0.251   0.077  0.00  0.00    -0.074 A 
ATOM      3  C2  UNL d   1       2.722   1.096  -0.258  0.00  0.00    -0.005 A 
ATOM      4  C3  UNL d   1       1.814   1.463  -1.251  0.00  0.00     0.006 A 
ATOM      5  C4  UNL d   1       1.071   0.489  -1.919  0.00  0.00    -0.005 A 
ATOM      6  C5  UNL d   1       1.231  -0.863  -1.599  0.00  0.00    -0.074 A 
ATOM      7  C6  UNL d   1       0.448  -1.924  -2.314  0.00  0.00     0.077 C 
ATOM      8  C7  UNL d   1       2.151  -1.225  -0.604  0.00  0.00    -0.001 A 
ENDROOT
TORSDOF 0
ENDMDL
