MODEL 1
REMARK minimizedAffinity 7.57667112
REMARK minimizedRMSD -1
REMARK  0 active torsions:
REMARK  status: ('A' for Active; 'I' for Inactive)
ROOT
ATOM      1  C   UNL d   1      -1.025   5.607   1.125  0.00  0.00     0.077 C 
ATOM      2  C1  UNL d   1      -2.031   4.752   0.414  0.00  0.00    -0.074 A 
ATOM      3  C2  UNL d   1      -3.052   5.328  -0.349  0.00  0.00    -0.005 A 
ATOM      4  C3  UNL d   1      -3.975   4.520  -1.014  0.00  0.00     0.006 A 
ATOM      5  C4  UNL d   1      -3.886   3.130  -0.922  0.00  0.00    -0.005 A 
ATOM      6  C5  UNL d   1      -2.871   2.537  -0.164  0.00  0.00    -0.074 A 
ATOM      7  C6  UNL d   1      -2.756   1.045  -0.063  0.00  0.00     0.077 C 
ATOM      8  C7  UNL d   1      -1.944   3.356   0.495  0.00  0.00    -0.001 A 
ENDROOT
TORSDOF 0
ENDMDL
