MODEL 1
REMARK minimizedAffinity 6.20490599
REMARK minimizedRMSD -1
REMARK  0 active torsions:
REMARK  status: ('A' for Active; 'I' for Inactive)
ROOT
ATOM      1  C   UNL d   1       4.626  -0.317  -0.304  0.00  0.00     0.077 C 
ATOM      2  C1  UNL d   1       3.249  -0.066  -0.845  0.00  0.00    -0.074 A 
ATOM      3  C2  UNL d   1       2.505   1.042  -0.428  0.00  0.00    -0.005 A 
ATOM      4  C3  UNL d   1       1.230   1.268  -0.947  0.00  0.00     0.006 A 
ATOM      5  C4  UNL d   1       0.688   0.390  -1.886  0.00  0.00    -0.005 A 
ATOM      6  C5  UNL d   1       1.418  -0.723  -2.315  0.00  0.00    -0.074 A 
ATOM      7  C6  UNL d   1       0.854  -1.671  -3.331  0.00  0.00     0.077 C 
ATOM      8  C7  UNL d   1       2.701  -0.939  -1.794  0.00  0.00    -0.001 A 
ENDROOT
TORSDOF 0
ENDMDL
