MODEL 1
REMARK minimizedAffinity 7.09067059
REMARK minimizedRMSD -1
REMARK  0 active torsions:
REMARK  status: ('A' for Active; 'I' for Inactive)
ROOT
ATOM      1  C   UNL d   1       2.683   0.880  -1.289  0.00  0.00     0.077 C 
ATOM      2  C1  UNL d   1       1.992  -0.321  -1.863  0.00  0.00    -0.074 A 
ATOM      3  C2  UNL d   1       2.184  -0.692  -3.197  0.00  0.00    -0.005 A 
ATOM      4  C3  UNL d   1       1.542  -1.817  -3.714  0.00  0.00     0.006 A 
ATOM      5  C4  UNL d   1       0.702  -2.581  -2.903  0.00  0.00    -0.005 A 
ATOM      6  C5  UNL d   1       0.498  -2.226  -1.566  0.00  0.00    -0.074 A 
ATOM      7  C6  UNL d   1      -0.394  -3.042  -0.678  0.00  0.00     0.077 C 
ATOM      8  C7  UNL d   1       1.152  -1.098  -1.052  0.00  0.00    -0.001 A 
ENDROOT
TORSDOF 0
ENDMDL
