MODEL 1
REMARK minimizedAffinity 0.963742375
REMARK minimizedRMSD -1
REMARK  0 active torsions:
REMARK  status: ('A' for Active; 'I' for Inactive)
ROOT
ATOM      1  C   UNL d   1      -2.374  -4.133  -1.664  0.00  0.00     0.077 C 
ATOM      2  C1  UNL d   1      -1.865  -3.288  -0.535  0.00  0.00    -0.074 A 
ATOM      3  C2  UNL d   1      -1.208  -3.866   0.557  0.00  0.00    -0.005 A 
ATOM      4  C3  UNL d   1      -0.732  -3.066   1.595  0.00  0.00     0.006 A 
ATOM      5  C4  UNL d   1      -0.906  -1.682   1.553  0.00  0.00    -0.005 A 
ATOM      6  C5  UNL d   1      -1.559  -1.086   0.470  0.00  0.00    -0.074 A 
ATOM      7  C6  UNL d   1      -1.747   0.401   0.405  0.00  0.00     0.077 C 
ATOM      8  C7  UNL d   1      -2.029  -1.896  -0.573  0.00  0.00    -0.001 A 
ENDROOT
TORSDOF 0
ENDMDL
