MODEL 1
REMARK minimizedAffinity 15.4241581
REMARK minimizedRMSD -1
REMARK  0 active torsions:
REMARK  status: ('A' for Active; 'I' for Inactive)
ROOT
ATOM      1  C   UNL d   1       4.034  -2.455   1.016  0.00  0.00     0.077 C 
ATOM      2  C1  UNL d   1       3.433  -1.274   0.313  0.00  0.00    -0.074 A 
ATOM      3  C2  UNL d   1       3.939   0.014   0.510  0.00  0.00    -0.005 A 
ATOM      4  C3  UNL d   1       3.375   1.101  -0.158  0.00  0.00     0.006 A 
ATOM      5  C4  UNL d   1       2.301   0.911  -1.029  0.00  0.00    -0.005 A 
ATOM      6  C5  UNL d   1       1.783  -0.371  -1.240  0.00  0.00    -0.074 A 
ATOM      7  C6  UNL d   1       0.636  -0.594  -2.180  0.00  0.00     0.077 C 
ATOM      8  C7  UNL d   1       2.359  -1.459  -0.570  0.00  0.00    -0.001 A 
ENDROOT
TORSDOF 0
ENDMDL
