MODEL 1
REMARK minimizedAffinity 2.32378364
REMARK minimizedRMSD -1
REMARK  0 active torsions:
REMARK  status: ('A' for Active; 'I' for Inactive)
ROOT
ATOM      1  C   UNL d   1      -2.134   0.558  -0.531  0.00  0.00     0.077 C 
ATOM      2  C1  UNL d   1      -1.944  -0.799   0.080  0.00  0.00    -0.074 A 
ATOM      3  C2  UNL d   1      -0.689  -1.211   0.540  0.00  0.00    -0.005 A 
ATOM      4  C3  UNL d   1      -0.530  -2.471   1.115  0.00  0.00     0.006 A 
ATOM      5  C4  UNL d   1      -1.622  -3.332   1.235  0.00  0.00    -0.005 A 
ATOM      6  C5  UNL d   1      -2.884  -2.937   0.781  0.00  0.00    -0.074 A 
ATOM      7  C6  UNL d   1      -4.071  -3.846   0.911  0.00  0.00     0.077 C 
ATOM      8  C7  UNL d   1      -3.038  -1.666   0.211  0.00  0.00    -0.001 A 
ENDROOT
TORSDOF 0
ENDMDL
