MODEL 1
REMARK minimizedAffinity -0.50744766
REMARK minimizedRMSD -1
REMARK  0 active torsions:
REMARK  status: ('A' for Active; 'I' for Inactive)
ROOT
ATOM      1  C   UNL d   1      -4.502   6.000  -1.842  0.00  0.00     0.077 C 
ATOM      2  C1  UNL d   1      -3.576   5.333  -0.868  0.00  0.00    -0.074 A 
ATOM      3  C2  UNL d   1      -3.141   5.999   0.282  0.00  0.00    -0.005 A 
ATOM      4  C3  UNL d   1      -2.288   5.362   1.183  0.00  0.00     0.006 A 
ATOM      5  C4  UNL d   1      -1.863   4.055   0.944  0.00  0.00    -0.005 A 
ATOM      6  C5  UNL d   1      -2.288   3.372  -0.200  0.00  0.00    -0.074 A 
ATOM      7  C6  UNL d   1      -1.848   1.964  -0.467  0.00  0.00     0.077 C 
ATOM      8  C7  UNL d   1      -3.151   4.017  -1.097  0.00  0.00    -0.001 A 
ENDROOT
TORSDOF 0
ENDMDL
