MODEL 1
REMARK minimizedAffinity -2.06233668
REMARK minimizedRMSD -1
REMARK  2 active torsions:
REMARK  status: ('A' for Active; 'I' for Inactive)
REMARK    1  A    between atoms: C1_2  and  C2_3 
REMARK    2  A    between atoms: C2_3  and  C3_4 
ROOT
ATOM      1  C3  UNL d   1       1.173   2.009   0.785  0.00  0.00    -0.075 A 
ATOM      2  C4  UNL d   1       1.255   0.733   0.210  0.00  0.00     0.002 A 
ATOM      3  C5  UNL d   1       1.410   0.586  -1.169  0.00  0.00     0.002 A 
ATOM      4  C6  UNL d   1       1.474   1.709  -1.990  0.00  0.00    -0.004 A 
ATOM      5  C7  UNL d   1       1.377   2.982  -1.431  0.00  0.00     0.002 A 
ATOM      6  C8  UNL d   1       1.227   3.132  -0.051  0.00  0.00     0.002 A 
ENDROOT
BRANCH   1   7
ATOM      7  C2  UNL d   1       1.035   2.176   2.279  0.00  0.00     0.056 C 
BRANCH   7   8
ATOM      8  C1  UNL d   1       2.292   1.794   3.068  0.00  0.00     0.007 C 
ATOM      9  C   UNL d   1       2.078   0.609   4.001  0.00  0.00     0.009 C 
ENDBRANCH   7   8
ENDBRANCH   1   7
TORSDOF 2
ENDMDL
