MODEL 1
REMARK minimizedAffinity -2.15117455
REMARK minimizedRMSD -1
REMARK  2 active torsions:
REMARK  status: ('A' for Active; 'I' for Inactive)
REMARK    1  A    between atoms: C1_2  and  C2_3 
REMARK    2  A    between atoms: C2_3  and  C3_4 
ROOT
ATOM      1  C3  UNL d   1       0.949   1.754  -0.536  0.00  0.00    -0.075 A 
ATOM      2  C4  UNL d   1       1.258   2.648  -1.571  0.00  0.00     0.002 A 
ATOM      3  C5  UNL d   1       1.552   3.982  -1.290  0.00  0.00     0.002 A 
ATOM      4  C6  UNL d   1       1.532   4.442   0.025  0.00  0.00    -0.004 A 
ATOM      5  C7  UNL d   1       1.210   3.566   1.060  0.00  0.00     0.002 A 
ATOM      6  C8  UNL d   1       0.919   2.229   0.782  0.00  0.00     0.002 A 
ENDROOT
BRANCH   1   7
ATOM      7  C2  UNL d   1       0.659   0.302  -0.830  0.00  0.00     0.056 C 
BRANCH   7   8
ATOM      8  C1  UNL d   1       1.815  -0.441  -1.507  0.00  0.00     0.007 C 
ATOM      9  C   UNL d   1       1.461  -0.972  -2.890  0.00  0.00     0.009 C 
ENDBRANCH   7   8
ENDBRANCH   1   7
TORSDOF 2
ENDMDL
