MODEL 1
REMARK minimizedAffinity 5.41046381
REMARK minimizedRMSD -1
REMARK  2 active torsions:
REMARK  status: ('A' for Active; 'I' for Inactive)
REMARK    1  A    between atoms: C1_2  and  C2_3 
REMARK    2  A    between atoms: C2_3  and  C3_4 
ROOT
ATOM      1  C3  UNL d   1       1.446   2.210  -1.621  0.00  0.00    -0.075 A 
ATOM      2  C4  UNL d   1       0.736   1.223  -2.320  0.00  0.00     0.002 A 
ATOM      3  C5  UNL d   1       1.055  -0.126  -2.161  0.00  0.00     0.002 A 
ATOM      4  C6  UNL d   1       2.092  -0.504  -1.312  0.00  0.00    -0.004 A 
ATOM      5  C7  UNL d   1       2.816   0.469  -0.625  0.00  0.00     0.002 A 
ATOM      6  C8  UNL d   1       2.496   1.819  -0.778  0.00  0.00     0.002 A 
ENDROOT
BRANCH   1   7
ATOM      7  C2  UNL d   1       1.087   3.669  -1.765  0.00  0.00     0.056 C 
BRANCH   7   8
ATOM      8  C1  UNL d   1       1.490   4.533  -0.566  0.00  0.00     0.007 C 
ATOM      9  C   UNL d   1       1.966   5.925  -0.961  0.00  0.00     0.009 C 
ENDBRANCH   7   8
ENDBRANCH   1   7
TORSDOF 2
ENDMDL
