MODEL 1
REMARK minimizedAffinity 6.29186392
REMARK minimizedRMSD -1
REMARK  2 active torsions:
REMARK  status: ('A' for Active; 'I' for Inactive)
REMARK    1  A    between atoms: C1_2  and  C2_3 
REMARK    2  A    between atoms: C2_3  and  C3_4 
ROOT
ATOM      1  C3  UNL d   1       1.606   2.923  -0.764  0.00  0.00    -0.075 A 
ATOM      2  C4  UNL d   1       1.879   3.582  -1.972  0.00  0.00     0.002 A 
ATOM      3  C5  UNL d   1       2.182   4.944  -1.982  0.00  0.00     0.002 A 
ATOM      4  C6  UNL d   1       2.206   5.665  -0.791  0.00  0.00    -0.004 A 
ATOM      5  C7  UNL d   1       1.920   5.023   0.413  0.00  0.00     0.002 A 
ATOM      6  C8  UNL d   1       1.621   3.660   0.427  0.00  0.00     0.002 A 
ENDROOT
BRANCH   1   7
ATOM      7  C2  UNL d   1       1.307   1.443  -0.743  0.00  0.00     0.056 C 
BRANCH   7   8
ATOM      8  C1  UNL d   1       0.621   0.926  -2.012  0.00  0.00     0.007 C 
ATOM      9  C   UNL d   1       0.460  -0.588  -2.034  0.00  0.00     0.009 C 
ENDBRANCH   7   8
ENDBRANCH   1   7
TORSDOF 2
ENDMDL
