MODEL 1
REMARK minimizedAffinity -4.22474432
REMARK minimizedRMSD -1
REMARK  2 active torsions:
REMARK  status: ('A' for Active; 'I' for Inactive)
REMARK    1  A    between atoms: C1_2  and  C2_3 
REMARK    2  A    between atoms: C2_3  and  C3_4 
ROOT
ATOM      1  C3  UNL d   1       1.499   2.521  -0.094  0.00  0.00    -0.075 A 
ATOM      2  C4  UNL d   1       1.570   2.236  -1.466  0.00  0.00     0.002 A 
ATOM      3  C5  UNL d   1       1.258   0.962  -1.941  0.00  0.00     0.002 A 
ATOM      4  C6  UNL d   1       0.882  -0.044  -1.054  0.00  0.00    -0.004 A 
ATOM      5  C7  UNL d   1       0.825   0.224   0.312  0.00  0.00     0.002 A 
ATOM      6  C8  UNL d   1       1.132   1.499   0.791  0.00  0.00     0.002 A 
ENDROOT
BRANCH   1   7
ATOM      7  C2  UNL d   1       1.807   3.906   0.424  0.00  0.00     0.056 C 
BRANCH   7   8
ATOM      8  C1  UNL d   1       1.497   5.028  -0.572  0.00  0.00     0.007 C 
ATOM      9  C   UNL d   1       2.661   5.987  -0.778  0.00  0.00     0.009 C 
ENDBRANCH   7   8
ENDBRANCH   1   7
TORSDOF 2
ENDMDL
