MODEL 1
REMARK minimizedAffinity 1.71487617
REMARK minimizedRMSD -1
REMARK  2 active torsions:
REMARK  status: ('A' for Active; 'I' for Inactive)
REMARK    1  A    between atoms: C1_2  and  C2_3 
REMARK    2  A    between atoms: C2_3  and  C3_4 
ROOT
ATOM      1  C3  UNL d   1       1.241   3.292  -0.316  0.00  0.00    -0.075 A 
ATOM      2  C4  UNL d   1       1.291   2.131   0.470  0.00  0.00     0.002 A 
ATOM      3  C5  UNL d   1       1.252   0.870  -0.126  0.00  0.00     0.002 A 
ATOM      4  C6  UNL d   1       1.151   0.753  -1.510  0.00  0.00    -0.004 A 
ATOM      5  C7  UNL d   1       1.083   1.900  -2.300  0.00  0.00     0.002 A 
ATOM      6  C8  UNL d   1       1.127   3.162  -1.706  0.00  0.00     0.002 A 
ENDROOT
BRANCH   1   7
ATOM      7  C2  UNL d   1       1.314   4.659   0.321  0.00  0.00     0.056 C 
BRANCH   7   8
ATOM      8  C1  UNL d   1       1.557   5.798  -0.675  0.00  0.00     0.007 C 
ATOM      9  C   UNL d   1       3.029   5.996  -1.012  0.00  0.00     0.009 C 
ENDBRANCH   7   8
ENDBRANCH   1   7
TORSDOF 2
ENDMDL
