MODEL 1
REMARK minimizedAffinity -3.58851266
REMARK minimizedRMSD -1
REMARK  2 active torsions:
REMARK  status: ('A' for Active; 'I' for Inactive)
REMARK    1  A    between atoms: C1_2  and  C2_3 
REMARK    2  A    between atoms: C2_3  and  C3_4 
ROOT
ATOM      1  C3  UNL d   1       0.934   2.681  -0.116  0.00  0.00    -0.075 A 
ATOM      2  C4  UNL d   1       0.732   1.632   0.792  0.00  0.00     0.002 A 
ATOM      3  C5  UNL d   1       0.712   0.308   0.352  0.00  0.00     0.002 A 
ATOM      4  C6  UNL d   1       0.883   0.018  -1.000  0.00  0.00    -0.004 A 
ATOM      5  C7  UNL d   1       1.068   1.053  -1.913  0.00  0.00     0.002 A 
ATOM      6  C8  UNL d   1       1.093   2.378  -1.475  0.00  0.00     0.002 A 
ENDROOT
BRANCH   1   7
ATOM      7  C2  UNL d   1       0.986   4.114   0.358  0.00  0.00     0.056 C 
BRANCH   7   8
ATOM      8  C1  UNL d   1       1.125   5.140  -0.772  0.00  0.00     0.007 C 
ATOM      9  C   UNL d   1       2.381   5.994  -0.656  0.00  0.00     0.009 C 
ENDBRANCH   7   8
ENDBRANCH   1   7
TORSDOF 2
ENDMDL
