MODEL 1
REMARK minimizedAffinity 5.50300646
REMARK minimizedRMSD -1
REMARK  2 active torsions:
REMARK  status: ('A' for Active; 'I' for Inactive)
REMARK    1  A    between atoms: C1_2  and  C2_3 
REMARK    2  A    between atoms: C2_3  and  C3_4 
ROOT
ATOM      1  C3  UNL d   1       1.471   3.114  -0.164  0.00  0.00    -0.075 A 
ATOM      2  C4  UNL d   1       1.530   1.913   0.558  0.00  0.00     0.002 A 
ATOM      3  C5  UNL d   1       1.590   0.688  -0.107  0.00  0.00     0.002 A 
ATOM      4  C6  UNL d   1       1.581   0.647  -1.500  0.00  0.00    -0.004 A 
ATOM      5  C7  UNL d   1       1.506   1.833  -2.228  0.00  0.00     0.002 A 
ATOM      6  C8  UNL d   1       1.451   3.060  -1.565  0.00  0.00     0.002 A 
ENDROOT
BRANCH   1   7
ATOM      7  C2  UNL d   1       1.437   4.444   0.549  0.00  0.00     0.056 C 
BRANCH   7   8
ATOM      8  C1  UNL d   1       1.297   5.650  -0.386  0.00  0.00     0.007 C 
ATOM      9  C   UNL d   1       2.588   6.000  -1.112  0.00  0.00     0.009 C 
ENDBRANCH   7   8
ENDBRANCH   1   7
TORSDOF 2
ENDMDL
