MODEL 1
REMARK minimizedAffinity 2.59351158
REMARK minimizedRMSD -1
REMARK  2 active torsions:
REMARK  status: ('A' for Active; 'I' for Inactive)
REMARK    1  A    between atoms: C1_2  and  C2_3 
REMARK    2  A    between atoms: C2_3  and  C3_4 
ROOT
ATOM      1  C3  UNL d   1       1.483   2.982   0.409  0.00  0.00    -0.075 A 
ATOM      2  C4  UNL d   1       1.435   4.371   0.219  0.00  0.00     0.002 A 
ATOM      3  C5  UNL d   1       1.550   4.915  -1.061  0.00  0.00     0.002 A 
ATOM      4  C6  UNL d   1       1.725   4.081  -2.163  0.00  0.00    -0.004 A 
ATOM      5  C7  UNL d   1       1.791   2.701  -1.983  0.00  0.00     0.002 A 
ATOM      6  C8  UNL d   1       1.671   2.153  -0.705  0.00  0.00     0.002 A 
ENDROOT
BRANCH   1   7
ATOM      7  C2  UNL d   1       1.330   2.385   1.788  0.00  0.00     0.056 C 
BRANCH   7   8
ATOM      8  C1  UNL d   1       2.624   2.367   2.607  0.00  0.00     0.007 C 
ATOM      9  C   UNL d   1       2.814   3.615   3.458  0.00  0.00     0.009 C 
ENDBRANCH   7   8
ENDBRANCH   1   7
TORSDOF 2
ENDMDL
