MODEL 1
REMARK minimizedAffinity 1.10267901
REMARK minimizedRMSD -1
REMARK  2 active torsions:
REMARK  status: ('A' for Active; 'I' for Inactive)
REMARK    1  A    between atoms: C1_2  and  C2_3 
REMARK    2  A    between atoms: C2_3  and  C3_4 
ROOT
ATOM      1  C3  UNL d   1       1.942   1.539  -0.488  0.00  0.00    -0.075 A 
ATOM      2  C4  UNL d   1       3.162   0.849  -0.439  0.00  0.00     0.002 A 
ATOM      3  C5  UNL d   1       3.855   0.720   0.765  0.00  0.00     0.002 A 
ATOM      4  C6  UNL d   1       3.345   1.288   1.931  0.00  0.00    -0.004 A 
ATOM      5  C7  UNL d   1       2.142   1.990   1.890  0.00  0.00     0.002 A 
ATOM      6  C8  UNL d   1       1.444   2.116   0.688  0.00  0.00     0.002 A 
ENDROOT
BRANCH   1   7
ATOM      7  C2  UNL d   1       1.173   1.657  -1.782  0.00  0.00     0.056 C 
BRANCH   7   8
ATOM      8  C1  UNL d   1       1.009   0.331  -2.533  0.00  0.00     0.007 C 
ATOM      9  C   UNL d   1       0.847  -0.867  -1.607  0.00  0.00     0.009 C 
ENDBRANCH   7   8
ENDBRANCH   1   7
TORSDOF 2
ENDMDL
