MODEL 1
REMARK minimizedAffinity -2.11998034
REMARK minimizedRMSD -1
REMARK  2 active torsions:
REMARK  status: ('A' for Active; 'I' for Inactive)
REMARK    1  A    between atoms: C1_2  and  C2_3 
REMARK    2  A    between atoms: C2_3  and  C3_4 
ROOT
ATOM      1  C3  UNL d   1       1.002  -0.795  -0.971  0.00  0.00    -0.075 A 
ATOM      2  C4  UNL d   1       1.356   0.058   0.084  0.00  0.00     0.002 A 
ATOM      3  C5  UNL d   1       1.741   1.375  -0.168  0.00  0.00     0.002 A 
ATOM      4  C6  UNL d   1       1.787   1.853  -1.476  0.00  0.00    -0.004 A 
ATOM      5  C7  UNL d   1       1.453   1.009  -2.533  0.00  0.00     0.002 A 
ATOM      6  C8  UNL d   1       1.063  -0.308  -2.284  0.00  0.00     0.002 A 
ENDROOT
BRANCH   1   7
ATOM      7  C2  UNL d   1       0.556  -2.212  -0.703  0.00  0.00     0.056 C 
BRANCH   7   8
ATOM      8  C1  UNL d   1      -0.075  -2.907  -1.914  0.00  0.00     0.007 C 
ATOM      9  C   UNL d   1      -1.119  -3.948  -1.532  0.00  0.00     0.009 C 
ENDBRANCH   7   8
ENDBRANCH   1   7
TORSDOF 2
ENDMDL
