MODEL 1
REMARK minimizedAffinity 2.69955754
REMARK minimizedRMSD -1
REMARK  2 active torsions:
REMARK  status: ('A' for Active; 'I' for Inactive)
REMARK    1  A    between atoms: C1_2  and  C2_3 
REMARK    2  A    between atoms: C2_3  and  C3_4 
ROOT
ATOM      1  C3  UNL d   1       1.661   2.200  -1.579  0.00  0.00    -0.075 A 
ATOM      2  C4  UNL d   1       0.883   1.309  -2.333  0.00  0.00     0.002 A 
ATOM      3  C5  UNL d   1       0.811  -0.040  -1.983  0.00  0.00     0.002 A 
ATOM      4  C6  UNL d   1       1.522  -0.516  -0.884  0.00  0.00    -0.004 A 
ATOM      5  C7  UNL d   1       2.311   0.356  -0.138  0.00  0.00     0.002 A 
ATOM      6  C8  UNL d   1       2.382   1.707  -0.483  0.00  0.00     0.002 A 
ENDROOT
BRANCH   1   7
ATOM      7  C2  UNL d   1       1.720   3.666  -1.934  0.00  0.00     0.056 C 
BRANCH   7   8
ATOM      8  C1  UNL d   1       1.990   4.587  -0.740  0.00  0.00     0.007 C 
ATOM      9  C   UNL d   1       2.386   6.000  -1.149  0.00  0.00     0.009 C 
ENDBRANCH   7   8
ENDBRANCH   1   7
TORSDOF 2
ENDMDL
