MODEL 1
REMARK minimizedAffinity 7.30089378
REMARK minimizedRMSD -1
REMARK  2 active torsions:
REMARK  status: ('A' for Active; 'I' for Inactive)
REMARK    1  A    between atoms: C1_2  and  C2_3 
REMARK    2  A    between atoms: C2_3  and  C3_4 
ROOT
ATOM      1  C3  UNL d   1      -1.275  -0.084   4.456  0.00  0.00    -0.075 A 
ATOM      2  C4  UNL d   1      -1.723   0.334   5.717  0.00  0.00     0.002 A 
ATOM      3  C5  UNL d   1      -2.612   1.403   5.835  0.00  0.00     0.002 A 
ATOM      4  C6  UNL d   1      -3.055   2.072   4.696  0.00  0.00    -0.004 A 
ATOM      5  C7  UNL d   1      -2.604   1.676   3.439  0.00  0.00     0.002 A 
ATOM      6  C8  UNL d   1      -1.718   0.604   3.318  0.00  0.00     0.002 A 
ENDROOT
BRANCH   1   7
ATOM      7  C2  UNL d   1      -0.336  -1.259   4.320  0.00  0.00     0.056 C 
BRANCH   7   8
ATOM      8  C1  UNL d   1      -0.730  -2.248   3.218  0.00  0.00     0.007 C 
ATOM      9  C   UNL d   1      -1.652  -3.357   3.707  0.00  0.00     0.009 C 
ENDBRANCH   7   8
ENDBRANCH   1   7
TORSDOF 2
ENDMDL
