MODEL 1
REMARK minimizedAffinity -3.77848315
REMARK minimizedRMSD -1
REMARK  2 active torsions:
REMARK  status: ('A' for Active; 'I' for Inactive)
REMARK    1  A    between atoms: C1_2  and  C2_3 
REMARK    2  A    between atoms: C2_3  and  C3_4 
ROOT
ATOM      1  C3  UNL d   1       1.366   2.510  -0.735  0.00  0.00    -0.075 A 
ATOM      2  C4  UNL d   1       1.476   3.838  -1.174  0.00  0.00     0.002 A 
ATOM      3  C5  UNL d   1       1.237   4.896  -0.296  0.00  0.00     0.002 A 
ATOM      4  C6  UNL d   1       0.876   4.641   1.025  0.00  0.00    -0.004 A 
ATOM      5  C7  UNL d   1       0.747   3.326   1.467  0.00  0.00     0.002 A 
ATOM      6  C8  UNL d   1       0.990   2.266   0.593  0.00  0.00     0.002 A 
ENDROOT
BRANCH   1   7
ATOM      7  C2  UNL d   1       1.652   1.361  -1.671  0.00  0.00     0.056 C 
BRANCH   7   8
ATOM      8  C1  UNL d   1       1.341  -0.018  -1.080  0.00  0.00     0.007 C 
ATOM      9  C   UNL d   1       2.520  -0.632  -0.337  0.00  0.00     0.009 C 
ENDBRANCH   7   8
ENDBRANCH   1   7
TORSDOF 2
ENDMDL
