MODEL 1
REMARK minimizedAffinity -0.501391888
REMARK minimizedRMSD -1
REMARK  1 active torsions:
REMARK  status: ('A' for Active; 'I' for Inactive)
REMARK    1  A    between atoms: C1_2  and  C2_3 
ROOT
ATOM      1  C2  UNL d   1       2.383  -0.853  -0.721  0.00  0.00    -0.077 A 
ATOM      2  C3  UNL d   1       2.280   0.506  -0.390  0.00  0.00     0.002 A 
ATOM      3  C4  UNL d   1       1.311   0.940   0.517  0.00  0.00     0.002 A 
ATOM      4  C5  UNL d   1       0.442   0.023   1.102  0.00  0.00    -0.004 A 
ATOM      5  C6  UNL d   1       0.535  -1.330   0.778  0.00  0.00     0.002 A 
ATOM      6  C7  UNL d   1       1.501  -1.766  -0.129  0.00  0.00     0.002 A 
ENDROOT
BRANCH   1   7
ATOM      7  C1  UNL d   1       3.459  -1.330  -1.661  0.00  0.00     0.055 C 
ATOM      8  C   UNL d   1       4.290  -0.168  -2.187  0.00  0.00     0.019 C 
ENDBRANCH   1   7
TORSDOF 1
ENDMDL
