MODEL 1
REMARK minimizedAffinity -2.44947147
REMARK minimizedRMSD -1
REMARK  1 active torsions:
REMARK  status: ('A' for Active; 'I' for Inactive)
REMARK    1  A    between atoms: C1_2  and  C2_3 
ROOT
ATOM      1  C2  UNL d   1       1.731  -1.057  -1.096  0.00  0.00    -0.077 A 
ATOM      2  C3  UNL d   1       1.630   0.315  -1.365  0.00  0.00     0.002 A 
ATOM      3  C4  UNL d   1       1.340   1.217  -0.339  0.00  0.00     0.002 A 
ATOM      4  C5  UNL d   1       1.154   0.757   0.963  0.00  0.00    -0.004 A 
ATOM      5  C6  UNL d   1       1.250  -0.606   1.240  0.00  0.00     0.002 A 
ATOM      6  C7  UNL d   1       1.538  -1.509   0.216  0.00  0.00     0.002 A 
ENDROOT
BRANCH   1   7
ATOM      7  C1  UNL d   1       2.091  -2.026  -2.192  0.00  0.00     0.055 C 
ATOM      8  C   UNL d   1       1.043  -2.029  -3.294  0.00  0.00     0.019 C 
ENDBRANCH   1   7
TORSDOF 1
ENDMDL
