MODEL 1
REMARK minimizedAffinity -1.65960002
REMARK minimizedRMSD -1
REMARK  1 active torsions:
REMARK  status: ('A' for Active; 'I' for Inactive)
REMARK    1  A    between atoms: C1_2  and  C2_3 
ROOT
ATOM      1  C2  UNL d   1      -4.849   2.728  -2.446  0.00  0.00    -0.077 A 
ATOM      2  C3  UNL d   1      -6.000   2.999  -3.200  0.00  0.00     0.002 A 
ATOM      3  C4  UNL d   1      -5.891   3.437  -4.521  0.00  0.00     0.002 A 
ATOM      4  C5  UNL d   1      -4.635   3.604  -5.100  0.00  0.00    -0.004 A 
ATOM      5  C6  UNL d   1      -3.485   3.339  -4.358  0.00  0.00     0.002 A 
ATOM      6  C7  UNL d   1      -3.591   2.902  -3.037  0.00  0.00     0.002 A 
ENDROOT
BRANCH   1   7
ATOM      7  C1  UNL d   1      -4.965   2.208  -1.037  0.00  0.00     0.055 C 
ATOM      8  C   UNL d   1      -4.999   3.346  -0.027  0.00  0.00     0.019 C 
ENDBRANCH   1   7
TORSDOF 1
ENDMDL
