MODEL 1
REMARK minimizedAffinity 1.54160905
REMARK minimizedRMSD -1
REMARK  1 active torsions:
REMARK  status: ('A' for Active; 'I' for Inactive)
REMARK    1  A    between atoms: C1_2  and  C2_3 
ROOT
ATOM      1  C2  UNL d   1       1.293  -0.884   0.860  0.00  0.00    -0.077 A 
ATOM      2  C3  UNL d   1       1.603   0.480   0.763  0.00  0.00     0.002 A 
ATOM      3  C4  UNL d   1       2.503   0.933  -0.204  0.00  0.00     0.002 A 
ATOM      4  C5  UNL d   1       3.096   0.029  -1.083  0.00  0.00    -0.004 A 
ATOM      5  C6  UNL d   1       2.796  -1.329  -0.993  0.00  0.00     0.002 A 
ATOM      6  C7  UNL d   1       1.898  -1.784  -0.027  0.00  0.00     0.002 A 
ENDROOT
BRANCH   1   7
ATOM      7  C1  UNL d   1       0.285  -1.368   1.870  0.00  0.00     0.055 C 
ATOM      8  C   UNL d   1      -1.074  -0.719   1.650  0.00  0.00     0.019 C 
ENDBRANCH   1   7
TORSDOF 1
ENDMDL
