MODEL 1
REMARK minimizedAffinity 1.86329293
REMARK minimizedRMSD -1
REMARK  1 active torsions:
REMARK  status: ('A' for Active; 'I' for Inactive)
REMARK    1  A    between atoms: C1_2  and  C2_3 
ROOT
ATOM      1  C2  UNL d   1       2.795   0.225  -1.265  0.00  0.00    -0.077 A 
ATOM      2  C3  UNL d   1       1.754   1.025  -0.774  0.00  0.00     0.002 A 
ATOM      3  C4  UNL d   1       0.948   0.571   0.273  0.00  0.00     0.002 A 
ATOM      4  C5  UNL d   1       1.178  -0.681   0.839  0.00  0.00    -0.004 A 
ATOM      5  C6  UNL d   1       2.210  -1.485   0.356  0.00  0.00     0.002 A 
ATOM      6  C7  UNL d   1       3.015  -1.033  -0.691  0.00  0.00     0.002 A 
ENDROOT
BRANCH   1   7
ATOM      7  C1  UNL d   1       3.696   0.733  -2.360  0.00  0.00     0.055 C 
ATOM      8  C   UNL d   1       4.772  -0.285  -2.709  0.00  0.00     0.019 C 
ENDBRANCH   1   7
TORSDOF 1
ENDMDL
