MODEL 1
REMARK minimizedAffinity 2.37018728
REMARK minimizedRMSD -1
REMARK  1 active torsions:
REMARK  status: ('A' for Active; 'I' for Inactive)
REMARK    1  A    between atoms: C1_2  and  C2_3 
ROOT
ATOM      1  C2  UNL d   1       1.008  -1.137   0.190  0.00  0.00    -0.077 A 
ATOM      2  C3  UNL d   1       0.044  -1.796   0.965  0.00  0.00     0.002 A 
ATOM      3  C4  UNL d   1      -0.443  -1.210   2.135  0.00  0.00     0.002 A 
ATOM      4  C5  UNL d   1       0.026   0.038   2.538  0.00  0.00    -0.004 A 
ATOM      5  C6  UNL d   1       0.986   0.701   1.775  0.00  0.00     0.002 A 
ATOM      6  C7  UNL d   1       1.475   0.116   0.606  0.00  0.00     0.002 A 
ENDROOT
BRANCH   1   7
ATOM      7  C1  UNL d   1       1.498  -1.745  -1.099  0.00  0.00     0.055 C 
ATOM      8  C   UNL d   1       2.957  -1.398  -1.355  0.00  0.00     0.019 C 
ENDBRANCH   1   7
TORSDOF 1
ENDMDL
