MODEL 1
REMARK minimizedAffinity -3.6368556
REMARK minimizedRMSD -1
REMARK  1 active torsions:
REMARK  status: ('A' for Active; 'I' for Inactive)
REMARK    1  A    between atoms: C1_2  and  C2_3 
ROOT
ATOM      1  C2  UNL d   1       0.344  -0.818   1.350  0.00  0.00    -0.077 A 
ATOM      2  C3  UNL d   1       0.607   0.508   0.981  0.00  0.00     0.002 A 
ATOM      3  C4  UNL d   1       1.386   0.787  -0.144  0.00  0.00     0.002 A 
ATOM      4  C5  UNL d   1       1.904  -0.255  -0.911  0.00  0.00    -0.004 A 
ATOM      5  C6  UNL d   1       1.649  -1.578  -0.551  0.00  0.00     0.002 A 
ATOM      6  C7  UNL d   1       0.872  -1.858   0.574  0.00  0.00     0.002 A 
ENDROOT
BRANCH   1   7
ATOM      7  C1  UNL d   1      -0.537  -1.120   2.534  0.00  0.00     0.055 C 
ATOM      8  C   UNL d   1      -1.959  -1.440   2.099  0.00  0.00     0.019 C 
ENDBRANCH   1   7
TORSDOF 1
ENDMDL
