MODEL 1
REMARK minimizedAffinity 5.10300922
REMARK minimizedRMSD -1
REMARK  1 active torsions:
REMARK  status: ('A' for Active; 'I' for Inactive)
REMARK    1  A    between atoms: C1_2  and  C2_3 
ROOT
ATOM      1  C2  UNL d   1      -1.041   3.895  -3.233  0.00  0.00    -0.077 A 
ATOM      2  C3  UNL d   1       0.250   3.484  -3.593  0.00  0.00     0.002 A 
ATOM      3  C4  UNL d   1       0.479   2.180  -4.036  0.00  0.00     0.002 A 
ATOM      4  C5  UNL d   1      -0.578   1.278  -4.128  0.00  0.00    -0.004 A 
ATOM      5  C6  UNL d   1      -1.866   1.676  -3.770  0.00  0.00     0.002 A 
ATOM      6  C7  UNL d   1      -2.096   2.979  -3.326  0.00  0.00     0.002 A 
ENDROOT
BRANCH   1   7
ATOM      7  C1  UNL d   1      -1.298   5.315  -2.802  0.00  0.00     0.055 C 
ATOM      8  C   UNL d   1      -1.353   5.432  -1.286  0.00  0.00     0.019 C 
ENDBRANCH   1   7
TORSDOF 1
ENDMDL
