MODEL 1
REMARK minimizedAffinity -2.88950896
REMARK minimizedRMSD -1
REMARK  3 active torsions:
REMARK  status: ('A' for Active; 'I' for Inactive)
REMARK    1  A    between atoms: C3'_2  and  C2'_3 
REMARK    2  A    between atoms: C2'_3  and  C1'_4 
REMARK    3  A    between atoms: C1'_4  and  C1_5 
ROOT
ATOM      1  C1  N4B d   1       0.480  -0.644  -0.082  0.00  0.00    -0.075 A 
ATOM      2  C2  N4B d   1       0.679  -1.650  -1.053  0.00  0.00     0.002 A 
ATOM      3  C3  N4B d   1       1.816  -1.644  -1.825  0.00  0.00     0.002 A 
ATOM      4  C4  N4B d   1       2.754  -0.637  -1.657  0.00  0.00    -0.004 A 
ATOM      5  C5  N4B d   1       2.566   0.317  -0.699  0.00  0.00     0.002 A 
ATOM      6  C6  N4B d   1       1.431   0.321   0.086  0.00  0.00     0.002 A 
ENDROOT
BRANCH   1   7
ATOM      7  C1' N4B d   1      -0.786  -0.560   0.726  0.00  0.00     0.057 C 
BRANCH   7   8
ATOM      8  C2' N4B d   1      -0.578   0.414   1.882  0.00  0.00     0.009 C 
BRANCH   8   9
ATOM      9  C3' N4B d   1      -1.563   0.171   3.013  0.00  0.00     0.004 C 
ATOM     10  C4' N4B d   1      -1.460   1.196   4.103  0.00  0.00     0.003 C 
ENDBRANCH   8   9
ENDBRANCH   7   8
ENDBRANCH   1   7
TORSDOF 3
ENDMDL
