MODEL 1
REMARK minimizedAffinity -5.33484983
REMARK minimizedRMSD -1
REMARK  3 active torsions:
REMARK  status: ('A' for Active; 'I' for Inactive)
REMARK    1  A    between atoms: C3'_2  and  C2'_3 
REMARK    2  A    between atoms: C2'_3  and  C1'_4 
REMARK    3  A    between atoms: C1'_4  and  C1_5 
ROOT
ATOM      1  C1  N4B d   1      -0.085  -0.011  -0.169  0.00  0.00    -0.075 A 
ATOM      2  C2  N4B d   1       0.071  -1.415  -0.183  0.00  0.00     0.002 A 
ATOM      3  C3  N4B d   1       1.210  -1.973  -0.711  0.00  0.00     0.002 A 
ATOM      4  C4  N4B d   1       2.192  -1.152  -1.245  0.00  0.00    -0.004 A 
ATOM      5  C5  N4B d   1       2.044   0.203  -1.204  0.00  0.00     0.002 A 
ATOM      6  C6  N4B d   1       0.907   0.778  -0.673  0.00  0.00     0.002 A 
ENDROOT
BRANCH   1   7
ATOM      7  C1' N4B d   1      -1.349   0.642   0.320  0.00  0.00     0.057 C 
BRANCH   7   8
ATOM      8  C2' N4B d   1      -1.712   0.070   1.687  0.00  0.00     0.009 C 
BRANCH   8   9
ATOM      9  C3' N4B d   1      -2.233   1.141   2.631  0.00  0.00     0.004 C 
ATOM     10  C4' N4B d   1      -1.689   1.004   4.021  0.00  0.00     0.003 C 
ENDBRANCH   8   9
ENDBRANCH   7   8
ENDBRANCH   1   7
TORSDOF 3
ENDMDL
