MODEL 1
REMARK minimizedAffinity -3.12170243
REMARK minimizedRMSD -1
REMARK  3 active torsions:
REMARK  status: ('A' for Active; 'I' for Inactive)
REMARK    1  A    between atoms: C3'_2  and  C2'_3 
REMARK    2  A    between atoms: C2'_3  and  C1'_4 
REMARK    3  A    between atoms: C1'_4  and  C1_5 
ROOT
ATOM      1  C1  N4B d   1      -0.856   0.397   0.780  0.00  0.00    -0.075 A 
ATOM      2  C2  N4B d   1      -1.094   1.322  -0.260  0.00  0.00     0.002 A 
ATOM      3  C3  N4B d   1      -0.135   1.539  -1.219  0.00  0.00     0.002 A 
ATOM      4  C4  N4B d   1       1.072   0.859  -1.148  0.00  0.00    -0.004 A 
ATOM      5  C5  N4B d   1       1.284  -0.051  -0.154  0.00  0.00     0.002 A 
ATOM      6  C6  N4B d   1       0.327  -0.282   0.814  0.00  0.00     0.002 A 
ENDROOT
BRANCH   1   7
ATOM      7  C1' N4B d   1      -1.840   0.189   1.899  0.00  0.00     0.057 C 
BRANCH   7   8
ATOM      8  C2' N4B d   1      -2.075   1.518   2.612  0.00  0.00     0.009 C 
BRANCH   8   9
ATOM      9  C3' N4B d   1      -1.172   1.679   3.823  0.00  0.00     0.004 C 
ATOM     10  C4' N4B d   1      -1.480   0.695   4.912  0.00  0.00     0.003 C 
ENDBRANCH   8   9
ENDBRANCH   7   8
ENDBRANCH   1   7
TORSDOF 3
ENDMDL
