MODEL 1
REMARK minimizedAffinity -4.89511395
REMARK minimizedRMSD -1
REMARK  3 active torsions:
REMARK  status: ('A' for Active; 'I' for Inactive)
REMARK    1  A    between atoms: C3'_2  and  C2'_3 
REMARK    2  A    between atoms: C2'_3  and  C1'_4 
REMARK    3  A    between atoms: C1'_4  and  C1_5 
ROOT
ATOM      1  C1  N4B d   1       1.736   0.552  -0.812  0.00  0.00    -0.075 A 
ATOM      2  C2  N4B d   1       1.614   1.807  -1.447  0.00  0.00     0.002 A 
ATOM      3  C3  N4B d   1       0.392   2.431  -1.505  0.00  0.00     0.002 A 
ATOM      4  C4  N4B d   1      -0.720   1.813  -0.953  0.00  0.00    -0.004 A 
ATOM      5  C5  N4B d   1      -0.589   0.613  -0.319  0.00  0.00     0.002 A 
ATOM      6  C6  N4B d   1       0.634  -0.024  -0.251  0.00  0.00     0.002 A 
ENDROOT
BRANCH   1   7
ATOM      7  C1' N4B d   1       3.034  -0.209  -0.800  0.00  0.00     0.057 C 
BRANCH   7   8
ATOM      8  C2' N4B d   1       3.088  -1.128  -2.016  0.00  0.00     0.009 C 
BRANCH   8   9
ATOM      9  C3' N4B d   1       1.944  -2.127  -2.025  0.00  0.00     0.004 C 
ATOM     10  C4' N4B d   1       1.731  -2.755  -3.370  0.00  0.00     0.003 C 
ENDBRANCH   8   9
ENDBRANCH   7   8
ENDBRANCH   1   7
TORSDOF 3
ENDMDL
