MODEL 1
REMARK minimizedAffinity -0.839898586
REMARK minimizedRMSD -1
REMARK  3 active torsions:
REMARK  status: ('A' for Active; 'I' for Inactive)
REMARK    1  A    between atoms: C3'_2  and  C2'_3 
REMARK    2  A    between atoms: C2'_3  and  C1'_4 
REMARK    3  A    between atoms: C1'_4  and  C1_5 
ROOT
ATOM      1  C1  N4B d   1       0.475  -0.222   0.793  0.00  0.00    -0.075 A 
ATOM      2  C2  N4B d   1      -0.064   0.855   0.054  0.00  0.00     0.002 A 
ATOM      3  C3  N4B d   1       0.220   0.980  -1.284  0.00  0.00     0.002 A 
ATOM      4  C4  N4B d   1       1.052   0.055  -1.897  0.00  0.00    -0.004 A 
ATOM      5  C5  N4B d   1       1.547  -0.996  -1.183  0.00  0.00     0.002 A 
ATOM      6  C6  N4B d   1       1.267  -1.137   0.161  0.00  0.00     0.002 A 
ENDROOT
BRANCH   1   7
ATOM      7  C1' N4B d   1       0.262  -0.352   2.276  0.00  0.00     0.057 C 
BRANCH   7   8
ATOM      8  C2' N4B d   1      -1.132   0.159   2.629  0.00  0.00     0.009 C 
BRANCH   8   9
ATOM      9  C3' N4B d   1      -2.208  -0.869   2.324  0.00  0.00     0.004 C 
ATOM     10  C4' N4B d   1      -3.044  -1.207   3.522  0.00  0.00     0.003 C 
ENDBRANCH   8   9
ENDBRANCH   7   8
ENDBRANCH   1   7
TORSDOF 3
ENDMDL
