MODEL 1
REMARK minimizedAffinity -2.98325562
REMARK minimizedRMSD -1
REMARK  3 active torsions:
REMARK  status: ('A' for Active; 'I' for Inactive)
REMARK    1  A    between atoms: C3'_2  and  C2'_3 
REMARK    2  A    between atoms: C2'_3  and  C1'_4 
REMARK    3  A    between atoms: C1'_4  and  C1_5 
ROOT
ATOM      1  C1  N4B d   1       0.171  -0.238  -0.161  0.00  0.00    -0.075 A 
ATOM      2  C2  N4B d   1       0.235  -1.595  -0.546  0.00  0.00     0.002 A 
ATOM      3  C3  N4B d   1       1.360  -2.081  -1.166  0.00  0.00     0.002 A 
ATOM      4  C4  N4B d   1       2.422  -1.227  -1.427  0.00  0.00    -0.004 A 
ATOM      5  C5  N4B d   1       2.362   0.076  -1.029  0.00  0.00     0.002 A 
ATOM      6  C6  N4B d   1       1.239   0.577  -0.402  0.00  0.00     0.002 A 
ENDROOT
BRANCH   1   7
ATOM      7  C1' N4B d   1      -1.071   0.359   0.441  0.00  0.00     0.057 C 
BRANCH   7   8
ATOM      8  C2' N4B d   1      -0.722   0.993   1.784  0.00  0.00     0.009 C 
BRANCH   8   9
ATOM      9  C3' N4B d   1      -1.742   0.652   2.857  0.00  0.00     0.004 C 
ATOM     10  C4' N4B d   1      -1.558   1.454   4.110  0.00  0.00     0.003 C 
ENDBRANCH   8   9
ENDBRANCH   7   8
ENDBRANCH   1   7
TORSDOF 3
ENDMDL
