MODEL 1
REMARK minimizedAffinity -3.96282935
REMARK minimizedRMSD -1
REMARK  3 active torsions:
REMARK  status: ('A' for Active; 'I' for Inactive)
REMARK    1  A    between atoms: C3'_2  and  C2'_3 
REMARK    2  A    between atoms: C2'_3  and  C1'_4 
REMARK    3  A    between atoms: C1'_4  and  C1_5 
ROOT
ATOM      1  C1  N4B d   1       1.675  -0.847  -0.845  0.00  0.00    -0.075 A 
ATOM      2  C2  N4B d   1       0.937  -0.906   0.358  0.00  0.00     0.002 A 
ATOM      3  C3  N4B d   1       0.347  -2.084   0.744  0.00  0.00     0.002 A 
ATOM      4  C4  N4B d   1       0.464  -3.207  -0.061  0.00  0.00    -0.004 A 
ATOM      5  C5  N4B d   1       1.199  -3.149  -1.209  0.00  0.00     0.002 A 
ATOM      6  C6  N4B d   1       1.802  -1.972  -1.608  0.00  0.00     0.002 A 
ENDROOT
BRANCH   1   7
ATOM      7  C1' N4B d   1       2.266   0.439  -1.353  0.00  0.00     0.057 C 
BRANCH   7   8
ATOM      8  C2' N4B d   1       1.381   1.603  -0.916  0.00  0.00     0.009 C 
BRANCH   8   9
ATOM      9  C3' N4B d   1       0.300   1.910  -1.939  0.00  0.00     0.004 C 
ATOM     10  C4' N4B d   1      -1.078   1.590  -1.440  0.00  0.00     0.003 C 
ENDBRANCH   8   9
ENDBRANCH   7   8
ENDBRANCH   1   7
TORSDOF 3
ENDMDL
