MODEL 1
REMARK minimizedAffinity -4.3070488
REMARK minimizedRMSD -1
REMARK  3 active torsions:
REMARK  status: ('A' for Active; 'I' for Inactive)
REMARK    1  A    between atoms: C3'_2  and  C2'_3 
REMARK    2  A    between atoms: C2'_3  and  C1'_4 
REMARK    3  A    between atoms: C1'_4  and  C1_5 
ROOT
ATOM      1  C1  N4B d   1       0.212  -0.573  -0.083  0.00  0.00    -0.075 A 
ATOM      2  C2  N4B d   1       0.563  -1.939  -0.009  0.00  0.00     0.002 A 
ATOM      3  C3  N4B d   1       1.626  -2.416  -0.736  0.00  0.00     0.002 A 
ATOM      4  C4  N4B d   1       2.338  -1.553  -1.555  0.00  0.00    -0.004 A 
ATOM      5  C5  N4B d   1       2.009  -0.230  -1.602  0.00  0.00     0.002 A 
ATOM      6  C6  N4B d   1       0.945   0.263  -0.874  0.00  0.00     0.002 A 
ENDROOT
BRANCH   1   7
ATOM      7  C1' N4B d   1      -0.995  -0.023   0.627  0.00  0.00     0.057 C 
BRANCH   7   8
ATOM      8  C2' N4B d   1      -0.551   0.645   1.924  0.00  0.00     0.009 C 
BRANCH   8   9
ATOM      9  C3' N4B d   1      -1.734   1.060   2.783  0.00  0.00     0.004 C 
ATOM     10  C4' N4B d   1      -1.427   1.024   4.250  0.00  0.00     0.003 C 
ENDBRANCH   8   9
ENDBRANCH   7   8
ENDBRANCH   1   7
TORSDOF 3
ENDMDL
