MODEL 1
REMARK minimizedAffinity -4.93295622
REMARK minimizedRMSD -1
REMARK  3 active torsions:
REMARK  status: ('A' for Active; 'I' for Inactive)
REMARK    1  A    between atoms: C3'_2  and  C2'_3 
REMARK    2  A    between atoms: C2'_3  and  C1'_4 
REMARK    3  A    between atoms: C1'_4  and  C1_5 
ROOT
ATOM      1  C1  N4B d   1      -0.196  -0.101  -0.210  0.00  0.00    -0.075 A 
ATOM      2  C2  N4B d   1      -0.215  -1.488  -0.473  0.00  0.00     0.002 A 
ATOM      3  C3  N4B d   1       0.939  -2.133  -0.844  0.00  0.00     0.002 A 
ATOM      4  C4  N4B d   1       2.116  -1.411  -0.977  0.00  0.00    -0.004 A 
ATOM      5  C5  N4B d   1       2.132  -0.076  -0.697  0.00  0.00     0.002 A 
ATOM      6  C6  N4B d   1       0.980   0.584  -0.319  0.00  0.00     0.002 A 
ENDROOT
BRANCH   1   7
ATOM      7  C1' N4B d   1      -1.450   0.664   0.115  0.00  0.00     0.057 C 
BRANCH   7   8
ATOM      8  C2' N4B d   1      -1.867   0.355   1.549  0.00  0.00     0.009 C 
BRANCH   8   9
ATOM      9  C3' N4B d   1      -1.120   1.214   2.556  0.00  0.00     0.004 C 
ATOM     10  C4' N4B d   1      -1.009   0.565   3.903  0.00  0.00     0.003 C 
ENDBRANCH   8   9
ENDBRANCH   7   8
ENDBRANCH   1   7
TORSDOF 3
ENDMDL
