MODEL 1
REMARK minimizedAffinity -5.91371536
REMARK minimizedRMSD -1
REMARK  3 active torsions:
REMARK  status: ('A' for Active; 'I' for Inactive)
REMARK    1  A    between atoms: C3'_2  and  C2'_3 
REMARK    2  A    between atoms: C2'_3  and  C1'_4 
REMARK    3  A    between atoms: C1'_4  and  C1_5 
ROOT
ATOM      1  C1  N4B d   1       0.259   0.002  -0.083  0.00  0.00    -0.075 A 
ATOM      2  C2  N4B d   1       0.486  -1.371  -0.321  0.00  0.00     0.002 A 
ATOM      3  C3  N4B d   1       1.638  -1.779  -0.946  0.00  0.00     0.002 A 
ATOM      4  C4  N4B d   1       2.567  -0.834  -1.357  0.00  0.00    -0.004 A 
ATOM      5  C5  N4B d   1       2.353   0.488  -1.101  0.00  0.00     0.002 A 
ATOM      6  C6  N4B d   1       1.200   0.912  -0.470  0.00  0.00     0.002 A 
ENDROOT
BRANCH   1   7
ATOM      7  C1' N4B d   1      -1.025   0.503   0.519  0.00  0.00     0.057 C 
BRANCH   7   8
ATOM      8  C2' N4B d   1      -0.703   1.387   1.720  0.00  0.00     0.009 C 
BRANCH   8   9
ATOM      9  C3' N4B d   1      -1.426   0.927   2.974  0.00  0.00     0.004 C 
ATOM     10  C4' N4B d   1      -1.473   1.984   4.038  0.00  0.00     0.003 C 
ENDBRANCH   8   9
ENDBRANCH   7   8
ENDBRANCH   1   7
TORSDOF 3
ENDMDL
