MODEL 1
REMARK minimizedAffinity 6.33093929
REMARK minimizedRMSD -1
REMARK  0 active torsions:
REMARK  status: ('A' for Active; 'I' for Inactive)
ROOT
ATOM      1  C4' PXY d   1       6.000  -3.748  -0.009  0.00  0.00     0.077 C 
ATOM      2  C1' PXY d   1       0.873  -5.084  -2.320  0.00  0.00     0.077 C 
ATOM      3  C1  PXY d   1       2.223  -4.742  -1.722  0.00  0.00    -0.082 A 
ATOM      4  C2  PXY d   1       2.293  -4.291  -0.480  0.00  0.00     0.003 A 
ATOM      5  C3  PXY d   1       3.503  -3.946   0.065  0.00  0.00     0.003 A 
ATOM      6  C4  PXY d   1       4.659  -4.115  -0.650  0.00  0.00    -0.082 A 
ATOM      7  C5  PXY d   1       4.596  -4.584  -1.914  0.00  0.00     0.003 A 
ATOM      8  C6  PXY d   1       3.355  -4.889  -2.464  0.00  0.00     0.003 A 
ENDROOT
TORSDOF 0
ENDMDL
