MODEL 1
REMARK minimizedAffinity 9.12848759
REMARK minimizedRMSD -1
REMARK  0 active torsions:
REMARK  status: ('A' for Active; 'I' for Inactive)
ROOT
ATOM      1  C4' PXY d   1       1.546  -1.077   2.189  0.00  0.00     0.077 C 
ATOM      2  C1' PXY d   1      -2.370  -4.646  -0.123  0.00  0.00     0.077 C 
ATOM      3  C1  PXY d   1      -1.336  -3.721   0.487  0.00  0.00    -0.082 A 
ATOM      4  C2  PXY d   1      -1.678  -2.486   0.817  0.00  0.00     0.003 A 
ATOM      5  C3  PXY d   1      -0.747  -1.625   1.341  0.00  0.00     0.003 A 
ATOM      6  C4  PXY d   1       0.532  -2.050   1.579  0.00  0.00    -0.082 A 
ATOM      7  C5  PXY d   1       0.886  -3.311   1.255  0.00  0.00     0.003 A 
ATOM      8  C6  PXY d   1      -0.063  -4.157   0.686  0.00  0.00     0.003 A 
ENDROOT
TORSDOF 0
ENDMDL
