MODEL 1
REMARK minimizedAffinity 9.6986599
REMARK minimizedRMSD -1
REMARK  0 active torsions:
REMARK  status: ('A' for Active; 'I' for Inactive)
ROOT
ATOM      1  C4' PXY d   1       2.207  -4.101  -2.235  0.00  0.00     0.077 C 
ATOM      2  C1' PXY d   1      -2.582  -5.477   0.696  0.00  0.00     0.077 C 
ATOM      3  C1  PXY d   1      -1.325  -5.128  -0.077  0.00  0.00    -0.082 A 
ATOM      4  C2  PXY d   1      -0.592  -4.093   0.299  0.00  0.00     0.003 A 
ATOM      5  C3  PXY d   1       0.530  -3.744  -0.408  0.00  0.00     0.003 A 
ATOM      6  C4  PXY d   1       0.935  -4.496  -1.479  0.00  0.00    -0.082 A 
ATOM      7  C5  PXY d   1       0.199  -5.560  -1.862  0.00  0.00     0.003 A 
ATOM      8  C6  PXY d   1      -0.959  -5.873  -1.156  0.00  0.00     0.003 A 
ENDROOT
TORSDOF 0
ENDMDL
