MODEL 1
REMARK minimizedAffinity 16.0393124
REMARK minimizedRMSD -1
REMARK  0 active torsions:
REMARK  status: ('A' for Active; 'I' for Inactive)
ROOT
ATOM      1  C4' PXY d   1       2.784  -2.232   0.486  0.00  0.00     0.077 C 
ATOM      2  C1' PXY d   1       1.113  -2.702   6.000  0.00  0.00     0.077 C 
ATOM      3  C1  PXY d   1       1.541  -2.571   4.551  0.00  0.00    -0.082 A 
ATOM      4  C2  PXY d   1       2.277  -3.521   3.998  0.00  0.00     0.003 A 
ATOM      5  C3  PXY d   1       2.700  -3.403   2.699  0.00  0.00     0.003 A 
ATOM      6  C4  PXY d   1       2.321  -2.327   1.942  0.00  0.00    -0.082 A 
ATOM      7  C5  PXY d   1       1.561  -1.359   2.496  0.00  0.00     0.003 A 
ATOM      8  C6  PXY d   1       1.177  -1.477   3.828  0.00  0.00     0.003 A 
ENDROOT
TORSDOF 0
ENDMDL
