MODEL 1
REMARK minimizedAffinity 8.81070232
REMARK minimizedRMSD -1
REMARK  0 active torsions:
REMARK  status: ('A' for Active; 'I' for Inactive)
ROOT
ATOM      1  C4' PXY d   1       1.504  -2.402   6.000  0.00  0.00     0.077 C 
ATOM      2  C1' PXY d   1       2.768  -1.672   0.406  0.00  0.00     0.077 C 
ATOM      3  C1  PXY d   1       2.435  -1.850   1.875  0.00  0.00    -0.082 A 
ATOM      4  C2  PXY d   1       2.810  -2.954   2.500  0.00  0.00     0.003 A 
ATOM      5  C3  PXY d   1       2.490  -3.146   3.820  0.00  0.00     0.003 A 
ATOM      6  C4  PXY d   1       1.826  -2.175   4.520  0.00  0.00    -0.082 A 
ATOM      7  C5  PXY d   1       1.450  -1.041   3.891  0.00  0.00     0.003 A 
ATOM      8  C6  PXY d   1       1.749  -0.883   2.541  0.00  0.00     0.003 A 
ENDROOT
TORSDOF 0
ENDMDL
