MODEL 1
REMARK minimizedAffinity 7.88202
REMARK minimizedRMSD -1
REMARK  0 active torsions:
REMARK  status: ('A' for Active; 'I' for Inactive)
ROOT
ATOM      1  C4' PXY d   1      -2.015  -2.514   0.623  0.00  0.00     0.077 C 
ATOM      2  C1' PXY d   1       1.946  -5.634  -2.204  0.00  0.00     0.077 C 
ATOM      3  C1  PXY d   1       0.911  -4.821  -1.451  0.00  0.00    -0.082 A 
ATOM      4  C2  PXY d   1      -0.187  -4.423  -2.073  0.00  0.00     0.003 A 
ATOM      5  C3  PXY d   1      -1.118  -3.659  -1.417  0.00  0.00     0.003 A 
ATOM      6  C4  PXY d   1      -0.948  -3.345  -0.095  0.00  0.00    -0.082 A 
ATOM      7  C5  PXY d   1       0.164  -3.756   0.550  0.00  0.00     0.003 A 
ATOM      8  C6  PXY d   1       1.117  -4.495  -0.146  0.00  0.00     0.003 A 
ENDROOT
TORSDOF 0
ENDMDL
