MODEL 1
REMARK minimizedAffinity 16.3838654
REMARK minimizedRMSD -1
REMARK  0 active torsions:
REMARK  status: ('A' for Active; 'I' for Inactive)
ROOT
ATOM      1  C4' PXY d   1      -2.234  -4.514  -0.105  0.00  0.00     0.077 C 
ATOM      2  C1' PXY d   1       3.355  -4.745  -1.563  0.00  0.00     0.077 C 
ATOM      3  C1  PXY d   1       1.892  -4.689  -1.169  0.00  0.00    -0.082 A 
ATOM      4  C2  PXY d   1       0.959  -4.797  -2.100  0.00  0.00     0.003 A 
ATOM      5  C3  PXY d   1      -0.368  -4.716  -1.765  0.00  0.00     0.003 A 
ATOM      6  C4  PXY d   1      -0.745  -4.575  -0.456  0.00  0.00    -0.082 A 
ATOM      7  C5  PXY d   1       0.202  -4.474   0.501  0.00  0.00     0.003 A 
ATOM      8  C6  PXY d   1       1.544  -4.518   0.135  0.00  0.00     0.003 A 
ENDROOT
TORSDOF 0
ENDMDL
