MODEL 1
REMARK minimizedAffinity 6.99740219
REMARK minimizedRMSD -1
REMARK  0 active torsions:
REMARK  status: ('A' for Active; 'I' for Inactive)
ROOT
ATOM      1  C4' PXY d   1       1.879  -3.398   6.000  0.00  0.00     0.077 C 
ATOM      2  C1' PXY d   1       1.849  -0.940   0.768  0.00  0.00     0.077 C 
ATOM      3  C1  PXY d   1       1.857  -1.573   2.145  0.00  0.00    -0.082 A 
ATOM      4  C2  PXY d   1       2.353  -2.789   2.304  0.00  0.00     0.003 A 
ATOM      5  C3  PXY d   1       2.338  -3.389   3.537  0.00  0.00     0.003 A 
ATOM      6  C4  PXY d   1       1.860  -2.716   4.629  0.00  0.00    -0.082 A 
ATOM      7  C5  PXY d   1       1.362  -1.471   4.477  0.00  0.00     0.003 A 
ATOM      8  C6  PXY d   1       1.348  -0.895   3.210  0.00  0.00     0.003 A 
ENDROOT
TORSDOF 0
ENDMDL
