MODEL 1
REMARK minimizedAffinity 11.9512033
REMARK minimizedRMSD -1
REMARK  0 active torsions:
REMARK  status: ('A' for Active; 'I' for Inactive)
ROOT
ATOM      1  C4' PXY d   1       6.000  -3.819   0.385  0.00  0.00     0.077 C 
ATOM      2  C1' PXY d   1       0.890  -4.791  -2.137  0.00  0.00     0.077 C 
ATOM      3  C1  PXY d   1       2.235  -4.547  -1.482  0.00  0.00    -0.082 A 
ATOM      4  C2  PXY d   1       2.297  -3.859  -0.353  0.00  0.00     0.003 A 
ATOM      5  C3  PXY d   1       3.508  -3.602   0.236  0.00  0.00     0.003 A 
ATOM      6  C4  PXY d   1       4.663  -4.098  -0.307  0.00  0.00    -0.082 A 
ATOM      7  C5  PXY d   1       4.607  -4.809  -1.453  0.00  0.00     0.003 A 
ATOM      8  C6  PXY d   1       3.372  -5.025  -2.058  0.00  0.00     0.003 A 
ENDROOT
TORSDOF 0
ENDMDL
