MODEL 1
REMARK minimizedAffinity 5.41407251
REMARK minimizedRMSD -1
REMARK  0 active torsions:
REMARK  status: ('A' for Active; 'I' for Inactive)
ROOT
ATOM      1  C4' PXY d   1      -3.340   0.464  -3.021  0.00  0.00     0.077 C 
ATOM      2  C1' PXY d   1      -4.779   6.000  -3.860  0.00  0.00     0.077 C 
ATOM      3  C1  PXY d   1      -4.401   4.547  -3.653  0.00  0.00    -0.082 A 
ATOM      4  C2  PXY d   1      -4.798   3.916  -2.560  0.00  0.00     0.003 A 
ATOM      5  C3  PXY d   1      -4.438   2.612  -2.341  0.00  0.00     0.003 A 
ATOM      6  C4  PXY d   1      -3.707   1.929  -3.277  0.00  0.00    -0.082 A 
ATOM      7  C5  PXY d   1      -3.307   2.562  -4.400  0.00  0.00     0.003 A 
ATOM      8  C6  PXY d   1      -3.648   3.898  -4.583  0.00  0.00     0.003 A 
ENDROOT
TORSDOF 0
ENDMDL
