MODEL 1
REMARK minimizedAffinity 3.28522515
REMARK minimizedRMSD -1
REMARK  0 active torsions:
REMARK  status: ('A' for Active; 'I' for Inactive)
ROOT
ATOM      1  C4' PXY d   1      -2.819   0.760  -2.233  0.00  0.00     0.077 C 
ATOM      2  C1' PXY d   1      -5.101   5.693  -4.203  0.00  0.00     0.077 C 
ATOM      3  C1  PXY d   1      -4.504   4.394  -3.698  0.00  0.00    -0.082 A 
ATOM      4  C2  PXY d   1      -4.596   4.087  -2.415  0.00  0.00     0.003 A 
ATOM      5  C3  PXY d   1      -4.034   2.931  -1.936  0.00  0.00     0.003 A 
ATOM      6  C4  PXY d   1      -3.416   2.056  -2.789  0.00  0.00    -0.082 A 
ATOM      7  C5  PXY d   1      -3.327   2.358  -4.102  0.00  0.00     0.003 A 
ATOM      8  C6  PXY d   1      -3.868   3.555  -4.561  0.00  0.00     0.003 A 
ENDROOT
TORSDOF 0
ENDMDL
