MODEL 1
REMARK minimizedAffinity 17.4198818
REMARK minimizedRMSD -1
REMARK  0 active torsions:
REMARK  status: ('A' for Active; 'I' for Inactive)
ROOT
ATOM      1  C4' PXY d   1       2.263  -3.892   5.999  0.00  0.00     0.077 C 
ATOM      2  C1' PXY d   1       1.050  -0.645   1.374  0.00  0.00     0.077 C 
ATOM      3  C1  PXY d   1       1.367  -1.486   2.594  0.00  0.00    -0.082 A 
ATOM      4  C2  PXY d   1       2.026  -2.624   2.451  0.00  0.00     0.003 A 
ATOM      5  C3  PXY d   1       2.293  -3.413   3.540  0.00  0.00     0.003 A 
ATOM      6  C4  PXY d   1       1.929  -3.006   4.796  0.00  0.00    -0.082 A 
ATOM      7  C5  PXY d   1       1.266  -1.840   4.952  0.00  0.00     0.003 A 
ATOM      8  C6  PXY d   1       0.969  -1.074   3.828  0.00  0.00     0.003 A 
ENDROOT
TORSDOF 0
ENDMDL
