MODEL 1
REMARK minimizedAffinity -5.05803442
REMARK minimizedRMSD -1
REMARK  1 active torsions:
REMARK  status: ('A' for Active; 'I' for Inactive)
REMARK    1  A    between atoms: N_2  and  C1_3 
ROOT
ATOM      1  C1  UNL d   1       0.043   0.038   0.159  0.00  0.00     0.143 A 
ATOM      2  C2  UNL d   1      -0.057   0.296   1.530  0.00  0.00    -0.057 A 
ATOM      3  C3  UNL d   1      -0.984   1.219   2.030  0.00  0.00     0.033 A 
ATOM      4  C4  UNL d   1      -1.810   1.924   1.161  0.00  0.00    -0.042 A 
ATOM      5  C5  UNL d   1      -1.711   1.703  -0.208  0.00  0.00     0.033 A 
ATOM      6  C6  UNL d   1      -0.788   0.775  -0.700  0.00  0.00    -0.057 A 
ENDROOT
BRANCH   1   7
ATOM      7  N   UNL d   1       1.011  -0.795  -0.408  0.00  0.00    -0.732 N 
ATOM      8  C   UNL d   1       0.624  -1.942  -1.200  0.00  0.00     0.284 C 
ATOM      9  H3  UNL d   1       1.798  -0.273  -0.788  0.00  0.00     0.395 HD
ENDBRANCH   1   7
TORSDOF 1
ENDMDL
