MODEL 1
REMARK minimizedAffinity -3.15884423
REMARK minimizedRMSD -1
REMARK  1 active torsions:
REMARK  status: ('A' for Active; 'I' for Inactive)
REMARK    1  A    between atoms: N_2  and  C1_3 
ROOT
ATOM      1  C1  UNL d   1       0.715  -1.599  -0.963  0.00  0.00     0.143 A 
ATOM      2  C2  UNL d   1       0.761  -2.943  -0.577  0.00  0.00    -0.057 A 
ATOM      3  C3  UNL d   1       0.471  -3.970  -1.484  0.00  0.00     0.033 A 
ATOM      4  C4  UNL d   1       0.099  -3.668  -2.790  0.00  0.00    -0.042 A 
ATOM      5  C5  UNL d   1       0.022  -2.338  -3.189  0.00  0.00     0.033 A 
ATOM      6  C6  UNL d   1       0.319  -1.318  -2.280  0.00  0.00    -0.057 A 
ENDROOT
BRANCH   1   7
ATOM      7  N   UNL d   1       0.896  -0.530  -0.082  0.00  0.00    -0.732 N 
ATOM      8  C   UNL d   1      -0.220   0.006   0.666  0.00  0.00     0.284 C 
ATOM      9  H3  UNL d   1       1.756  -0.612   0.455  0.00  0.00     0.395 HD
ENDBRANCH   1   7
TORSDOF 1
ENDMDL
