MODEL 1
REMARK minimizedAffinity -4.77336693
REMARK minimizedRMSD -1
REMARK  1 active torsions:
REMARK  status: ('A' for Active; 'I' for Inactive)
REMARK    1  A    between atoms: N_2  and  C1_3 
ROOT
ATOM      1  C1  UNL d   1       1.457  -3.904  -0.330  0.00  0.00     0.143 A 
ATOM      2  C2  UNL d   1       0.386  -4.741  -0.660  0.00  0.00    -0.057 A 
ATOM      3  C3  UNL d   1      -0.514  -4.401  -1.677  0.00  0.00     0.033 A 
ATOM      4  C4  UNL d   1      -0.374  -3.200  -2.366  0.00  0.00    -0.042 A 
ATOM      5  C5  UNL d   1       0.669  -2.342  -2.038  0.00  0.00     0.033 A 
ATOM      6  C6  UNL d   1       1.568  -2.690  -1.025  0.00  0.00    -0.057 A 
ENDROOT
BRANCH   1   7
ATOM      7  N   UNL d   1       2.328  -4.139   0.737  0.00  0.00    -0.732 N 
ATOM      8  C   UNL d   1       2.647  -5.491   1.143  0.00  0.00     0.284 C 
ATOM      9  H3  UNL d   1       3.125  -3.506   0.735  0.00  0.00     0.395 HD
ENDBRANCH   1   7
TORSDOF 1
ENDMDL
