MODEL 1
REMARK minimizedAffinity -1.97388709
REMARK minimizedRMSD -1
REMARK  1 active torsions:
REMARK  status: ('A' for Active; 'I' for Inactive)
REMARK    1  A    between atoms: N_2  and  C1_3 
ROOT
ATOM      1  C1  UNL d   1       0.871  -4.326  -0.994  0.00  0.00     0.143 A 
ATOM      2  C2  UNL d   1       0.188  -4.296  -2.215  0.00  0.00    -0.057 A 
ATOM      3  C3  UNL d   1      -0.205  -3.085  -2.797  0.00  0.00     0.033 A 
ATOM      4  C4  UNL d   1       0.054  -1.879  -2.153  0.00  0.00    -0.042 A 
ATOM      5  C5  UNL d   1       0.710  -1.887  -0.927  0.00  0.00     0.033 A 
ATOM      6  C6  UNL d   1       1.106  -3.099  -0.353  0.00  0.00    -0.057 A 
ENDROOT
BRANCH   1   7
ATOM      7  N   UNL d   1       1.201  -5.502  -0.316  0.00  0.00    -0.732 N 
ATOM      8  C   UNL d   1       2.298  -5.526   0.627  0.00  0.00     0.284 C 
ATOM      9  H3  UNL d   1       0.378  -6.017  -0.010  0.00  0.00     0.395 HD
ENDBRANCH   1   7
TORSDOF 1
ENDMDL
