MODEL 1
REMARK minimizedAffinity -3.71938491
REMARK minimizedRMSD -1
REMARK  1 active torsions:
REMARK  status: ('A' for Active; 'I' for Inactive)
REMARK    1  A    between atoms: N_2  and  C1_3 
ROOT
ATOM      1  C1  UNL d   1      -0.004   0.174   0.403  0.00  0.00     0.143 A 
ATOM      2  C2  UNL d   1      -0.073   0.757   1.673  0.00  0.00    -0.057 A 
ATOM      3  C3  UNL d   1      -1.170   1.539   2.055  0.00  0.00     0.033 A 
ATOM      4  C4  UNL d   1      -2.208   1.776   1.160  0.00  0.00    -0.042 A 
ATOM      5  C5  UNL d   1      -2.149   1.228  -0.117  0.00  0.00     0.033 A 
ATOM      6  C6  UNL d   1      -1.054   0.443  -0.490  0.00  0.00    -0.057 A 
ENDROOT
BRANCH   1   7
ATOM      7  N   UNL d   1       1.105  -0.531  -0.070  0.00  0.00    -0.732 N 
ATOM      8  C   UNL d   1       0.975  -1.451  -1.180  0.00  0.00     0.284 C 
ATOM      9  H3  UNL d   1       1.945   0.041  -0.101  0.00  0.00     0.395 HD
ENDBRANCH   1   7
TORSDOF 1
ENDMDL
