MODEL 1
REMARK minimizedAffinity 4.99471426
REMARK minimizedRMSD -1
REMARK  1 active torsions:
REMARK  status: ('A' for Active; 'I' for Inactive)
REMARK    1  A    between atoms: N_2  and  C1_3 
ROOT
ATOM      1  C1  UNL d   1       0.342   1.838   0.116  0.00  0.00     0.143 A 
ATOM      2  C2  UNL d   1      -0.311   2.519   1.149  0.00  0.00    -0.057 A 
ATOM      3  C3  UNL d   1      -0.812   1.838   2.265  0.00  0.00     0.033 A 
ATOM      4  C4  UNL d   1      -0.694   0.455   2.354  0.00  0.00    -0.042 A 
ATOM      5  C5  UNL d   1      -0.071  -0.246   1.327  0.00  0.00     0.033 A 
ATOM      6  C6  UNL d   1       0.433   0.441   0.218  0.00  0.00    -0.057 A 
ENDROOT
BRANCH   1   7
ATOM      7  N   UNL d   1       0.774   2.446  -1.065  0.00  0.00    -0.732 N 
ATOM      8  C   UNL d   1       0.122   2.158  -2.324  0.00  0.00     0.284 C 
ATOM      9  H3  UNL d   1       1.008   3.427  -0.934  0.00  0.00     0.395 HD
ENDBRANCH   1   7
TORSDOF 1
ENDMDL
