MODEL 1
REMARK minimizedAffinity -3.88946605
REMARK minimizedRMSD -1
REMARK  1 active torsions:
REMARK  status: ('A' for Active; 'I' for Inactive)
REMARK    1  A    between atoms: N_2  and  C1_3 
ROOT
ATOM      1  C1  UNL d   1      -0.343   0.768   0.212  0.00  0.00     0.143 A 
ATOM      2  C2  UNL d   1      -0.096   0.839   1.587  0.00  0.00    -0.057 A 
ATOM      3  C3  UNL d   1      -0.863   1.662   2.421  0.00  0.00     0.033 A 
ATOM      4  C4  UNL d   1      -1.874   2.454   1.887  0.00  0.00    -0.042 A 
ATOM      5  C5  UNL d   1      -2.120   2.419   0.519  0.00  0.00     0.033 A 
ATOM      6  C6  UNL d   1      -1.356   1.589  -0.307  0.00  0.00    -0.057 A 
ENDROOT
BRANCH   1   7
ATOM      7  N   UNL d   1       0.448   0.044  -0.684  0.00  0.00    -0.732 N 
ATOM      8  C   UNL d   1       0.686   0.538  -2.023  0.00  0.00     0.284 C 
ATOM      9  H3  UNL d   1       1.269  -0.361  -0.238  0.00  0.00     0.395 HD
ENDBRANCH   1   7
TORSDOF 1
ENDMDL
