MODEL 1
REMARK minimizedAffinity -1.14615643
REMARK minimizedRMSD -1
REMARK  1 active torsions:
REMARK  status: ('A' for Active; 'I' for Inactive)
REMARK    1  A    between atoms: N_2  and  C1_3 
ROOT
ATOM      1  C1  UNL d   1      -1.357   1.011   0.202  0.00  0.00     0.143 A 
ATOM      2  C2  UNL d   1      -0.382   0.763   1.174  0.00  0.00    -0.057 A 
ATOM      3  C3  UNL d   1      -0.513   1.260   2.477  0.00  0.00     0.033 A 
ATOM      4  C4  UNL d   1      -1.610   2.041   2.823  0.00  0.00    -0.042 A 
ATOM      5  C5  UNL d   1      -2.579   2.322   1.866  0.00  0.00     0.033 A 
ATOM      6  C6  UNL d   1      -2.446   1.817   0.569  0.00  0.00    -0.057 A 
ENDROOT
BRANCH   1   7
ATOM      7  N   UNL d   1      -1.236   0.628  -1.136  0.00  0.00    -0.732 N 
ATOM      8  C   UNL d   1      -0.783   1.572  -2.135  0.00  0.00     0.284 C 
ATOM      9  H3  UNL d   1      -0.845  -0.306  -1.239  0.00  0.00     0.395 HD
ENDBRANCH   1   7
TORSDOF 1
ENDMDL
