MODEL 1
REMARK minimizedAffinity -1.78501391
REMARK minimizedRMSD -1
REMARK  1 active torsions:
REMARK  status: ('A' for Active; 'I' for Inactive)
REMARK    1  A    between atoms: N_2  and  C1_3 
ROOT
ATOM      1  C1  UNL d   1      -1.102   1.324  -0.174  0.00  0.00     0.143 A 
ATOM      2  C2  UNL d   1      -0.411   0.141   0.107  0.00  0.00    -0.057 A 
ATOM      3  C3  UNL d   1      -0.071  -0.207   1.420  0.00  0.00     0.033 A 
ATOM      4  C4  UNL d   1      -0.393   0.640   2.476  0.00  0.00    -0.042 A 
ATOM      5  C5  UNL d   1      -1.058   1.833   2.217  0.00  0.00     0.033 A 
ATOM      6  C6  UNL d   1      -1.400   2.172   0.904  0.00  0.00    -0.057 A 
ENDROOT
BRANCH   1   7
ATOM      7  N   UNL d   1      -1.381   1.773  -1.467  0.00  0.00    -0.732 N 
ATOM      8  C   UNL d   1      -0.707   1.195  -2.610  0.00  0.00     0.284 C 
ATOM      9  H3  UNL d   1      -2.373   1.945  -1.613  0.00  0.00     0.395 HD
ENDBRANCH   1   7
TORSDOF 1
ENDMDL
