MODEL 1
REMARK minimizedAffinity 6.227777
REMARK minimizedRMSD -1
REMARK  1 active torsions:
REMARK  status: ('A' for Active; 'I' for Inactive)
REMARK    1  A    between atoms: N_2  and  C1_3 
ROOT
ATOM      1  C1  UNL d   1       2.309  -5.117   0.782  0.00  0.00     0.143 A 
ATOM      2  C2  UNL d   1       2.319  -3.768   0.409  0.00  0.00    -0.057 A 
ATOM      3  C3  UNL d   1       1.562  -3.309  -0.675  0.00  0.00     0.033 A 
ATOM      4  C4  UNL d   1       0.801  -4.199  -1.426  0.00  0.00    -0.042 A 
ATOM      5  C5  UNL d   1       0.796  -5.548  -1.089  0.00  0.00     0.033 A 
ATOM      6  C6  UNL d   1       1.549  -5.999  -0.001  0.00  0.00    -0.057 A 
ENDROOT
BRANCH   1   7
ATOM      7  N   UNL d   1       3.117  -5.651   1.788  0.00  0.00    -0.732 N 
ATOM      8  C   UNL d   1       2.681  -5.640   3.168  0.00  0.00     0.284 C 
ATOM      9  H3  UNL d   1       3.572  -6.516   1.503  0.00  0.00     0.395 HD
ENDBRANCH   1   7
TORSDOF 1
ENDMDL
