MODEL 1
REMARK minimizedAffinity -2.63622665
REMARK minimizedRMSD -1
REMARK  0 active torsions:
REMARK  status: ('A' for Active; 'I' for Inactive)
ROOT
ATOM      1  C   UNL d   1      -4.128  -2.037  -2.597  0.00  0.00     0.078 C 
ATOM      2  C1  UNL d   1      -4.169  -1.128  -3.789  0.00  0.00    -0.077 A 
ATOM      3  C2  UNL d   1      -3.014  -0.865  -4.536  0.00  0.00    -0.001 A 
ATOM      4  C3  UNL d   1      -3.065  -0.008  -5.636  0.00  0.00     0.003 A 
ATOM      5  C4  UNL d   1      -4.268   0.593  -6.000  0.00  0.00    -0.005 A 
ATOM      6  C5  UNL d   1      -5.422   0.339  -5.262  0.00  0.00     0.003 A 
ATOM      7  C6  UNL d   1      -5.373  -0.517  -4.160  0.00  0.00    -0.001 A 
ENDROOT
TORSDOF 0
ENDMDL
