MODEL 1
REMARK minimizedAffinity -2.92915082
REMARK minimizedRMSD -1
REMARK  0 active torsions:
REMARK  status: ('A' for Active; 'I' for Inactive)
ROOT
ATOM      1  C   UNL d   1      -3.713  -1.308  -1.648  0.00  0.00     0.078 C 
ATOM      2  C1  UNL d   1      -4.038  -0.789  -3.016  0.00  0.00    -0.077 A 
ATOM      3  C2  UNL d   1      -3.085  -0.811  -4.041  0.00  0.00    -0.001 A 
ATOM      4  C3  UNL d   1      -3.399  -0.315  -5.308  0.00  0.00     0.003 A 
ATOM      5  C4  UNL d   1      -4.666   0.206  -5.561  0.00  0.00    -0.005 A 
ATOM      6  C5  UNL d   1      -5.621   0.233  -4.547  0.00  0.00     0.003 A 
ATOM      7  C6  UNL d   1      -5.309  -0.261  -3.280  0.00  0.00    -0.001 A 
ENDROOT
TORSDOF 0
ENDMDL
