MODEL 1
REMARK minimizedAffinity -2.96445727
REMARK minimizedRMSD -1
REMARK  0 active torsions:
REMARK  status: ('A' for Active; 'I' for Inactive)
ROOT
ATOM      1  C   UNL d   1      -2.789   2.923  -3.080  0.00  0.00     0.078 C 
ATOM      2  C1  UNL d   1      -3.106   1.519  -3.498  0.00  0.00    -0.077 A 
ATOM      3  C2  UNL d   1      -3.559   1.237  -4.793  0.00  0.00    -0.001 A 
ATOM      4  C3  UNL d   1      -3.860  -0.075  -5.165  0.00  0.00     0.003 A 
ATOM      5  C4  UNL d   1      -3.713  -1.114  -4.248  0.00  0.00    -0.005 A 
ATOM      6  C5  UNL d   1      -3.266  -0.842  -2.957  0.00  0.00     0.003 A 
ATOM      7  C6  UNL d   1      -2.964   0.468  -2.582  0.00  0.00    -0.001 A 
ENDROOT
TORSDOF 0
ENDMDL
