MODEL 1
REMARK minimizedAffinity -1.0887233
REMARK minimizedRMSD -1
REMARK  0 active torsions:
REMARK  status: ('A' for Active; 'I' for Inactive)
ROOT
ATOM      1  C   UNL d   1       5.027  -4.094   1.480  0.00  0.00     0.078 C 
ATOM      2  C1  UNL d   1       4.347  -2.891   0.899  0.00  0.00    -0.077 A 
ATOM      3  C2  UNL d   1       2.965  -2.881   0.678  0.00  0.00    -0.001 A 
ATOM      4  C3  UNL d   1       2.346  -1.757   0.127  0.00  0.00     0.003 A 
ATOM      5  C4  UNL d   1       3.102  -0.635  -0.207  0.00  0.00    -0.005 A 
ATOM      6  C5  UNL d   1       4.479  -0.637   0.007  0.00  0.00     0.003 A 
ATOM      7  C6  UNL d   1       5.099  -1.760   0.558  0.00  0.00    -0.001 A 
ENDROOT
TORSDOF 0
ENDMDL
