MODEL 1
REMARK minimizedAffinity -3.22126102
REMARK minimizedRMSD -1
REMARK  0 active torsions:
REMARK  status: ('A' for Active; 'I' for Inactive)
ROOT
ATOM      1  C   UNL d   1      -3.164  -1.129  -2.518  0.00  0.00     0.078 C 
ATOM      2  C1  UNL d   1      -3.760  -0.494  -3.738  0.00  0.00    -0.077 A 
ATOM      3  C2  UNL d   1      -2.981  -0.244  -4.875  0.00  0.00    -0.001 A 
ATOM      4  C3  UNL d   1      -3.547   0.358  -6.000  0.00  0.00     0.003 A 
ATOM      5  C4  UNL d   1      -4.894   0.715  -5.999  0.00  0.00    -0.005 A 
ATOM      6  C5  UNL d   1      -5.676   0.473  -4.872  0.00  0.00     0.003 A 
ATOM      7  C6  UNL d   1      -5.112  -0.129  -3.746  0.00  0.00    -0.001 A 
ENDROOT
TORSDOF 0
ENDMDL
