MODEL 1
REMARK minimizedAffinity -1.50094736
REMARK minimizedRMSD -1
REMARK  0 active torsions:
REMARK  status: ('A' for Active; 'I' for Inactive)
ROOT
ATOM      1  C   UNL d   1       5.185  -4.398   1.874  0.00  0.00     0.078 C 
ATOM      2  C1  UNL d   1       5.186  -3.961   3.308  0.00  0.00    -0.077 A 
ATOM      3  C2  UNL d   1       5.994  -2.901   3.739  0.00  0.00    -0.001 A 
ATOM      4  C3  UNL d   1       5.992  -2.511   5.079  0.00  0.00     0.003 A 
ATOM      5  C4  UNL d   1       5.184  -3.175   6.000  0.00  0.00    -0.005 A 
ATOM      6  C5  UNL d   1       4.378  -4.232   5.581  0.00  0.00     0.003 A 
ATOM      7  C6  UNL d   1       4.379  -4.624   4.241  0.00  0.00    -0.001 A 
ENDROOT
TORSDOF 0
ENDMDL
