MODEL 1
REMARK minimizedAffinity 0.585314453
REMARK minimizedRMSD -1
REMARK  0 active torsions:
REMARK  status: ('A' for Active; 'I' for Inactive)
ROOT
ATOM      1  C   UNL d   1       4.875  -4.919   1.822  0.00  0.00     0.078 C 
ATOM      2  C1  UNL d   1       4.998  -4.567   3.274  0.00  0.00    -0.077 A 
ATOM      3  C2  UNL d   1       5.832  -3.524   3.695  0.00  0.00    -0.001 A 
ATOM      4  C3  UNL d   1       5.944  -3.213   5.051  0.00  0.00     0.003 A 
ATOM      5  C4  UNL d   1       5.226  -3.942   5.998  0.00  0.00    -0.005 A 
ATOM      6  C5  UNL d   1       4.396  -4.983   5.588  0.00  0.00     0.003 A 
ATOM      7  C6  UNL d   1       4.283  -5.295   4.233  0.00  0.00    -0.001 A 
ENDROOT
TORSDOF 0
ENDMDL
