MODEL 1
REMARK minimizedAffinity -1.93957829
REMARK minimizedRMSD -1
REMARK  0 active torsions:
REMARK  status: ('A' for Active; 'I' for Inactive)
ROOT
ATOM      1  C1  DEN d   1       1.216  -0.984   1.774  0.00  0.00     0.130 A 
ATOM      2  C2  DEN d   1       2.304  -0.069   2.108  0.00  0.00    -0.031 A 
ATOM      3  C3  DEN d   1       2.143   1.150   1.289  0.00  0.00     0.027 A 
ATOM      4  C4  DEN d   1       0.322   1.708  -0.450  0.00  0.00     0.027 A 
ATOM      5  C5  DEN d   1      -0.807   1.237  -1.084  0.00  0.00    -0.003 A 
ATOM      6  C6  DEN d   1      -1.317  -0.010  -0.836  0.00  0.00     0.001 A 
ATOM      7  C7  DEN d   1      -0.723  -0.812   0.102  0.00  0.00     0.017 A 
ATOM      8  C8  DEN d   1       0.420  -0.348   0.739  0.00  0.00    -0.094 A 
ATOM      9  C9  DEN d   1       0.913   0.921   0.484  0.00  0.00    -0.072 A 
ENDROOT
TORSDOF 0
ENDMDL
