MODEL 1
REMARK minimizedAffinity -1.52576184
REMARK minimizedRMSD -1
REMARK  0 active torsions:
REMARK  status: ('A' for Active; 'I' for Inactive)
ROOT
ATOM      1  C1  DEN d   1      -1.377  -0.828   0.393  0.00  0.00     0.130 A 
ATOM      2  C2  DEN d   1      -2.078  -0.227  -0.737  0.00  0.00    -0.031 A 
ATOM      3  C3  DEN d   1      -1.207   0.818  -1.312  0.00  0.00     0.027 A 
ATOM      4  C4  DEN d   1       1.151   1.554  -0.568  0.00  0.00     0.027 A 
ATOM      5  C5  DEN d   1       2.155   1.342   0.350  0.00  0.00    -0.003 A 
ATOM      6  C6  DEN d   1       2.040   0.424   1.359  0.00  0.00     0.001 A 
ATOM      7  C7  DEN d   1       0.913  -0.350   1.447  0.00  0.00     0.017 A 
ATOM      8  C8  DEN d   1      -0.107  -0.137   0.530  0.00  0.00    -0.094 A 
ATOM      9  C9  DEN d   1       0.033   0.788  -0.491  0.00  0.00    -0.072 A 
ENDROOT
TORSDOF 0
ENDMDL
