MODEL 1
REMARK minimizedAffinity 0.755283296
REMARK minimizedRMSD -1
REMARK  0 active torsions:
REMARK  status: ('A' for Active; 'I' for Inactive)
ROOT
ATOM      1  C1  DEN d   1       0.065  -0.805  -0.012  0.00  0.00     0.130 A 
ATOM      2  C2  DEN d   1       0.403   0.509   0.529  0.00  0.00    -0.031 A 
ATOM      3  C3  DEN d   1      -0.437   1.514  -0.153  0.00  0.00     0.027 A 
ATOM      4  C4  DEN d   1      -2.222   1.164  -1.982  0.00  0.00     0.027 A 
ATOM      5  C5  DEN d   1      -2.852   0.227  -2.771  0.00  0.00    -0.003 A 
ATOM      6  C6  DEN d   1      -2.533  -1.104  -2.721  0.00  0.00     0.001 A 
ATOM      7  C7  DEN d   1      -1.588  -1.542  -1.830  0.00  0.00     0.017 A 
ATOM      8  C8  DEN d   1      -0.944  -0.602  -1.036  0.00  0.00    -0.094 A 
ATOM      9  C9  DEN d   1      -1.289   0.737  -1.094  0.00  0.00    -0.072 A 
ENDROOT
TORSDOF 0
ENDMDL
