MODEL 1
REMARK minimizedAffinity -0.705043375
REMARK minimizedRMSD -1
REMARK  0 active torsions:
REMARK  status: ('A' for Active; 'I' for Inactive)
ROOT
ATOM      1  C1  DEN d   1      -0.285  -1.614  -0.916  0.00  0.00     0.130 A 
ATOM      2  C2  DEN d   1      -1.585  -0.949  -0.885  0.00  0.00    -0.031 A 
ATOM      3  C3  DEN d   1      -1.413   0.360  -0.225  0.00  0.00     0.027 A 
ATOM      4  C4  DEN d   1       0.731   1.419   0.744  0.00  0.00     0.027 A 
ATOM      5  C5  DEN d   1       2.077   1.229   0.961  0.00  0.00    -0.003 A 
ATOM      6  C6  DEN d   1       2.719   0.073   0.602  0.00  0.00     0.001 A 
ATOM      7  C7  DEN d   1       2.023  -0.919  -0.036  0.00  0.00     0.017 A 
ATOM      8  C8  DEN d   1       0.663  -0.738  -0.252  0.00  0.00    -0.094 A 
ATOM      9  C9  DEN d   1       0.035   0.443   0.108  0.00  0.00    -0.072 A 
ENDROOT
TORSDOF 0
ENDMDL
