MODEL 1
REMARK minimizedAffinity 0.327918142
REMARK minimizedRMSD -1
REMARK  0 active torsions:
REMARK  status: ('A' for Active; 'I' for Inactive)
ROOT
ATOM      1  C1  DEN d   1      -1.078   0.829  -3.090  0.00  0.00     0.130 A 
ATOM      2  C2  DEN d   1      -2.273   0.190  -3.632  0.00  0.00    -0.031 A 
ATOM      3  C3  DEN d   1      -2.842  -0.680  -2.583  0.00  0.00     0.027 A 
ATOM      4  C4  DEN d   1      -1.995  -1.093  -0.182  0.00  0.00     0.027 A 
ATOM      5  C5  DEN d   1      -1.010  -0.782   0.730  0.00  0.00    -0.003 A 
ATOM      6  C6  DEN d   1       0.031   0.054   0.424  0.00  0.00     0.001 A 
ATOM      7  C7  DEN d   1       0.087   0.644  -0.811  0.00  0.00     0.017 A 
ATOM      8  C8  DEN d   1      -0.898   0.330  -1.738  0.00  0.00    -0.094 A 
ATOM      9  C9  DEN d   1      -1.949  -0.508  -1.406  0.00  0.00    -0.072 A 
ENDROOT
TORSDOF 0
ENDMDL
