MODEL 1
REMARK minimizedAffinity -0.14906542
REMARK minimizedRMSD -1
REMARK  0 active torsions:
REMARK  status: ('A' for Active; 'I' for Inactive)
ROOT
ATOM      1  C1  DEN d   1      -1.595  -0.987  -0.213  0.00  0.00     0.130 A 
ATOM      2  C2  DEN d   1      -0.991   0.072   0.591  0.00  0.00    -0.031 A 
ATOM      3  C3  DEN d   1      -1.338   1.368  -0.027  0.00  0.00     0.027 A 
ATOM      4  C4  DEN d   1      -2.748   1.834  -2.136  0.00  0.00     0.027 A 
ATOM      5  C5  DEN d   1      -3.462   1.252  -3.160  0.00  0.00    -0.003 A 
ATOM      6  C6  DEN d   1      -3.574  -0.106  -3.292  0.00  0.00     0.001 A 
ATOM      7  C7  DEN d   1      -3.001  -0.929  -2.358  0.00  0.00     0.017 A 
ATOM      8  C8  DEN d   1      -2.273  -0.350  -1.327  0.00  0.00    -0.094 A 
ATOM      9  C9  DEN d   1      -2.181   1.026  -1.204  0.00  0.00    -0.072 A 
ENDROOT
TORSDOF 0
ENDMDL
