MODEL 1
REMARK minimizedAffinity -4.20658731
REMARK minimizedRMSD -1
REMARK  0 active torsions:
REMARK  status: ('A' for Active; 'I' for Inactive)
ROOT
ATOM      1  C1  DEN d   1      -0.860  -0.595   0.378  0.00  0.00     0.130 A 
ATOM      2  C2  DEN d   1      -0.731   0.633  -0.400  0.00  0.00    -0.031 A 
ATOM      3  C3  DEN d   1       0.590   1.224  -0.106  0.00  0.00     0.027 A 
ATOM      4  C4  DEN d   1       2.440   0.358   1.468  0.00  0.00     0.027 A 
ATOM      5  C5  DEN d   1       2.785  -0.640   2.353  0.00  0.00    -0.003 A 
ATOM      6  C6  DEN d   1       1.932  -1.665   2.666  0.00  0.00     0.001 A 
ATOM      7  C7  DEN d   1       0.709  -1.742   2.054  0.00  0.00     0.017 A 
ATOM      8  C8  DEN d   1       0.352  -0.736   1.165  0.00  0.00    -0.094 A 
ATOM      9  C9  DEN d   1       1.232   0.286   0.854  0.00  0.00    -0.072 A 
ENDROOT
TORSDOF 0
ENDMDL
