MODEL 1
REMARK minimizedAffinity -2.01533318
REMARK minimizedRMSD -1
REMARK  0 active torsions:
REMARK  status: ('A' for Active; 'I' for Inactive)
ROOT
ATOM      1  C1  DEN d   1       1.092   1.608  -0.134  0.00  0.00     0.130 A 
ATOM      2  C2  DEN d   1       2.217   1.212   0.708  0.00  0.00    -0.031 A 
ATOM      3  C3  DEN d   1       1.847  -0.035   1.407  0.00  0.00     0.027 A 
ATOM      4  C4  DEN d   1      -0.346  -1.385   1.265  0.00  0.00     0.027 A 
ATOM      5  C5  DEN d   1      -1.598  -1.436   0.692  0.00  0.00    -0.003 A 
ATOM      6  C6  DEN d   1      -2.050  -0.466  -0.163  0.00  0.00     0.001 A 
ATOM      7  C7  DEN d   1      -1.227   0.574  -0.505  0.00  0.00     0.017 A 
ATOM      8  C8  DEN d   1       0.034   0.636   0.074  0.00  0.00    -0.094 A 
ATOM      9  C9  DEN d   1       0.477  -0.361   0.927  0.00  0.00    -0.072 A 
ENDROOT
TORSDOF 0
ENDMDL
