MODEL 1
REMARK minimizedAffinity -2.306705
REMARK minimizedRMSD -1
REMARK  0 active torsions:
REMARK  status: ('A' for Active; 'I' for Inactive)
ROOT
ATOM      1  C1  DEN d   1      -1.224  -0.701   0.604  0.00  0.00     0.130 A 
ATOM      2  C2  DEN d   1      -1.928   0.141  -0.359  0.00  0.00    -0.031 A 
ATOM      3  C3  DEN d   1      -0.996   1.194  -0.811  0.00  0.00     0.027 A 
ATOM      4  C4  DEN d   1       1.456   1.597  -0.119  0.00  0.00     0.027 A 
ATOM      5  C5  DEN d   1       2.485   1.149   0.679  0.00  0.00    -0.003 A 
ATOM      6  C6  DEN d   1       2.340   0.083   1.527  0.00  0.00     0.001 A 
ATOM      7  C7  DEN d   1       1.153  -0.600   1.563  0.00  0.00     0.017 A 
ATOM      8  C8  DEN d   1       0.109  -0.150   0.766  0.00  0.00    -0.094 A 
ATOM      9  C9  DEN d   1       0.279   0.922  -0.094  0.00  0.00    -0.072 A 
ENDROOT
TORSDOF 0
ENDMDL
