MODEL 1
REMARK minimizedAffinity -2.45062709
REMARK minimizedRMSD -1
REMARK  0 active torsions:
REMARK  status: ('A' for Active; 'I' for Inactive)
ROOT
ATOM      1  C1  DEN d   1      -0.339  -1.198  -0.788  0.00  0.00     0.130 A 
ATOM      2  C2  DEN d   1      -0.135  -0.365   0.394  0.00  0.00    -0.031 A 
ATOM      3  C3  DEN d   1      -1.067   0.778   0.313  0.00  0.00     0.027 A 
ATOM      4  C4  DEN d   1      -2.800   1.333  -1.515  0.00  0.00     0.027 A 
ATOM      5  C5  DEN d   1      -3.330   0.926  -2.719  0.00  0.00    -0.003 A 
ATOM      6  C6  DEN d   1      -2.881  -0.189  -3.376  0.00  0.00     0.001 A 
ATOM      7  C7  DEN d   1      -1.903  -0.962  -2.809  0.00  0.00     0.017 A 
ATOM      8  C8  DEN d   1      -1.358  -0.555  -1.598  0.00  0.00    -0.094 A 
ATOM      9  C9  DEN d   1      -1.834   0.569  -0.945  0.00  0.00    -0.072 A 
ENDROOT
TORSDOF 0
ENDMDL
