MODEL 1
REMARK minimizedAffinity -3.2116816
REMARK minimizedRMSD -1
REMARK  0 active torsions:
REMARK  status: ('A' for Active; 'I' for Inactive)
ROOT
ATOM      1  C1  DEN d   1       1.069   1.433  -0.243  0.00  0.00     0.130 A 
ATOM      2  C2  DEN d   1       1.831   0.850   0.858  0.00  0.00    -0.031 A 
ATOM      3  C3  DEN d   1       0.965  -0.127   1.547  0.00  0.00     0.027 A 
ATOM      4  C4  DEN d   1      -1.470  -0.793   1.016  0.00  0.00     0.027 A 
ATOM      5  C5  DEN d   1      -2.541  -0.561   0.182  0.00  0.00    -0.003 A 
ATOM      6  C6  DEN d   1      -2.496   0.370  -0.822  0.00  0.00     0.001 A 
ATOM      7  C7  DEN d   1      -1.340   1.070  -1.047  0.00  0.00     0.017 A 
ATOM      8  C8  DEN d   1      -0.259   0.846  -0.206  0.00  0.00    -0.094 A 
ATOM      9  C9  DEN d   1      -0.320  -0.107   0.796  0.00  0.00    -0.072 A 
ENDROOT
TORSDOF 0
ENDMDL
