MODEL 1
REMARK minimizedAffinity -2.53196073
REMARK minimizedRMSD -1
REMARK  0 active torsions:
REMARK  status: ('A' for Active; 'I' for Inactive)
ROOT
ATOM      1  C1  BNZ d   1       2.947  -2.543   2.989  0.00  0.00     0.000 A 
ATOM      2  C2  BNZ d   1       3.315  -1.574   2.094  0.00  0.00     0.000 A 
ATOM      3  C3  BNZ d   1       2.396  -1.013   1.252  0.00  0.00     0.000 A 
ATOM      4  C4  BNZ d   1       1.120  -1.450   1.279  0.00  0.00     0.000 A 
ATOM      5  C5  BNZ d   1       0.735  -2.432   2.169  0.00  0.00     0.000 A 
ATOM      6  C6  BNZ d   1       1.655  -2.967   3.042  0.00  0.00     0.000 A 
ENDROOT
TORSDOF 0
ENDMDL
