MODEL 1
REMARK minimizedAffinity 2.87423968
REMARK minimizedRMSD -1
REMARK  0 active torsions:
REMARK  status: ('A' for Active; 'I' for Inactive)
ROOT
ATOM      1  C1  BNZ d   1       3.624  -1.250   1.312  0.00  0.00     0.000 A 
ATOM      2  C2  BNZ d   1       3.417  -2.458   1.924  0.00  0.00     0.000 A 
ATOM      3  C3  BNZ d   1       2.151  -2.926   2.138  0.00  0.00     0.000 A 
ATOM      4  C4  BNZ d   1       1.094  -2.170   1.778  0.00  0.00     0.000 A 
ATOM      5  C5  BNZ d   1       1.286  -0.945   1.169  0.00  0.00     0.000 A 
ATOM      6  C6  BNZ d   1       2.562  -0.495   0.919  0.00  0.00     0.000 A 
ENDROOT
TORSDOF 0
ENDMDL
