MODEL 1
REMARK minimizedAffinity 0.178634375
REMARK minimizedRMSD -1
REMARK  0 active torsions:
REMARK  status: ('A' for Active; 'I' for Inactive)
ROOT
ATOM      1  C1  BNZ d   1       2.740  -0.737   1.016  0.00  0.00     0.000 A 
ATOM      2  C2  BNZ d   1       2.450   0.590   0.846  0.00  0.00     0.000 A 
ATOM      3  C3  BNZ d   1       1.158   1.034   0.887  0.00  0.00     0.000 A 
ATOM      4  C4  BNZ d   1       0.156   0.147   1.057  0.00  0.00     0.000 A 
ATOM      5  C5  BNZ d   1       0.433  -1.196   1.220  0.00  0.00     0.000 A 
ATOM      6  C6  BNZ d   1       1.737  -1.634   1.217  0.00  0.00     0.000 A 
ENDROOT
TORSDOF 0
ENDMDL
