MODEL 1
REMARK minimizedAffinity 0.990853369
REMARK minimizedRMSD -1
REMARK  0 active torsions:
REMARK  status: ('A' for Active; 'I' for Inactive)
ROOT
ATOM      1  C1  BNZ d   1       1.097  -3.152   2.070  0.00  0.00     0.000 A 
ATOM      2  C2  BNZ d   1       2.284  -2.468   2.047  0.00  0.00     0.000 A 
ATOM      3  C3  BNZ d   1       2.305  -1.105   1.956  0.00  0.00     0.000 A 
ATOM      4  C4  BNZ d   1       1.143  -0.430   1.847  0.00  0.00     0.000 A 
ATOM      5  C5  BNZ d   1      -0.062  -1.105   1.859  0.00  0.00     0.000 A 
ATOM      6  C6  BNZ d   1      -0.080  -2.474   1.991  0.00  0.00     0.000 A 
ENDROOT
TORSDOF 0
ENDMDL
