MODEL 1
REMARK minimizedAffinity 2.25614166
REMARK minimizedRMSD -1
REMARK  0 active torsions:
REMARK  status: ('A' for Active; 'I' for Inactive)
ROOT
ATOM      1  C1  BNZ d   1       0.385  -1.945  -1.876  0.00  0.00     0.000 A 
ATOM      2  C2  BNZ d   1      -0.778  -1.322  -1.508  0.00  0.00     0.000 A 
ATOM      3  C3  BNZ d   1      -1.040  -1.048  -0.195  0.00  0.00     0.000 A 
ATOM      4  C4  BNZ d   1      -0.159  -1.432   0.751  0.00  0.00     0.000 A 
ATOM      5  C5  BNZ d   1       1.013  -2.069   0.398  0.00  0.00     0.000 A 
ATOM      6  C6  BNZ d   1       1.292  -2.309  -0.928  0.00  0.00     0.000 A 
ENDROOT
TORSDOF 0
ENDMDL
