MODEL 1
REMARK minimizedAffinity 4.2286377
REMARK minimizedRMSD -1
REMARK  0 active torsions:
REMARK  status: ('A' for Active; 'I' for Inactive)
ROOT
ATOM      1  C1  BNZ d   1       2.864   2.558  -0.226  0.00  0.00     0.000 A 
ATOM      2  C2  BNZ d   1       3.499   1.456   0.281  0.00  0.00     0.000 A 
ATOM      3  C3  BNZ d   1       2.981   0.781   1.351  0.00  0.00     0.000 A 
ATOM      4  C4  BNZ d   1       1.853   1.231   1.936  0.00  0.00     0.000 A 
ATOM      5  C5  BNZ d   1       1.206   2.347   1.442  0.00  0.00     0.000 A 
ATOM      6  C6  BNZ d   1       1.709   3.001   0.341  0.00  0.00     0.000 A 
ENDROOT
TORSDOF 0
ENDMDL
