MODEL 1
REMARK minimizedAffinity -4.16357327
REMARK minimizedRMSD -1
REMARK  0 active torsions:
REMARK  status: ('A' for Active; 'I' for Inactive)
ROOT
ATOM      1  C1  BNZ d   1       4.035  -1.264   0.830  0.00  0.00     0.000 A 
ATOM      2  C2  BNZ d   1       3.264  -1.579   1.918  0.00  0.00     0.000 A 
ATOM      3  C3  BNZ d   1       2.483  -0.633   2.520  0.00  0.00     0.000 A 
ATOM      4  C4  BNZ d   1       2.504   0.635   2.060  0.00  0.00     0.000 A 
ATOM      5  C5  BNZ d   1       3.284   0.970   0.971  0.00  0.00     0.000 A 
ATOM      6  C6  BNZ d   1       4.038   0.006   0.343  0.00  0.00     0.000 A 
ENDROOT
TORSDOF 0
ENDMDL
