MODEL 1
REMARK minimizedAffinity -0.377215803
REMARK minimizedRMSD -1
REMARK  0 active torsions:
REMARK  status: ('A' for Active; 'I' for Inactive)
ROOT
ATOM      1  C1  BNZ d   1       0.371  -1.049   1.112  0.00  0.00     0.000 A 
ATOM      2  C2  BNZ d   1      -0.204  -1.752   2.136  0.00  0.00     0.000 A 
ATOM      3  C3  BNZ d   1       0.556  -2.534   2.961  0.00  0.00     0.000 A 
ATOM      4  C4  BNZ d   1       1.881  -2.642   2.737  0.00  0.00     0.000 A 
ATOM      5  C5  BNZ d   1       2.474  -1.946   1.703  0.00  0.00     0.000 A 
ATOM      6  C6  BNZ d   1       1.713  -1.130   0.898  0.00  0.00     0.000 A 
ENDROOT
TORSDOF 0
ENDMDL
