MODEL 1
REMARK minimizedAffinity -0.412188143
REMARK minimizedRMSD -1
REMARK  0 active torsions:
REMARK  status: ('A' for Active; 'I' for Inactive)
ROOT
ATOM      1  C1  BNZ d   1       1.547  -1.371  -0.005  0.00  0.00     0.000 A 
ATOM      2  C2  BNZ d   1       0.500  -0.560   0.344  0.00  0.00     0.000 A 
ATOM      3  C3  BNZ d   1      -0.608  -0.467  -0.452  0.00  0.00     0.000 A 
ATOM      4  C4  BNZ d   1      -0.650  -1.153  -1.612  0.00  0.00     0.000 A 
ATOM      5  C5  BNZ d   1       0.402  -1.967  -1.982  0.00  0.00     0.000 A 
ATOM      6  C6  BNZ d   1       1.499  -2.088  -1.160  0.00  0.00     0.000 A 
ENDROOT
TORSDOF 0
ENDMDL
