MODEL 1
REMARK minimizedAffinity 2.03895521
REMARK minimizedRMSD -1
REMARK  0 active torsions:
REMARK  status: ('A' for Active; 'I' for Inactive)
ROOT
ATOM      1  C1  BNZ d   1       3.386  -1.425   1.333  0.00  0.00     0.000 A 
ATOM      2  C2  BNZ d   1       2.645  -2.568   1.195  0.00  0.00     0.000 A 
ATOM      3  C3  BNZ d   1       1.299  -2.564   1.438  0.00  0.00     0.000 A 
ATOM      4  C4  BNZ d   1       0.705  -1.427   1.856  0.00  0.00     0.000 A 
ATOM      5  C5  BNZ d   1       1.440  -0.269   2.009  0.00  0.00     0.000 A 
ATOM      6  C6  BNZ d   1       2.787  -0.268   1.726  0.00  0.00     0.000 A 
ENDROOT
TORSDOF 0
ENDMDL
