MODEL 1
REMARK minimizedAffinity -1.77018499
REMARK minimizedRMSD -1
REMARK  0 active torsions:
REMARK  status: ('A' for Active; 'I' for Inactive)
ROOT
ATOM      1  C2' OXE d   1       0.253   0.042  -2.234  0.00  0.00     0.078 C 
ATOM      2  C1' OXE d   1       1.457  -1.270  -0.063  0.00  0.00     0.078 C 
ATOM      3  C1  OXE d   1       0.177  -0.514   0.194  0.00  0.00    -0.078 A 
ATOM      4  C2  OXE d   1      -0.380   0.164  -0.864  0.00  0.00    -0.078 A 
ATOM      5  C3  OXE d   1      -1.589   0.832  -0.695  0.00  0.00     0.003 A 
ATOM      6  C4  OXE d   1      -2.162   0.949   0.577  0.00  0.00    -0.002 A 
ATOM      7  C5  OXE d   1      -1.590   0.299   1.676  0.00  0.00    -0.002 A 
ATOM      8  C6  OXE d   1      -0.446  -0.470   1.493  0.00  0.00     0.003 A 
ENDROOT
TORSDOF 0
ENDMDL
