MODEL 1
REMARK minimizedAffinity -2.22201014
REMARK minimizedRMSD -1
REMARK  0 active torsions:
REMARK  status: ('A' for Active; 'I' for Inactive)
ROOT
ATOM      1  C2' OXE d   1       1.221  -0.956  -0.590  0.00  0.00     0.078 C 
ATOM      2  C1' OXE d   1       1.855  -0.691   2.131  0.00  0.00     0.078 C 
ATOM      3  C1  OXE d   1       0.462  -0.311   1.693  0.00  0.00    -0.078 A 
ATOM      4  C2  OXE d   1       0.175  -0.400   0.352  0.00  0.00    -0.078 A 
ATOM      5  C3  OXE d   1      -1.110  -0.114  -0.098  0.00  0.00     0.003 A 
ATOM      6  C4  OXE d   1      -2.068   0.410   0.779  0.00  0.00    -0.002 A 
ATOM      7  C5  OXE d   1      -1.784   0.546   2.142  0.00  0.00    -0.002 A 
ATOM      8  C6  OXE d   1      -0.540   0.151   2.621  0.00  0.00     0.003 A 
ENDROOT
TORSDOF 0
ENDMDL
