MODEL 1
REMARK minimizedAffinity -4.09912872
REMARK minimizedRMSD -1
REMARK  0 active torsions:
REMARK  status: ('A' for Active; 'I' for Inactive)
ROOT
ATOM      1  C2' OXE d   1       1.229  -1.801   0.064  0.00  0.00     0.078 C 
ATOM      2  C1' OXE d   1       1.397  -0.697   2.639  0.00  0.00     0.078 C 
ATOM      3  C1  OXE d   1       0.186  -0.358   1.806  0.00  0.00    -0.078 A 
ATOM      4  C2  OXE d   1       0.135  -0.865   0.530  0.00  0.00    -0.078 A 
ATOM      5  C3  OXE d   1      -0.986  -0.628  -0.262  0.00  0.00     0.003 A 
ATOM      6  C4  OXE d   1      -1.988   0.247   0.173  0.00  0.00    -0.002 A 
ATOM      7  C5  OXE d   1      -1.936   0.806   1.455  0.00  0.00    -0.002 A 
ATOM      8  C6  OXE d   1      -0.879   0.481   2.297  0.00  0.00     0.003 A 
ENDROOT
TORSDOF 0
ENDMDL
