MODEL 1
REMARK minimizedAffinity -0.29326281
REMARK minimizedRMSD -1
REMARK  0 active torsions:
REMARK  status: ('A' for Active; 'I' for Inactive)
ROOT
ATOM      1  C2' OXE d   1       0.472  -0.618  -1.260  0.00  0.00     0.078 C 
ATOM      2  C1' OXE d   1       1.711  -0.713   1.257  0.00  0.00     0.078 C 
ATOM      3  C1  OXE d   1       0.286  -0.223   1.192  0.00  0.00    -0.078 A 
ATOM      4  C2  OXE d   1      -0.297  -0.136  -0.049  0.00  0.00    -0.078 A 
ATOM      5  C3  OXE d   1      -1.627   0.258  -0.160  0.00  0.00     0.003 A 
ATOM      6  C4  OXE d   1      -2.328   0.713   0.964  0.00  0.00    -0.002 A 
ATOM      7  C5  OXE d   1      -1.740   0.670   2.232  0.00  0.00    -0.002 A 
ATOM      8  C6  OXE d   1      -0.451   0.166   2.369  0.00  0.00     0.003 A 
ENDROOT
TORSDOF 0
ENDMDL
