MODEL 1
REMARK minimizedAffinity -1.86807144
REMARK minimizedRMSD -1
REMARK  0 active torsions:
REMARK  status: ('A' for Active; 'I' for Inactive)
ROOT
ATOM      1  C2' OXE d   1       1.273  -0.796  -3.668  0.00  0.00     0.078 C 
ATOM      2  C1' OXE d   1       0.887   1.972  -3.399  0.00  0.00     0.078 C 
ATOM      3  C1  OXE d   1       0.414   1.082  -2.276  0.00  0.00    -0.078 A 
ATOM      4  C2  OXE d   1       0.565  -0.274  -2.437  0.00  0.00    -0.078 A 
ATOM      5  C3  OXE d   1       0.196  -1.136  -1.408  0.00  0.00     0.003 A 
ATOM      6  C4  OXE d   1      -0.467  -0.645  -0.276  0.00  0.00    -0.002 A 
ATOM      7  C5  OXE d   1      -0.667   0.729  -0.110  0.00  0.00    -0.002 A 
ATOM      8  C6  OXE d   1      -0.195   1.608  -1.079  0.00  0.00     0.003 A 
ENDROOT
TORSDOF 0
ENDMDL
