MODEL 1
REMARK minimizedAffinity -1.50391269
REMARK minimizedRMSD -1
REMARK  0 active torsions:
REMARK  status: ('A' for Active; 'I' for Inactive)
ROOT
ATOM      1  C2' OXE d   1       0.401  -0.660   3.218  0.00  0.00     0.078 C 
ATOM      2  C1' OXE d   1       1.393  -1.157   0.639  0.00  0.00     0.078 C 
ATOM      3  C1  OXE d   1       0.023  -0.537   0.759  0.00  0.00    -0.078 A 
ATOM      4  C2  OXE d   1      -0.474  -0.340   2.025  0.00  0.00    -0.078 A 
ATOM      5  C3  OXE d   1      -1.709   0.280   2.192  0.00  0.00     0.003 A 
ATOM      6  C4  OXE d   1      -2.515   0.563   1.083  0.00  0.00    -0.002 A 
ATOM      7  C5  OXE d   1      -2.045   0.334  -0.214  0.00  0.00    -0.002 A 
ATOM      8  C6  OXE d   1      -0.764  -0.175  -0.394  0.00  0.00     0.003 A 
ENDROOT
TORSDOF 0
ENDMDL
