MODEL 1
REMARK minimizedAffinity 4.65761662
REMARK minimizedRMSD -1
REMARK  0 active torsions:
REMARK  status: ('A' for Active; 'I' for Inactive)
ROOT
ATOM      1  O1  BZF d   1      -5.984   1.141  -1.133  0.00  0.00    -0.204 OA
ATOM      2  C2  BZF d   1      -5.631   1.763   0.049  0.00  0.00     0.174 A 
ATOM      3  C3  BZF d   1      -5.170   3.009  -0.185  0.00  0.00    -0.012 A 
ATOM      4  C3A BZF d   1      -5.326   3.210  -1.593  0.00  0.00    -0.107 A 
ATOM      5  C4  BZF d   1      -5.062   4.258  -2.427  0.00  0.00     0.055 A 
ATOM      6  C5  BZF d   1      -5.261   4.106  -3.762  0.00  0.00    -0.016 A 
ATOM      7  C6  BZF d   1      -5.718   2.920  -4.298  0.00  0.00     0.022 A 
ATOM      8  C7  BZF d   1      -5.999   1.854  -3.510  0.00  0.00     0.029 A 
ATOM      9  C7A BZF d   1      -5.830   2.015  -2.157  0.00  0.00     0.058 A 
ENDROOT
TORSDOF 0
ENDMDL
