MODEL 1
REMARK minimizedAffinity 8.33675385
REMARK minimizedRMSD -1
REMARK  0 active torsions:
REMARK  status: ('A' for Active; 'I' for Inactive)
ROOT
ATOM      1  O1  BZF d   1       2.022  -3.042  -0.133  0.00  0.00    -0.204 OA
ATOM      2  C2  BZF d   1       1.178  -4.134  -0.187  0.00  0.00     0.174 A 
ATOM      3  C3  BZF d   1       1.849  -5.239  -0.570  0.00  0.00    -0.012 A 
ATOM      4  C3A BZF d   1       3.216  -4.831  -0.678  0.00  0.00    -0.107 A 
ATOM      5  C4  BZF d   1       4.369  -5.486  -1.006  0.00  0.00     0.055 A 
ATOM      6  C5  BZF d   1       5.528  -4.782  -1.091  0.00  0.00    -0.016 A 
ATOM      7  C6  BZF d   1       5.570  -3.422  -0.859  0.00  0.00     0.022 A 
ATOM      8  C7  BZF d   1       4.453  -2.730  -0.526  0.00  0.00     0.029 A 
ATOM      9  C7A BZF d   1       3.287  -3.445  -0.407  0.00  0.00     0.058 A 
ENDROOT
TORSDOF 0
ENDMDL
