MODEL 1
REMARK minimizedAffinity 13.078887
REMARK minimizedRMSD -1
REMARK  0 active torsions:
REMARK  status: ('A' for Active; 'I' for Inactive)
ROOT
ATOM      1  O1  BZF d   1       0.938  -1.391   0.133  0.00  0.00    -0.204 OA
ATOM      2  C2  BZF d   1       2.125  -1.818   0.696  0.00  0.00     0.174 A 
ATOM      3  C3  BZF d   1       2.389  -3.094   0.345  0.00  0.00    -0.012 A 
ATOM      4  C3A BZF d   1       1.345  -3.458  -0.563  0.00  0.00    -0.107 A 
ATOM      5  C4  BZF d   1       1.066  -4.595  -1.266  0.00  0.00     0.055 A 
ATOM      6  C5  BZF d   1      -0.071  -4.651  -2.007  0.00  0.00    -0.016 A 
ATOM      7  C6  BZF d   1      -0.954  -3.592  -2.064  0.00  0.00     0.022 A 
ATOM      8  C7  BZF d   1      -0.717  -2.442  -1.389  0.00  0.00     0.029 A 
ATOM      9  C7A BZF d   1       0.448  -2.370  -0.665  0.00  0.00     0.058 A 
ENDROOT
TORSDOF 0
ENDMDL
