MODEL 1
REMARK minimizedAffinity -0.143492654
REMARK minimizedRMSD -1
REMARK  0 active torsions:
REMARK  status: ('A' for Active; 'I' for Inactive)
ROOT
ATOM      1  O1  BZF d   1      -5.964   3.088  -0.915  0.00  0.00    -0.204 OA
ATOM      2  C2  BZF d   1      -5.951   1.774  -0.489  0.00  0.00     0.174 A 
ATOM      3  C3  BZF d   1      -6.000   0.930  -1.539  0.00  0.00    -0.012 A 
ATOM      4  C3A BZF d   1      -5.953   1.768  -2.698  0.00  0.00    -0.107 A 
ATOM      5  C4  BZF d   1      -5.953   1.515  -4.040  0.00  0.00     0.055 A 
ATOM      6  C5  BZF d   1      -5.974   2.560  -4.909  0.00  0.00    -0.016 A 
ATOM      7  C6  BZF d   1      -5.999   3.868  -4.471  0.00  0.00     0.022 A 
ATOM      8  C7  BZF d   1      -5.995   4.168  -3.150  0.00  0.00     0.029 A 
ATOM      9  C7A BZF d   1      -5.941   3.115  -2.270  0.00  0.00     0.058 A 
ENDROOT
TORSDOF 0
ENDMDL
