MODEL 1
REMARK minimizedAffinity 10.9937601
REMARK minimizedRMSD -1
REMARK  0 active torsions:
REMARK  status: ('A' for Active; 'I' for Inactive)
ROOT
ATOM      1  O1  BZF d   1      -1.305  -2.514  -2.754  0.00  0.00    -0.204 OA
ATOM      2  C2  BZF d   1      -1.692  -3.804  -3.063  0.00  0.00     0.174 A 
ATOM      3  C3  BZF d   1      -0.944  -4.702  -2.389  0.00  0.00    -0.012 A 
ATOM      4  C3A BZF d   1      -0.095  -3.923  -1.541  0.00  0.00    -0.107 A 
ATOM      5  C4  BZF d   1       0.862  -4.243  -0.620  0.00  0.00     0.055 A 
ATOM      6  C5  BZF d   1       1.559  -3.245  -0.017  0.00  0.00    -0.016 A 
ATOM      7  C6  BZF d   1       1.330  -1.917  -0.314  0.00  0.00     0.022 A 
ATOM      8  C7  BZF d   1       0.388  -1.550  -1.217  0.00  0.00     0.029 A 
ATOM      9  C7A BZF d   1      -0.341  -2.555  -1.803  0.00  0.00     0.058 A 
ENDROOT
TORSDOF 0
ENDMDL
