MODEL 1
REMARK minimizedAffinity 6.12204885
REMARK minimizedRMSD -1
REMARK  0 active torsions:
REMARK  status: ('A' for Active; 'I' for Inactive)
ROOT
ATOM      1  O1  BZF d   1      -5.908   1.008  -5.941  0.00  0.00    -0.204 OA
ATOM      2  C2  BZF d   1      -5.999  -0.287  -5.470  0.00  0.00     0.174 A 
ATOM      3  C3  BZF d   1      -5.996  -0.307  -4.121  0.00  0.00    -0.012 A 
ATOM      4  C3A BZF d   1      -5.990   1.068  -3.725  0.00  0.00    -0.107 A 
ATOM      5  C4  BZF d   1      -6.000   1.696  -2.512  0.00  0.00     0.055 A 
ATOM      6  C5  BZF d   1      -5.915   3.052  -2.469  0.00  0.00    -0.016 A 
ATOM      7  C6  BZF d   1      -5.815   3.809  -3.618  0.00  0.00     0.022 A 
ATOM      8  C7  BZF d   1      -5.806   3.232  -4.844  0.00  0.00     0.029 A 
ATOM      9  C7A BZF d   1      -5.925   1.865  -4.892  0.00  0.00     0.058 A 
ENDROOT
TORSDOF 0
ENDMDL
