MODEL 1
REMARK minimizedAffinity 12.8040972
REMARK minimizedRMSD -1
REMARK  0 active torsions:
REMARK  status: ('A' for Active; 'I' for Inactive)
ROOT
ATOM      1  O1  BZF d   1      -0.007   4.584   0.752  0.00  0.00    -0.204 OA
ATOM      2  C2  BZF d   1       0.491   3.302   0.614  0.00  0.00     0.174 A 
ATOM      3  C3  BZF d   1       0.004   2.717  -0.500  0.00  0.00    -0.012 A 
ATOM      4  C3A BZF d   1      -0.779   3.727  -1.144  0.00  0.00    -0.107 A 
ATOM      5  C4  BZF d   1      -1.504   3.757  -2.301  0.00  0.00     0.055 A 
ATOM      6  C5  BZF d   1      -2.212   4.876  -2.607  0.00  0.00    -0.016 A 
ATOM      7  C6  BZF d   1      -2.222   5.979  -1.778  0.00  0.00     0.022 A 
ATOM      8  C7  BZF d   1      -1.515   5.997  -0.622  0.00  0.00     0.029 A 
ATOM      9  C7A BZF d   1      -0.772   4.881  -0.326  0.00  0.00     0.058 A 
ENDROOT
TORSDOF 0
ENDMDL
