MODEL 1
REMARK minimizedAffinity -2.43003821
REMARK minimizedRMSD -1
REMARK  0 active torsions:
REMARK  status: ('A' for Active; 'I' for Inactive)
ROOT
ATOM      1  O1  BZF d   1      -5.957   1.581  -2.982  0.00  0.00    -0.204 OA
ATOM      2  C2  BZF d   1      -5.953   1.573  -1.601  0.00  0.00     0.174 A 
ATOM      3  C3  BZF d   1      -5.913   2.831  -1.116  0.00  0.00    -0.012 A 
ATOM      4  C3A BZF d   1      -5.983   3.680  -2.265  0.00  0.00    -0.107 A 
ATOM      5  C4  BZF d   1      -6.000   5.036  -2.431  0.00  0.00     0.055 A 
ATOM      6  C5  BZF d   1      -6.000   5.547  -3.690  0.00  0.00    -0.016 A 
ATOM      7  C6  BZF d   1      -5.978   4.733  -4.804  0.00  0.00     0.022 A 
ATOM      8  C7  BZF d   1      -5.966   3.383  -4.690  0.00  0.00     0.029 A 
ATOM      9  C7A BZF d   1      -5.999   2.863  -3.419  0.00  0.00     0.058 A 
ENDROOT
TORSDOF 0
ENDMDL
