MODEL 1
REMARK minimizedAffinity 8.13725376
REMARK minimizedRMSD -1
REMARK  2 active torsions:
REMARK  status: ('A' for Active; 'I' for Inactive)
REMARK    1  A    between atoms: C1_2  and  C2_3 
REMARK    2  A    between atoms: C2_3  and  C3_4 
ROOT
ATOM      1  C3  UNL d   1      -1.267  -1.054   0.822  0.00  0.00    -0.075 A 
ATOM      2  C4  UNL d   1      -0.630  -1.164  -0.422  0.00  0.00     0.002 A 
ATOM      3  C5  UNL d   1       0.735  -0.900  -0.545  0.00  0.00     0.002 A 
ATOM      4  C6  UNL d   1       1.475  -0.512   0.569  0.00  0.00    -0.004 A 
ATOM      5  C7  UNL d   1       0.849  -0.383   1.807  0.00  0.00     0.002 A 
ATOM      6  C8  UNL d   1      -0.515  -0.652   1.934  0.00  0.00     0.002 A 
ENDROOT
BRANCH   1   7
ATOM      7  C2  UNL d   1      -2.737  -1.367   0.968  0.00  0.00     0.056 C 
BRANCH   7   8
ATOM      8  C1  UNL d   1      -3.541  -0.272   1.677  0.00  0.00     0.007 C 
ATOM      9  C   UNL d   1      -4.799   0.135   0.920  0.00  0.00     0.009 C 
ENDBRANCH   7   8
ENDBRANCH   1   7
TORSDOF 2
ENDMDL
