MODEL 1
REMARK minimizedAffinity 8.18270493
REMARK minimizedRMSD -1
REMARK  2 active torsions:
REMARK  status: ('A' for Active; 'I' for Inactive)
REMARK    1  A    between atoms: C1_2  and  C2_3 
REMARK    2  A    between atoms: C2_3  and  C3_4 
ROOT
ATOM      1  C3  UNL d   1       1.510  -1.845  -1.313  0.00  0.00    -0.075 A 
ATOM      2  C4  UNL d   1       0.139  -1.848  -1.610  0.00  0.00     0.002 A 
ATOM      3  C5  UNL d   1      -0.755  -1.105  -0.839  0.00  0.00     0.002 A 
ATOM      4  C6  UNL d   1      -0.293  -0.360   0.244  0.00  0.00    -0.004 A 
ATOM      5  C7  UNL d   1       1.065  -0.363   0.558  0.00  0.00     0.002 A 
ATOM      6  C8  UNL d   1       1.962  -1.102  -0.215  0.00  0.00     0.002 A 
ENDROOT
BRANCH   1   7
ATOM      7  C2  UNL d   1       2.486  -2.624  -2.162  0.00  0.00     0.056 C 
BRANCH   7   8
ATOM      8  C1  UNL d   1       3.929  -2.587  -1.646  0.00  0.00     0.007 C 
ATOM      9  C   UNL d   1       4.915  -2.026  -2.662  0.00  0.00     0.009 C 
ENDBRANCH   7   8
ENDBRANCH   1   7
TORSDOF 2
ENDMDL
