MODEL 1
REMARK minimizedAffinity 5.05695677
REMARK minimizedRMSD -1
REMARK  2 active torsions:
REMARK  status: ('A' for Active; 'I' for Inactive)
REMARK    1  A    between atoms: C1_2  and  C2_3 
REMARK    2  A    between atoms: C2_3  and  C3_4 
ROOT
ATOM      1  C3  UNL d   1      -0.703  -3.597   5.593  0.00  0.00    -0.075 A 
ATOM      2  C4  UNL d   1       0.642  -3.578   5.196  0.00  0.00     0.002 A 
ATOM      3  C5  UNL d   1       1.283  -4.754   4.808  0.00  0.00     0.002 A 
ATOM      4  C6  UNL d   1       0.594  -5.964   4.822  0.00  0.00    -0.004 A 
ATOM      5  C7  UNL d   1      -0.738  -5.999   5.231  0.00  0.00     0.002 A 
ATOM      6  C8  UNL d   1      -1.383  -4.822   5.616  0.00  0.00     0.002 A 
ENDROOT
BRANCH   1   7
ATOM      7  C2  UNL d   1      -1.411  -2.323   5.986  0.00  0.00     0.056 C 
BRANCH   7   8
ATOM      8  C1  UNL d   1      -0.525  -1.074   5.931  0.00  0.00     0.007 C 
ATOM      9  C   UNL d   1      -1.315   0.226   5.995  0.00  0.00     0.009 C 
ENDBRANCH   7   8
ENDBRANCH   1   7
TORSDOF 2
ENDMDL
