MODEL 1
REMARK minimizedAffinity 4.88084745
REMARK minimizedRMSD -1
REMARK  2 active torsions:
REMARK  status: ('A' for Active; 'I' for Inactive)
REMARK    1  A    between atoms: C1_2  and  C2_3 
REMARK    2  A    between atoms: C2_3  and  C3_4 
ROOT
ATOM      1  C3  UNL d   1      -2.898   2.259   2.623  0.00  0.00    -0.075 A 
ATOM      2  C4  UNL d   1      -2.327   2.235   3.903  0.00  0.00     0.002 A 
ATOM      3  C5  UNL d   1      -1.164   2.956   4.174  0.00  0.00     0.002 A 
ATOM      4  C6  UNL d   1      -0.552   3.701   3.169  0.00  0.00    -0.004 A 
ATOM      5  C7  UNL d   1      -1.101   3.720   1.888  0.00  0.00     0.002 A 
ATOM      6  C8  UNL d   1      -2.268   3.002   1.615  0.00  0.00     0.002 A 
ENDROOT
BRANCH   1   7
ATOM      7  C2  UNL d   1      -4.173   1.505   2.330  0.00  0.00     0.056 C 
BRANCH   7   8
ATOM      8  C1  UNL d   1      -5.317   2.387   1.820  0.00  0.00     0.007 C 
ATOM      9  C   UNL d   1      -6.000   3.183   2.925  0.00  0.00     0.009 C 
ENDBRANCH   7   8
ENDBRANCH   1   7
TORSDOF 2
ENDMDL
