MODEL 1
REMARK minimizedAffinity 2.20526528
REMARK minimizedRMSD -1
REMARK  2 active torsions:
REMARK  status: ('A' for Active; 'I' for Inactive)
REMARK    1  A    between atoms: C1_2  and  C2_3 
REMARK    2  A    between atoms: C2_3  and  C3_4 
ROOT
ATOM      1  C3  UNL d   1      -1.797  -0.948   0.809  0.00  0.00    -0.075 A 
ATOM      2  C4  UNL d   1      -1.090  -0.941  -0.402  0.00  0.00     0.002 A 
ATOM      3  C5  UNL d   1       0.238  -0.517  -0.444  0.00  0.00     0.002 A 
ATOM      4  C6  UNL d   1       0.872  -0.085   0.720  0.00  0.00    -0.004 A 
ATOM      5  C7  UNL d   1       0.174  -0.072   1.925  0.00  0.00     0.002 A 
ATOM      6  C8  UNL d   1      -1.154  -0.500   1.971  0.00  0.00     0.002 A 
ENDROOT
BRANCH   1   7
ATOM      7  C2  UNL d   1      -3.226  -1.434   0.867  0.00  0.00     0.056 C 
BRANCH   7   8
ATOM      8  C1  UNL d   1      -4.265  -0.355   0.546  0.00  0.00     0.007 C 
ATOM      9  C   UNL d   1      -4.584   0.544   1.733  0.00  0.00     0.009 C 
ENDBRANCH   7   8
ENDBRANCH   1   7
TORSDOF 2
ENDMDL
