MODEL 1
REMARK minimizedAffinity 5.02078819
REMARK minimizedRMSD -1
REMARK  2 active torsions:
REMARK  status: ('A' for Active; 'I' for Inactive)
REMARK    1  A    between atoms: C1_2  and  C2_3 
REMARK    2  A    between atoms: C2_3  and  C3_4 
ROOT
ATOM      1  C3  UNL d   1      -0.403   0.783  -0.430  0.00  0.00    -0.075 A 
ATOM      2  C4  UNL d   1      -1.256   0.345  -1.453  0.00  0.00     0.002 A 
ATOM      3  C5  UNL d   1      -1.125  -0.939  -1.984  0.00  0.00     0.002 A 
ATOM      4  C6  UNL d   1      -0.135  -1.795  -1.508  0.00  0.00    -0.004 A 
ATOM      5  C7  UNL d   1       0.729  -1.365  -0.503  0.00  0.00     0.002 A 
ATOM      6  C8  UNL d   1       0.597  -0.083   0.033  0.00  0.00     0.002 A 
ENDROOT
BRANCH   1   7
ATOM      7  C2  UNL d   1      -0.559   2.160   0.170  0.00  0.00     0.056 C 
BRANCH   7   8
ATOM      8  C1  UNL d   1      -1.505   2.212   1.374  0.00  0.00     0.007 C 
ATOM      9  C   UNL d   1      -0.848   2.770   2.630  0.00  0.00     0.009 C 
ENDBRANCH   7   8
ENDBRANCH   1   7
TORSDOF 2
ENDMDL
