MODEL 1
REMARK minimizedAffinity 4.98276043
REMARK minimizedRMSD -1
REMARK  2 active torsions:
REMARK  status: ('A' for Active; 'I' for Inactive)
REMARK    1  A    between atoms: C1_2  and  C2_3 
REMARK    2  A    between atoms: C2_3  and  C3_4 
ROOT
ATOM      1  C3  UNL d   1       3.318   4.863   5.494  0.00  0.00    -0.075 A 
ATOM      2  C4  UNL d   1       3.824   3.878   4.633  0.00  0.00     0.002 A 
ATOM      3  C5  UNL d   1       5.155   3.919   4.216  0.00  0.00     0.002 A 
ATOM      4  C6  UNL d   1       5.992   4.947   4.645  0.00  0.00    -0.004 A 
ATOM      5  C7  UNL d   1       5.495   5.939   5.487  0.00  0.00     0.002 A 
ATOM      6  C8  UNL d   1       4.165   5.898   5.909  0.00  0.00     0.002 A 
ENDROOT
BRANCH   1   7
ATOM      7  C2  UNL d   1       1.886   4.808   5.972  0.00  0.00     0.056 C 
BRANCH   7   8
ATOM      8  C1  UNL d   1       1.013   5.957   5.458  0.00  0.00     0.007 C 
ATOM      9  C   UNL d   1       0.382   5.672   4.102  0.00  0.00     0.009 C 
ENDBRANCH   7   8
ENDBRANCH   1   7
TORSDOF 2
ENDMDL
