MODEL 1
REMARK minimizedAffinity 11.7828407
REMARK minimizedRMSD -1
REMARK  2 active torsions:
REMARK  status: ('A' for Active; 'I' for Inactive)
REMARK    1  A    between atoms: C1_2  and  C2_3 
REMARK    2  A    between atoms: C2_3  and  C3_4 
ROOT
ATOM      1  C3  UNL d   1       1.051  -1.838  -0.597  0.00  0.00    -0.075 A 
ATOM      2  C4  UNL d   1      -0.272  -2.217  -0.869  0.00  0.00     0.002 A 
ATOM      3  C5  UNL d   1      -1.311  -1.292  -0.756  0.00  0.00     0.002 A 
ATOM      4  C6  UNL d   1      -1.043   0.017  -0.361  0.00  0.00    -0.004 A 
ATOM      5  C7  UNL d   1       0.266   0.399  -0.072  0.00  0.00     0.002 A 
ATOM      6  C8  UNL d   1       1.307  -0.523  -0.188  0.00  0.00     0.002 A 
ENDROOT
BRANCH   1   7
ATOM      7  C2  UNL d   1       2.183  -2.826  -0.746  0.00  0.00     0.056 C 
BRANCH   7   8
ATOM      8  C1  UNL d   1       2.349  -3.376  -2.166  0.00  0.00     0.007 C 
ATOM      9  C   UNL d   1       3.523  -2.759  -2.915  0.00  0.00     0.009 C 
ENDBRANCH   7   8
ENDBRANCH   1   7
TORSDOF 2
ENDMDL
