MODEL 1
REMARK minimizedAffinity -4.07672405
REMARK minimizedRMSD -1
REMARK  0 active torsions:
REMARK  status: ('A' for Active; 'I' for Inactive)
ROOT
ATOM      1  C   UNL d   1      -0.577  -4.029  -1.721  0.00  0.00     0.023 A 
ATOM      2  C1  UNL d   1       0.597  -3.302  -1.526  0.00  0.00     0.003 A 
ATOM      3  C2  UNL d   1       1.609  -3.813  -0.710  0.00  0.00     0.048 A 
ATOM      4  C3  UNL d   1       1.440  -5.052  -0.093  0.00  0.00     0.023 A 
ATOM      5  C4  UNL d   1       0.267  -5.784  -0.286  0.00  0.00     0.048 A 
ATOM      6  C5  UNL d   1      -0.742  -5.268  -1.102  0.00  0.00     0.003 A 
ATOM      7  I   UNL d   1       2.945  -5.814   1.121  0.00  0.00    -0.146 I 
ENDROOT
TORSDOF 0
ENDMDL
