MODEL 1
REMARK minimizedAffinity -1.83289051
REMARK minimizedRMSD -1
REMARK  0 active torsions:
REMARK  status: ('A' for Active; 'I' for Inactive)
ROOT
ATOM      1  C   UNL d   1      -0.053   1.639  -1.409  0.00  0.00     0.023 A 
ATOM      2  C1  UNL d   1       0.564   0.906  -2.423  0.00  0.00     0.003 A 
ATOM      3  C2  UNL d   1       0.840  -0.450  -2.237  0.00  0.00     0.048 A 
ATOM      4  C3  UNL d   1       0.496  -1.067  -1.034  0.00  0.00     0.023 A 
ATOM      5  C4  UNL d   1      -0.122  -0.337  -0.017  0.00  0.00     0.048 A 
ATOM      6  C5  UNL d   1      -0.395   1.019  -0.208  0.00  0.00     0.003 A 
ATOM      7  I   UNL d   1       0.905  -3.085  -0.755  0.00  0.00    -0.146 I 
ENDROOT
TORSDOF 0
ENDMDL
