MODEL 1
REMARK minimizedAffinity -3.83626795
REMARK minimizedRMSD -1
REMARK  0 active torsions:
REMARK  status: ('A' for Active; 'I' for Inactive)
ROOT
ATOM      1  C   UNL d   1      -0.852   2.907   1.526  0.00  0.00     0.023 A 
ATOM      2  C1  UNL d   1      -1.042   2.983   0.146  0.00  0.00     0.003 A 
ATOM      3  C2  UNL d   1      -0.668   1.915  -0.671  0.00  0.00     0.048 A 
ATOM      4  C3  UNL d   1      -0.107   0.772  -0.102  0.00  0.00     0.023 A 
ATOM      5  C4  UNL d   1       0.084   0.691   1.278  0.00  0.00     0.048 A 
ATOM      6  C5  UNL d   1      -0.290   1.762   2.091  0.00  0.00     0.003 A 
ATOM      7  I   UNL d   1       0.449  -0.820  -1.317  0.00  0.00    -0.146 I 
ENDROOT
TORSDOF 0
ENDMDL
