MODEL 1
REMARK minimizedAffinity -1.1424011
REMARK minimizedRMSD -1
REMARK  0 active torsions:
REMARK  status: ('A' for Active; 'I' for Inactive)
ROOT
ATOM      1  C   UNL d   1      -0.156   1.419   0.003  0.00  0.00     0.023 A 
ATOM      2  C1  UNL d   1       0.099   0.571   1.081  0.00  0.00     0.003 A 
ATOM      3  C2  UNL d   1       0.431  -0.766   0.856  0.00  0.00     0.048 A 
ATOM      4  C3  UNL d   1       0.508  -1.249  -0.449  0.00  0.00     0.023 A 
ATOM      5  C4  UNL d   1       0.254  -0.405  -1.531  0.00  0.00     0.048 A 
ATOM      6  C5  UNL d   1      -0.079   0.931  -1.302  0.00  0.00     0.003 A 
ATOM      7  I   UNL d   1       1.002  -3.240  -0.787  0.00  0.00    -0.146 I 
ENDROOT
TORSDOF 0
ENDMDL
