MODEL 1
REMARK minimizedAffinity -2.3598187
REMARK minimizedRMSD -1
REMARK  0 active torsions:
REMARK  status: ('A' for Active; 'I' for Inactive)
ROOT
ATOM      1  C   UNL d   1      -0.863   2.257   1.937  0.00  0.00     0.023 A 
ATOM      2  C1  UNL d   1       0.340   1.564   2.071  0.00  0.00     0.003 A 
ATOM      3  C2  UNL d   1       0.676   0.563   1.157  0.00  0.00     0.048 A 
ATOM      4  C3  UNL d   1      -0.195   0.262   0.111  0.00  0.00     0.023 A 
ATOM      5  C4  UNL d   1      -1.399   0.953  -0.028  0.00  0.00     0.048 A 
ATOM      6  C5  UNL d   1      -1.732   1.953   0.889  0.00  0.00     0.003 A 
ATOM      7  I   UNL d   1       0.303  -1.227  -1.251  0.00  0.00    -0.146 I 
ENDROOT
TORSDOF 0
ENDMDL
