MODEL 1
REMARK minimizedAffinity -3.73588586
REMARK minimizedRMSD -1
REMARK  0 active torsions:
REMARK  status: ('A' for Active; 'I' for Inactive)
ROOT
ATOM      1  C   UNL d   1       0.637  -0.877  -0.494  0.00  0.00     0.023 A 
ATOM      2  C1  UNL d   1      -0.109   0.019  -1.258  0.00  0.00     0.003 A 
ATOM      3  C2  UNL d   1      -0.687   1.139  -0.657  0.00  0.00     0.048 A 
ATOM      4  C3  UNL d   1      -0.514   1.357   0.710  0.00  0.00     0.023 A 
ATOM      5  C4  UNL d   1       0.232   0.462   1.479  0.00  0.00     0.048 A 
ATOM      6  C5  UNL d   1       0.808  -0.656   0.873  0.00  0.00     0.003 A 
ATOM      7  I   UNL d   1      -1.374   3.023   1.607  0.00  0.00    -0.146 I 
ENDROOT
TORSDOF 0
ENDMDL
