MODEL 1
REMARK minimizedAffinity 2.40775371
REMARK minimizedRMSD -1
REMARK  0 active torsions:
REMARK  status: ('A' for Active; 'I' for Inactive)
ROOT
ATOM      1  C   UNL d   1      -0.170   0.644   0.171  0.00  0.00     0.023 A 
ATOM      2  C1  UNL d   1      -1.298  -0.175   0.122  0.00  0.00     0.003 A 
ATOM      3  C2  UNL d   1      -1.152  -1.562   0.048  0.00  0.00     0.048 A 
ATOM      4  C3  UNL d   1       0.124  -2.123   0.023  0.00  0.00     0.023 A 
ATOM      5  C4  UNL d   1       1.256  -1.307   0.072  0.00  0.00     0.048 A 
ATOM      6  C5  UNL d   1       1.105   0.079   0.146  0.00  0.00     0.003 A 
ATOM      7  I   UNL d   1       0.344  -4.186  -0.088  0.00  0.00    -0.146 I 
ENDROOT
TORSDOF 0
ENDMDL
