MODEL 1
REMARK minimizedAffinity 5.67269611
REMARK minimizedRMSD -1
REMARK  0 active torsions:
REMARK  status: ('A' for Active; 'I' for Inactive)
ROOT
ATOM      1  C1  BNZ d   1      -0.033   2.557   1.010  0.00  0.00     0.000 A 
ATOM      2  C2  BNZ d   1      -0.788   1.693   1.758  0.00  0.00     0.000 A 
ATOM      3  C3  BNZ d   1      -0.430   1.380   3.040  0.00  0.00     0.000 A 
ATOM      4  C4  BNZ d   1       0.702   1.899   3.557  0.00  0.00     0.000 A 
ATOM      5  C5  BNZ d   1       1.479   2.764   2.813  0.00  0.00     0.000 A 
ATOM      6  C6  BNZ d   1       1.095   3.107   1.537  0.00  0.00     0.000 A 
ENDROOT
TORSDOF 0
ENDMDL
