MODEL 1
REMARK minimizedAffinity -1.29377365
REMARK minimizedRMSD -1
REMARK  0 active torsions:
REMARK  status: ('A' for Active; 'I' for Inactive)
ROOT
ATOM      1  C1  BNZ d   1       1.352   3.316   1.209  0.00  0.00     0.000 A 
ATOM      2  C2  BNZ d   1       1.001   4.302   0.326  0.00  0.00     0.000 A 
ATOM      3  C3  BNZ d   1       0.023   4.092  -0.606  0.00  0.00     0.000 A 
ATOM      4  C4  BNZ d   1      -0.573   2.884  -0.680  0.00  0.00     0.000 A 
ATOM      5  C5  BNZ d   1      -0.224   1.877   0.197  0.00  0.00     0.000 A 
ATOM      6  C6  BNZ d   1       0.733   2.105   1.159  0.00  0.00     0.000 A 
ENDROOT
TORSDOF 0
ENDMDL
