MODEL 1
REMARK minimizedAffinity 8.45852661
REMARK minimizedRMSD -1
REMARK  0 active torsions:
REMARK  status: ('A' for Active; 'I' for Inactive)
ROOT
ATOM      1  C1  BNZ d   1      -0.692   3.978  -1.548  0.00  0.00     0.000 A 
ATOM      2  C2  BNZ d   1      -0.841   2.755  -0.950  0.00  0.00     0.000 A 
ATOM      3  C3  BNZ d   1      -0.341   2.522   0.301  0.00  0.00     0.000 A 
ATOM      4  C4  BNZ d   1       0.341   3.498   0.935  0.00  0.00     0.000 A 
ATOM      5  C5  BNZ d   1       0.507   4.733   0.342  0.00  0.00     0.000 A 
ATOM      6  C6  BNZ d   1      -0.031   4.977  -0.901  0.00  0.00     0.000 A 
ENDROOT
TORSDOF 0
ENDMDL
