MODEL 1
REMARK minimizedAffinity 5.0725522
REMARK minimizedRMSD -1
REMARK  0 active torsions:
REMARK  status: ('A' for Active; 'I' for Inactive)
ROOT
ATOM      1  C1  BNZ d   1       0.733   0.324   3.066  0.00  0.00     0.000 A 
ATOM      2  C2  BNZ d   1       1.862   1.095   3.004  0.00  0.00     0.000 A 
ATOM      3  C3  BNZ d   1       1.781   2.435   2.747  0.00  0.00     0.000 A 
ATOM      4  C4  BNZ d   1       0.576   2.994   2.513  0.00  0.00     0.000 A 
ATOM      5  C5  BNZ d   1      -0.571   2.228   2.563  0.00  0.00     0.000 A 
ATOM      6  C6  BNZ d   1      -0.489   0.887   2.861  0.00  0.00     0.000 A 
ENDROOT
TORSDOF 0
ENDMDL
