MODEL 1
REMARK minimizedAffinity -1.37089801
REMARK minimizedRMSD -1
REMARK  0 active torsions:
REMARK  status: ('A' for Active; 'I' for Inactive)
ROOT
ATOM      1  C1  BNZ d   1      -0.949   2.220  -0.751  0.00  0.00     0.000 A 
ATOM      2  C2  BNZ d   1      -0.791   3.280  -1.605  0.00  0.00     0.000 A 
ATOM      3  C3  BNZ d   1      -0.579   4.541  -1.123  0.00  0.00     0.000 A 
ATOM      4  C4  BNZ d   1      -0.565   4.749   0.209  0.00  0.00     0.000 A 
ATOM      5  C5  BNZ d   1      -0.732   3.692   1.083  0.00  0.00     0.000 A 
ATOM      6  C6  BNZ d   1      -0.906   2.418   0.595  0.00  0.00     0.000 A 
ENDROOT
TORSDOF 0
ENDMDL
