MODEL 1
REMARK minimizedAffinity -0.379083872
REMARK minimizedRMSD -1
REMARK  0 active torsions:
REMARK  status: ('A' for Active; 'I' for Inactive)
ROOT
ATOM      1  C1  BNZ d   1      -3.900  -3.696   4.868  0.00  0.00     0.000 A 
ATOM      2  C2  BNZ d   1      -3.943  -2.327   4.869  0.00  0.00     0.000 A 
ATOM      3  C3  BNZ d   1      -4.983  -1.660   5.453  0.00  0.00     0.000 A 
ATOM      4  C4  BNZ d   1      -5.997  -2.361   5.999  0.00  0.00     0.000 A 
ATOM      5  C5  BNZ d   1      -5.973  -3.741   5.999  0.00  0.00     0.000 A 
ATOM      6  C6  BNZ d   1      -4.906  -4.409   5.444  0.00  0.00     0.000 A 
ENDROOT
TORSDOF 0
ENDMDL
