MODEL 1
REMARK minimizedAffinity 1.86996794
REMARK minimizedRMSD -1
REMARK  0 active torsions:
REMARK  status: ('A' for Active; 'I' for Inactive)
ROOT
ATOM      1  C1  BNZ d   1       0.998   1.391   1.133  0.00  0.00     0.000 A 
ATOM      2  C2  BNZ d   1       1.131   1.970  -0.101  0.00  0.00     0.000 A 
ATOM      3  C3  BNZ d   1       0.162   2.798  -0.593  0.00  0.00     0.000 A 
ATOM      4  C4  BNZ d   1      -0.955   3.015   0.131  0.00  0.00     0.000 A 
ATOM      5  C5  BNZ d   1      -1.108   2.432   1.373  0.00  0.00     0.000 A 
ATOM      6  C6  BNZ d   1      -0.113   1.629   1.881  0.00  0.00     0.000 A 
ENDROOT
TORSDOF 0
ENDMDL
