MODEL 1
REMARK minimizedAffinity 2.2659142
REMARK minimizedRMSD -1
REMARK  0 active torsions:
REMARK  status: ('A' for Active; 'I' for Inactive)
ROOT
ATOM      1  C1  BNZ d   1       0.020  -3.350  -5.229  0.00  0.00     0.000 A 
ATOM      2  C2  BNZ d   1       1.081  -3.797  -4.486  0.00  0.00     0.000 A 
ATOM      3  C3  BNZ d   1       1.450  -5.113  -4.515  0.00  0.00     0.000 A 
ATOM      4  C4  BNZ d   1       0.735  -5.986  -5.253  0.00  0.00     0.000 A 
ATOM      5  C5  BNZ d   1      -0.342  -5.553  -6.000  0.00  0.00     0.000 A 
ATOM      6  C6  BNZ d   1      -0.687  -4.221  -5.999  0.00  0.00     0.000 A 
ENDROOT
TORSDOF 0
ENDMDL
