MODEL 1
REMARK minimizedAffinity 6.57218266
REMARK minimizedRMSD -1
REMARK  0 active torsions:
REMARK  status: ('A' for Active; 'I' for Inactive)
ROOT
ATOM      1  C   UNL d   1       1.857  -2.627   5.998  0.00  0.00     0.078 C 
ATOM      2  C1  UNL d   1       1.931  -2.186   4.567  0.00  0.00    -0.077 A 
ATOM      3  C2  UNL d   1       1.409  -0.950   4.165  0.00  0.00    -0.001 A 
ATOM      4  C3  UNL d   1       1.476  -0.557   2.828  0.00  0.00     0.003 A 
ATOM      5  C4  UNL d   1       2.061  -1.395   1.880  0.00  0.00    -0.005 A 
ATOM      6  C5  UNL d   1       2.581  -2.628   2.270  0.00  0.00     0.003 A 
ATOM      7  C6  UNL d   1       2.515  -3.022   3.608  0.00  0.00    -0.001 A 
ENDROOT
TORSDOF 0
ENDMDL
