MODEL 1
REMARK minimizedAffinity 4.62696886
REMARK minimizedRMSD -1
REMARK  0 active torsions:
REMARK  status: ('A' for Active; 'I' for Inactive)
ROOT
ATOM      1  C   UNL d   1      -3.283   1.214  -2.812  0.00  0.00     0.078 C 
ATOM      2  C1  UNL d   1      -3.634   2.560  -3.373  0.00  0.00    -0.077 A 
ATOM      3  C2  UNL d   1      -3.195   2.948  -4.644  0.00  0.00    -0.001 A 
ATOM      4  C3  UNL d   1      -3.522   4.208  -5.149  0.00  0.00     0.003 A 
ATOM      5  C4  UNL d   1      -4.288   5.089  -4.389  0.00  0.00    -0.005 A 
ATOM      6  C5  UNL d   1      -4.728   4.712  -3.122  0.00  0.00     0.003 A 
ATOM      7  C6  UNL d   1      -4.402   3.453  -2.615  0.00  0.00    -0.001 A 
ENDROOT
TORSDOF 0
ENDMDL
