MODEL 1
REMARK minimizedAffinity 3.01005697
REMARK minimizedRMSD -1
REMARK  0 active torsions:
REMARK  status: ('A' for Active; 'I' for Inactive)
ROOT
ATOM      1  C   UNL d   1       1.359  -1.582   2.090  0.00  0.00     0.078 C 
ATOM      2  C1  UNL d   1       1.638  -2.137   3.454  0.00  0.00    -0.077 A 
ATOM      3  C2  UNL d   1       1.135  -1.514   4.603  0.00  0.00    -0.001 A 
ATOM      4  C3  UNL d   1       1.411  -2.036   5.868  0.00  0.00     0.003 A 
ATOM      5  C4  UNL d   1       2.190  -3.184   5.996  0.00  0.00    -0.005 A 
ATOM      6  C5  UNL d   1       2.697  -3.810   4.859  0.00  0.00     0.003 A 
ATOM      7  C6  UNL d   1       2.422  -3.289   3.593  0.00  0.00    -0.001 A 
ENDROOT
TORSDOF 0
ENDMDL
