MODEL 1
REMARK minimizedAffinity 8.50239563
REMARK minimizedRMSD -1
REMARK  0 active torsions:
REMARK  status: ('A' for Active; 'I' for Inactive)
ROOT
ATOM      1  C   UNL d   1       2.029  -4.662  -1.920  0.00  0.00     0.078 C 
ATOM      2  C1  UNL d   1       3.405  -4.501  -1.345  0.00  0.00    -0.077 A 
ATOM      3  C2  UNL d   1       4.516  -5.094  -1.956  0.00  0.00    -0.001 A 
ATOM      4  C3  UNL d   1       5.789  -4.944  -1.405  0.00  0.00     0.003 A 
ATOM      5  C4  UNL d   1       5.963  -4.201  -0.238  0.00  0.00    -0.005 A 
ATOM      6  C5  UNL d   1       4.863  -3.609   0.378  0.00  0.00     0.003 A 
ATOM      7  C6  UNL d   1       3.589  -3.758  -0.172  0.00  0.00    -0.001 A 
ENDROOT
TORSDOF 0
ENDMDL
