MODEL 1
REMARK minimizedAffinity 1.50926256
REMARK minimizedRMSD -1
REMARK  0 active torsions:
REMARK  status: ('A' for Active; 'I' for Inactive)
ROOT
ATOM      1  C   UNL d   1      -3.669   1.287  -3.115  0.00  0.00     0.078 C 
ATOM      2  C1  UNL d   1      -3.883   2.733  -3.448  0.00  0.00    -0.077 A 
ATOM      3  C2  UNL d   1      -3.359   3.288  -4.622  0.00  0.00    -0.001 A 
ATOM      4  C3  UNL d   1      -3.558   4.638  -4.915  0.00  0.00     0.003 A 
ATOM      5  C4  UNL d   1      -4.280   5.445  -4.038  0.00  0.00    -0.005 A 
ATOM      6  C5  UNL d   1      -4.803   4.903  -2.867  0.00  0.00     0.003 A 
ATOM      7  C6  UNL d   1      -4.605   3.553  -2.572  0.00  0.00    -0.001 A 
ENDROOT
TORSDOF 0
ENDMDL
