MODEL 1
REMARK minimizedAffinity 8.316329
REMARK minimizedRMSD -1
REMARK  0 active torsions:
REMARK  status: ('A' for Active; 'I' for Inactive)
ROOT
ATOM      1  C   UNL d   1       0.728  -1.981   3.560  0.00  0.00     0.078 C 
ATOM      2  C1  UNL d   1       1.457  -1.532   2.329  0.00  0.00    -0.077 A 
ATOM      3  C2  UNL d   1       2.249  -2.423   1.594  0.00  0.00    -0.001 A 
ATOM      4  C3  UNL d   1       2.929  -1.989   0.455  0.00  0.00     0.003 A 
ATOM      5  C4  UNL d   1       2.826  -0.662   0.042  0.00  0.00    -0.005 A 
ATOM      6  C5  UNL d   1       2.042   0.232   0.767  0.00  0.00     0.003 A 
ATOM      7  C6  UNL d   1       1.361  -0.200   1.906  0.00  0.00    -0.001 A 
ENDROOT
TORSDOF 0
ENDMDL
