MODEL 1
REMARK minimizedAffinity -0.973100603
REMARK minimizedRMSD -1
REMARK  0 active torsions:
REMARK  status: ('A' for Active; 'I' for Inactive)
ROOT
ATOM      1  C   UNL d   1      -3.642   1.154  -2.915  0.00  0.00     0.078 C 
ATOM      2  C1  UNL d   1      -3.826   2.597  -3.279  0.00  0.00    -0.077 A 
ATOM      3  C2  UNL d   1      -3.415   3.084  -4.526  0.00  0.00    -0.001 A 
ATOM      4  C3  UNL d   1      -3.584   4.431  -4.848  0.00  0.00     0.003 A 
ATOM      5  C4  UNL d   1      -4.162   5.303  -3.928  0.00  0.00    -0.005 A 
ATOM      6  C5  UNL d   1      -4.572   4.828  -2.684  0.00  0.00     0.003 A 
ATOM      7  C6  UNL d   1      -4.404   3.481  -2.360  0.00  0.00    -0.001 A 
ENDROOT
TORSDOF 0
ENDMDL
