MODEL 1
REMARK minimizedAffinity 13.3902683
REMARK minimizedRMSD -1
REMARK  0 active torsions:
REMARK  status: ('A' for Active; 'I' for Inactive)
ROOT
ATOM      1  C   UNL d   1       1.132  -1.255   2.304  0.00  0.00     0.078 C 
ATOM      2  C1  UNL d   1       1.444  -1.957   3.592  0.00  0.00    -0.077 A 
ATOM      3  C2  UNL d   1       0.899  -1.516   4.804  0.00  0.00    -0.001 A 
ATOM      4  C3  UNL d   1       1.205  -2.173   5.997  0.00  0.00     0.003 A 
ATOM      5  C4  UNL d   1       2.059  -3.274   5.989  0.00  0.00    -0.005 A 
ATOM      6  C5  UNL d   1       2.608  -3.719   4.789  0.00  0.00     0.003 A 
ATOM      7  C6  UNL d   1       2.303  -3.063   3.595  0.00  0.00    -0.001 A 
ENDROOT
TORSDOF 0
ENDMDL
