MODEL 1
REMARK minimizedAffinity -1.94829643
REMARK minimizedRMSD -1
REMARK  0 active torsions:
REMARK  status: ('A' for Active; 'I' for Inactive)
ROOT
ATOM      1  C   UNL d   1      -1.519   1.722   1.785  0.00  0.00     0.077 C 
ATOM      2  C1  UNL d   1      -0.728   1.360   0.563  0.00  0.00    -0.074 A 
ATOM      3  C2  UNL d   1      -0.380   2.331  -0.382  0.00  0.00    -0.005 A 
ATOM      4  C3  UNL d   1       0.363   1.981  -1.509  0.00  0.00     0.006 A 
ATOM      5  C4  UNL d   1       0.766   0.659  -1.702  0.00  0.00    -0.005 A 
ATOM      6  C5  UNL d   1       0.429  -0.325  -0.768  0.00  0.00    -0.074 A 
ATOM      7  C6  UNL d   1       0.862  -1.749  -0.955  0.00  0.00     0.077 C 
ATOM      8  C7  UNL d   1      -0.313   0.036   0.366  0.00  0.00    -0.001 A 
ENDROOT
TORSDOF 0
ENDMDL
