MODEL 1
REMARK minimizedAffinity 5.73508978
REMARK minimizedRMSD -1
REMARK  0 active torsions:
REMARK  status: ('A' for Active; 'I' for Inactive)
ROOT
ATOM      1  C   UNL d   1       1.081  -0.903   2.119  0.00  0.00     0.077 C 
ATOM      2  C1  UNL d   1       0.309  -0.611   0.866  0.00  0.00    -0.074 A 
ATOM      3  C2  UNL d   1      -0.325  -1.636   0.157  0.00  0.00    -0.005 A 
ATOM      4  C3  UNL d   1      -1.047  -1.348  -1.001  0.00  0.00     0.006 A 
ATOM      5  C4  UNL d   1      -1.142  -0.034  -1.461  0.00  0.00    -0.005 A 
ATOM      6  C5  UNL d   1      -0.515   1.004  -0.765  0.00  0.00    -0.074 A 
ATOM      7  C6  UNL d   1      -0.615   2.423  -1.241  0.00  0.00     0.077 C 
ATOM      8  C7  UNL d   1       0.203   0.707   0.401  0.00  0.00    -0.001 A 
ENDROOT
TORSDOF 0
ENDMDL
