MODEL 1
REMARK minimizedAffinity -5.61659384
REMARK minimizedRMSD -1
REMARK  0 active torsions:
REMARK  status: ('A' for Active; 'I' for Inactive)
ROOT
ATOM      1  C   UNL d   1      -0.258  -1.109   1.098  0.00  0.00     0.077 C 
ATOM      2  C1  UNL d   1      -0.748   0.291   0.877  0.00  0.00    -0.074 A 
ATOM      3  C2  UNL d   1      -1.761   0.832   1.675  0.00  0.00    -0.005 A 
ATOM      4  C3  UNL d   1      -2.200   2.139   1.464  0.00  0.00     0.006 A 
ATOM      5  C4  UNL d   1      -1.631   2.917   0.455  0.00  0.00    -0.005 A 
ATOM      6  C5  UNL d   1      -0.616   2.393  -0.352  0.00  0.00    -0.074 A 
ATOM      7  C6  UNL d   1       0.013   3.219  -1.435  0.00  0.00     0.077 C 
ATOM      8  C7  UNL d   1      -0.176   1.081  -0.130  0.00  0.00    -0.001 A 
ENDROOT
TORSDOF 0
ENDMDL
