MODEL 1
REMARK minimizedAffinity -4.88635588
REMARK minimizedRMSD -1
REMARK  0 active torsions:
REMARK  status: ('A' for Active; 'I' for Inactive)
ROOT
ATOM      1  C   UNL d   1      -1.662   2.181   1.426  0.00  0.00     0.077 C 
ATOM      2  C1  UNL d   1      -0.577   1.678   0.522  0.00  0.00    -0.074 A 
ATOM      3  C2  UNL d   1      -0.008   2.508  -0.449  0.00  0.00    -0.005 A 
ATOM      4  C3  UNL d   1       1.008   2.030  -1.277  0.00  0.00     0.006 A 
ATOM      5  C4  UNL d   1       1.465   0.718  -1.142  0.00  0.00    -0.005 A 
ATOM      6  C5  UNL d   1       0.908  -0.127  -0.176  0.00  0.00    -0.074 A 
ATOM      7  C6  UNL d   1       1.394  -1.536  -0.011  0.00  0.00     0.077 C 
ATOM      8  C7  UNL d   1      -0.107   0.364   0.657  0.00  0.00    -0.001 A 
ENDROOT
TORSDOF 0
ENDMDL
