MODEL 1
REMARK minimizedAffinity -1.97172451
REMARK minimizedRMSD -1
REMARK  0 active torsions:
REMARK  status: ('A' for Active; 'I' for Inactive)
ROOT
ATOM      1  C   UNL d   1       0.188  -2.293  -3.758  0.00  0.00     0.077 C 
ATOM      2  C1  UNL d   1       0.724  -2.275  -2.358  0.00  0.00    -0.074 A 
ATOM      3  C2  UNL d   1       0.897  -1.069  -1.670  0.00  0.00    -0.005 A 
ATOM      4  C3  UNL d   1       1.388  -1.068  -0.365  0.00  0.00     0.006 A 
ATOM      5  C4  UNL d   1       1.711  -2.270   0.266  0.00  0.00    -0.005 A 
ATOM      6  C5  UNL d   1       1.543  -3.485  -0.405  0.00  0.00    -0.074 A 
ATOM      7  C6  UNL d   1       1.876  -4.787   0.261  0.00  0.00     0.077 C 
ATOM      8  C7  UNL d   1       1.043  -3.479  -1.714  0.00  0.00    -0.001 A 
ENDROOT
TORSDOF 0
ENDMDL
