MODEL 1
REMARK minimizedAffinity -0.330599368
REMARK minimizedRMSD -1
REMARK  0 active torsions:
REMARK  status: ('A' for Active; 'I' for Inactive)
ROOT
ATOM      1  C   UNL d   1      -1.425  -3.354  -3.425  0.00  0.00     0.077 C 
ATOM      2  C1  UNL d   1      -0.288  -3.102  -2.480  0.00  0.00    -0.074 A 
ATOM      3  C2  UNL d   1       0.637  -4.108  -2.183  0.00  0.00    -0.005 A 
ATOM      4  C3  UNL d   1       1.695  -3.856  -1.310  0.00  0.00     0.006 A 
ATOM      5  C4  UNL d   1       1.837  -2.597  -0.724  0.00  0.00    -0.005 A 
ATOM      6  C5  UNL d   1       0.923  -1.578  -1.009  0.00  0.00    -0.074 A 
ATOM      7  C6  UNL d   1       1.067  -0.217  -0.396  0.00  0.00     0.077 C 
ATOM      8  C7  UNL d   1      -0.133  -1.838  -1.894  0.00  0.00    -0.001 A 
ENDROOT
TORSDOF 0
ENDMDL
