MODEL 1
REMARK minimizedAffinity -4.70880079
REMARK minimizedRMSD -1
REMARK  0 active torsions:
REMARK  status: ('A' for Active; 'I' for Inactive)
ROOT
ATOM      1  C   UNL d   1      -1.196  -0.032   3.526  0.00  0.00     0.077 C 
ATOM      2  C1  UNL d   1      -1.016   0.402   2.102  0.00  0.00    -0.074 A 
ATOM      3  C2  UNL d   1      -1.695   1.517   1.599  0.00  0.00    -0.005 A 
ATOM      4  C3  UNL d   1      -1.511   1.914   0.275  0.00  0.00     0.006 A 
ATOM      5  C4  UNL d   1      -0.646   1.204  -0.559  0.00  0.00    -0.005 A 
ATOM      6  C5  UNL d   1       0.043   0.087  -0.073  0.00  0.00    -0.074 A 
ATOM      7  C6  UNL d   1       0.983  -0.682  -0.952  0.00  0.00     0.077 C 
ATOM      8  C7  UNL d   1      -0.143  -0.302   1.261  0.00  0.00    -0.001 A 
ENDROOT
TORSDOF 0
ENDMDL
