MODEL 1
REMARK minimizedAffinity -1.75132275
REMARK minimizedRMSD -1
REMARK  0 active torsions:
REMARK  status: ('A' for Active; 'I' for Inactive)
ROOT
ATOM      1  C   UNL d   1      -1.881   2.411   2.227  0.00  0.00     0.077 C 
ATOM      2  C1  UNL d   1      -1.150   1.992   0.987  0.00  0.00    -0.074 A 
ATOM      3  C2  UNL d   1      -0.824   2.923  -0.005  0.00  0.00    -0.005 A 
ATOM      4  C3  UNL d   1      -0.135   2.520  -1.149  0.00  0.00     0.006 A 
ATOM      5  C4  UNL d   1       0.234   1.185  -1.313  0.00  0.00    -0.005 A 
ATOM      6  C5  UNL d   1      -0.082   0.240  -0.331  0.00  0.00    -0.074 A 
ATOM      7  C6  UNL d   1       0.317  -1.198  -0.487  0.00  0.00     0.077 C 
ATOM      8  C7  UNL d   1      -0.768   0.654   0.818  0.00  0.00    -0.001 A 
ENDROOT
TORSDOF 0
ENDMDL
