MODEL 1
REMARK minimizedAffinity -4.20401955
REMARK minimizedRMSD -1
REMARK  0 active torsions:
REMARK  status: ('A' for Active; 'I' for Inactive)
ROOT
ATOM      1  C   UNL d   1      -1.401  -1.003   3.622  0.00  0.00     0.077 C 
ATOM      2  C1  UNL d   1      -1.054  -0.209   2.398  0.00  0.00    -0.074 A 
ATOM      3  C2  UNL d   1      -1.536   1.093   2.226  0.00  0.00    -0.005 A 
ATOM      4  C3  UNL d   1      -1.197   1.824   1.087  0.00  0.00     0.006 A 
ATOM      5  C4  UNL d   1      -0.374   1.261   0.111  0.00  0.00    -0.005 A 
ATOM      6  C5  UNL d   1       0.117  -0.039   0.266  0.00  0.00    -0.074 A 
ATOM      7  C6  UNL d   1       1.010  -0.656  -0.770  0.00  0.00     0.077 C 
ATOM      8  C7  UNL d   1      -0.222  -0.764   1.416  0.00  0.00    -0.001 A 
ENDROOT
TORSDOF 0
ENDMDL
