MODEL 1
REMARK minimizedAffinity 1.13751554
REMARK minimizedRMSD -1
REMARK  0 active torsions:
REMARK  status: ('A' for Active; 'I' for Inactive)
ROOT
ATOM      1  C   UNL d   1      -1.434   1.399  -0.609  0.00  0.00     0.077 C 
ATOM      2  C1  UNL d   1      -0.656   0.118  -0.600  0.00  0.00    -0.074 A 
ATOM      3  C2  UNL d   1      -0.251  -0.469   0.604  0.00  0.00    -0.005 A 
ATOM      4  C3  UNL d   1       0.464  -1.666   0.597  0.00  0.00     0.006 A 
ATOM      5  C4  UNL d   1       0.782  -2.288  -0.611  0.00  0.00    -0.005 A 
ATOM      6  C5  UNL d   1       0.385  -1.717  -1.824  0.00  0.00    -0.074 A 
ATOM      7  C6  UNL d   1       0.710  -2.378  -3.131  0.00  0.00     0.077 C 
ATOM      8  C7  UNL d   1      -0.340  -0.518  -1.809  0.00  0.00    -0.001 A 
ENDROOT
TORSDOF 0
ENDMDL
