MODEL 1
REMARK minimizedAffinity -1.73370028
REMARK minimizedRMSD -1
REMARK  0 active torsions:
REMARK  status: ('A' for Active; 'I' for Inactive)
ROOT
ATOM      1  C   UNL d   1      -2.270   2.165   1.073  0.00  0.00     0.077 C 
ATOM      2  C1  UNL d   1      -1.272   1.615   0.098  0.00  0.00    -0.074 A 
ATOM      3  C2  UNL d   1      -0.882   2.353  -1.024  0.00  0.00    -0.005 A 
ATOM      4  C3  UNL d   1       0.055   1.833  -1.917  0.00  0.00     0.006 A 
ATOM      5  C4  UNL d   1       0.611   0.573  -1.698  0.00  0.00    -0.005 A 
ATOM      6  C5  UNL d   1       0.234  -0.179  -0.580  0.00  0.00    -0.074 A 
ATOM      7  C6  UNL d   1       0.830  -1.532  -0.324  0.00  0.00     0.077 C 
ATOM      8  C7  UNL d   1      -0.702   0.353   0.316  0.00  0.00    -0.001 A 
ENDROOT
TORSDOF 0
ENDMDL
