MODEL 1
REMARK minimizedAffinity -4.49400187
REMARK minimizedRMSD -1
REMARK  0 active torsions:
REMARK  status: ('A' for Active; 'I' for Inactive)
ROOT
ATOM      1  C   UNL d   1      -2.166   2.314   1.259  0.00  0.00     0.077 C 
ATOM      2  C1  UNL d   1      -1.187   1.178   1.241  0.00  0.00    -0.074 A 
ATOM      3  C2  UNL d   1      -0.756   0.582   2.431  0.00  0.00    -0.005 A 
ATOM      4  C3  UNL d   1       0.147  -0.480   2.399  0.00  0.00     0.006 A 
ATOM      5  C4  UNL d   1       0.629  -0.956   1.179  0.00  0.00    -0.005 A 
ATOM      6  C5  UNL d   1       0.209  -0.374  -0.021  0.00  0.00    -0.074 A 
ATOM      7  C6  UNL d   1       0.709  -0.880  -1.341  0.00  0.00     0.077 C 
ATOM      8  C7  UNL d   1      -0.705   0.689   0.019  0.00  0.00    -0.001 A 
ENDROOT
TORSDOF 0
ENDMDL
