MODEL 1
REMARK minimizedAffinity -3.25260425
REMARK minimizedRMSD -1
REMARK  0 active torsions:
REMARK  status: ('A' for Active; 'I' for Inactive)
ROOT
ATOM      1  C   UNL d   1       0.915  -0.179  -1.285  0.00  0.00     0.077 C 
ATOM      2  C1  UNL d   1       0.196   0.041   0.012  0.00  0.00    -0.074 A 
ATOM      3  C2  UNL d   1       0.429  -0.789   1.114  0.00  0.00    -0.005 A 
ATOM      4  C3  UNL d   1      -0.241  -0.566   2.317  0.00  0.00     0.006 A 
ATOM      5  C4  UNL d   1      -1.148   0.489   2.431  0.00  0.00    -0.005 A 
ATOM      6  C5  UNL d   1      -1.393   1.330   1.341  0.00  0.00    -0.074 A 
ATOM      7  C6  UNL d   1      -2.357   2.473   1.449  0.00  0.00     0.077 C 
ATOM      8  C7  UNL d   1      -0.711   1.103   0.137  0.00  0.00    -0.001 A 
ENDROOT
TORSDOF 0
ENDMDL
