MODEL 1
REMARK minimizedAffinity -2.81062341
REMARK minimizedRMSD -1
REMARK  0 active torsions:
REMARK  status: ('A' for Active; 'I' for Inactive)
ROOT
ATOM      1  C   UNL d   1      -1.900   2.239   1.362  0.00  0.00     0.077 C 
ATOM      2  C1  UNL d   1      -1.007   1.675   0.296  0.00  0.00    -0.074 A 
ATOM      3  C2  UNL d   1      -0.512   2.486  -0.730  0.00  0.00    -0.005 A 
ATOM      4  C3  UNL d   1       0.324   1.950  -1.709  0.00  0.00     0.006 A 
ATOM      5  C4  UNL d   1       0.674   0.600  -1.672  0.00  0.00    -0.005 A 
ATOM      6  C5  UNL d   1       0.189  -0.227  -0.653  0.00  0.00    -0.074 A 
ATOM      7  C6  UNL d   1       0.563  -1.678  -0.592  0.00  0.00     0.077 C 
ATOM      8  C7  UNL d   1      -0.645   0.321   0.331  0.00  0.00    -0.001 A 
ENDROOT
TORSDOF 0
ENDMDL
