MODEL 1
REMARK minimizedAffinity -3.63431525
REMARK minimizedRMSD -1
REMARK  0 active torsions:
REMARK  status: ('A' for Active; 'I' for Inactive)
ROOT
ATOM      1  C   UNL d   1      -1.076   3.721  -0.290  0.00  0.00     0.077 C 
ATOM      2  C1  UNL d   1      -0.654   2.292  -0.119  0.00  0.00    -0.074 A 
ATOM      3  C2  UNL d   1       0.134   1.655  -1.083  0.00  0.00    -0.005 A 
ATOM      4  C3  UNL d   1       0.527   0.328  -0.905  0.00  0.00     0.006 A 
ATOM      5  C4  UNL d   1       0.136  -0.374   0.235  0.00  0.00    -0.005 A 
ATOM      6  C5  UNL d   1      -0.651   0.247   1.210  0.00  0.00    -0.074 A 
ATOM      7  C6  UNL d   1      -1.072  -0.491   2.447  0.00  0.00     0.077 C 
ATOM      8  C7  UNL d   1      -1.036   1.582   1.028  0.00  0.00    -0.001 A 
ENDROOT
TORSDOF 0
ENDMDL
