MODEL 1
REMARK minimizedAffinity -4.53741312
REMARK minimizedRMSD -1
REMARK  0 active torsions:
REMARK  status: ('A' for Active; 'I' for Inactive)
ROOT
ATOM      1  C   UNL d   1       0.407  -1.618  -0.646  0.00  0.00     0.077 C 
ATOM      2  C1  UNL d   1       0.118  -0.156  -0.484  0.00  0.00    -0.074 A 
ATOM      3  C2  UNL d   1       0.692   0.790  -1.340  0.00  0.00    -0.005 A 
ATOM      4  C3  UNL d   1       0.406   2.146  -1.182  0.00  0.00     0.006 A 
ATOM      5  C4  UNL d   1      -0.455   2.570  -0.170  0.00  0.00    -0.005 A 
ATOM      6  C5  UNL d   1      -1.040   1.639   0.695  0.00  0.00    -0.074 A 
ATOM      7  C6  UNL d   1      -1.975   2.076   1.783  0.00  0.00     0.077 C 
ATOM      8  C7  UNL d   1      -0.753   0.277   0.526  0.00  0.00    -0.001 A 
ENDROOT
TORSDOF 0
ENDMDL
