MODEL 1
REMARK minimizedAffinity -3.43432474
REMARK minimizedRMSD -1
REMARK  1 active torsions:
REMARK  status: ('A' for Active; 'I' for Inactive)
REMARK    1  A    between atoms: N_2  and  C1_3 
ROOT
ATOM      1  C1  UNL d   1      -4.534   4.927   2.977  0.00  0.00     0.143 A 
ATOM      2  C2  UNL d   1      -3.479   4.554   3.817  0.00  0.00    -0.057 A 
ATOM      3  C3  UNL d   1      -3.669   3.639   4.859  0.00  0.00     0.033 A 
ATOM      4  C4  UNL d   1      -4.929   3.101   5.099  0.00  0.00    -0.042 A 
ATOM      5  C5  UNL d   1      -5.998   3.477   4.294  0.00  0.00     0.033 A 
ATOM      6  C6  UNL d   1      -5.800   4.386   3.250  0.00  0.00    -0.057 A 
ENDROOT
BRANCH   1   7
ATOM      7  N   UNL d   1      -4.431   5.907   1.986  0.00  0.00    -0.732 N 
ATOM      8  C   UNL d   1      -5.358   5.932   0.876  0.00  0.00     0.284 C 
ATOM      9  H3  UNL d   1      -4.215   6.825   2.369  0.00  0.00     0.395 HD
ENDBRANCH   1   7
TORSDOF 1
ENDMDL
