MODEL 1
REMARK minimizedAffinity -3.52335
REMARK minimizedRMSD -1
REMARK  1 active torsions:
REMARK  status: ('A' for Active; 'I' for Inactive)
REMARK    1  A    between atoms: N_2  and  C1_3 
ROOT
ATOM      1  C1  UNL d   1      -4.728   5.184   3.061  0.00  0.00     0.143 A 
ATOM      2  C2  UNL d   1      -5.613   5.622   4.052  0.00  0.00    -0.057 A 
ATOM      3  C3  UNL d   1      -5.999   4.782   5.103  0.00  0.00     0.033 A 
ATOM      4  C4  UNL d   1      -5.528   3.475   5.167  0.00  0.00    -0.042 A 
ATOM      5  C5  UNL d   1      -4.667   3.010   4.179  0.00  0.00     0.033 A 
ATOM      6  C6  UNL d   1      -4.280   3.856   3.135  0.00  0.00    -0.057 A 
ENDROOT
BRANCH   1   7
ATOM      7  N   UNL d   1      -4.383   5.938   1.937  0.00  0.00    -0.732 N 
ATOM      8  C   UNL d   1      -5.263   5.996   0.789  0.00  0.00     0.284 C 
ATOM      9  H3  UNL d   1      -3.961   6.831   2.182  0.00  0.00     0.395 HD
ENDBRANCH   1   7
TORSDOF 1
ENDMDL
