MODEL 1
REMARK minimizedAffinity 4.68254328
REMARK minimizedRMSD -1
REMARK  1 active torsions:
REMARK  status: ('A' for Active; 'I' for Inactive)
REMARK    1  A    between atoms: N_2  and  C1_3 
ROOT
ATOM      1  C1  UNL d   1      -5.450   4.609   2.405  0.00  0.00     0.143 A 
ATOM      2  C2  UNL d   1      -4.636   3.723   3.120  0.00  0.00    -0.057 A 
ATOM      3  C3  UNL d   1      -4.223   2.506   2.564  0.00  0.00     0.033 A 
ATOM      4  C4  UNL d   1      -4.642   2.140   1.289  0.00  0.00    -0.042 A 
ATOM      5  C5  UNL d   1      -5.471   2.993   0.570  0.00  0.00     0.033 A 
ATOM      6  C6  UNL d   1      -5.875   4.210   1.128  0.00  0.00    -0.057 A 
ENDROOT
BRANCH   1   7
ATOM      7  N   UNL d   1      -5.975   5.788   2.941  0.00  0.00    -0.732 N 
ATOM      8  C   UNL d   1      -6.000   6.000   4.372  0.00  0.00     0.284 C 
ATOM      9  H3  UNL d   1      -5.710   6.610   2.403  0.00  0.00     0.395 HD
ENDBRANCH   1   7
TORSDOF 1
ENDMDL
