MODEL 1
REMARK minimizedAffinity -3.63041902
REMARK minimizedRMSD -1
REMARK  1 active torsions:
REMARK  status: ('A' for Active; 'I' for Inactive)
REMARK    1  A    between atoms: N_2  and  C1_3 
ROOT
ATOM      1  C1  UNL d   1      -4.869   4.982   2.513  0.00  0.00     0.143 A 
ATOM      2  C2  UNL d   1      -5.178   3.648   2.224  0.00  0.00    -0.057 A 
ATOM      3  C3  UNL d   1      -5.111   2.657   3.211  0.00  0.00     0.033 A 
ATOM      4  C4  UNL d   1      -4.704   2.978   4.501  0.00  0.00    -0.042 A 
ATOM      5  C5  UNL d   1      -4.368   4.292   4.806  0.00  0.00     0.033 A 
ATOM      6  C6  UNL d   1      -4.443   5.279   3.818  0.00  0.00    -0.057 A 
ENDROOT
BRANCH   1   7
ATOM      7  N   UNL d   1      -4.821   5.995   1.553  0.00  0.00    -0.732 N 
ATOM      8  C   UNL d   1      -5.677   5.947   0.388  0.00  0.00     0.284 C 
ATOM      9  H3  UNL d   1      -4.735   6.920   1.968  0.00  0.00     0.395 HD
ENDBRANCH   1   7
TORSDOF 1
ENDMDL
