MODEL 1
REMARK minimizedAffinity -2.42825961
REMARK minimizedRMSD -1
REMARK  1 active torsions:
REMARK  status: ('A' for Active; 'I' for Inactive)
REMARK    1  A    between atoms: N_2  and  C1_3 
ROOT
ATOM      1  C1  UNL d   1      -4.906   3.554   3.415  0.00  0.00     0.143 A 
ATOM      2  C2  UNL d   1      -5.251   3.579   2.059  0.00  0.00    -0.057 A 
ATOM      3  C3  UNL d   1      -5.379   4.788   1.365  0.00  0.00     0.033 A 
ATOM      4  C4  UNL d   1      -5.193   5.999   2.024  0.00  0.00    -0.042 A 
ATOM      5  C5  UNL d   1      -4.875   5.999   3.377  0.00  0.00     0.033 A 
ATOM      6  C6  UNL d   1      -4.741   4.788   4.063  0.00  0.00    -0.057 A 
ENDROOT
BRANCH   1   7
ATOM      7  N   UNL d   1      -4.859   2.389   4.184  0.00  0.00    -0.732 N 
ATOM      8  C   UNL d   1      -5.801   2.180   5.262  0.00  0.00     0.284 C 
ATOM      9  H3  UNL d   1      -4.678   1.560   3.623  0.00  0.00     0.395 HD
ENDBRANCH   1   7
TORSDOF 1
ENDMDL
