MODEL 1
REMARK minimizedAffinity -3.43807459
REMARK minimizedRMSD -1
REMARK  1 active torsions:
REMARK  status: ('A' for Active; 'I' for Inactive)
REMARK    1  A    between atoms: N_2  and  C1_3 
ROOT
ATOM      1  C1  UNL d   1      -4.604   5.064   3.873  0.00  0.00     0.143 A 
ATOM      2  C2  UNL d   1      -5.182   5.402   5.102  0.00  0.00    -0.057 A 
ATOM      3  C3  UNL d   1      -5.611   4.415   5.998  0.00  0.00     0.033 A 
ATOM      4  C4  UNL d   1      -5.496   3.069   5.667  0.00  0.00    -0.042 A 
ATOM      5  C5  UNL d   1      -4.948   2.711   4.441  0.00  0.00     0.033 A 
ATOM      6  C6  UNL d   1      -4.515   3.700   3.553  0.00  0.00    -0.057 A 
ENDROOT
BRANCH   1   7
ATOM      7  N   UNL d   1      -4.249   5.999   2.898  0.00  0.00    -0.732 N 
ATOM      8  C   UNL d   1      -4.757   5.886   1.548  0.00  0.00     0.284 C 
ATOM      9  H3  UNL d   1      -4.235   6.950   3.258  0.00  0.00     0.395 HD
ENDBRANCH   1   7
TORSDOF 1
ENDMDL
