MODEL 1
REMARK minimizedAffinity -2.90981698
REMARK minimizedRMSD -1
REMARK  1 active torsions:
REMARK  status: ('A' for Active; 'I' for Inactive)
REMARK    1  A    between atoms: N_2  and  C1_3 
ROOT
ATOM      1  C1  UNL d   1      -5.282   5.214   3.441  0.00  0.00     0.143 A 
ATOM      2  C2  UNL d   1      -4.210   5.743   4.168  0.00  0.00    -0.057 A 
ATOM      3  C3  UNL d   1      -3.836   5.204   5.405  0.00  0.00     0.033 A 
ATOM      4  C4  UNL d   1      -4.549   4.142   5.952  0.00  0.00    -0.042 A 
ATOM      5  C5  UNL d   1      -5.633   3.617   5.259  0.00  0.00     0.033 A 
ATOM      6  C6  UNL d   1      -5.998   4.155   4.021  0.00  0.00    -0.057 A 
ENDROOT
BRANCH   1   7
ATOM      7  N   UNL d   1      -5.764   5.768   2.252  0.00  0.00    -0.732 N 
ATOM      8  C   UNL d   1      -4.876   6.000   1.134  0.00  0.00     0.284 C 
ATOM      9  H3  UNL d   1      -6.674   5.394   1.991  0.00  0.00     0.395 HD
ENDBRANCH   1   7
TORSDOF 1
ENDMDL
