MODEL 1
REMARK minimizedAffinity -3.20160246
REMARK minimizedRMSD -1
REMARK  1 active torsions:
REMARK  status: ('A' for Active; 'I' for Inactive)
REMARK    1  A    between atoms: N_2  and  C1_3 
ROOT
ATOM      1  C1  UNL d   1      -5.218   5.378   3.542  0.00  0.00     0.143 A 
ATOM      2  C2  UNL d   1      -5.669   5.969   4.728  0.00  0.00    -0.057 A 
ATOM      3  C3  UNL d   1      -5.634   5.275   5.944  0.00  0.00     0.033 A 
ATOM      4  C4  UNL d   1      -5.172   3.964   5.990  0.00  0.00    -0.042 A 
ATOM      5  C5  UNL d   1      -4.742   3.348   4.820  0.00  0.00     0.033 A 
ATOM      6  C6  UNL d   1      -4.774   4.049   3.610  0.00  0.00    -0.057 A 
ENDROOT
BRANCH   1   7
ATOM      7  N   UNL d   1      -5.319   5.981   2.286  0.00  0.00    -0.732 N 
ATOM      8  C   UNL d   1      -5.417   5.175   1.088  0.00  0.00     0.284 C 
ATOM      9  H3  UNL d   1      -5.932   6.793   2.293  0.00  0.00     0.395 HD
ENDBRANCH   1   7
TORSDOF 1
ENDMDL
