MODEL 1
REMARK minimizedAffinity -3.31181049
REMARK minimizedRMSD -1
REMARK  1 active torsions:
REMARK  status: ('A' for Active; 'I' for Inactive)
REMARK    1  A    between atoms: N_2  and  C1_3 
ROOT
ATOM      1  C1  UNL d   1      -4.582   5.214   3.583  0.00  0.00     0.143 A 
ATOM      2  C2  UNL d   1      -4.303   5.531   4.917  0.00  0.00    -0.057 A 
ATOM      3  C3  UNL d   1      -4.837   4.778   5.970  0.00  0.00     0.033 A 
ATOM      4  C4  UNL d   1      -5.686   3.709   5.707  0.00  0.00    -0.042 A 
ATOM      5  C5  UNL d   1      -5.998   3.391   4.390  0.00  0.00     0.033 A 
ATOM      6  C6  UNL d   1      -5.456   4.142   3.342  0.00  0.00    -0.057 A 
ENDROOT
BRANCH   1   7
ATOM      7  N   UNL d   1      -4.162   5.984   2.496  0.00  0.00    -0.732 N 
ATOM      8  C   UNL d   1      -4.923   5.999   1.265  0.00  0.00     0.284 C 
ATOM      9  H3  UNL d   1      -3.809   6.895   2.779  0.00  0.00     0.395 HD
ENDBRANCH   1   7
TORSDOF 1
ENDMDL
