MODEL 1
REMARK minimizedAffinity -3.33755302
REMARK minimizedRMSD -1
REMARK  1 active torsions:
REMARK  status: ('A' for Active; 'I' for Inactive)
REMARK    1  A    between atoms: N_2  and  C1_3 
ROOT
ATOM      1  C1  UNL d   1      -4.984   4.994   3.534  0.00  0.00     0.143 A 
ATOM      2  C2  UNL d   1      -5.275   5.281   4.872  0.00  0.00    -0.057 A 
ATOM      3  C3  UNL d   1      -5.750   4.291   5.741  0.00  0.00     0.033 A 
ATOM      4  C4  UNL d   1      -5.972   2.999   5.277  0.00  0.00    -0.042 A 
ATOM      5  C5  UNL d   1      -5.713   2.696   3.945  0.00  0.00     0.033 A 
ATOM      6  C6  UNL d   1      -5.232   3.687   3.084  0.00  0.00    -0.057 A 
ENDROOT
BRANCH   1   7
ATOM      7  N   UNL d   1      -4.603   5.957   2.597  0.00  0.00    -0.732 N 
ATOM      8  C   UNL d   1      -5.131   5.924   1.250  0.00  0.00     0.284 C 
ATOM      9  H3  UNL d   1      -4.548   6.890   2.999  0.00  0.00     0.395 HD
ENDBRANCH   1   7
TORSDOF 1
ENDMDL
