MODEL 1
REMARK minimizedAffinity -3.32069516
REMARK minimizedRMSD -1
REMARK  1 active torsions:
REMARK  status: ('A' for Active; 'I' for Inactive)
REMARK    1  A    between atoms: N_2  and  C1_3 
ROOT
ATOM      1  C1  UNL d   1      -4.901   5.014   2.559  0.00  0.00     0.143 A 
ATOM      2  C2  UNL d   1      -4.616   3.734   3.049  0.00  0.00    -0.057 A 
ATOM      3  C3  UNL d   1      -4.741   3.433   4.410  0.00  0.00     0.033 A 
ATOM      4  C4  UNL d   1      -5.126   4.418   5.314  0.00  0.00    -0.042 A 
ATOM      5  C5  UNL d   1      -5.390   5.703   4.854  0.00  0.00     0.033 A 
ATOM      6  C6  UNL d   1      -5.270   5.996   3.492  0.00  0.00    -0.057 A 
ENDROOT
BRANCH   1   7
ATOM      7  N   UNL d   1      -4.701   5.401   1.232  0.00  0.00    -0.732 N 
ATOM      8  C   UNL d   1      -5.815   5.825   0.412  0.00  0.00     0.284 C 
ATOM      9  H3  UNL d   1      -3.860   5.962   1.113  0.00  0.00     0.395 HD
ENDBRANCH   1   7
TORSDOF 1
ENDMDL
