MODEL 1
REMARK minimizedAffinity -3.34401965
REMARK minimizedRMSD -1
REMARK  1 active torsions:
REMARK  status: ('A' for Active; 'I' for Inactive)
REMARK    1  A    between atoms: N_2  and  C1_3 
ROOT
ATOM      1  C1  UNL d   1      -4.691   5.040   3.376  0.00  0.00     0.143 A 
ATOM      2  C2  UNL d   1      -5.828   5.012   4.191  0.00  0.00    -0.057 A 
ATOM      3  C3  UNL d   1      -6.000   4.019   5.163  0.00  0.00     0.033 A 
ATOM      4  C4  UNL d   1      -5.049   3.016   5.318  0.00  0.00    -0.042 A 
ATOM      5  C5  UNL d   1      -3.923   3.010   4.502  0.00  0.00     0.033 A 
ATOM      6  C6  UNL d   1      -3.753   4.008   3.537  0.00  0.00    -0.057 A 
ENDROOT
BRANCH   1   7
ATOM      7  N   UNL d   1      -4.509   5.943   2.326  0.00  0.00    -0.732 N 
ATOM      8  C   UNL d   1      -5.311   5.849   1.125  0.00  0.00     0.284 C 
ATOM      9  H3  UNL d   1      -4.361   6.895   2.653  0.00  0.00     0.395 HD
ENDBRANCH   1   7
TORSDOF 1
ENDMDL
