MODEL 1
REMARK minimizedAffinity -1.72873867
REMARK minimizedRMSD -1
REMARK  0 active torsions:
REMARK  status: ('A' for Active; 'I' for Inactive)
ROOT
ATOM      1  C   UNL d   1       1.049  -2.532   0.260  0.00  0.00    -0.002 A 
ATOM      2  C1  UNL d   1       1.854  -1.636  -0.430  0.00  0.00     0.010 A 
ATOM      3  C2  UNL d   1       1.411  -0.337  -0.689  0.00  0.00     0.041 A 
ATOM      4  C3  UNL d   1       0.134   0.050  -0.236  0.00  0.00    -0.075 A 
ATOM      5  S   UNL d   1      -0.617   1.589  -0.437  0.00  0.00     0.015 SA
ATOM      6  C4  UNL d   1      -2.023   1.094   0.388  0.00  0.00     0.022 A 
ATOM      7  C5  UNL d   1      -1.939  -0.211   0.814  0.00  0.00     0.026 A 
ATOM      8  C6  UNL d   1      -0.694  -0.834   0.461  0.00  0.00    -0.082 A 
ATOM      9  C7  UNL d   1      -0.217  -2.144   0.707  0.00  0.00     0.045 A 
ENDROOT
TORSDOF 0
ENDMDL
