MODEL 1
REMARK minimizedAffinity -5.39475727
REMARK minimizedRMSD -1
REMARK  0 active torsions:
REMARK  status: ('A' for Active; 'I' for Inactive)
ROOT
ATOM      1  C   UNL d   1       3.683  -0.735   0.642  0.00  0.00    -0.002 A 
ATOM      2  C1  UNL d   1       3.577   0.648   0.621  0.00  0.00     0.010 A 
ATOM      3  C2  UNL d   1       2.420   1.265   0.141  0.00  0.00     0.041 A 
ATOM      4  C3  UNL d   1       1.361   0.460  -0.322  0.00  0.00    -0.075 A 
ATOM      5  S   UNL d   1      -0.152   0.995  -0.953  0.00  0.00     0.015 SA
ATOM      6  C4  UNL d   1      -0.694  -0.600  -1.210  0.00  0.00     0.022 A 
ATOM      7  C5  UNL d   1       0.244  -1.531  -0.829  0.00  0.00     0.026 A 
ATOM      8  C6  UNL d   1       1.443  -0.935  -0.310  0.00  0.00    -0.082 A 
ATOM      9  C7  UNL d   1       2.629  -1.530   0.183  0.00  0.00     0.045 A 
ENDROOT
TORSDOF 0
ENDMDL
