MODEL 1
REMARK minimizedAffinity -1.72943997
REMARK minimizedRMSD -1
REMARK  0 active torsions:
REMARK  status: ('A' for Active; 'I' for Inactive)
ROOT
ATOM      1  C   UNL d   1       1.556  -2.008   0.011  0.00  0.00    -0.002 A 
ATOM      2  C1  UNL d   1       2.342  -0.947  -0.416  0.00  0.00     0.010 A 
ATOM      3  C2  UNL d   1       1.783   0.318  -0.611  0.00  0.00     0.041 A 
ATOM      4  C3  UNL d   1       0.408   0.500  -0.366  0.00  0.00    -0.075 A 
ATOM      5  S   UNL d   1      -0.494   1.960  -0.537  0.00  0.00     0.015 SA
ATOM      6  C4  UNL d   1      -1.944   1.209  -0.047  0.00  0.00     0.022 A 
ATOM      7  C5  UNL d   1      -1.762  -0.122   0.244  0.00  0.00     0.026 A 
ATOM      8  C6  UNL d   1      -0.404  -0.553   0.065  0.00  0.00    -0.082 A 
ATOM      9  C7  UNL d   1       0.192  -1.823   0.252  0.00  0.00     0.045 A 
ENDROOT
TORSDOF 0
ENDMDL
