MODEL 1
REMARK minimizedAffinity -1.04913294
REMARK minimizedRMSD -1
REMARK  0 active torsions:
REMARK  status: ('A' for Active; 'I' for Inactive)
ROOT
ATOM      1  C   UNL d   1       2.634  -1.891   0.544  0.00  0.00    -0.002 A 
ATOM      2  C1  UNL d   1       3.295  -0.676   0.424  0.00  0.00     0.010 A 
ATOM      3  C2  UNL d   1       2.583   0.496   0.161  0.00  0.00     0.041 A 
ATOM      4  C3  UNL d   1       1.183   0.427   0.021  0.00  0.00    -0.075 A 
ATOM      5  S   UNL d   1       0.105   1.733  -0.302  0.00  0.00     0.015 SA
ATOM      6  C4  UNL d   1      -1.258   0.710  -0.287  0.00  0.00     0.022 A 
ATOM      7  C5  UNL d   1      -0.917  -0.600  -0.044  0.00  0.00     0.026 A 
ATOM      8  C6  UNL d   1       0.496  -0.784   0.139  0.00  0.00    -0.082 A 
ATOM      9  C7  UNL d   1       1.245  -1.955   0.405  0.00  0.00     0.045 A 
ENDROOT
TORSDOF 0
ENDMDL
