MODEL 1
REMARK minimizedAffinity -2.98077035
REMARK minimizedRMSD -1
REMARK  1 active torsions:
REMARK  status: ('A' for Active; 'I' for Inactive)
REMARK    1  A    between atoms: C1_2  and  C2_3 
ROOT
ATOM      1  C2  UNL d   1      -4.636  -4.601  -3.262  0.00  0.00    -0.077 A 
ATOM      2  C3  UNL d   1      -5.199  -4.617  -1.978  0.00  0.00     0.002 A 
ATOM      3  C4  UNL d   1      -5.246  -3.449  -1.213  0.00  0.00     0.002 A 
ATOM      4  C5  UNL d   1      -4.738  -2.258  -1.725  0.00  0.00    -0.004 A 
ATOM      5  C6  UNL d   1      -4.175  -2.232  -3.001  0.00  0.00     0.002 A 
ATOM      6  C7  UNL d   1      -4.125  -3.398  -3.766  0.00  0.00     0.002 A 
ENDROOT
BRANCH   1   7
ATOM      7  C1  UNL d   1      -4.629  -5.847  -4.108  0.00  0.00     0.055 C 
ATOM      8  C   UNL d   1      -5.930  -6.000  -4.881  0.00  0.00     0.019 C 
ENDBRANCH   1   7
TORSDOF 1
ENDMDL
