MODEL 1
REMARK minimizedAffinity 3.6792376
REMARK minimizedRMSD -1
REMARK  1 active torsions:
REMARK  status: ('A' for Active; 'I' for Inactive)
REMARK    1  A    between atoms: C1_2  and  C2_3 
ROOT
ATOM      1  C2  UNL d   1       3.207  -3.146   3.498  0.00  0.00    -0.077 A 
ATOM      2  C3  UNL d   1       3.868  -3.211   4.733  0.00  0.00     0.002 A 
ATOM      3  C4  UNL d   1       5.258  -3.325   4.785  0.00  0.00     0.002 A 
ATOM      4  C5  UNL d   1       6.000  -3.370   3.607  0.00  0.00    -0.004 A 
ATOM      5  C6  UNL d   1       5.352  -3.308   2.374  0.00  0.00     0.002 A 
ATOM      6  C7  UNL d   1       3.962  -3.196   2.320  0.00  0.00     0.002 A 
ENDROOT
BRANCH   1   7
ATOM      7  C1  UNL d   1       1.712  -2.973   3.440  0.00  0.00     0.055 C 
ATOM      8  C   UNL d   1       1.287  -2.246   2.173  0.00  0.00     0.019 C 
ENDBRANCH   1   7
TORSDOF 1
ENDMDL
