MODEL 1
REMARK minimizedAffinity -2.10392666
REMARK minimizedRMSD -1
REMARK  1 active torsions:
REMARK  status: ('A' for Active; 'I' for Inactive)
REMARK    1  A    between atoms: C1_2  and  C2_3 
ROOT
ATOM      1  C2  UNL d   1      -5.221  -4.041  -3.372  0.00  0.00    -0.077 A 
ATOM      2  C3  UNL d   1      -4.537  -3.407  -4.419  0.00  0.00     0.002 A 
ATOM      3  C4  UNL d   1      -4.570  -3.940  -5.709  0.00  0.00     0.002 A 
ATOM      4  C5  UNL d   1      -5.287  -5.107  -5.964  0.00  0.00    -0.004 A 
ATOM      5  C6  UNL d   1      -5.968  -5.746  -4.929  0.00  0.00     0.002 A 
ATOM      6  C7  UNL d   1      -5.936  -5.215  -3.639  0.00  0.00     0.002 A 
ENDROOT
BRANCH   1   7
ATOM      7  C1  UNL d   1      -5.228  -3.440  -1.990  0.00  0.00     0.055 C 
ATOM      8  C   UNL d   1      -6.000  -2.130  -1.960  0.00  0.00     0.019 C 
ENDBRANCH   1   7
TORSDOF 1
ENDMDL
