MODEL 1
REMARK minimizedAffinity -1.97069097
REMARK minimizedRMSD -1
REMARK  1 active torsions:
REMARK  status: ('A' for Active; 'I' for Inactive)
REMARK    1  A    between atoms: C1_2  and  C2_3 
ROOT
ATOM      1  C2  UNL d   1      -5.198  -4.952  -3.581  0.00  0.00    -0.077 A 
ATOM      2  C3  UNL d   1      -3.921  -5.529  -3.621  0.00  0.00     0.002 A 
ATOM      3  C4  UNL d   1      -3.396  -6.000  -4.826  0.00  0.00     0.002 A 
ATOM      4  C5  UNL d   1      -4.139  -5.895  -6.000  0.00  0.00    -0.004 A 
ATOM      5  C6  UNL d   1      -5.411  -5.325  -5.970  0.00  0.00     0.002 A 
ATOM      6  C7  UNL d   1      -5.938  -4.854  -4.766  0.00  0.00     0.002 A 
ENDROOT
BRANCH   1   7
ATOM      7  C1  UNL d   1      -5.746  -4.399  -2.291  0.00  0.00     0.055 C 
ATOM      8  C   UNL d   1      -5.637  -2.881  -2.249  0.00  0.00     0.019 C 
ENDBRANCH   1   7
TORSDOF 1
ENDMDL
