MODEL 1
REMARK minimizedAffinity 10.2420311
REMARK minimizedRMSD -1
REMARK  1 active torsions:
REMARK  status: ('A' for Active; 'I' for Inactive)
REMARK    1  A    between atoms: C1_2  and  C2_3 
ROOT
ATOM      1  C2  UNL d   1       3.655  -3.521   3.884  0.00  0.00    -0.077 A 
ATOM      2  C3  UNL d   1       3.668  -3.635   5.281  0.00  0.00     0.002 A 
ATOM      3  C4  UNL d   1       4.837  -3.378   6.000  0.00  0.00     0.002 A 
ATOM      4  C5  UNL d   1       6.000  -3.002   5.331  0.00  0.00    -0.004 A 
ATOM      5  C6  UNL d   1       5.998  -2.887   3.941  0.00  0.00     0.002 A 
ATOM      6  C7  UNL d   1       4.831  -3.145   3.221  0.00  0.00     0.002 A 
ENDROOT
BRANCH   1   7
ATOM      7  C1  UNL d   1       2.383  -3.749   3.111  0.00  0.00     0.055 C 
ATOM      8  C   UNL d   1       1.752  -2.433   2.682  0.00  0.00     0.019 C 
ENDBRANCH   1   7
TORSDOF 1
ENDMDL
