MODEL 1
REMARK minimizedAffinity 6.22266865
REMARK minimizedRMSD -1
REMARK  1 active torsions:
REMARK  status: ('A' for Active; 'I' for Inactive)
REMARK    1  A    between atoms: C1_2  and  C2_3 
ROOT
ATOM      1  C2  UNL d   1       4.030   4.250  -4.092  0.00  0.00    -0.077 A 
ATOM      2  C3  UNL d   1       4.159   4.452  -5.473  0.00  0.00     0.002 A 
ATOM      3  C4  UNL d   1       5.128   5.325  -5.972  0.00  0.00     0.002 A 
ATOM      4  C5  UNL d   1       5.977   5.999  -5.097  0.00  0.00    -0.004 A 
ATOM      5  C6  UNL d   1       5.855   5.806  -3.722  0.00  0.00     0.002 A 
ATOM      6  C7  UNL d   1       4.887   4.935  -3.221  0.00  0.00     0.002 A 
ENDROOT
BRANCH   1   7
ATOM      7  C1  UNL d   1       3.019   3.271  -3.555  0.00  0.00     0.055 C 
ATOM      8  C   UNL d   1       2.997   1.990  -4.377  0.00  0.00     0.019 C 
ENDBRANCH   1   7
TORSDOF 1
ENDMDL
