MODEL 1
REMARK minimizedAffinity 8.46300411
REMARK minimizedRMSD -1
REMARK  1 active torsions:
REMARK  status: ('A' for Active; 'I' for Inactive)
REMARK    1  A    between atoms: C1_2  and  C2_3 
ROOT
ATOM      1  C2  UNL d   1      -5.353   3.048  -1.652  0.00  0.00    -0.077 A 
ATOM      2  C3  UNL d   1      -4.075   2.484  -1.530  0.00  0.00     0.002 A 
ATOM      3  C4  UNL d   1      -3.458   1.889  -2.632  0.00  0.00     0.002 A 
ATOM      4  C5  UNL d   1      -4.109   1.856  -3.864  0.00  0.00    -0.004 A 
ATOM      5  C6  UNL d   1      -5.381   2.412  -3.995  0.00  0.00     0.002 A 
ATOM      6  C7  UNL d   1      -6.000   3.006  -2.894  0.00  0.00     0.002 A 
ENDROOT
BRANCH   1   7
ATOM      7  C1  UNL d   1      -6.000   3.734  -0.477  0.00  0.00     0.055 C 
ATOM      8  C   UNL d   1      -5.640   3.047   0.832  0.00  0.00     0.019 C 
ENDBRANCH   1   7
TORSDOF 1
ENDMDL
