MODEL 1
REMARK minimizedAffinity -5.05876112
REMARK minimizedRMSD -1
REMARK  2 active torsions:
REMARK  status: ('A' for Active; 'I' for Inactive)
REMARK    1  A    between atoms: C2'_3  and  C1'_4 
REMARK    2  A    between atoms: C1'_4  and  C1_5 
ROOT
ATOM      1  C1  I4B d   1       1.350   2.392  -0.999  0.00  0.00    -0.075 A 
ATOM      2  C2  I4B d   1       0.694   1.319  -1.550  0.00  0.00     0.003 A 
ATOM      3  C3  I4B d   1       0.541   0.121  -0.811  0.00  0.00     0.002 A 
ATOM      4  C4  I4B d   1       1.099   0.023   0.447  0.00  0.00    -0.004 A 
ATOM      5  C5  I4B d   1       1.743   1.119   1.013  0.00  0.00     0.002 A 
ATOM      6  C6  I4B d   1       1.859   2.315   0.291  0.00  0.00     0.003 A 
ENDROOT
BRANCH   1   7
ATOM      7  C1' I4B d   1       1.523   3.630  -1.820  0.00  0.00     0.060 C 
BRANCH   7   8
ATOM      8  C2' I4B d   1       2.557   4.502  -1.137  0.00  0.00    -0.013 C 
ATOM      9  C4' I4B d   1       3.741   4.748  -2.035  0.00  0.00     0.013 C 
ATOM     10  C3' I4B d   1       1.894   5.790  -0.751  0.00  0.00     0.013 C 
ENDBRANCH   7   8
ENDBRANCH   1   7
TORSDOF 2
ENDMDL
