MODEL 1
REMARK minimizedAffinity -2.29134059
REMARK minimizedRMSD -1
REMARK  2 active torsions:
REMARK  status: ('A' for Active; 'I' for Inactive)
REMARK    1  A    between atoms: C2'_3  and  C1'_4 
REMARK    2  A    between atoms: C1'_4  and  C1_5 
ROOT
ATOM      1  C1  I4B d   1       1.322   1.810  -0.125  0.00  0.00    -0.075 A 
ATOM      2  C2  I4B d   1       0.631   1.254  -1.173  0.00  0.00     0.003 A 
ATOM      3  C3  I4B d   1       0.666  -0.146  -1.386  0.00  0.00     0.002 A 
ATOM      4  C4  I4B d   1       1.439  -0.940  -0.564  0.00  0.00    -0.004 A 
ATOM      5  C5  I4B d   1       2.119  -0.377   0.512  0.00  0.00     0.002 A 
ATOM      6  C6  I4B d   1       2.051   1.005   0.741  0.00  0.00     0.003 A 
ENDROOT
BRANCH   1   7
ATOM      7  C1' I4B d   1       1.290   3.295   0.052  0.00  0.00     0.060 C 
BRANCH   7   8
ATOM      8  C2' I4B d   1       1.850   3.927  -1.206  0.00  0.00    -0.013 C 
ATOM      9  C4' I4B d   1       1.079   3.493  -2.425  0.00  0.00     0.013 C 
ATOM     10  C3' I4B d   1       1.802   5.416  -1.037  0.00  0.00     0.013 C 
ENDBRANCH   7   8
ENDBRANCH   1   7
TORSDOF 2
ENDMDL
