MODEL 1
REMARK minimizedAffinity -1.94042349
REMARK minimizedRMSD -1
REMARK  2 active torsions:
REMARK  status: ('A' for Active; 'I' for Inactive)
REMARK    1  A    between atoms: C2'_3  and  C1'_4 
REMARK    2  A    between atoms: C1'_4  and  C1_5 
ROOT
ATOM      1  C1  I4B d   1       1.096   2.352   0.244  0.00  0.00    -0.075 A 
ATOM      2  C2  I4B d   1       0.548   1.883  -0.924  0.00  0.00     0.003 A 
ATOM      3  C3  I4B d   1       0.584   0.500  -1.223  0.00  0.00     0.002 A 
ATOM      4  C4  I4B d   1       1.219  -0.367  -0.356  0.00  0.00    -0.004 A 
ATOM      5  C5  I4B d   1       1.753   0.108   0.838  0.00  0.00     0.002 A 
ATOM      6  C6  I4B d   1       1.681   1.474   1.146  0.00  0.00     0.003 A 
ENDROOT
BRANCH   1   7
ATOM      7  C1' I4B d   1       1.069   3.824   0.513  0.00  0.00     0.060 C 
BRANCH   7   8
ATOM      8  C2' I4B d   1       1.338   4.542  -0.794  0.00  0.00    -0.013 C 
ATOM      9  C4' I4B d   1       1.702   5.984  -0.558  0.00  0.00     0.013 C 
ATOM     10  C3' I4B d   1       2.440   3.814  -1.503  0.00  0.00     0.013 C 
ENDBRANCH   7   8
ENDBRANCH   1   7
TORSDOF 2
ENDMDL
