MODEL 1
REMARK minimizedAffinity 0.465118021
REMARK minimizedRMSD -1
REMARK  2 active torsions:
REMARK  status: ('A' for Active; 'I' for Inactive)
REMARK    1  A    between atoms: C2'_3  and  C1'_4 
REMARK    2  A    between atoms: C1'_4  and  C1_5 
ROOT
ATOM      1  C1  I4B d   1       1.049   1.171  -0.065  0.00  0.00    -0.075 A 
ATOM      2  C2  I4B d   1       1.409   0.067  -0.797  0.00  0.00     0.003 A 
ATOM      3  C3  I4B d   1       2.416  -0.807  -0.320  0.00  0.00     0.002 A 
ATOM      4  C4  I4B d   1       3.067  -0.513   0.860  0.00  0.00    -0.004 A 
ATOM      5  C5  I4B d   1       2.685   0.594   1.612  0.00  0.00     0.002 A 
ATOM      6  C6  I4B d   1       1.661   1.435   1.153  0.00  0.00     0.003 A 
ENDROOT
BRANCH   1   7
ATOM      7  C1' I4B d   1       0.004   2.090  -0.614  0.00  0.00     0.060 C 
BRANCH   7   8
ATOM      8  C2' I4B d   1       0.683   3.047  -1.573  0.00  0.00    -0.013 C 
ATOM      9  C4' I4B d   1       1.124   4.303  -0.869  0.00  0.00     0.013 C 
ATOM     10  C3' I4B d   1       1.848   2.334  -2.191  0.00  0.00     0.013 C 
ENDBRANCH   7   8
ENDBRANCH   1   7
TORSDOF 2
ENDMDL
