MODEL 1
REMARK minimizedAffinity -1.91620576
REMARK minimizedRMSD -1
REMARK  2 active torsions:
REMARK  status: ('A' for Active; 'I' for Inactive)
REMARK    1  A    between atoms: C2'_3  and  C1'_4 
REMARK    2  A    between atoms: C1'_4  and  C1_5 
ROOT
ATOM      1  C1  I4B d   1       1.364   1.801  -0.468  0.00  0.00    -0.075 A 
ATOM      2  C2  I4B d   1       1.317   1.025   0.663  0.00  0.00     0.003 A 
ATOM      3  C3  I4B d   1       1.286  -0.387   0.557  0.00  0.00     0.002 A 
ATOM      4  C4  I4B d   1       1.254  -0.975  -0.691  0.00  0.00    -0.004 A 
ATOM      5  C5  I4B d   1       1.325  -0.186  -1.836  0.00  0.00     0.002 A 
ATOM      6  C6  I4B d   1       1.394   1.210  -1.724  0.00  0.00     0.003 A 
ENDROOT
BRANCH   1   7
ATOM      7  C1' I4B d   1       1.363   3.290  -0.321  0.00  0.00     0.060 C 
BRANCH   7   8
ATOM      8  C2' I4B d   1       1.865   3.888  -1.619  0.00  0.00    -0.013 C 
ATOM      9  C4' I4B d   1       0.978   3.507  -2.775  0.00  0.00     0.013 C 
ATOM     10  C3' I4B d   1       1.925   5.377  -1.450  0.00  0.00     0.013 C 
ENDBRANCH   7   8
ENDBRANCH   1   7
TORSDOF 2
ENDMDL
