MODEL 1
REMARK minimizedAffinity -1.3515991
REMARK minimizedRMSD -1
REMARK  2 active torsions:
REMARK  status: ('A' for Active; 'I' for Inactive)
REMARK    1  A    between atoms: C2'_3  and  C1'_4 
REMARK    2  A    between atoms: C1'_4  and  C1_5 
ROOT
ATOM      1  C1  I4B d   1       1.316   2.684  -1.181  0.00  0.00    -0.075 A 
ATOM      2  C2  I4B d   1       1.496   2.567   0.175  0.00  0.00     0.003 A 
ATOM      3  C3  I4B d   1       1.305   1.318   0.813  0.00  0.00     0.002 A 
ATOM      4  C4  I4B d   1       0.889   0.231   0.071  0.00  0.00    -0.004 A 
ATOM      5  C5  I4B d   1       0.729   0.347  -1.306  0.00  0.00     0.002 A 
ATOM      6  C6  I4B d   1       0.956   1.577  -1.939  0.00  0.00     0.003 A 
ENDROOT
BRANCH   1   7
ATOM      7  C1' I4B d   1       1.494   4.026  -1.818  0.00  0.00     0.060 C 
BRANCH   7   8
ATOM      8  C2' I4B d   1       2.529   4.789  -1.017  0.00  0.00    -0.013 C 
ATOM      9  C4' I4B d   1       3.018   5.998  -1.771  0.00  0.00     0.013 C 
ATOM     10  C3' I4B d   1       1.906   5.181   0.290  0.00  0.00     0.013 C 
ENDBRANCH   7   8
ENDBRANCH   1   7
TORSDOF 2
ENDMDL
