MODEL 1
REMARK minimizedAffinity -0.152983353
REMARK minimizedRMSD -1
REMARK  2 active torsions:
REMARK  status: ('A' for Active; 'I' for Inactive)
REMARK    1  A    between atoms: C2'_3  and  C1'_4 
REMARK    2  A    between atoms: C1'_4  and  C1_5 
ROOT
ATOM      1  C1  I4B d   1       1.127   2.441  -1.269  0.00  0.00    -0.075 A 
ATOM      2  C2  I4B d   1       0.703   1.434  -2.100  0.00  0.00     0.003 A 
ATOM      3  C3  I4B d   1       0.592   0.109  -1.615  0.00  0.00     0.002 A 
ATOM      4  C4  I4B d   1       0.960  -0.173  -0.315  0.00  0.00    -0.004 A 
ATOM      5  C5  I4B d   1       1.367   0.853   0.533  0.00  0.00     0.002 A 
ATOM      6  C6  I4B d   1       1.440   2.170   0.057  0.00  0.00     0.003 A 
ENDROOT
BRANCH   1   7
ATOM      7  C1' I4B d   1       1.265   3.823  -1.823  0.00  0.00     0.060 C 
BRANCH   7   8
ATOM      8  C2' I4B d   1       2.198   4.599  -0.916  0.00  0.00    -0.013 C 
ATOM      9  C4' I4B d   1       2.415   5.999  -1.426  0.00  0.00     0.013 C 
ATOM     10  C3' I4B d   1       1.602   4.611   0.460  0.00  0.00     0.013 C 
ENDBRANCH   7   8
ENDBRANCH   1   7
TORSDOF 2
ENDMDL
