MODEL 1
REMARK minimizedAffinity 3.09634447
REMARK minimizedRMSD -1
REMARK  2 active torsions:
REMARK  status: ('A' for Active; 'I' for Inactive)
REMARK    1  A    between atoms: C2'_3  and  C1'_4 
REMARK    2  A    between atoms: C1'_4  and  C1_5 
ROOT
ATOM      1  C1  I4B d   1       1.789   2.513  -0.667  0.00  0.00    -0.075 A 
ATOM      2  C2  I4B d   1       2.136   3.402  -1.653  0.00  0.00     0.003 A 
ATOM      3  C3  I4B d   1       2.115   4.795  -1.397  0.00  0.00     0.002 A 
ATOM      4  C4  I4B d   1       1.694   5.253  -0.165  0.00  0.00    -0.004 A 
ATOM      5  C5  I4B d   1       1.365   4.349   0.841  0.00  0.00     0.002 A 
ATOM      6  C6  I4B d   1       1.424   2.970   0.593  0.00  0.00     0.003 A 
ENDROOT
BRANCH   1   7
ATOM      7  C1' I4B d   1       1.791   1.050  -0.982  0.00  0.00     0.060 C 
BRANCH   7   8
ATOM      8  C2' I4B d   1       0.765   0.806  -2.070  0.00  0.00    -0.013 C 
ATOM      9  C4' I4B d   1       1.024   1.678  -3.270  0.00  0.00     0.013 C 
ATOM     10  C3' I4B d   1       0.815  -0.648  -2.436  0.00  0.00     0.013 C 
ENDBRANCH   7   8
ENDBRANCH   1   7
TORSDOF 2
ENDMDL
