MODEL 1
REMARK minimizedAffinity -0.615773201
REMARK minimizedRMSD -1
REMARK  2 active torsions:
REMARK  status: ('A' for Active; 'I' for Inactive)
REMARK    1  A    between atoms: C2'_3  and  C1'_4 
REMARK    2  A    between atoms: C1'_4  and  C1_5 
ROOT
ATOM      1  C1  I4B d   1       1.205   2.778  -1.212  0.00  0.00    -0.075 A 
ATOM      2  C2  I4B d   1       1.199   1.649  -1.992  0.00  0.00     0.003 A 
ATOM      3  C3  I4B d   1       1.130   0.368  -1.393  0.00  0.00     0.002 A 
ATOM      4  C4  I4B d   1       1.119   0.261  -0.017  0.00  0.00    -0.004 A 
ATOM      5  C5  I4B d   1       1.102   1.407   0.772  0.00  0.00     0.002 A 
ATOM      6  C6  I4B d   1       1.133   2.674   0.171  0.00  0.00     0.003 A 
ENDROOT
BRANCH   1   7
ATOM      7  C1' I4B d   1       1.312   4.113  -1.877  0.00  0.00     0.060 C 
BRANCH   7   8
ATOM      8  C2' I4B d   1       2.297   4.951  -1.086  0.00  0.00    -0.013 C 
ATOM      9  C4' I4B d   1       2.942   5.999  -1.954  0.00  0.00     0.013 C 
ATOM     10  C3' I4B d   1       1.557   5.576   0.059  0.00  0.00     0.013 C 
ENDBRANCH   7   8
ENDBRANCH   1   7
TORSDOF 2
ENDMDL
