MODEL 1
REMARK minimizedAffinity -4.41028166
REMARK minimizedRMSD -1
REMARK  2 active torsions:
REMARK  status: ('A' for Active; 'I' for Inactive)
REMARK    1  A    between atoms: C2'_3  and  C1'_4 
REMARK    2  A    between atoms: C1'_4  and  C1_5 
ROOT
ATOM      1  C1  I4B d   1       0.702   1.398  -0.702  0.00  0.00    -0.075 A 
ATOM      2  C2  I4B d   1       0.405   1.360   0.637  0.00  0.00     0.003 A 
ATOM      3  C3  I4B d   1       0.578   2.515   1.438  0.00  0.00     0.002 A 
ATOM      4  C4  I4B d   1       1.095   3.663   0.873  0.00  0.00    -0.004 A 
ATOM      5  C5  I4B d   1       1.374   3.706  -0.490  0.00  0.00     0.002 A 
ATOM      6  C6  I4B d   1       1.165   2.570  -1.285  0.00  0.00     0.003 A 
ENDROOT
BRANCH   1   7
ATOM      7  C1' I4B d   1       0.538   0.150  -1.512  0.00  0.00     0.060 C 
BRANCH   7   8
ATOM      8  C2' I4B d   1       1.774  -0.702  -1.311  0.00  0.00    -0.013 C 
ATOM      9  C4' I4B d   1       2.165  -0.763   0.142  0.00  0.00     0.013 C 
ATOM     10  C3' I4B d   1       1.486  -2.070  -1.853  0.00  0.00     0.013 C 
ENDBRANCH   7   8
ENDBRANCH   1   7
TORSDOF 2
ENDMDL
