MODEL 1
REMARK minimizedAffinity -4.42100143
REMARK minimizedRMSD -1
REMARK  0 active torsions:
REMARK  status: ('A' for Active; 'I' for Inactive)
ROOT
ATOM      1  C   UNL d   1      -3.330  -2.307   0.751  0.00  0.00    -0.002 A 
ATOM      2  C1  UNL d   1      -2.226  -2.721   1.484  0.00  0.00     0.010 A 
ATOM      3  C2  UNL d   1      -0.978  -2.129   1.282  0.00  0.00     0.041 A 
ATOM      4  C3  UNL d   1      -0.856  -1.104   0.323  0.00  0.00    -0.075 A 
ATOM      5  S   UNL d   1       0.574  -0.235  -0.093  0.00  0.00     0.015 SA
ATOM      6  C4  UNL d   1      -0.247   0.706  -1.253  0.00  0.00     0.022 A 
ATOM      7  C5  UNL d   1      -1.580   0.378  -1.334  0.00  0.00     0.026 A 
ATOM      8  C6  UNL d   1      -1.953  -0.670  -0.426  0.00  0.00    -0.082 A 
ATOM      9  C7  UNL d   1      -3.205  -1.290  -0.199  0.00  0.00     0.045 A 
ENDROOT
TORSDOF 0
ENDMDL
