MODEL 1
REMARK minimizedAffinity -3.29384089
REMARK minimizedRMSD -1
REMARK  0 active torsions:
REMARK  status: ('A' for Active; 'I' for Inactive)
ROOT
ATOM      1  C   UNL d   1      -2.652  -0.180  -1.393  0.00  0.00    -0.002 A 
ATOM      2  C1  UNL d   1      -2.989  -1.025  -0.345  0.00  0.00     0.010 A 
ATOM      3  C2  UNL d   1      -2.040  -1.378   0.617  0.00  0.00     0.041 A 
ATOM      4  C3  UNL d   1      -0.734  -0.860   0.508  0.00  0.00    -0.075 A 
ATOM      5  S   UNL d   1       0.592  -1.154   1.569  0.00  0.00     0.015 SA
ATOM      6  C4  UNL d   1       1.638  -0.164   0.657  0.00  0.00     0.022 A 
ATOM      7  C5  UNL d   1       1.007   0.385  -0.434  0.00  0.00     0.026 A 
ATOM      8  C6  UNL d   1      -0.371  -0.007  -0.538  0.00  0.00    -0.082 A 
ATOM      9  C7  UNL d   1      -1.355   0.331  -1.498  0.00  0.00     0.045 A 
ENDROOT
TORSDOF 0
ENDMDL
