MODEL 1
REMARK minimizedAffinity -5.41621828
REMARK minimizedRMSD -1
REMARK  0 active torsions:
REMARK  status: ('A' for Active; 'I' for Inactive)
ROOT
ATOM      1  C   UNL d   1      -3.284  -1.826   0.139  0.00  0.00    -0.002 A 
ATOM      2  C1  UNL d   1      -2.512  -2.368   1.157  0.00  0.00     0.010 A 
ATOM      3  C2  UNL d   1      -1.174  -1.996   1.309  0.00  0.00     0.041 A 
ATOM      4  C3  UNL d   1      -0.621  -1.060   0.414  0.00  0.00    -0.075 A 
ATOM      5  S   UNL d   1       0.993  -0.455   0.408  0.00  0.00     0.015 SA
ATOM      6  C4  UNL d   1       0.696   0.538  -0.945  0.00  0.00     0.022 A 
ATOM      7  C5  UNL d   1      -0.599   0.423  -1.395  0.00  0.00     0.026 A 
ATOM      8  C6  UNL d   1      -1.379  -0.500  -0.619  0.00  0.00    -0.082 A 
ATOM      9  C7  UNL d   1      -2.732  -0.898  -0.747  0.00  0.00     0.045 A 
ENDROOT
TORSDOF 0
ENDMDL
