MODEL 1
REMARK minimizedAffinity -4.20857477
REMARK minimizedRMSD -1
REMARK  0 active torsions:
REMARK  status: ('A' for Active; 'I' for Inactive)
ROOT
ATOM      1  C   UNL d   1      -3.155  -2.228   0.376  0.00  0.00    -0.002 A 
ATOM      2  C1  UNL d   1      -2.232  -2.564   1.356  0.00  0.00     0.010 A 
ATOM      3  C2  UNL d   1      -0.989  -1.931   1.408  0.00  0.00     0.041 A 
ATOM      4  C3  UNL d   1      -0.687  -0.943   0.450  0.00  0.00    -0.075 A 
ATOM      5  S   UNL d   1       0.772  -0.034   0.319  0.00  0.00     0.015 SA
ATOM      6  C4  UNL d   1       0.204   0.823  -1.041  0.00  0.00     0.022 A 
ATOM      7  C5  UNL d   1      -1.066   0.437  -1.400  0.00  0.00     0.026 A 
ATOM      8  C6  UNL d   1      -1.601  -0.587  -0.546  0.00  0.00    -0.082 A 
ATOM      9  C7  UNL d   1      -2.852  -1.248  -0.573  0.00  0.00     0.045 A 
ENDROOT
TORSDOF 0
ENDMDL
