MODEL 1
REMARK minimizedAffinity -4.58954191
REMARK minimizedRMSD -1
REMARK  0 active torsions:
REMARK  status: ('A' for Active; 'I' for Inactive)
ROOT
ATOM      1  C   UNL d   1      -3.077  -1.945   0.044  0.00  0.00    -0.002 A 
ATOM      2  C1  UNL d   1      -2.372  -2.615   1.033  0.00  0.00     0.010 A 
ATOM      3  C2  UNL d   1      -1.033  -2.308   1.284  0.00  0.00     0.041 A 
ATOM      4  C3  UNL d   1      -0.409  -1.305   0.518  0.00  0.00    -0.075 A 
ATOM      5  S   UNL d   1       1.221  -0.760   0.649  0.00  0.00     0.015 SA
ATOM      6  C4  UNL d   1       1.021   0.377  -0.605  0.00  0.00     0.022 A 
ATOM      7  C5  UNL d   1      -0.252   0.354  -1.123  0.00  0.00     0.026 A 
ATOM      8  C6  UNL d   1      -1.098  -0.615  -0.484  0.00  0.00    -0.082 A 
ATOM      9  C7  UNL d   1      -2.454  -0.950  -0.715  0.00  0.00     0.045 A 
ENDROOT
TORSDOF 0
ENDMDL
