MODEL 1
REMARK minimizedAffinity -4.03952217
REMARK minimizedRMSD -1
REMARK  0 active torsions:
REMARK  status: ('A' for Active; 'I' for Inactive)
ROOT
ATOM      1  C   UNL d   1      -3.123  -1.885   0.003  0.00  0.00    -0.002 A 
ATOM      2  C1  UNL d   1      -2.445  -2.355   1.119  0.00  0.00     0.010 A 
ATOM      3  C2  UNL d   1      -1.152  -1.911   1.404  0.00  0.00     0.041 A 
ATOM      4  C3  UNL d   1      -0.548  -0.975   0.542  0.00  0.00    -0.075 A 
ATOM      5  S   UNL d   1       1.027  -0.289   0.692  0.00  0.00     0.015 SA
ATOM      6  C4  UNL d   1       0.836   0.646  -0.720  0.00  0.00     0.022 A 
ATOM      7  C5  UNL d   1      -0.393   0.451  -1.305  0.00  0.00     0.026 A 
ATOM      8  C6  UNL d   1      -1.211  -0.486  -0.587  0.00  0.00    -0.082 A 
ATOM      9  C7  UNL d   1      -2.520  -0.957  -0.850  0.00  0.00     0.045 A 
ENDROOT
TORSDOF 0
ENDMDL
