MODEL 1
REMARK minimizedAffinity -0.769946575
REMARK minimizedRMSD -1
REMARK  0 active torsions:
REMARK  status: ('A' for Active; 'I' for Inactive)
ROOT
ATOM      1  C   UNL d   1       1.936  -0.154   0.839  0.00  0.00    -0.002 A 
ATOM      2  C1  UNL d   1       1.034  -0.785   1.684  0.00  0.00     0.010 A 
ATOM      3  C2  UNL d   1      -0.296  -0.962   1.298  0.00  0.00     0.041 A 
ATOM      4  C3  UNL d   1      -0.708  -0.490   0.036  0.00  0.00    -0.075 A 
ATOM      5  S   UNL d   1      -2.287  -0.596  -0.649  0.00  0.00     0.015 SA
ATOM      6  C4  UNL d   1      -1.801   0.194  -2.079  0.00  0.00     0.022 A 
ATOM      7  C5  UNL d   1      -0.470   0.537  -2.051  0.00  0.00     0.026 A 
ATOM      8  C6  UNL d   1       0.182   0.148  -0.832  0.00  0.00    -0.082 A 
ATOM      9  C7  UNL d   1       1.524   0.313  -0.412  0.00  0.00     0.045 A 
ENDROOT
TORSDOF 0
ENDMDL
