MODEL 1
REMARK minimizedAffinity 6.87876844
REMARK minimizedRMSD -1
REMARK  0 active torsions:
REMARK  status: ('A' for Active; 'I' for Inactive)
ROOT
ATOM      1  C   UNL d   1       2.300  -5.612  -2.606  0.00  0.00     0.023 A 
ATOM      2  C1  UNL d   1       0.987  -5.291  -2.263  0.00  0.00     0.003 A 
ATOM      3  C2  UNL d   1      -0.015  -5.310  -3.235  0.00  0.00     0.048 A 
ATOM      4  C3  UNL d   1       0.303  -5.654  -4.549  0.00  0.00     0.023 A 
ATOM      5  C4  UNL d   1       1.615  -5.978  -4.897  0.00  0.00     0.048 A 
ATOM      6  C5  UNL d   1       2.614  -5.956  -3.921  0.00  0.00     0.003 A 
ATOM      7  I   UNL d   1      -1.187  -5.685  -5.998  0.00  0.00    -0.146 I 
ENDROOT
TORSDOF 0
ENDMDL
