MODEL 1
REMARK minimizedAffinity 2.19161344
REMARK minimizedRMSD -1
REMARK  0 active torsions:
REMARK  status: ('A' for Active; 'I' for Inactive)
ROOT
ATOM      1  C   UNL d   1      -2.303   0.569  -0.935  0.00  0.00     0.023 A 
ATOM      2  C1  UNL d   1      -2.450  -0.759  -0.535  0.00  0.00     0.003 A 
ATOM      3  C2  UNL d   1      -1.888  -1.193   0.668  0.00  0.00     0.048 A 
ATOM      4  C3  UNL d   1      -1.181  -0.294   1.465  0.00  0.00     0.023 A 
ATOM      5  C4  UNL d   1      -1.032   1.036   1.069  0.00  0.00     0.048 A 
ATOM      6  C5  UNL d   1      -1.595   1.465  -0.135  0.00  0.00     0.003 A 
ATOM      7  I   UNL d   1      -0.344  -0.938   3.255  0.00  0.00    -0.146 I 
ENDROOT
TORSDOF 0
ENDMDL
