MODEL 1
REMARK minimizedAffinity -3.68683028
REMARK minimizedRMSD -1
REMARK  0 active torsions:
REMARK  status: ('A' for Active; 'I' for Inactive)
ROOT
ATOM      1  C   UNL d   1       0.207  -2.834   3.999  0.00  0.00     0.023 A 
ATOM      2  C1  UNL d   1       1.175  -1.963   3.501  0.00  0.00     0.003 A 
ATOM      3  C2  UNL d   1       0.799  -0.885   2.696  0.00  0.00     0.048 A 
ATOM      4  C3  UNL d   1      -0.547  -0.684   2.395  0.00  0.00     0.023 A 
ATOM      5  C4  UNL d   1      -1.520  -1.553   2.892  0.00  0.00     0.048 A 
ATOM      6  C5  UNL d   1      -1.139  -2.630   3.695  0.00  0.00     0.003 A 
ATOM      7  I   UNL d   1      -1.110   0.919   1.198  0.00  0.00    -0.146 I 
ENDROOT
TORSDOF 0
ENDMDL
