MODEL 1
REMARK minimizedAffinity -2.30489802
REMARK minimizedRMSD -1
REMARK  0 active torsions:
REMARK  status: ('A' for Active; 'I' for Inactive)
ROOT
ATOM      1  C   UNL d   1      -0.040  -1.126   2.253  0.00  0.00     0.023 A 
ATOM      2  C1  UNL d   1       1.267  -0.641   2.205  0.00  0.00     0.003 A 
ATOM      3  C2  UNL d   1       2.133  -0.855   3.279  0.00  0.00     0.048 A 
ATOM      4  C3  UNL d   1       1.686  -1.556   4.398  0.00  0.00     0.023 A 
ATOM      5  C4  UNL d   1       0.379  -2.044   4.451  0.00  0.00     0.048 A 
ATOM      6  C5  UNL d   1      -0.483  -1.827   3.375  0.00  0.00     0.003 A 
ATOM      7  I   UNL d   1       2.973  -1.876   5.999  0.00  0.00    -0.146 I 
ENDROOT
TORSDOF 0
ENDMDL
