MODEL 1
REMARK minimizedAffinity -0.433026105
REMARK minimizedRMSD -1
REMARK  0 active torsions:
REMARK  status: ('A' for Active; 'I' for Inactive)
ROOT
ATOM      1  C   UNL d   1      -1.322  -1.521   3.835  0.00  0.00     0.023 A 
ATOM      2  C1  UNL d   1      -0.097  -1.928   4.364  0.00  0.00     0.003 A 
ATOM      3  C2  UNL d   1       1.091  -1.610   3.703  0.00  0.00     0.048 A 
ATOM      4  C3  UNL d   1       1.047  -0.883   2.514  0.00  0.00     0.023 A 
ATOM      5  C4  UNL d   1      -0.177  -0.472   1.982  0.00  0.00     0.048 A 
ATOM      6  C5  UNL d   1      -1.362  -0.794   2.646  0.00  0.00     0.003 A 
ATOM      7  I   UNL d   1       2.813  -0.407   1.528  0.00  0.00    -0.146 I 
ENDROOT
TORSDOF 0
ENDMDL
