MODEL 1
REMARK minimizedAffinity 7.43674469
REMARK minimizedRMSD -1
REMARK  0 active torsions:
REMARK  status: ('A' for Active; 'I' for Inactive)
ROOT
ATOM      1  C   UNL d   1       0.624  -0.329   1.870  0.00  0.00     0.023 A 
ATOM      2  C1  UNL d   1       1.843  -0.981   1.683  0.00  0.00     0.003 A 
ATOM      3  C2  UNL d   1       2.558  -1.457   2.784  0.00  0.00     0.048 A 
ATOM      4  C3  UNL d   1       2.048  -1.279   4.070  0.00  0.00     0.023 A 
ATOM      5  C4  UNL d   1       0.828  -0.628   4.262  0.00  0.00     0.048 A 
ATOM      6  C5  UNL d   1       0.117  -0.153   3.158  0.00  0.00     0.003 A 
ATOM      7  I   UNL d   1       3.110  -1.987   5.710  0.00  0.00    -0.146 I 
ENDROOT
TORSDOF 0
ENDMDL
