MODEL 1
REMARK minimizedAffinity 2.39209652
REMARK minimizedRMSD -1
REMARK  0 active torsions:
REMARK  status: ('A' for Active; 'I' for Inactive)
ROOT
ATOM      1  C   UNL d   1      -1.022  -1.368   2.609  0.00  0.00     0.023 A 
ATOM      2  C1  UNL d   1      -1.181  -2.449   3.476  0.00  0.00     0.003 A 
ATOM      3  C2  UNL d   1      -0.170  -2.774   4.383  0.00  0.00     0.048 A 
ATOM      4  C3  UNL d   1       0.998  -2.013   4.417  0.00  0.00     0.023 A 
ATOM      5  C4  UNL d   1       1.162  -0.930   3.552  0.00  0.00     0.048 A 
ATOM      6  C5  UNL d   1       0.148  -0.610   2.647  0.00  0.00     0.003 A 
ATOM      7  I   UNL d   1       2.505  -2.495   5.765  0.00  0.00    -0.146 I 
ENDROOT
TORSDOF 0
ENDMDL
