MODEL 1
REMARK minimizedAffinity 2.25962448
REMARK minimizedRMSD -1
REMARK  0 active torsions:
REMARK  status: ('A' for Active; 'I' for Inactive)
ROOT
ATOM      1  C   UNL d   1      -0.294   0.049   0.945  0.00  0.00     0.023 A 
ATOM      2  C1  UNL d   1       1.084  -0.168   0.993  0.00  0.00     0.003 A 
ATOM      3  C2  UNL d   1       1.649  -0.834   2.082  0.00  0.00     0.048 A 
ATOM      4  C3  UNL d   1       0.832  -1.283   3.118  0.00  0.00     0.023 A 
ATOM      5  C4  UNL d   1      -0.547  -1.070   3.074  0.00  0.00     0.048 A 
ATOM      6  C5  UNL d   1      -1.108  -0.402   1.984  0.00  0.00     0.003 A 
ATOM      7  I   UNL d   1       1.671  -2.275   4.740  0.00  0.00    -0.146 I 
ENDROOT
TORSDOF 0
ENDMDL
