MODEL 1
REMARK minimizedAffinity -3.72801495
REMARK minimizedRMSD -1
REMARK  0 active torsions:
REMARK  status: ('A' for Active; 'I' for Inactive)
ROOT
ATOM      1  C4' PXY d   1       2.329   0.007  -2.015  0.00  0.00     0.077 C 
ATOM      2  C1' PXY d   1      -1.810  -0.205   2.015  0.00  0.00     0.077 C 
ATOM      3  C1  PXY d   1      -0.719  -0.160   0.964  0.00  0.00    -0.082 A 
ATOM      4  C2  PXY d   1      -0.469   0.974   0.329  0.00  0.00     0.003 A 
ATOM      5  C3  PXY d   1       0.493   1.025  -0.647  0.00  0.00     0.003 A 
ATOM      6  C4  PXY d   1       1.243  -0.083  -0.939  0.00  0.00    -0.082 A 
ATOM      7  C5  PXY d   1       1.001  -1.240  -0.288  0.00  0.00     0.003 A 
ATOM      8  C6  PXY d   1      -0.007  -1.282   0.670  0.00  0.00     0.003 A 
ENDROOT
TORSDOF 0
ENDMDL
