MODEL 1
REMARK minimizedAffinity -1.87989509
REMARK minimizedRMSD -1
REMARK  0 active torsions:
REMARK  status: ('A' for Active; 'I' for Inactive)
ROOT
ATOM      1  C4' PXY d   1      -2.147   0.227   2.376  0.00  0.00     0.077 C 
ATOM      2  C1' PXY d   1       1.996   0.027  -1.651  0.00  0.00     0.077 C 
ATOM      3  C1  PXY d   1       0.910   0.067  -0.594  0.00  0.00    -0.082 A 
ATOM      4  C2  PXY d   1       0.088   1.102  -0.539  0.00  0.00     0.003 A 
ATOM      5  C3  PXY d   1      -0.880   1.169   0.430  0.00  0.00     0.003 A 
ATOM      6  C4  PXY d   1      -1.041   0.141   1.320  0.00  0.00    -0.082 A 
ATOM      7  C5  PXY d   1      -0.213  -0.924   1.264  0.00  0.00     0.003 A 
ATOM      8  C6  PXY d   1       0.789  -0.954   0.298  0.00  0.00     0.003 A 
ENDROOT
TORSDOF 0
ENDMDL
