MODEL 1
REMARK minimizedAffinity -3.07824039
REMARK minimizedRMSD -1
REMARK  0 active torsions:
REMARK  status: ('A' for Active; 'I' for Inactive)
ROOT
ATOM      1  C4' PXY d   1      -1.989   0.568   2.333  0.00  0.00     0.077 C 
ATOM      2  C1' PXY d   1       1.873   0.798  -1.962  0.00  0.00     0.077 C 
ATOM      3  C1  PXY d   1       0.855   0.727  -0.841  0.00  0.00    -0.082 A 
ATOM      4  C2  PXY d   1       0.539   1.825  -0.174  0.00  0.00     0.003 A 
ATOM      5  C3  PXY d   1      -0.356   1.773   0.864  0.00  0.00     0.003 A 
ATOM      6  C4  PXY d   1      -0.973   0.595   1.188  0.00  0.00    -0.082 A 
ATOM      7  C5  PXY d   1      -0.664  -0.528   0.505  0.00  0.00     0.003 A 
ATOM      8  C6  PXY d   1       0.278  -0.462  -0.518  0.00  0.00     0.003 A 
ENDROOT
TORSDOF 0
ENDMDL
