MODEL 1
REMARK minimizedAffinity -3.29362011
REMARK minimizedRMSD -1
REMARK  0 active torsions:
REMARK  status: ('A' for Active; 'I' for Inactive)
ROOT
ATOM      1  C4' PXY d   1      -2.372   0.026   2.343  0.00  0.00     0.077 C 
ATOM      2  C1' PXY d   1       1.445   1.415  -1.770  0.00  0.00     0.077 C 
ATOM      3  C1  PXY d   1       0.450   1.039  -0.690  0.00  0.00    -0.082 A 
ATOM      4  C2  PXY d   1      -0.763   1.568  -0.704  0.00  0.00     0.003 A 
ATOM      5  C3  PXY d   1      -1.664   1.264   0.283  0.00  0.00     0.003 A 
ATOM      6  C4  PXY d   1      -1.339   0.369   1.266  0.00  0.00    -0.082 A 
ATOM      7  C5  PXY d   1      -0.107  -0.183   1.282  0.00  0.00     0.003 A 
ATOM      8  C6  PXY d   1       0.807   0.170   0.294  0.00  0.00     0.003 A 
ENDROOT
TORSDOF 0
ENDMDL
