MODEL 1
REMARK minimizedAffinity -4.63575792
REMARK minimizedRMSD -1
REMARK  0 active torsions:
REMARK  status: ('A' for Active; 'I' for Inactive)
ROOT
ATOM      1  C4' PXY d   1      -0.234  -0.406   1.544  0.00  0.00     0.077 C 
ATOM      2  C1' PXY d   1       2.212  -0.120  -3.686  0.00  0.00     0.077 C 
ATOM      3  C1  PXY d   1       1.577  -0.184  -2.311  0.00  0.00    -0.082 A 
ATOM      4  C2  PXY d   1       1.169  -1.348  -1.832  0.00  0.00     0.003 A 
ATOM      5  C3  PXY d   1       0.564  -1.420  -0.604  0.00  0.00     0.003 A 
ATOM      6  C4  PXY d   1       0.422  -0.296   0.164  0.00  0.00    -0.082 A 
ATOM      7  C5  PXY d   1       0.844   0.894  -0.313  0.00  0.00     0.003 A 
ATOM      8  C6  PXY d   1       1.419   0.952  -1.579  0.00  0.00     0.003 A 
ENDROOT
TORSDOF 0
ENDMDL
