MODEL 1
REMARK minimizedAffinity -2.91785622
REMARK minimizedRMSD -1
REMARK  0 active torsions:
REMARK  status: ('A' for Active; 'I' for Inactive)
ROOT
ATOM      1  C4' PXY d   1      -2.706   0.227   1.753  0.00  0.00     0.077 C 
ATOM      2  C1' PXY d   1       2.188   0.914  -1.246  0.00  0.00     0.077 C 
ATOM      3  C1  PXY d   1       0.909   0.722  -0.454  0.00  0.00    -0.082 A 
ATOM      4  C2  PXY d   1      -0.215   1.273  -0.884  0.00  0.00     0.003 A 
ATOM      5  C3  PXY d   1      -1.374   1.137  -0.163  0.00  0.00     0.003 A 
ATOM      6  C4  PXY d   1      -1.394   0.385   0.981  0.00  0.00    -0.082 A 
ATOM      7  C5  PXY d   1      -0.254  -0.189   1.420  0.00  0.00     0.003 A 
ATOM      8  C6  PXY d   1       0.921  -0.004   0.696  0.00  0.00     0.003 A 
ENDROOT
TORSDOF 0
ENDMDL
