MODEL 1
REMARK minimizedAffinity -3.41173267
REMARK minimizedRMSD -1
REMARK  0 active torsions:
REMARK  status: ('A' for Active; 'I' for Inactive)
ROOT
ATOM      1  C4' PXY d   1      -1.998   0.195   1.389  0.00  0.00     0.077 C 
ATOM      2  C1' PXY d   1       2.952  -0.390  -1.540  0.00  0.00     0.077 C 
ATOM      3  C1  PXY d   1       1.650  -0.249  -0.775  0.00  0.00    -0.082 A 
ATOM      4  C2  PXY d   1       1.138   0.954  -0.572  0.00  0.00     0.003 A 
ATOM      5  C3  PXY d   1      -0.021   1.102   0.146  0.00  0.00     0.003 A 
ATOM      6  C4  PXY d   1      -0.691   0.004   0.614  0.00  0.00    -0.082 A 
ATOM      7  C5  PXY d   1      -0.181  -1.227   0.401  0.00  0.00     0.003 A 
ATOM      8  C6  PXY d   1       1.019  -1.354  -0.293  0.00  0.00     0.003 A 
ENDROOT
TORSDOF 0
ENDMDL
