MODEL 1
REMARK minimizedAffinity -2.73984194
REMARK minimizedRMSD -1
REMARK  0 active torsions:
REMARK  status: ('A' for Active; 'I' for Inactive)
ROOT
ATOM      1  C4' PXY d   1       3.080  -1.596  -2.418  0.00  0.00     0.077 C 
ATOM      2  C1' PXY d   1      -1.002   0.649   1.005  0.00  0.00     0.077 C 
ATOM      3  C1  PXY d   1       0.068   0.071   0.100  0.00  0.00    -0.082 A 
ATOM      4  C2  PXY d   1       0.230  -1.240   0.033  0.00  0.00     0.003 A 
ATOM      5  C3  PXY d   1       1.214  -1.779  -0.756  0.00  0.00     0.003 A 
ATOM      6  C4  PXY d   1       2.006  -0.968  -1.525  0.00  0.00    -0.082 A 
ATOM      7  C5  PXY d   1       1.840   0.370  -1.470  0.00  0.00     0.003 A 
ATOM      8  C6  PXY d   1       0.863   0.899  -0.631  0.00  0.00     0.003 A 
ENDROOT
TORSDOF 0
ENDMDL
