MODEL 1
REMARK minimizedAffinity -3.67789102
REMARK minimizedRMSD -1
REMARK  0 active torsions:
REMARK  status: ('A' for Active; 'I' for Inactive)
ROOT
ATOM      1  C4' PXY d   1       0.839   1.241  -0.949  0.00  0.00     0.077 C 
ATOM      2  C1' PXY d   1      -3.930   0.266   2.168  0.00  0.00     0.077 C 
ATOM      3  C1  PXY d   1      -2.673   0.514   1.359  0.00  0.00    -0.082 A 
ATOM      4  C2  PXY d   1      -2.575   1.608   0.621  0.00  0.00     0.003 A 
ATOM      5  C3  PXY d   1      -1.458   1.832  -0.142  0.00  0.00     0.003 A 
ATOM      6  C4  PXY d   1      -0.408   0.954  -0.108  0.00  0.00    -0.082 A 
ATOM      7  C5  PXY d   1      -0.496  -0.160   0.650  0.00  0.00     0.003 A 
ATOM      8  C6  PXY d   1      -1.655  -0.389   1.385  0.00  0.00     0.003 A 
ENDROOT
TORSDOF 0
ENDMDL
