MODEL 1
REMARK minimizedAffinity -4.4679265
REMARK minimizedRMSD -1
REMARK  0 active torsions:
REMARK  status: ('A' for Active; 'I' for Inactive)
ROOT
ATOM      1  C4' PXY d   1       2.009   0.760  -1.797  0.00  0.00     0.077 C 
ATOM      2  C1' PXY d   1      -2.470   0.591   1.853  0.00  0.00     0.077 C 
ATOM      3  C1  PXY d   1      -1.303   0.639   0.887  0.00  0.00    -0.082 A 
ATOM      4  C2  PXY d   1      -0.241  -0.119   1.105  0.00  0.00     0.003 A 
ATOM      5  C3  PXY d   1       0.836  -0.064   0.258  0.00  0.00     0.003 A 
ATOM      6  C4  PXY d   1       0.804   0.736  -0.852  0.00  0.00    -0.082 A 
ATOM      7  C5  PXY d   1      -0.281   1.504  -1.088  0.00  0.00     0.003 A 
ATOM      8  C6  PXY d   1      -1.347   1.465  -0.194  0.00  0.00     0.003 A 
ENDROOT
TORSDOF 0
ENDMDL
