MODEL 1
REMARK minimizedAffinity -2.78779793
REMARK minimizedRMSD -1
REMARK  0 active torsions:
REMARK  status: ('A' for Active; 'I' for Inactive)
ROOT
ATOM      1  C4' PXY d   1       1.091   0.560  -0.770  0.00  0.00     0.077 C 
ATOM      2  C1' PXY d   1      -3.969   0.645   2.025  0.00  0.00     0.077 C 
ATOM      3  C1  PXY d   1      -2.648   0.620   1.281  0.00  0.00    -0.082 A 
ATOM      4  C2  PXY d   1      -1.531   0.362   1.940  0.00  0.00     0.003 A 
ATOM      5  C3  PXY d   1      -0.324   0.367   1.289  0.00  0.00     0.003 A 
ATOM      6  C4  PXY d   1      -0.266   0.586  -0.061  0.00  0.00    -0.082 A 
ATOM      7  C5  PXY d   1      -1.403   0.840  -0.743  0.00  0.00     0.003 A 
ATOM      8  C6  PXY d   1      -2.613   0.871  -0.056  0.00  0.00     0.003 A 
ENDROOT
TORSDOF 0
ENDMDL
