MODEL 1
REMARK minimizedAffinity -2.41218472
REMARK minimizedRMSD -1
REMARK  0 active torsions:
REMARK  status: ('A' for Active; 'I' for Inactive)
ROOT
ATOM      1  C4' PXY d   1      -3.487   0.660   1.739  0.00  0.00     0.077 C 
ATOM      2  C1' PXY d   1       1.643   0.725  -0.926  0.00  0.00     0.077 C 
ATOM      3  C1  PXY d   1       0.299   0.695  -0.225  0.00  0.00    -0.082 A 
ATOM      4  C2  PXY d   1      -0.596   1.634  -0.487  0.00  0.00     0.003 A 
ATOM      5  C3  PXY d   1      -1.805   1.640   0.162  0.00  0.00     0.003 A 
ATOM      6  C4  PXY d   1      -2.120   0.645   1.048  0.00  0.00    -0.082 A 
ATOM      7  C5  PXY d   1      -1.216  -0.322   1.313  0.00  0.00     0.003 A 
ATOM      8  C6  PXY d   1       0.020  -0.287   0.675  0.00  0.00     0.003 A 
ENDROOT
TORSDOF 0
ENDMDL
