MODEL 1
REMARK minimizedAffinity -3.6824069
REMARK minimizedRMSD -1
REMARK  0 active torsions:
REMARK  status: ('A' for Active; 'I' for Inactive)
ROOT
ATOM      1  C4' PXY d   1       1.379  -3.237  -1.061  0.00  0.00     0.077 C 
ATOM      2  C1' PXY d   1       1.462   2.531  -0.676  0.00  0.00     0.077 C 
ATOM      3  C1  PXY d   1       1.446   1.019  -0.788  0.00  0.00    -0.082 A 
ATOM      4  C2  PXY d   1       0.557   0.321  -0.101  0.00  0.00     0.003 A 
ATOM      5  C3  PXY d   1       0.549  -1.049  -0.166  0.00  0.00     0.003 A 
ATOM      6  C4  PXY d   1       1.426  -1.708  -0.985  0.00  0.00    -0.082 A 
ATOM      7  C5  PXY d   1       2.330  -1.002  -1.698  0.00  0.00     0.003 A 
ATOM      8  C6  PXY d   1       2.348   0.385  -1.586  0.00  0.00     0.003 A 
ENDROOT
TORSDOF 0
ENDMDL
