MODEL 1
REMARK minimizedAffinity -3.34552598
REMARK minimizedRMSD -1
REMARK  0 active torsions:
REMARK  status: ('A' for Active; 'I' for Inactive)
ROOT
ATOM      1  C4' PXY d   1       1.828   1.207  -1.487  0.00  0.00     0.077 C 
ATOM      2  C1' PXY d   1      -2.943   0.454   1.688  0.00  0.00     0.077 C 
ATOM      3  C1  PXY d   1      -1.699   0.658   0.846  0.00  0.00    -0.082 A 
ATOM      4  C2  PXY d   1      -0.670  -0.162   0.991  0.00  0.00     0.003 A 
ATOM      5  C3  PXY d   1       0.475   0.027   0.261  0.00  0.00     0.003 A 
ATOM      6  C4  PXY d   1       0.548   1.033  -0.665  0.00  0.00    -0.082 A 
ATOM      7  C5  PXY d   1      -0.501   1.867  -0.826  0.00  0.00     0.003 A 
ATOM      8  C6  PXY d   1      -1.639   1.684  -0.046  0.00  0.00     0.003 A 
ENDROOT
TORSDOF 0
ENDMDL
