MODEL 1
REMARK minimizedAffinity -3.02730465
REMARK minimizedRMSD -1
REMARK  0 active torsions:
REMARK  status: ('A' for Active; 'I' for Inactive)
ROOT
ATOM      1  C4' PXY d   1      -2.451   0.009   1.454  0.00  0.00     0.077 C 
ATOM      2  C1' PXY d   1       2.344   0.724  -1.694  0.00  0.00     0.077 C 
ATOM      3  C1  PXY d   1       1.084   0.550  -0.868  0.00  0.00    -0.082 A 
ATOM      4  C2  PXY d   1       0.950  -0.517  -0.097  0.00  0.00     0.003 A 
ATOM      5  C3  PXY d   1      -0.196  -0.707   0.631  0.00  0.00     0.003 A 
ATOM      6  C4  PXY d   1      -1.193   0.231   0.611  0.00  0.00    -0.082 A 
ATOM      7  C5  PXY d   1      -1.059   1.328  -0.165  0.00  0.00     0.003 A 
ATOM      8  C6  PXY d   1       0.094   1.481  -0.929  0.00  0.00     0.003 A 
ENDROOT
TORSDOF 0
ENDMDL
