MODEL 1
REMARK minimizedAffinity -0.776916265
REMARK minimizedRMSD -1
REMARK  0 active torsions:
REMARK  status: ('A' for Active; 'I' for Inactive)
ROOT
ATOM      1  C4' PXY d   1      -2.352   0.080   1.761  0.00  0.00     0.077 C 
ATOM      2  C1' PXY d   1       2.299   0.296  -1.664  0.00  0.00     0.077 C 
ATOM      3  C1  PXY d   1       1.079   0.226  -0.767  0.00  0.00    -0.082 A 
ATOM      4  C2  PXY d   1       0.261   1.263  -0.693  0.00  0.00     0.003 A 
ATOM      5  C3  PXY d   1      -0.829   1.229   0.138  0.00  0.00     0.003 A 
ATOM      6  C4  PXY d   1      -1.114   0.102   0.861  0.00  0.00    -0.082 A 
ATOM      7  C5  PXY d   1      -0.290  -0.964   0.784  0.00  0.00     0.003 A 
ATOM      8  C6  PXY d   1       0.834  -0.894  -0.034  0.00  0.00     0.003 A 
ENDROOT
TORSDOF 0
ENDMDL
