MODEL 1
REMARK minimizedAffinity -3.57962322
REMARK minimizedRMSD -1
REMARK  0 active torsions:
REMARK  status: ('A' for Active; 'I' for Inactive)
ROOT
ATOM      1  C4' PXY d   1      -2.622   0.168   1.254  0.00  0.00     0.077 C 
ATOM      2  C1' PXY d   1       2.194   0.400  -1.934  0.00  0.00     0.077 C 
ATOM      3  C1  PXY d   1       0.935   0.328  -1.093  0.00  0.00    -0.082 A 
ATOM      4  C2  PXY d   1      -0.153   0.968  -1.488  0.00  0.00     0.003 A 
ATOM      5  C3  PXY d   1      -1.291   0.940  -0.723  0.00  0.00     0.003 A 
ATOM      6  C4  PXY d   1      -1.331   0.205   0.432  0.00  0.00    -0.082 A 
ATOM      7  C5  PXY d   1      -0.228  -0.460   0.836  0.00  0.00     0.003 A 
ATOM      8  C6  PXY d   1       0.929  -0.385   0.067  0.00  0.00     0.003 A 
ENDROOT
TORSDOF 0
ENDMDL
