MODEL 1
REMARK minimizedAffinity -4.9913826
REMARK minimizedRMSD -1
REMARK  0 active torsions:
REMARK  status: ('A' for Active; 'I' for Inactive)
ROOT
ATOM      1  C4' PXY d   1      -2.923   0.238   1.648  0.00  0.00     0.077 C 
ATOM      2  C1' PXY d   1       1.812   0.737  -1.630  0.00  0.00     0.077 C 
ATOM      3  C1  PXY d   1       0.576   0.597  -0.763  0.00  0.00    -0.082 A 
ATOM      4  C2  PXY d   1      -0.608   0.927  -1.254  0.00  0.00     0.003 A 
ATOM      5  C3  PXY d   1      -1.731   0.837  -0.473  0.00  0.00     0.003 A 
ATOM      6  C4  PXY d   1      -1.650   0.354   0.805  0.00  0.00    -0.082 A 
ATOM      7  C5  PXY d   1      -0.447   0.005   1.310  0.00  0.00     0.003 A 
ATOM      8  C6  PXY d   1       0.687   0.143   0.515  0.00  0.00     0.003 A 
ENDROOT
TORSDOF 0
ENDMDL
