MODEL 1
REMARK minimizedAffinity -1.11291611
REMARK minimizedRMSD -1
REMARK  0 active torsions:
REMARK  status: ('A' for Active; 'I' for Inactive)
ROOT
ATOM      1  C4' PXY d   1      -2.729   0.043   1.988  0.00  0.00     0.077 C 
ATOM      2  C1' PXY d   1       1.882   1.380  -1.231  0.00  0.00     0.077 C 
ATOM      3  C1  PXY d   1       0.677   1.017  -0.386  0.00  0.00    -0.082 A 
ATOM      4  C2  PXY d   1      -0.441   1.713  -0.508  0.00  0.00     0.003 A 
ATOM      5  C3  PXY d   1      -1.530   1.419   0.272  0.00  0.00     0.003 A 
ATOM      6  C4  PXY d   1      -1.491   0.367   1.148  0.00  0.00    -0.082 A 
ATOM      7  C5  PXY d   1      -0.357  -0.355   1.271  0.00  0.00     0.003 A 
ATOM      8  C6  PXY d   1       0.751  -0.014   0.500  0.00  0.00     0.003 A 
ENDROOT
TORSDOF 0
ENDMDL
