MODEL 1
REMARK minimizedAffinity -4.36523962
REMARK minimizedRMSD -1
REMARK  0 active torsions:
REMARK  status: ('A' for Active; 'I' for Inactive)
ROOT
ATOM      1  C4' PXY d   1      -3.138   0.222   1.717  0.00  0.00     0.077 C 
ATOM      2  C1' PXY d   1       1.625   1.575  -1.266  0.00  0.00     0.077 C 
ATOM      3  C1  PXY d   1       0.381   1.209  -0.480  0.00  0.00    -0.082 A 
ATOM      4  C2  PXY d   1      -0.778   1.765  -0.793  0.00  0.00     0.003 A 
ATOM      5  C3  PXY d   1      -1.906   1.469  -0.073  0.00  0.00     0.003 A 
ATOM      6  C4  PXY d   1      -1.859   0.555   0.945  0.00  0.00    -0.082 A 
ATOM      7  C5  PXY d   1      -0.682  -0.025   1.264  0.00  0.00     0.003 A 
ATOM      8  C6  PXY d   1       0.460   0.320   0.547  0.00  0.00     0.003 A 
ENDROOT
TORSDOF 0
ENDMDL
