MODEL 1
REMARK minimizedAffinity 2.30558801
REMARK minimizedRMSD -1
REMARK  1 active torsions:
REMARK  status: ('A' for Active; 'I' for Inactive)
REMARK    1  A    between atoms: N_2  and  C1_3 
ROOT
ATOM      1  C1  UNL d   1       2.038  -1.191   1.015  0.00  0.00     0.143 A 
ATOM      2  C2  UNL d   1       2.308  -2.245   0.135  0.00  0.00    -0.057 A 
ATOM      3  C3  UNL d   1       1.281  -3.054  -0.366  0.00  0.00     0.033 A 
ATOM      4  C4  UNL d   1      -0.036  -2.840   0.028  0.00  0.00    -0.042 A 
ATOM      5  C5  UNL d   1      -0.325  -1.814   0.920  0.00  0.00     0.033 A 
ATOM      6  C6  UNL d   1       0.705  -1.006   1.412  0.00  0.00    -0.057 A 
ENDROOT
BRANCH   1   7
ATOM      7  N   UNL d   1       3.026  -0.414   1.624  0.00  0.00    -0.732 N 
ATOM      8  C   UNL d   1       4.423  -0.771   1.504  0.00  0.00     0.284 C 
ATOM      9  H3  UNL d   1       2.843   0.583   1.540  0.00  0.00     0.395 HD
ENDBRANCH   1   7
TORSDOF 1
ENDMDL
