MODEL 1
REMARK minimizedAffinity 6.13417816
REMARK minimizedRMSD -1
REMARK  1 active torsions:
REMARK  status: ('A' for Active; 'I' for Inactive)
REMARK    1  A    between atoms: N_2  and  C1_3 
ROOT
ATOM      1  C1  UNL d   1       0.683  -2.331  -0.172  0.00  0.00     0.143 A 
ATOM      2  C2  UNL d   1      -0.512  -1.896   0.411  0.00  0.00    -0.057 A 
ATOM      3  C3  UNL d   1      -0.569  -0.706   1.147  0.00  0.00     0.033 A 
ATOM      4  C4  UNL d   1       0.578   0.057   1.337  0.00  0.00    -0.042 A 
ATOM      5  C5  UNL d   1       1.782  -0.369   0.788  0.00  0.00     0.033 A 
ATOM      6  C6  UNL d   1       1.831  -1.555   0.048  0.00  0.00    -0.057 A 
ENDROOT
BRANCH   1   7
ATOM      7  N   UNL d   1       0.826  -3.555  -0.832  0.00  0.00    -0.732 N 
ATOM      8  C   UNL d   1       2.031  -4.341  -0.674  0.00  0.00     0.284 C 
ATOM      9  H3  UNL d   1      -0.032  -4.102  -0.825  0.00  0.00     0.395 HD
ENDBRANCH   1   7
TORSDOF 1
ENDMDL
