MODEL 1
REMARK minimizedAffinity 2.04621339
REMARK minimizedRMSD -1
REMARK  1 active torsions:
REMARK  status: ('A' for Active; 'I' for Inactive)
REMARK    1  A    between atoms: N_2  and  C1_3 
ROOT
ATOM      1  C1  UNL d   1       0.879  -2.867  -0.107  0.00  0.00     0.143 A 
ATOM      2  C2  UNL d   1      -0.514  -2.978  -0.172  0.00  0.00    -0.057 A 
ATOM      3  C3  UNL d   1      -1.346  -2.140   0.581  0.00  0.00     0.033 A 
ATOM      4  C4  UNL d   1      -0.796  -1.193   1.437  0.00  0.00    -0.042 A 
ATOM      5  C5  UNL d   1       0.587  -1.081   1.537  0.00  0.00     0.033 A 
ATOM      6  C6  UNL d   1       1.411  -1.917   0.778  0.00  0.00    -0.057 A 
ENDROOT
BRANCH   1   7
ATOM      7  N   UNL d   1       1.759  -3.736  -0.756  0.00  0.00    -0.732 N 
ATOM      8  C   UNL d   1       3.173  -3.721  -0.445  0.00  0.00     0.284 C 
ATOM      9  H3  UNL d   1       1.370  -4.669  -0.872  0.00  0.00     0.395 HD
ENDBRANCH   1   7
TORSDOF 1
ENDMDL
