MODEL 1
REMARK minimizedAffinity -3.34300375
REMARK minimizedRMSD -1
REMARK  1 active torsions:
REMARK  status: ('A' for Active; 'I' for Inactive)
REMARK    1  A    between atoms: N_2  and  C1_3 
ROOT
ATOM      1  C1  UNL d   1       0.922  -2.255   0.412  0.00  0.00     0.143 A 
ATOM      2  C2  UNL d   1       1.116  -1.031   1.063  0.00  0.00    -0.057 A 
ATOM      3  C3  UNL d   1       0.067  -0.116   1.215  0.00  0.00     0.033 A 
ATOM      4  C4  UNL d   1      -1.191  -0.397   0.692  0.00  0.00    -0.042 A 
ATOM      5  C5  UNL d   1      -1.400  -1.596   0.019  0.00  0.00     0.033 A 
ATOM      6  C6  UNL d   1      -0.350  -2.509  -0.124  0.00  0.00    -0.057 A 
ENDROOT
BRANCH   1   7
ATOM      7  N   UNL d   1       1.949  -3.163   0.143  0.00  0.00    -0.732 N 
ATOM      8  C   UNL d   1       3.329  -2.730   0.120  0.00  0.00     0.284 C 
ATOM      9  H3  UNL d   1       1.802  -4.061   0.598  0.00  0.00     0.395 HD
ENDBRANCH   1   7
TORSDOF 1
ENDMDL
