MODEL 1
REMARK minimizedAffinity -1.64947891
REMARK minimizedRMSD -1
REMARK  1 active torsions:
REMARK  status: ('A' for Active; 'I' for Inactive)
REMARK    1  A    between atoms: N_2  and  C1_3 
ROOT
ATOM      1  C1  UNL d   1      -5.585  -4.850   3.635  0.00  0.00     0.143 A 
ATOM      2  C2  UNL d   1      -4.944  -3.682   4.061  0.00  0.00    -0.057 A 
ATOM      3  C3  UNL d   1      -4.693  -2.627   3.176  0.00  0.00     0.033 A 
ATOM      4  C4  UNL d   1      -5.054  -2.733   1.837  0.00  0.00    -0.042 A 
ATOM      5  C5  UNL d   1      -5.670  -3.895   1.385  0.00  0.00     0.033 A 
ATOM      6  C6  UNL d   1      -5.923  -4.943   2.275  0.00  0.00    -0.057 A 
ENDROOT
BRANCH   1   7
ATOM      7  N   UNL d   1      -5.773  -5.974   4.443  0.00  0.00    -0.732 N 
ATOM      8  C   UNL d   1      -5.328  -5.974   5.820  0.00  0.00     0.284 C 
ATOM      9  H3  UNL d   1      -6.683  -6.407   4.300  0.00  0.00     0.395 HD
ENDBRANCH   1   7
TORSDOF 1
ENDMDL
