MODEL 1
REMARK minimizedAffinity 3.95980549
REMARK minimizedRMSD -1
REMARK  1 active torsions:
REMARK  status: ('A' for Active; 'I' for Inactive)
REMARK    1  A    between atoms: N_2  and  C1_3 
ROOT
ATOM      1  C1  UNL d   1       2.582  -3.662  -0.326  0.00  0.00     0.143 A 
ATOM      2  C2  UNL d   1       1.372  -4.352  -0.453  0.00  0.00    -0.057 A 
ATOM      3  C3  UNL d   1       0.150  -3.734  -0.163  0.00  0.00     0.033 A 
ATOM      4  C4  UNL d   1       0.119  -2.419   0.288  0.00  0.00    -0.042 A 
ATOM      5  C5  UNL d   1       1.311  -1.721   0.445  0.00  0.00     0.033 A 
ATOM      6  C6  UNL d   1       2.528  -2.342   0.148  0.00  0.00    -0.057 A 
ENDROOT
BRANCH   1   7
ATOM      7  N   UNL d   1       3.836  -4.252  -0.504  0.00  0.00    -0.732 N 
ATOM      8  C   UNL d   1       4.159  -5.507   0.140  0.00  0.00     0.284 C 
ATOM      9  H3  UNL d   1       4.166  -4.181  -1.464  0.00  0.00     0.395 HD
ENDBRANCH   1   7
TORSDOF 1
ENDMDL
