MODEL 1
REMARK minimizedAffinity -0.0294346623
REMARK minimizedRMSD -1
REMARK  1 active torsions:
REMARK  status: ('A' for Active; 'I' for Inactive)
REMARK    1  A    between atoms: N_2  and  C1_3 
ROOT
ATOM      1  C1  UNL d   1       1.052  -2.594  -0.361  0.00  0.00     0.143 A 
ATOM      2  C2  UNL d   1      -0.218  -2.517   0.221  0.00  0.00    -0.057 A 
ATOM      3  C3  UNL d   1      -0.591  -1.419   1.007  0.00  0.00     0.033 A 
ATOM      4  C4  UNL d   1       0.313  -0.390   1.248  0.00  0.00    -0.042 A 
ATOM      5  C5  UNL d   1       1.589  -0.458   0.699  0.00  0.00     0.033 A 
ATOM      6  C6  UNL d   1       1.953  -1.553  -0.089  0.00  0.00    -0.057 A 
ENDROOT
BRANCH   1   7
ATOM      7  N   UNL d   1       1.516  -3.705  -1.070  0.00  0.00    -0.732 N 
ATOM      8  C   UNL d   1       0.648  -4.406  -1.992  0.00  0.00     0.284 C 
ATOM      9  H3  UNL d   1       2.467  -3.580  -1.408  0.00  0.00     0.395 HD
ENDBRANCH   1   7
TORSDOF 1
ENDMDL
