MODEL 1
REMARK minimizedAffinity -3.91637087
REMARK minimizedRMSD -1
REMARK  1 active torsions:
REMARK  status: ('A' for Active; 'I' for Inactive)
REMARK    1  A    between atoms: N_2  and  C1_3 
ROOT
ATOM      1  C1  UNL d   1      -0.194  -2.537   0.355  0.00  0.00     0.143 A 
ATOM      2  C2  UNL d   1       1.081  -2.829  -0.140  0.00  0.00    -0.057 A 
ATOM      3  C3  UNL d   1       2.080  -1.849  -0.195  0.00  0.00     0.033 A 
ATOM      4  C4  UNL d   1       1.811  -0.549   0.219  0.00  0.00    -0.042 A 
ATOM      5  C5  UNL d   1       0.543  -0.230   0.691  0.00  0.00     0.033 A 
ATOM      6  C6  UNL d   1      -0.448  -1.214   0.750  0.00  0.00    -0.057 A 
ENDROOT
BRANCH   1   7
ATOM      7  N   UNL d   1      -1.259  -3.442   0.344  0.00  0.00    -0.732 N 
ATOM      8  C   UNL d   1      -2.564  -3.050   0.830  0.00  0.00     0.284 C 
ATOM      9  H3  UNL d   1      -1.282  -4.003  -0.504  0.00  0.00     0.395 HD
ENDBRANCH   1   7
TORSDOF 1
ENDMDL
