MODEL 1
REMARK minimizedAffinity -3.896451
REMARK minimizedRMSD -1
REMARK  1 active torsions:
REMARK  status: ('A' for Active; 'I' for Inactive)
REMARK    1  A    between atoms: N_2  and  C1_3 
ROOT
ATOM      1  C1  UNL d   1      -5.747  -4.345   3.286  0.00  0.00     0.143 A 
ATOM      2  C2  UNL d   1      -5.995  -3.428   4.313  0.00  0.00    -0.057 A 
ATOM      3  C3  UNL d   1      -5.817  -3.778   5.657  0.00  0.00     0.033 A 
ATOM      4  C4  UNL d   1      -5.415  -5.065   6.000  0.00  0.00    -0.042 A 
ATOM      5  C5  UNL d   1      -5.186  -6.000   4.997  0.00  0.00     0.033 A 
ATOM      6  C6  UNL d   1      -5.359  -5.642   3.656  0.00  0.00    -0.057 A 
ENDROOT
BRANCH   1   7
ATOM      7  N   UNL d   1      -6.000  -4.088   1.936  0.00  0.00    -0.732 N 
ATOM      8  C   UNL d   1      -4.928  -3.693   1.048  0.00  0.00     0.284 C 
ATOM      9  H3  UNL d   1      -6.653  -4.754   1.530  0.00  0.00     0.395 HD
ENDBRANCH   1   7
TORSDOF 1
ENDMDL
