MODEL 1
REMARK minimizedAffinity -0.725806773
REMARK minimizedRMSD -1
REMARK  1 active torsions:
REMARK  status: ('A' for Active; 'I' for Inactive)
REMARK    1  A    between atoms: N_2  and  C1_3 
ROOT
ATOM      1  C1  UNL d   1      -1.512  -0.841   2.052  0.00  0.00     0.143 A 
ATOM      2  C2  UNL d   1      -1.804   0.269   1.252  0.00  0.00    -0.057 A 
ATOM      3  C3  UNL d   1      -1.995   1.537   1.812  0.00  0.00     0.033 A 
ATOM      4  C4  UNL d   1      -1.927   1.714   3.190  0.00  0.00    -0.042 A 
ATOM      5  C5  UNL d   1      -1.663   0.620   4.007  0.00  0.00     0.033 A 
ATOM      6  C6  UNL d   1      -1.466  -0.643   3.441  0.00  0.00    -0.057 A 
ENDROOT
BRANCH   1   7
ATOM      7  N   UNL d   1      -1.409  -2.146   1.564  0.00  0.00    -0.732 N 
ATOM      8  C   UNL d   1      -0.249  -2.559   0.803  0.00  0.00     0.284 C 
ATOM      9  H3  UNL d   1      -1.733  -2.839   2.236  0.00  0.00     0.395 HD
ENDBRANCH   1   7
TORSDOF 1
ENDMDL
