MODEL 1
REMARK minimizedAffinity 2.25728559
REMARK minimizedRMSD -1
REMARK  1 active torsions:
REMARK  status: ('A' for Active; 'I' for Inactive)
REMARK    1  A    between atoms: N_2  and  C1_3 
ROOT
ATOM      1  C1  UNL d   1       0.682  -1.723  -0.146  0.00  0.00     0.143 A 
ATOM      2  C2  UNL d   1      -0.321  -1.169   0.657  0.00  0.00    -0.057 A 
ATOM      3  C3  UNL d   1      -0.017  -0.244   1.664  0.00  0.00     0.033 A 
ATOM      4  C4  UNL d   1       1.303   0.122   1.905  0.00  0.00    -0.042 A 
ATOM      5  C5  UNL d   1       2.318  -0.434   1.135  0.00  0.00     0.033 A 
ATOM      6  C6  UNL d   1       2.008  -1.352   0.127  0.00  0.00    -0.057 A 
ENDROOT
BRANCH   1   7
ATOM      7  N   UNL d   1       0.455  -2.721  -1.096  0.00  0.00    -0.732 N 
ATOM      8  C   UNL d   1       0.730  -4.108  -0.788  0.00  0.00     0.284 C 
ATOM      9  H3  UNL d   1      -0.407  -2.574  -1.616  0.00  0.00     0.395 HD
ENDBRANCH   1   7
TORSDOF 1
ENDMDL
