MODEL 1
REMARK minimizedAffinity 1.57999706
REMARK minimizedRMSD -1
REMARK  1 active torsions:
REMARK  status: ('A' for Active; 'I' for Inactive)
REMARK    1  A    between atoms: N_2  and  C1_3 
ROOT
ATOM      1  C1  UNL d   1       0.629  -2.391   0.239  0.00  0.00     0.143 A 
ATOM      2  C2  UNL d   1      -0.708  -2.013   0.399  0.00  0.00    -0.057 A 
ATOM      3  C3  UNL d   1      -1.052  -0.735   0.854  0.00  0.00     0.033 A 
ATOM      4  C4  UNL d   1      -0.060   0.182   1.186  0.00  0.00    -0.042 A 
ATOM      5  C5  UNL d   1       1.276  -0.180   1.059  0.00  0.00     0.033 A 
ATOM      6  C6  UNL d   1       1.613  -1.456   0.597  0.00  0.00    -0.057 A 
ENDROOT
BRANCH   1   7
ATOM      7  N   UNL d   1       1.036  -3.680  -0.115  0.00  0.00    -0.732 N 
ATOM      8  C   UNL d   1       2.438  -3.982  -0.313  0.00  0.00     0.284 C 
ATOM      9  H3  UNL d   1       0.522  -4.401   0.386  0.00  0.00     0.395 HD
ENDBRANCH   1   7
TORSDOF 1
ENDMDL
