MODEL 1
REMARK minimizedAffinity 4.54524088
REMARK minimizedRMSD -1
REMARK  1 active torsions:
REMARK  status: ('A' for Active; 'I' for Inactive)
REMARK    1  A    between atoms: N_2  and  C1_3 
ROOT
ATOM      1  C1  UNL d   1       1.559  -3.133   0.215  0.00  0.00     0.143 A 
ATOM      2  C2  UNL d   1       0.161  -3.088   0.174  0.00  0.00    -0.057 A 
ATOM      3  C3  UNL d   1      -0.547  -2.014   0.726  0.00  0.00     0.033 A 
ATOM      4  C4  UNL d   1       0.131  -0.977   1.357  0.00  0.00    -0.042 A 
ATOM      5  C5  UNL d   1       1.519  -1.013   1.432  0.00  0.00     0.033 A 
ATOM      6  C6  UNL d   1       2.221  -2.085   0.873  0.00  0.00    -0.057 A 
ENDROOT
BRANCH   1   7
ATOM      7  N   UNL d   1       2.316  -4.220  -0.229  0.00  0.00    -0.732 N 
ATOM      8  C   UNL d   1       3.704  -4.359   0.156  0.00  0.00     0.284 C 
ATOM      9  H3  UNL d   1       1.791  -5.092  -0.212  0.00  0.00     0.395 HD
ENDBRANCH   1   7
TORSDOF 1
ENDMDL
