MODEL 1
REMARK minimizedAffinity -3.09239817
REMARK minimizedRMSD -1
REMARK  1 active torsions:
REMARK  status: ('A' for Active; 'I' for Inactive)
REMARK    1  A    between atoms: N_2  and  C1_3 
ROOT
ATOM      1  C1  UNL d   1      -1.567  -1.224   1.201  0.00  0.00     0.143 A 
ATOM      2  C2  UNL d   1      -1.811  -2.132   0.164  0.00  0.00    -0.057 A 
ATOM      3  C3  UNL d   1      -0.809  -2.997  -0.294  0.00  0.00     0.033 A 
ATOM      4  C4  UNL d   1       0.466  -2.948   0.258  0.00  0.00    -0.042 A 
ATOM      5  C5  UNL d   1       0.738  -2.037   1.272  0.00  0.00     0.033 A 
ATOM      6  C6  UNL d   1      -0.268  -1.180   1.730  0.00  0.00    -0.057 A 
ENDROOT
BRANCH   1   7
ATOM      7  N   UNL d   1      -2.492  -0.271   1.633  0.00  0.00    -0.732 N 
ATOM      8  C   UNL d   1      -2.062   1.062   1.997  0.00  0.00     0.284 C 
ATOM      9  H3  UNL d   1      -3.357  -0.298   1.097  0.00  0.00     0.395 HD
ENDBRANCH   1   7
TORSDOF 1
ENDMDL
