MODEL 1
REMARK minimizedAffinity -0.255010933
REMARK minimizedRMSD -1
REMARK  0 active torsions:
REMARK  status: ('A' for Active; 'I' for Inactive)
ROOT
ATOM      1  C   UNL d   1       0.516   4.047   0.691  0.00  0.00    -0.002 A 
ATOM      2  C1  UNL d   1       1.213   3.729   1.848  0.00  0.00     0.010 A 
ATOM      3  C2  UNL d   1       1.417   2.396   2.210  0.00  0.00     0.041 A 
ATOM      4  C3  UNL d   1       0.906   1.378   1.380  0.00  0.00    -0.075 A 
ATOM      5  S   UNL d   1       1.036  -0.324   1.622  0.00  0.00     0.015 SA
ATOM      6  C4  UNL d   1       0.171  -0.668   0.195  0.00  0.00     0.022 A 
ATOM      7  C5  UNL d   1      -0.216   0.476  -0.462  0.00  0.00     0.026 A 
ATOM      8  C6  UNL d   1       0.202   1.674   0.209  0.00  0.00    -0.082 A 
ATOM      9  C7  UNL d   1       0.011   3.035  -0.129  0.00  0.00     0.045 A 
ENDROOT
TORSDOF 0
ENDMDL
