MODEL 1
REMARK minimizedAffinity 6.00173235
REMARK minimizedRMSD -1
REMARK  0 active torsions:
REMARK  status: ('A' for Active; 'I' for Inactive)
ROOT
ATOM      1  C   UNL d   1       0.467   3.386   2.308  0.00  0.00    -0.002 A 
ATOM      2  C1  UNL d   1       0.290   3.821   1.002  0.00  0.00     0.010 A 
ATOM      3  C2  UNL d   1      -0.005   2.911  -0.015  0.00  0.00     0.041 A 
ATOM      4  C3  UNL d   1      -0.122   1.544   0.306  0.00  0.00    -0.075 A 
ATOM      5  S   UNL d   1      -0.478   0.249  -0.775  0.00  0.00     0.015 SA
ATOM      6  C4  UNL d   1      -0.405  -0.911   0.472  0.00  0.00     0.022 A 
ATOM      7  C5  UNL d   1      -0.117  -0.342   1.689  0.00  0.00     0.026 A 
ATOM      8  C6  UNL d   1       0.050   1.083   1.614  0.00  0.00    -0.082 A 
ATOM      9  C7  UNL d   1       0.349   2.030   2.623  0.00  0.00     0.045 A 
ENDROOT
TORSDOF 0
ENDMDL
