MODEL 1
REMARK minimizedAffinity 13.2379265
REMARK minimizedRMSD -1
REMARK  0 active torsions:
REMARK  status: ('A' for Active; 'I' for Inactive)
ROOT
ATOM      1  C   UNL d   1       0.861   1.918   3.088  0.00  0.00    -0.002 A 
ATOM      2  C1  UNL d   1       0.845   0.690   2.441  0.00  0.00     0.010 A 
ATOM      3  C2  UNL d   1       0.639   0.617   1.062  0.00  0.00     0.041 A 
ATOM      4  C3  UNL d   1       0.449   1.810   0.337  0.00  0.00    -0.075 A 
ATOM      5  S   UNL d   1       0.181   1.964  -1.359  0.00  0.00     0.015 SA
ATOM      6  C4  UNL d   1       0.082   3.663  -1.265  0.00  0.00     0.022 A 
ATOM      7  C5  UNL d   1       0.248   4.118   0.022  0.00  0.00     0.026 A 
ATOM      8  C6  UNL d   1       0.462   3.058   0.966  0.00  0.00    -0.082 A 
ATOM      9  C7  UNL d   1       0.673   3.099   2.366  0.00  0.00     0.045 A 
ENDROOT
TORSDOF 0
ENDMDL
