MODEL 1
REMARK minimizedAffinity 5.14158964
REMARK minimizedRMSD -1
REMARK  0 active torsions:
REMARK  status: ('A' for Active; 'I' for Inactive)
ROOT
ATOM      1  C   UNL d   1       0.632   0.438   2.175  0.00  0.00    -0.002 A 
ATOM      2  C1  UNL d   1       0.324   0.138   0.856  0.00  0.00     0.010 A 
ATOM      3  C2  UNL d   1       0.379   1.127  -0.129  0.00  0.00     0.041 A 
ATOM      4  C3  UNL d   1       0.754   2.434   0.238  0.00  0.00    -0.075 A 
ATOM      5  S   UNL d   1       0.891   3.806  -0.797  0.00  0.00     0.015 SA
ATOM      6  C4  UNL d   1       1.363   4.822   0.487  0.00  0.00     0.022 A 
ATOM      7  C5  UNL d   1       1.419   4.148   1.684  0.00  0.00     0.026 A 
ATOM      8  C6  UNL d   1       1.070   2.760   1.560  0.00  0.00    -0.082 A 
ATOM      9  C7  UNL d   1       1.004   1.736   2.535  0.00  0.00     0.045 A 
ENDROOT
TORSDOF 0
ENDMDL
