MODEL 1
REMARK minimizedAffinity 7.88500452
REMARK minimizedRMSD -1
REMARK  0 active torsions:
REMARK  status: ('A' for Active; 'I' for Inactive)
ROOT
ATOM      1  C   UNL d   1       0.762   3.819   2.340  0.00  0.00    -0.002 A 
ATOM      2  C1  UNL d   1       0.633   3.965   0.966  0.00  0.00     0.010 A 
ATOM      3  C2  UNL d   1       0.458   2.849   0.147  0.00  0.00     0.041 A 
ATOM      4  C3  UNL d   1       0.413   1.570   0.737  0.00  0.00    -0.075 A 
ATOM      5  S   UNL d   1       0.207   0.060  -0.069  0.00  0.00     0.015 SA
ATOM      6  C4  UNL d   1       0.284  -0.815   1.392  0.00  0.00     0.022 A 
ATOM      7  C5  UNL d   1       0.463   0.010   2.477  0.00  0.00     0.026 A 
ATOM      8  C6  UNL d   1       0.540   1.398   2.118  0.00  0.00    -0.082 A 
ATOM      9  C7  UNL d   1       0.717   2.549   2.922  0.00  0.00     0.045 A 
ENDROOT
TORSDOF 0
ENDMDL
