MODEL 1
REMARK minimizedAffinity 2.08566332
REMARK minimizedRMSD -1
REMARK  0 active torsions:
REMARK  status: ('A' for Active; 'I' for Inactive)
ROOT
ATOM      1  C   UNL d   1       1.798  -0.852   0.999  0.00  0.00    -0.002 A 
ATOM      2  C1  UNL d   1       1.562  -0.534  -0.331  0.00  0.00     0.010 A 
ATOM      3  C2  UNL d   1       1.004   0.698  -0.679  0.00  0.00     0.041 A 
ATOM      4  C3  UNL d   1       0.684   1.614   0.343  0.00  0.00    -0.075 A 
ATOM      5  S   UNL d   1      -0.007   3.182   0.154  0.00  0.00     0.015 SA
ATOM      6  C4  UNL d   1      -0.005   3.467   1.835  0.00  0.00     0.022 A 
ATOM      7  C5  UNL d   1       0.507   2.402   2.537  0.00  0.00     0.026 A 
ATOM      8  C6  UNL d   1       0.913   1.317   1.689  0.00  0.00    -0.082 A 
ATOM      9  C7  UNL d   1       1.480   0.059   2.009  0.00  0.00     0.045 A 
ENDROOT
TORSDOF 0
ENDMDL
