MODEL 1
REMARK minimizedAffinity -3.81327987
REMARK minimizedRMSD -1
REMARK  0 active torsions:
REMARK  status: ('A' for Active; 'I' for Inactive)
ROOT
ATOM      1  C   UNL d   1       0.723  -0.363  -0.742  0.00  0.00     0.020 A 
ATOM      2  C1  UNL d   1      -0.155   0.564  -1.303  0.00  0.00     0.020 A 
ATOM      3  C2  UNL d   1      -0.877   1.430  -0.480  0.00  0.00     0.034 A 
ATOM      4  C3  UNL d   1      -0.722   1.372   0.910  0.00  0.00     0.017 A 
ATOM      5  C4  UNL d   1       0.159   0.442   1.473  0.00  0.00     0.017 A 
ATOM      6  C5  UNL d   1       0.880  -0.423   0.644  0.00  0.00     0.034 A 
ATOM      7 Cl   UNL d   1       0.403   0.310   3.179  0.00  0.00    -0.070 Cl
ATOM      8 Cl1  UNL d   1      -1.646   2.474   1.868  0.00  0.00    -0.070 Cl
ENDROOT
TORSDOF 0
ENDMDL
