MODEL 1
REMARK minimizedAffinity -3.65364981
REMARK minimizedRMSD -1
REMARK  0 active torsions:
REMARK  status: ('A' for Active; 'I' for Inactive)
ROOT
ATOM      1  C   UNL d   1      -0.653   3.360   1.505  0.00  0.00     0.020 A 
ATOM      2  C1  UNL d   1      -0.631   3.415   0.112  0.00  0.00     0.020 A 
ATOM      3  C2  UNL d   1      -0.310   2.274  -0.626  0.00  0.00     0.034 A 
ATOM      4  C3  UNL d   1      -0.011   1.073   0.029  0.00  0.00     0.017 A 
ATOM      5  C4  UNL d   1      -0.034   1.020   1.427  0.00  0.00     0.017 A 
ATOM      6  C5  UNL d   1      -0.355   2.165   2.161  0.00  0.00     0.034 A 
ATOM      7 Cl   UNL d   1       0.324  -0.425   2.305  0.00  0.00    -0.070 Cl
ATOM      8 Cl1  UNL d   1       0.377  -0.299  -0.947  0.00  0.00    -0.070 Cl
ENDROOT
TORSDOF 0
ENDMDL
