MODEL 1
REMARK minimizedAffinity 0.449647456
REMARK minimizedRMSD -1
REMARK  0 active torsions:
REMARK  status: ('A' for Active; 'I' for Inactive)
ROOT
ATOM      1  C   UNL d   1       1.025   1.228   2.231  0.00  0.00     0.020 A 
ATOM      2  C1  UNL d   1       0.506   0.010   2.667  0.00  0.00     0.020 A 
ATOM      3  C2  UNL d   1      -0.051  -0.882   1.748  0.00  0.00     0.034 A 
ATOM      4  C3  UNL d   1      -0.089  -0.556   0.387  0.00  0.00     0.017 A 
ATOM      5  C4  UNL d   1       0.432   0.667  -0.050  0.00  0.00     0.017 A 
ATOM      6  C5  UNL d   1       0.988   1.556   0.875  0.00  0.00     0.034 A 
ATOM      7 Cl   UNL d   1       0.421   1.139  -1.713  0.00  0.00    -0.070 Cl
ATOM      8 Cl1  UNL d   1      -0.792  -1.706  -0.695  0.00  0.00    -0.070 Cl
ENDROOT
TORSDOF 0
ENDMDL
