MODEL 1
REMARK minimizedAffinity -5.08405638
REMARK minimizedRMSD -1
REMARK  0 active torsions:
REMARK  status: ('A' for Active; 'I' for Inactive)
ROOT
ATOM      1  C   UNL d   1       0.424   0.081   2.356  0.00  0.00     0.020 A 
ATOM      2  C1  UNL d   1      -0.124   1.364   2.346  0.00  0.00     0.020 A 
ATOM      3  C2  UNL d   1      -0.420   1.986   1.131  0.00  0.00     0.034 A 
ATOM      4  C3  UNL d   1      -0.168   1.327  -0.078  0.00  0.00     0.017 A 
ATOM      5  C4  UNL d   1       0.383   0.040  -0.066  0.00  0.00     0.017 A 
ATOM      6  C5  UNL d   1       0.677  -0.579   1.153  0.00  0.00     0.034 A 
ATOM      7 Cl   UNL d   1       0.722  -0.836  -1.516  0.00  0.00    -0.070 Cl
ATOM      8 Cl1  UNL d   1      -0.558   2.157  -1.542  0.00  0.00    -0.070 Cl
ENDROOT
TORSDOF 0
ENDMDL
