MODEL 1
REMARK minimizedAffinity 4.42641592
REMARK minimizedRMSD -1
REMARK  0 active torsions:
REMARK  status: ('A' for Active; 'I' for Inactive)
ROOT
ATOM      1  C   UNL d   1       1.094  -0.222   3.743  0.00  0.00     0.020 A 
ATOM      2  C1  UNL d   1       0.803   1.118   3.489  0.00  0.00     0.020 A 
ATOM      3  C2  UNL d   1       0.646   1.560   2.174  0.00  0.00     0.034 A 
ATOM      4  C3  UNL d   1       0.778   0.662   1.108  0.00  0.00     0.017 A 
ATOM      5  C4  UNL d   1       1.070  -0.682   1.365  0.00  0.00     0.017 A 
ATOM      6  C5  UNL d   1       1.227  -1.120   2.684  0.00  0.00     0.034 A 
ATOM      7 Cl   UNL d   1       1.249  -1.849   0.103  0.00  0.00    -0.070 Cl
ATOM      8 Cl1  UNL d   1       0.570   1.278  -0.493  0.00  0.00    -0.070 Cl
ENDROOT
TORSDOF 0
ENDMDL
