MODEL 1
REMARK minimizedAffinity -3.25009274
REMARK minimizedRMSD -1
REMARK  0 active torsions:
REMARK  status: ('A' for Active; 'I' for Inactive)
ROOT
ATOM      1  C   UNL d   1       0.316   2.669   2.538  0.00  0.00     0.020 A 
ATOM      2  C1  UNL d   1       0.272   2.572   1.148  0.00  0.00     0.020 A 
ATOM      3  C2  UNL d   1       0.665   1.389   0.518  0.00  0.00     0.034 A 
ATOM      4  C3  UNL d   1       1.104   0.299   1.279  0.00  0.00     0.017 A 
ATOM      5  C4  UNL d   1       1.147   0.398   2.674  0.00  0.00     0.017 A 
ATOM      6  C5  UNL d   1       0.752   1.584   3.299  0.00  0.00     0.034 A 
ATOM      7 Cl   UNL d   1       1.677  -0.905   3.679  0.00  0.00    -0.070 Cl
ATOM      8 Cl1  UNL d   1       1.575  -1.132   0.433  0.00  0.00    -0.070 Cl
ENDROOT
TORSDOF 0
ENDMDL
