MODEL 1
REMARK minimizedAffinity -5.04518747
REMARK minimizedRMSD -1
REMARK  0 active torsions:
REMARK  status: ('A' for Active; 'I' for Inactive)
ROOT
ATOM      1  C   UNL d   1       0.914  -0.291   0.239  0.00  0.00     0.020 A 
ATOM      2  C1  UNL d   1       0.709   0.000   1.587  0.00  0.00     0.020 A 
ATOM      3  C2  UNL d   1      -0.092   1.084   1.953  0.00  0.00     0.034 A 
ATOM      4  C3  UNL d   1      -0.692   1.880   0.970  0.00  0.00     0.017 A 
ATOM      5  C4  UNL d   1      -0.486   1.586  -0.383  0.00  0.00     0.017 A 
ATOM      6  C5  UNL d   1       0.317   0.500  -0.744  0.00  0.00     0.034 A 
ATOM      7 Cl   UNL d   1      -1.193   2.522  -1.653  0.00  0.00    -0.070 Cl
ATOM      8 Cl1  UNL d   1      -1.671   3.203   1.494  0.00  0.00    -0.070 Cl
ENDROOT
TORSDOF 0
ENDMDL
