MODEL 1
REMARK minimizedAffinity -4.07336235
REMARK minimizedRMSD -1
REMARK  0 active torsions:
REMARK  status: ('A' for Active; 'I' for Inactive)
ROOT
ATOM      1  C   UNL d   1       2.199  -1.679   0.345  0.00  0.00     0.077 C 
ATOM      2  C1  UNL d   1       1.247  -0.522   0.425  0.00  0.00    -0.074 A 
ATOM      3  C2  UNL d   1      -0.101  -0.722   0.736  0.00  0.00    -0.005 A 
ATOM      4  C3  UNL d   1      -0.973   0.365   0.817  0.00  0.00     0.006 A 
ATOM      5  C4  UNL d   1      -0.505   1.659   0.588  0.00  0.00    -0.005 A 
ATOM      6  C5  UNL d   1       0.841   1.878   0.277  0.00  0.00    -0.074 A 
ATOM      7  C6  UNL d   1       1.362   3.264   0.037  0.00  0.00     0.077 C 
ATOM      8  C7  UNL d   1       1.712   0.782   0.204  0.00  0.00    -0.001 A 
ENDROOT
TORSDOF 0
ENDMDL
