MODEL 1
REMARK minimizedAffinity 7.23583031
REMARK minimizedRMSD -1
REMARK  0 active torsions:
REMARK  status: ('A' for Active; 'I' for Inactive)
ROOT
ATOM      1  C   UNL d   1      -3.141  -2.505  -1.740  0.00  0.00     0.077 C 
ATOM      2  C1  UNL d   1      -1.936  -3.326  -1.389  0.00  0.00    -0.074 A 
ATOM      3  C2  UNL d   1      -1.324  -4.148  -2.342  0.00  0.00    -0.005 A 
ATOM      4  C3  UNL d   1      -0.199  -4.899  -2.004  0.00  0.00     0.006 A 
ATOM      5  C4  UNL d   1       0.326  -4.836  -0.713  0.00  0.00    -0.005 A 
ATOM      6  C5  UNL d   1      -0.271  -4.019   0.253  0.00  0.00    -0.074 A 
ATOM      7  C6  UNL d   1       0.286  -3.933   1.643  0.00  0.00     0.077 C 
ATOM      8  C7  UNL d   1      -1.398  -3.263  -0.096  0.00  0.00    -0.001 A 
ENDROOT
TORSDOF 0
ENDMDL
