MODEL 1
REMARK minimizedAffinity 2.75121784
REMARK minimizedRMSD -1
REMARK  0 active torsions:
REMARK  status: ('A' for Active; 'I' for Inactive)
ROOT
ATOM      1  C   UNL d   1      -3.699  -4.365  -1.246  0.00  0.00     0.077 C 
ATOM      2  C1  UNL d   1      -2.252  -4.288  -0.858  0.00  0.00    -0.074 A 
ATOM      3  C2  UNL d   1      -1.244  -4.348  -1.825  0.00  0.00    -0.005 A 
ATOM      4  C3  UNL d   1       0.097  -4.266  -1.450  0.00  0.00     0.006 A 
ATOM      5  C4  UNL d   1       0.443  -4.124  -0.105  0.00  0.00    -0.005 A 
ATOM      6  C5  UNL d   1      -0.552  -4.061   0.876  0.00  0.00    -0.074 A 
ATOM      7  C6  UNL d   1      -0.198  -3.898   2.324  0.00  0.00     0.077 C 
ATOM      8  C7  UNL d   1      -1.897  -4.137   0.490  0.00  0.00    -0.001 A 
ENDROOT
TORSDOF 0
ENDMDL
