MODEL 1
REMARK minimizedAffinity -1.05747926
REMARK minimizedRMSD -1
REMARK  0 active torsions:
REMARK  status: ('A' for Active; 'I' for Inactive)
ROOT
ATOM      1  C   UNL d   1      -0.398  -4.487   3.283  0.00  0.00     0.077 C 
ATOM      2  C1  UNL d   1      -0.802  -3.693   2.076  0.00  0.00    -0.074 A 
ATOM      3  C2  UNL d   1      -1.000  -2.311   2.157  0.00  0.00    -0.005 A 
ATOM      4  C3  UNL d   1      -1.366  -1.585   1.024  0.00  0.00     0.006 A 
ATOM      5  C4  UNL d   1      -1.538  -2.233  -0.200  0.00  0.00    -0.005 A 
ATOM      6  C5  UNL d   1      -1.343  -3.614  -0.301  0.00  0.00    -0.074 A 
ATOM      7  C6  UNL d   1      -1.514  -4.324  -1.611  0.00  0.00     0.077 C 
ATOM      8  C7  UNL d   1      -0.969  -4.336   0.841  0.00  0.00    -0.001 A 
ENDROOT
TORSDOF 0
ENDMDL
