MODEL 1
REMARK minimizedAffinity 2.44548631
REMARK minimizedRMSD -1
REMARK  0 active torsions:
REMARK  status: ('A' for Active; 'I' for Inactive)
ROOT
ATOM      1  C   UNL d   1      -2.824  -3.447  -2.365  0.00  0.00     0.077 C 
ATOM      2  C1  UNL d   1      -2.647  -3.987  -0.977  0.00  0.00    -0.074 A 
ATOM      3  C2  UNL d   1      -3.234  -5.198  -0.596  0.00  0.00    -0.005 A 
ATOM      4  C3  UNL d   1      -3.053  -5.692   0.695  0.00  0.00     0.006 A 
ATOM      5  C4  UNL d   1      -2.285  -4.982   1.618  0.00  0.00    -0.005 A 
ATOM      6  C5  UNL d   1      -1.689  -3.769   1.255  0.00  0.00    -0.074 A 
ATOM      7  C6  UNL d   1      -0.852  -2.998   2.232  0.00  0.00     0.077 C 
ATOM      8  C7  UNL d   1      -1.870  -3.283  -0.047  0.00  0.00    -0.001 A 
ENDROOT
TORSDOF 0
ENDMDL
