MODEL 1
REMARK minimizedAffinity -0.852968514
REMARK minimizedRMSD -1
REMARK  0 active torsions:
REMARK  status: ('A' for Active; 'I' for Inactive)
ROOT
ATOM      1  C   UNL d   1       1.789   2.225  -4.878  0.00  0.00     0.077 C 
ATOM      2  C1  UNL d   1       0.345   2.629  -4.918  0.00  0.00    -0.074 A 
ATOM      3  C2  UNL d   1      -0.156   3.402  -5.971  0.00  0.00    -0.005 A 
ATOM      4  C3  UNL d   1      -1.503   3.763  -6.000  0.00  0.00     0.006 A 
ATOM      5  C4  UNL d   1      -2.361   3.355  -4.978  0.00  0.00    -0.005 A 
ATOM      6  C5  UNL d   1      -1.878   2.581  -3.918  0.00  0.00    -0.074 A 
ATOM      7  C6  UNL d   1      -2.790   2.125  -2.817  0.00  0.00     0.077 C 
ATOM      8  C7  UNL d   1      -0.525   2.216  -3.900  0.00  0.00    -0.001 A 
ENDROOT
TORSDOF 0
ENDMDL
