MODEL 1
REMARK minimizedAffinity 4.8213582
REMARK minimizedRMSD -1
REMARK  0 active torsions:
REMARK  status: ('A' for Active; 'I' for Inactive)
ROOT
ATOM      1  C   UNL d   1       0.690   2.411  -4.477  0.00  0.00     0.077 C 
ATOM      2  C1  UNL d   1      -0.724   2.667  -4.906  0.00  0.00    -0.074 A 
ATOM      3  C2  UNL d   1      -1.065   3.834  -5.598  0.00  0.00    -0.005 A 
ATOM      4  C3  UNL d   1      -2.383   4.054  -6.000  0.00  0.00     0.006 A 
ATOM      5  C4  UNL d   1      -3.371   3.111  -5.714  0.00  0.00    -0.005 A 
ATOM      6  C5  UNL d   1      -3.049   1.938  -5.023  0.00  0.00    -0.074 A 
ATOM      7  C6  UNL d   1      -4.097   0.910  -4.717  0.00  0.00     0.077 C 
ATOM      8  C7  UNL d   1      -1.721   1.721  -4.630  0.00  0.00    -0.001 A 
ENDROOT
TORSDOF 0
ENDMDL
