MODEL 1
REMARK minimizedAffinity 3.53452158
REMARK minimizedRMSD -1
REMARK  0 active torsions:
REMARK  status: ('A' for Active; 'I' for Inactive)
ROOT
ATOM      1  C   UNL d   1      -1.767  -3.572  -3.025  0.00  0.00     0.077 C 
ATOM      2  C1  UNL d   1      -1.883  -3.836  -1.553  0.00  0.00    -0.074 A 
ATOM      3  C2  UNL d   1      -2.506  -4.994  -1.077  0.00  0.00    -0.005 A 
ATOM      4  C3  UNL d   1      -2.597  -5.231   0.294  0.00  0.00     0.006 A 
ATOM      5  C4  UNL d   1      -2.068  -4.313   1.202  0.00  0.00    -0.005 A 
ATOM      6  C5  UNL d   1      -1.441  -3.149   0.745  0.00  0.00    -0.074 A 
ATOM      7  C6  UNL d   1      -0.859  -2.157   1.707  0.00  0.00     0.077 C 
ATOM      8  C7  UNL d   1      -1.347  -2.922  -0.635  0.00  0.00    -0.001 A 
ENDROOT
TORSDOF 0
ENDMDL
