MODEL 1
REMARK minimizedAffinity 8.1619463
REMARK minimizedRMSD -1
REMARK  0 active torsions:
REMARK  status: ('A' for Active; 'I' for Inactive)
ROOT
ATOM      1  C   UNL d   1      -2.157  -3.314   0.014  0.00  0.00     0.077 C 
ATOM      2  C1  UNL d   1      -2.269  -2.002   0.731  0.00  0.00    -0.074 A 
ATOM      3  C2  UNL d   1      -1.316  -1.618   1.680  0.00  0.00    -0.005 A 
ATOM      4  C3  UNL d   1      -1.427  -0.390   2.332  0.00  0.00     0.006 A 
ATOM      5  C4  UNL d   1      -2.491   0.465   2.042  0.00  0.00    -0.005 A 
ATOM      6  C5  UNL d   1      -3.453   0.099   1.095  0.00  0.00    -0.074 A 
ATOM      7  C6  UNL d   1      -4.597   1.011   0.764  0.00  0.00     0.077 C 
ATOM      8  C7  UNL d   1      -3.330  -1.133   0.439  0.00  0.00    -0.001 A 
ENDROOT
TORSDOF 0
ENDMDL
