MODEL 1
REMARK minimizedAffinity -3.04140997
REMARK minimizedRMSD -1
REMARK  0 active torsions:
REMARK  status: ('A' for Active; 'I' for Inactive)
ROOT
ATOM      1  C   UNL d   1      -2.062  -3.814  -1.885  0.00  0.00     0.077 C 
ATOM      2  C1  UNL d   1      -1.242  -3.460  -0.680  0.00  0.00    -0.074 A 
ATOM      3  C2  UNL d   1      -1.853  -3.156   0.541  0.00  0.00    -0.005 A 
ATOM      4  C3  UNL d   1      -1.076  -2.838   1.655  0.00  0.00     0.006 A 
ATOM      5  C4  UNL d   1       0.316  -2.821   1.560  0.00  0.00    -0.005 A 
ATOM      6  C5  UNL d   1       0.944  -3.123   0.348  0.00  0.00    -0.074 A 
ATOM      7  C6  UNL d   1       2.439  -3.118   0.231  0.00  0.00     0.077 C 
ATOM      8  C7  UNL d   1       0.157  -3.448  -0.766  0.00  0.00    -0.001 A 
ENDROOT
TORSDOF 0
ENDMDL
