MODEL 1
REMARK minimizedAffinity 3.06880689
REMARK minimizedRMSD -1
REMARK  0 active torsions:
REMARK  status: ('A' for Active; 'I' for Inactive)
ROOT
ATOM      1  C   UNL d   1       1.114   2.257  -4.501  0.00  0.00     0.077 C 
ATOM      2  C1  UNL d   1      -0.280   2.591  -4.943  0.00  0.00    -0.074 A 
ATOM      3  C2  UNL d   1      -0.560   3.802  -5.583  0.00  0.00    -0.005 A 
ATOM      4  C3  UNL d   1      -1.860   4.094  -5.997  0.00  0.00     0.006 A 
ATOM      5  C4  UNL d   1      -2.890   3.180  -5.776  0.00  0.00    -0.005 A 
ATOM      6  C5  UNL d   1      -2.629   1.963  -5.138  0.00  0.00    -0.074 A 
ATOM      7  C6  UNL d   1      -3.723   0.965  -4.901  0.00  0.00     0.077 C 
ATOM      8  C7  UNL d   1      -1.319   1.674  -4.731  0.00  0.00    -0.001 A 
ENDROOT
TORSDOF 0
ENDMDL
