MODEL 1
REMARK minimizedAffinity 3.68969774
REMARK minimizedRMSD -1
REMARK  0 active torsions:
REMARK  status: ('A' for Active; 'I' for Inactive)
ROOT
ATOM      1  C   UNL d   1       2.035   1.509  -4.216  0.00  0.00     0.077 C 
ATOM      2  C1  UNL d   1       0.615   1.914  -4.479  0.00  0.00    -0.074 A 
ATOM      3  C2  UNL d   1       0.192   2.256  -5.767  0.00  0.00    -0.005 A 
ATOM      4  C3  UNL d   1      -1.134   2.621  -5.998  0.00  0.00     0.006 A 
ATOM      5  C4  UNL d   1      -2.049   2.648  -4.945  0.00  0.00    -0.005 A 
ATOM      6  C5  UNL d   1      -1.645   2.309  -3.650  0.00  0.00    -0.074 A 
ATOM      7  C6  UNL d   1      -2.618   2.323  -2.509  0.00  0.00     0.077 C 
ATOM      8  C7  UNL d   1      -0.312   1.936  -3.427  0.00  0.00    -0.001 A 
ENDROOT
TORSDOF 0
ENDMDL
