MODEL 1
REMARK minimizedAffinity 10.2673149
REMARK minimizedRMSD -1
REMARK  0 active torsions:
REMARK  status: ('A' for Active; 'I' for Inactive)
ROOT
ATOM      1  C   UNL d   1       5.925   5.323  -0.703  0.00  0.00     0.077 C 
ATOM      2  C1  UNL d   1       5.653   5.056   0.748  0.00  0.00    -0.074 A 
ATOM      3  C2  UNL d   1       5.991   5.996   1.727  0.00  0.00    -0.005 A 
ATOM      4  C3  UNL d   1       5.723   5.737   3.072  0.00  0.00     0.006 A 
ATOM      5  C4  UNL d   1       5.115   4.540   3.450  0.00  0.00    -0.005 A 
ATOM      6  C5  UNL d   1       4.769   3.589   2.484  0.00  0.00    -0.074 A 
ATOM      7  C6  UNL d   1       4.106   2.301   2.872  0.00  0.00     0.077 C 
ATOM      8  C7  UNL d   1       5.035   3.858   1.135  0.00  0.00    -0.001 A 
ENDROOT
TORSDOF 0
ENDMDL
