MODEL 1
REMARK minimizedAffinity -0.377332181
REMARK minimizedRMSD -1
REMARK  0 active torsions:
REMARK  status: ('A' for Active; 'I' for Inactive)
ROOT
ATOM      1  C   UNL d   1       2.638   4.989   0.477  0.00  0.00     0.077 C 
ATOM      2  C1  UNL d   1       2.041   3.665   0.852  0.00  0.00    -0.074 A 
ATOM      3  C2  UNL d   1       2.449   2.487   0.218  0.00  0.00    -0.005 A 
ATOM      4  C3  UNL d   1       1.892   1.262   0.584  0.00  0.00     0.006 A 
ATOM      5  C4  UNL d   1       0.923   1.203   1.587  0.00  0.00    -0.005 A 
ATOM      6  C5  UNL d   1       0.504   2.370   2.233  0.00  0.00    -0.074 A 
ATOM      7  C6  UNL d   1      -0.529   2.322   3.319  0.00  0.00     0.077 C 
ATOM      8  C7  UNL d   1       1.073   3.596   1.864  0.00  0.00    -0.001 A 
ENDROOT
TORSDOF 0
ENDMDL
