MODEL 1
REMARK minimizedAffinity 7.64538479
REMARK minimizedRMSD -1
REMARK  0 active torsions:
REMARK  status: ('A' for Active; 'I' for Inactive)
ROOT
ATOM      1  C   UNL d   1      -3.775  -5.998   0.749  0.00  0.00     0.077 C 
ATOM      2  C1  UNL d   1      -3.093  -5.109  -0.248  0.00  0.00    -0.074 A 
ATOM      3  C2  UNL d   1      -3.788  -4.597  -1.348  0.00  0.00    -0.005 A 
ATOM      4  C3  UNL d   1      -3.143  -3.765  -2.263  0.00  0.00     0.006 A 
ATOM      5  C4  UNL d   1      -1.798  -3.436  -2.087  0.00  0.00    -0.005 A 
ATOM      6  C5  UNL d   1      -1.087  -3.939  -0.993  0.00  0.00    -0.074 A 
ATOM      7  C6  UNL d   1       0.356  -3.588  -0.784  0.00  0.00     0.077 C 
ATOM      8  C7  UNL d   1      -1.744  -4.769  -0.074  0.00  0.00    -0.001 A 
ENDROOT
TORSDOF 0
ENDMDL
