MODEL 1
REMARK minimizedAffinity 6.9129076
REMARK minimizedRMSD -1
REMARK  2 active torsions:
REMARK  status: ('A' for Active; 'I' for Inactive)
REMARK    1  A    between atoms: C2'_3  and  C1'_4 
REMARK    2  A    between atoms: C1'_4  and  C1_5 
ROOT
ATOM      1  C1  I4B d   1       0.993  -1.911   0.124  0.00  0.00    -0.075 A 
ATOM      2  C2  I4B d   1      -0.324  -1.672   0.431  0.00  0.00     0.003 A 
ATOM      3  C3  I4B d   1      -1.314  -1.737  -0.580  0.00  0.00     0.002 A 
ATOM      4  C4  I4B d   1      -0.939  -1.992  -1.883  0.00  0.00    -0.004 A 
ATOM      5  C5  I4B d   1       0.394  -2.256  -2.188  0.00  0.00     0.002 A 
ATOM      6  C6  I4B d   1       1.364  -2.227  -1.176  0.00  0.00     0.003 A 
ENDROOT
BRANCH   1   7
ATOM      7  C1' I4B d   1       2.016  -1.802   1.210  0.00  0.00     0.060 C 
BRANCH   7   8
ATOM      8  C2' I4B d   1       2.735  -0.479   1.042  0.00  0.00    -0.013 C 
ATOM      9  C4' I4B d   1       2.457   0.444   2.200  0.00  0.00     0.013 C 
ATOM     10  C3' I4B d   1       4.203  -0.762   0.916  0.00  0.00     0.013 C 
ENDBRANCH   7   8
ENDBRANCH   1   7
TORSDOF 2
ENDMDL
