MODEL 1
REMARK minimizedAffinity 4.8913393
REMARK minimizedRMSD -1
REMARK  2 active torsions:
REMARK  status: ('A' for Active; 'I' for Inactive)
REMARK    1  A    between atoms: C2'_3  and  C1'_4 
REMARK    2  A    between atoms: C1'_4  and  C1_5 
ROOT
ATOM      1  C1  I4B d   1       0.759  -0.187   1.903  0.00  0.00    -0.075 A 
ATOM      2  C2  I4B d   1       1.882   0.569   1.678  0.00  0.00     0.003 A 
ATOM      3  C3  I4B d   1       1.774   1.843   1.069  0.00  0.00     0.002 A 
ATOM      4  C4  I4B d   1       0.538   2.297   0.658  0.00  0.00    -0.004 A 
ATOM      5  C5  I4B d   1      -0.603   1.539   0.907  0.00  0.00     0.002 A 
ATOM      6  C6  I4B d   1      -0.494   0.294   1.544  0.00  0.00     0.003 A 
ENDROOT
BRANCH   1   7
ATOM      7  C1' I4B d   1       0.913  -1.542   2.518  0.00  0.00     0.060 C 
BRANCH   7   8
ATOM      8  C2' I4B d   1       1.729  -1.389   3.785  0.00  0.00    -0.013 C 
ATOM      9  C4' I4B d   1       0.905  -1.702   5.006  0.00  0.00     0.013 C 
ATOM     10  C3' I4B d   1       2.916  -2.300   3.685  0.00  0.00     0.013 C 
ENDBRANCH   7   8
ENDBRANCH   1   7
TORSDOF 2
ENDMDL
