MODEL 1
REMARK minimizedAffinity -2.70928526
REMARK minimizedRMSD -1
REMARK  2 active torsions:
REMARK  status: ('A' for Active; 'I' for Inactive)
REMARK    1  A    between atoms: C2'_3  and  C1'_4 
REMARK    2  A    between atoms: C1'_4  and  C1_5 
ROOT
ATOM      1  C1  I4B d   1      -5.813  -5.036  -3.308  0.00  0.00    -0.075 A 
ATOM      2  C2  I4B d   1      -5.606  -5.992  -4.271  0.00  0.00     0.003 A 
ATOM      3  C3  I4B d   1      -5.561  -5.628  -5.639  0.00  0.00     0.002 A 
ATOM      4  C4  I4B d   1      -5.777  -4.313  -5.999  0.00  0.00    -0.004 A 
ATOM      5  C5  I4B d   1      -5.963  -3.342  -5.020  0.00  0.00     0.002 A 
ATOM      6  C6  I4B d   1      -5.969  -3.703  -3.665  0.00  0.00     0.003 A 
ENDROOT
BRANCH   1   7
ATOM      7  C1' I4B d   1      -5.887  -5.461  -1.876  0.00  0.00     0.060 C 
BRANCH   7   8
ATOM      8  C2' I4B d   1      -4.502  -5.328  -1.277  0.00  0.00    -0.013 C 
ATOM      9  C4' I4B d   1      -3.467  -5.998  -2.142  0.00  0.00     0.013 C 
ATOM     10  C3' I4B d   1      -4.206  -3.867  -1.113  0.00  0.00     0.013 C 
ENDBRANCH   7   8
ENDBRANCH   1   7
TORSDOF 2
ENDMDL
