MODEL 1
REMARK minimizedAffinity 9.19540596
REMARK minimizedRMSD -1
REMARK  2 active torsions:
REMARK  status: ('A' for Active; 'I' for Inactive)
REMARK    1  A    between atoms: C2'_3  and  C1'_4 
REMARK    2  A    between atoms: C1'_4  and  C1_5 
ROOT
ATOM      1  C1  I4B d   1       2.885  -3.842   3.454  0.00  0.00    -0.075 A 
ATOM      2  C2  I4B d   1       2.243  -4.875   2.818  0.00  0.00     0.003 A 
ATOM      3  C3  I4B d   1       1.164  -4.611   1.940  0.00  0.00     0.002 A 
ATOM      4  C4  I4B d   1       0.732  -3.312   1.766  0.00  0.00    -0.004 A 
ATOM      5  C5  I4B d   1       1.399  -2.264   2.394  0.00  0.00     0.002 A 
ATOM      6  C6  I4B d   1       2.490  -2.529   3.233  0.00  0.00     0.003 A 
ENDROOT
BRANCH   1   7
ATOM      7  C1' I4B d   1       3.999  -4.159   4.401  0.00  0.00     0.060 C 
BRANCH   7   8
ATOM      8  C2' I4B d   1       5.138  -3.200   4.120  0.00  0.00    -0.013 C 
ATOM      9  C4' I4B d   1       5.992  -2.995   5.344  0.00  0.00     0.013 C 
ATOM     10  C3' I4B d   1       5.944  -3.757   2.985  0.00  0.00     0.013 C 
ENDBRANCH   7   8
ENDBRANCH   1   7
TORSDOF 2
ENDMDL
