MODEL 1
REMARK minimizedAffinity 1.85117567
REMARK minimizedRMSD -1
REMARK  2 active torsions:
REMARK  status: ('A' for Active; 'I' for Inactive)
REMARK    1  A    between atoms: C2'_3  and  C1'_4 
REMARK    2  A    between atoms: C1'_4  and  C1_5 
ROOT
ATOM      1  C1  I4B d   1      -5.319   0.745  -5.043  0.00  0.00    -0.075 A 
ATOM      2  C2  I4B d   1      -5.648   1.003  -3.736  0.00  0.00     0.003 A 
ATOM      3  C3  I4B d   1      -5.000   2.046  -3.030  0.00  0.00     0.002 A 
ATOM      4  C4  I4B d   1      -4.000   2.766  -3.650  0.00  0.00    -0.004 A 
ATOM      5  C5  I4B d   1      -3.683   2.518  -4.982  0.00  0.00     0.002 A 
ATOM      6  C6  I4B d   1      -4.355   1.509  -5.687  0.00  0.00     0.003 A 
ENDROOT
BRANCH   1   7
ATOM      7  C1' I4B d   1      -6.000  -0.385  -5.748  0.00  0.00     0.060 C 
BRANCH   7   8
ATOM      8  C2' I4B d   1      -5.502  -1.681  -5.142  0.00  0.00    -0.013 C 
ATOM      9  C4' I4B d   1      -5.967  -1.832  -3.718  0.00  0.00     0.013 C 
ATOM     10  C3' I4B d   1      -5.996  -2.811  -5.995  0.00  0.00     0.013 C 
ENDBRANCH   7   8
ENDBRANCH   1   7
TORSDOF 2
ENDMDL
