MODEL 1
REMARK minimizedAffinity 7.64128923
REMARK minimizedRMSD -1
REMARK  0 active torsions:
REMARK  status: ('A' for Active; 'I' for Inactive)
ROOT
ATOM      1  C4' PXY d   1       5.614  -1.468   5.976  0.00  0.00     0.077 C 
ATOM      2  C1' PXY d   1       4.562   3.568   3.339  0.00  0.00     0.077 C 
ATOM      3  C1  PXY d   1       4.846   2.253   4.038  0.00  0.00    -0.082 A 
ATOM      4  C2  PXY d   1       4.681   1.115   3.384  0.00  0.00     0.003 A 
ATOM      5  C3  PXY d   1       4.902  -0.084   4.012  0.00  0.00     0.003 A 
ATOM      6  C4  PXY d   1       5.348  -0.117   5.306  0.00  0.00    -0.082 A 
ATOM      7  C5  PXY d   1       5.530   1.041   5.976  0.00  0.00     0.003 A 
ATOM      8  C6  PXY d   1       5.260   2.246   5.334  0.00  0.00     0.003 A 
ENDROOT
TORSDOF 0
ENDMDL
