MODEL 1
REMARK minimizedAffinity 8.39812565
REMARK minimizedRMSD -1
REMARK  0 active torsions:
REMARK  status: ('A' for Active; 'I' for Inactive)
ROOT
ATOM      1  C4' PXY d   1       2.526   3.719  -0.465  0.00  0.00     0.077 C 
ATOM      2  C1' PXY d   1      -1.729  -0.191  -0.307  0.00  0.00     0.077 C 
ATOM      3  C1  PXY d   1      -0.621   0.843  -0.342  0.00  0.00    -0.082 A 
ATOM      4  C2  PXY d   1       0.322   0.760  -1.267  0.00  0.00     0.003 A 
ATOM      5  C3  PXY d   1       1.349   1.668  -1.293  0.00  0.00     0.003 A 
ATOM      6  C4  PXY d   1       1.382   2.703  -0.397  0.00  0.00    -0.082 A 
ATOM      7  C5  PXY d   1       0.418   2.801   0.543  0.00  0.00     0.003 A 
ATOM      8  C6  PXY d   1      -0.593   1.845   0.578  0.00  0.00     0.003 A 
ENDROOT
TORSDOF 0
ENDMDL
