MODEL 1
REMARK minimizedAffinity -2.86529016
REMARK minimizedRMSD -1
REMARK  0 active torsions:
REMARK  status: ('A' for Active; 'I' for Inactive)
ROOT
ATOM      1  C4' PXY d   1       0.669   2.177  -0.809  0.00  0.00     0.077 C 
ATOM      2  C1' PXY d   1       1.577  -2.681  -3.808  0.00  0.00     0.077 C 
ATOM      3  C1  PXY d   1       1.345  -1.400  -3.031  0.00  0.00    -0.082 A 
ATOM      4  C2  PXY d   1       1.203  -1.449  -1.716  0.00  0.00     0.003 A 
ATOM      5  C3  PXY d   1       0.961  -0.304  -1.002  0.00  0.00     0.003 A 
ATOM      6  C4  PXY d   1       0.915   0.910  -1.633  0.00  0.00    -0.082 A 
ATOM      7  C5  PXY d   1       1.069   0.970  -2.973  0.00  0.00     0.003 A 
ATOM      8  C6  PXY d   1       1.273  -0.209  -3.685  0.00  0.00     0.003 A 
ENDROOT
TORSDOF 0
ENDMDL
