MODEL 1
REMARK minimizedAffinity 2.8151648
REMARK minimizedRMSD -1
REMARK  0 active torsions:
REMARK  status: ('A' for Active; 'I' for Inactive)
ROOT
ATOM      1  C4' PXY d   1       1.690   0.769  -4.355  0.00  0.00     0.077 C 
ATOM      2  C1' PXY d   1       0.856  -2.219   0.523  0.00  0.00     0.077 C 
ATOM      3  C1  PXY d   1       1.066  -1.427  -0.753  0.00  0.00    -0.082 A 
ATOM      4  C2  PXY d   1       1.576  -2.024  -1.817  0.00  0.00     0.003 A 
ATOM      5  C3  PXY d   1       1.802  -1.315  -2.969  0.00  0.00     0.003 A 
ATOM      6  C4  PXY d   1       1.452   0.007  -3.049  0.00  0.00    -0.082 A 
ATOM      7  C5  PXY d   1       0.921   0.620  -1.970  0.00  0.00     0.003 A 
ATOM      8  C6  PXY d   1       0.738  -0.107  -0.798  0.00  0.00     0.003 A 
ENDROOT
TORSDOF 0
ENDMDL
