MODEL 1
REMARK minimizedAffinity 9.95137119
REMARK minimizedRMSD -1
REMARK  0 active torsions:
REMARK  status: ('A' for Active; 'I' for Inactive)
ROOT
ATOM      1  C4' PXY d   1       0.392   1.549  -1.459  0.00  0.00     0.077 C 
ATOM      2  C1' PXY d   1       0.900  -3.976   0.164  0.00  0.00     0.077 C 
ATOM      3  C1  PXY d   1       0.779  -2.527  -0.265  0.00  0.00    -0.082 A 
ATOM      4  C2  PXY d   1      -0.174  -1.769   0.251  0.00  0.00     0.003 A 
ATOM      5  C3  PXY d   1      -0.318  -0.466  -0.149  0.00  0.00     0.003 A 
ATOM      6  C4  PXY d   1       0.557   0.083  -1.048  0.00  0.00    -0.082 A 
ATOM      7  C5  PXY d   1       1.540  -0.681  -1.572  0.00  0.00     0.003 A 
ATOM      8  C6  PXY d   1       1.643  -2.013  -1.183  0.00  0.00     0.003 A 
ENDROOT
TORSDOF 0
ENDMDL
