MODEL 1
REMARK minimizedAffinity 6.3100419
REMARK minimizedRMSD -1
REMARK  0 active torsions:
REMARK  status: ('A' for Active; 'I' for Inactive)
ROOT
ATOM      1  C4' PXY d   1       2.031  -0.278  -4.120  0.00  0.00     0.077 C 
ATOM      2  C1' PXY d   1       1.504   5.274  -5.641  0.00  0.00     0.077 C 
ATOM      3  C1  PXY d   1       1.641   3.821  -5.230  0.00  0.00    -0.082 A 
ATOM      4  C2  PXY d   1       2.316   2.984  -6.000  0.00  0.00     0.003 A 
ATOM      5  C3  PXY d   1       2.422   1.660  -5.659  0.00  0.00     0.003 A 
ATOM      6  C4  PXY d   1       1.876   1.200  -4.491  0.00  0.00    -0.082 A 
ATOM      7  C5  PXY d   1       1.194   2.050  -3.694  0.00  0.00     0.003 A 
ATOM      8  C6  PXY d   1       1.063   3.382  -4.079  0.00  0.00     0.003 A 
ENDROOT
TORSDOF 0
ENDMDL
