MODEL 1
REMARK minimizedAffinity -0.277666152
REMARK minimizedRMSD -1
REMARK  0 active torsions:
REMARK  status: ('A' for Active; 'I' for Inactive)
ROOT
ATOM      1  C4' PXY d   1       1.801  -1.948  -1.000  0.00  0.00     0.077 C 
ATOM      2  C1' PXY d   1       0.540   3.553   0.253  0.00  0.00     0.077 C 
ATOM      3  C1  PXY d   1       0.883   2.113  -0.075  0.00  0.00    -0.082 A 
ATOM      4  C2  PXY d   1      -0.001   1.357  -0.707  0.00  0.00     0.003 A 
ATOM      5  C3  PXY d   1       0.281   0.044  -0.983  0.00  0.00     0.003 A 
ATOM      6  C4  PXY d   1       1.501  -0.486  -0.657  0.00  0.00    -0.082 A 
ATOM      7  C5  PXY d   1       2.412   0.282  -0.022  0.00  0.00     0.003 A 
ATOM      8  C6  PXY d   1       2.091   1.600   0.286  0.00  0.00     0.003 A 
ENDROOT
TORSDOF 0
ENDMDL
