MODEL 1
REMARK minimizedAffinity 3.5735383
REMARK minimizedRMSD -1
REMARK  0 active torsions:
REMARK  status: ('A' for Active; 'I' for Inactive)
ROOT
ATOM      1  C4' PXY d   1       1.659   0.869  -4.861  0.00  0.00     0.077 C 
ATOM      2  C1' PXY d   1       0.793  -2.941  -0.601  0.00  0.00     0.077 C 
ATOM      3  C1  PXY d   1       1.024  -1.952  -1.726  0.00  0.00    -0.082 A 
ATOM      4  C2  PXY d   1       1.206  -0.672  -1.444  0.00  0.00     0.003 A 
ATOM      5  C3  PXY d   1       1.385   0.242  -2.451  0.00  0.00     0.003 A 
ATOM      6  C4  PXY d   1       1.431  -0.167  -3.757  0.00  0.00    -0.082 A 
ATOM      7  C5  PXY d   1       1.257  -1.473  -4.052  0.00  0.00     0.003 A 
ATOM      8  C6  PXY d   1       1.036  -2.378  -3.018  0.00  0.00     0.003 A 
ENDROOT
TORSDOF 0
ENDMDL
