MODEL 1
REMARK minimizedAffinity 4.34654093
REMARK minimizedRMSD -1
REMARK  0 active torsions:
REMARK  status: ('A' for Active; 'I' for Inactive)
ROOT
ATOM      1  C4' PXY d   1       4.813   4.093   4.532  0.00  0.00     0.077 C 
ATOM      2  C1' PXY d   1       5.256  -1.514   5.866  0.00  0.00     0.077 C 
ATOM      3  C1  PXY d   1       5.133  -0.046   5.505  0.00  0.00    -0.082 A 
ATOM      4  C2  PXY d   1       5.999   0.823   5.999  0.00  0.00     0.003 A 
ATOM      5  C3  PXY d   1       5.884   2.158   5.709  0.00  0.00     0.003 A 
ATOM      6  C4  PXY d   1       4.904   2.601   4.861  0.00  0.00    -0.082 A 
ATOM      7  C5  PXY d   1       4.023   1.718   4.344  0.00  0.00     0.003 A 
ATOM      8  C6  PXY d   1       4.132   0.373   4.684  0.00  0.00     0.003 A 
ENDROOT
TORSDOF 0
ENDMDL
