MODEL 1
REMARK minimizedAffinity -1.91861224
REMARK minimizedRMSD -1
REMARK  0 active torsions:
REMARK  status: ('A' for Active; 'I' for Inactive)
ROOT
ATOM      1  C4' PXY d   1       5.584   0.047   4.917  0.00  0.00     0.077 C 
ATOM      2  C1' PXY d   1       5.657   5.827   4.928  0.00  0.00     0.077 C 
ATOM      3  C1  PXY d   1       5.629   4.311   4.916  0.00  0.00    -0.082 A 
ATOM      4  C2  PXY d   1       5.988   3.641   5.999  0.00  0.00     0.003 A 
ATOM      5  C3  PXY d   1       5.999   2.270   5.995  0.00  0.00     0.003 A 
ATOM      6  C4  PXY d   1       5.588   1.577   4.888  0.00  0.00    -0.082 A 
ATOM      7  C5  PXY d   1       5.210   2.253   3.782  0.00  0.00     0.003 A 
ATOM      8  C6  PXY d   1       5.245   3.645   3.793  0.00  0.00     0.003 A 
ENDROOT
TORSDOF 0
ENDMDL
