MODEL 1
REMARK minimizedAffinity 4.17442083
REMARK minimizedRMSD -1
REMARK  0 active torsions:
REMARK  status: ('A' for Active; 'I' for Inactive)
ROOT
ATOM      1  C4' PXY d   1       1.294   1.425  -3.262  0.00  0.00     0.077 C 
ATOM      2  C1' PXY d   1       1.054   3.487   2.133  0.00  0.00     0.077 C 
ATOM      3  C1  PXY d   1       1.113   2.934   0.723  0.00  0.00    -0.082 A 
ATOM      4  C2  PXY d   1       1.860   3.541  -0.186  0.00  0.00     0.003 A 
ATOM      5  C3  PXY d   1       1.900   3.073  -1.475  0.00  0.00     0.003 A 
ATOM      6  C4  PXY d   1       1.211   1.942  -1.823  0.00  0.00    -0.082 A 
ATOM      7  C5  PXY d   1       0.456   1.312  -0.898  0.00  0.00     0.003 A 
ATOM      8  C6  PXY d   1       0.396   1.826   0.393  0.00  0.00     0.003 A 
ENDROOT
TORSDOF 0
ENDMDL
