MODEL 1
REMARK minimizedAffinity 0.020960547
REMARK minimizedRMSD -1
REMARK  0 active torsions:
REMARK  status: ('A' for Active; 'I' for Inactive)
ROOT
ATOM      1  C4' PXY d   1       5.988  -2.066   5.953  0.00  0.00     0.077 C 
ATOM      2  C1' PXY d   1       3.398   3.026   5.070  0.00  0.00     0.077 C 
ATOM      3  C1  PXY d   1       4.089   1.697   5.301  0.00  0.00    -0.082 A 
ATOM      4  C2  PXY d   1       3.450   0.571   5.026  0.00  0.00     0.003 A 
ATOM      5  C3  PXY d   1       4.048  -0.641   5.259  0.00  0.00     0.003 A 
ATOM      6  C4  PXY d   1       5.333  -0.700   5.727  0.00  0.00    -0.082 A 
ATOM      7  C5  PXY d   1       5.996   0.444   5.999  0.00  0.00     0.003 A 
ATOM      8  C6  PXY d   1       5.356   1.663   5.795  0.00  0.00     0.003 A 
ENDROOT
TORSDOF 0
ENDMDL
