MODEL 1
REMARK minimizedAffinity -4.21094418
REMARK minimizedRMSD -1
REMARK  0 active torsions:
REMARK  status: ('A' for Active; 'I' for Inactive)
ROOT
ATOM      1  C4' PXY d   1       1.297   0.734  -3.927  0.00  0.00     0.077 C 
ATOM      2  C1' PXY d   1       0.815  -2.617   0.758  0.00  0.00     0.077 C 
ATOM      3  C1  PXY d   1       0.930  -1.732  -0.467  0.00  0.00    -0.082 A 
ATOM      4  C2  PXY d   1       1.628  -2.148  -1.511  0.00  0.00     0.003 A 
ATOM      5  C3  PXY d   1       1.769  -1.347  -2.615  0.00  0.00     0.003 A 
ATOM      6  C4  PXY d   1       1.146  -0.130  -2.672  0.00  0.00    -0.082 A 
ATOM      7  C5  PXY d   1       0.423   0.297  -1.615  0.00  0.00     0.003 A 
ATOM      8  C6  PXY d   1       0.326  -0.513  -0.487  0.00  0.00     0.003 A 
ENDROOT
TORSDOF 0
ENDMDL
