MODEL 1
REMARK minimizedAffinity -1.58467305
REMARK minimizedRMSD -1
REMARK  0 active torsions:
REMARK  status: ('A' for Active; 'I' for Inactive)
ROOT
ATOM      1  C4' PXY d   1       0.976  -2.174   0.085  0.00  0.00     0.077 C 
ATOM      2  C1' PXY d   1       1.903   1.148  -4.554  0.00  0.00     0.077 C 
ATOM      3  C1  PXY d   1       1.658   0.287  -3.330  0.00  0.00    -0.082 A 
ATOM      4  C2  PXY d   1       2.094  -0.962  -3.311  0.00  0.00     0.003 A 
ATOM      5  C3  PXY d   1       1.854  -1.764  -2.225  0.00  0.00     0.003 A 
ATOM      6  C4  PXY d   1       1.208  -1.266  -1.125  0.00  0.00    -0.082 A 
ATOM      7  C5  PXY d   1       0.770   0.011  -1.133  0.00  0.00     0.003 A 
ATOM      8  C6  PXY d   1       0.987   0.796  -2.261  0.00  0.00     0.003 A 
ENDROOT
TORSDOF 0
ENDMDL
