MODEL 1
REMARK minimizedAffinity 2.03824162
REMARK minimizedRMSD -1
REMARK  0 active torsions:
REMARK  status: ('A' for Active; 'I' for Inactive)
ROOT
ATOM      1  C4' PXY d   1      -1.724  -0.764   1.848  0.00  0.00     0.077 C 
ATOM      2  C1' PXY d   1       2.257  -2.027  -2.149  0.00  0.00     0.077 C 
ATOM      3  C1  PXY d   1       1.218  -1.684  -1.099  0.00  0.00    -0.082 A 
ATOM      4  C2  PXY d   1       0.617  -2.655  -0.432  0.00  0.00     0.003 A 
ATOM      5  C3  PXY d   1      -0.348  -2.364   0.498  0.00  0.00     0.003 A 
ATOM      6  C4  PXY d   1      -0.662  -1.063   0.786  0.00  0.00    -0.082 A 
ATOM      7  C5  PXY d   1      -0.045  -0.066   0.117  0.00  0.00     0.003 A 
ATOM      8  C6  PXY d   1       0.902  -0.384  -0.852  0.00  0.00     0.003 A 
ENDROOT
TORSDOF 0
ENDMDL
