MODEL 1
REMARK minimizedAffinity 7.38837671
REMARK minimizedRMSD -1
REMARK  0 active torsions:
REMARK  status: ('A' for Active; 'I' for Inactive)
ROOT
ATOM      1  C4' PXY d   1       1.489   0.132  -3.904  0.00  0.00     0.077 C 
ATOM      2  C1' PXY d   1       0.473  -3.112   0.771  0.00  0.00     0.077 C 
ATOM      3  C1  PXY d   1       0.728  -2.255  -0.453  0.00  0.00    -0.082 A 
ATOM      4  C2  PXY d   1       1.572  -2.676  -1.381  0.00  0.00     0.003 A 
ATOM      5  C3  PXY d   1       1.839  -1.899  -2.479  0.00  0.00     0.003 A 
ATOM      6  C4  PXY d   1       1.194  -0.704  -2.656  0.00  0.00    -0.082 A 
ATOM      7  C5  PXY d   1       0.323  -0.273  -1.719  0.00  0.00     0.003 A 
ATOM      8  C6  PXY d   1       0.097  -1.058  -0.591  0.00  0.00     0.003 A 
ENDROOT
TORSDOF 0
ENDMDL
