MODEL 1
REMARK minimizedAffinity -0.498318523
REMARK minimizedRMSD -1
REMARK  0 active torsions:
REMARK  status: ('A' for Active; 'I' for Inactive)
ROOT
ATOM      1  C4' PXY d   1       5.429  -2.269   4.933  0.00  0.00     0.077 C 
ATOM      2  C1' PXY d   1       5.371   3.511   4.958  0.00  0.00     0.077 C 
ATOM      3  C1  PXY d   1       5.397   1.995   4.959  0.00  0.00    -0.082 A 
ATOM      4  C2  PXY d   1       4.861   1.331   3.948  0.00  0.00     0.003 A 
ATOM      5  C3  PXY d   1       4.847  -0.040   3.948  0.00  0.00     0.003 A 
ATOM      6  C4  PXY d   1       5.434  -0.739   4.969  0.00  0.00    -0.082 A 
ATOM      7  C5  PXY d   1       5.992  -0.068   5.999  0.00  0.00     0.003 A 
ATOM      8  C6  PXY d   1       5.959   1.323   6.000  0.00  0.00     0.003 A 
ENDROOT
TORSDOF 0
ENDMDL
