MODEL 1
REMARK minimizedAffinity 5.13188791
REMARK minimizedRMSD -1
REMARK  0 active torsions:
REMARK  status: ('A' for Active; 'I' for Inactive)
ROOT
ATOM      1  C4' PXY d   1      -2.402  -0.680   1.580  0.00  0.00     0.077 C 
ATOM      2  C1' PXY d   1       2.225  -1.682  -1.738  0.00  0.00     0.077 C 
ATOM      3  C1  PXY d   1       1.015  -1.407  -0.866  0.00  0.00    -0.082 A 
ATOM      4  C2  PXY d   1       0.402  -2.412  -0.263  0.00  0.00     0.003 A 
ATOM      5  C3  PXY d   1      -0.713  -2.185   0.504  0.00  0.00     0.003 A 
ATOM      6  C4  PXY d   1      -1.172  -0.910   0.698  0.00  0.00    -0.082 A 
ATOM      7  C5  PXY d   1      -0.545   0.122   0.094  0.00  0.00     0.003 A 
ATOM      8  C6  PXY d   1       0.560  -0.134  -0.713  0.00  0.00     0.003 A 
ENDROOT
TORSDOF 0
ENDMDL
