MODEL 1
REMARK minimizedAffinity 4.64734745
REMARK minimizedRMSD -1
REMARK  0 active torsions:
REMARK  status: ('A' for Active; 'I' for Inactive)
ROOT
ATOM      1  C4' PXY d   1       1.253  -4.324  -3.751  0.00  0.00     0.077 C 
ATOM      2  C1' PXY d   1       1.485   1.421  -3.146  0.00  0.00     0.077 C 
ATOM      3  C1  PXY d   1       1.431  -0.087  -3.294  0.00  0.00    -0.082 A 
ATOM      4  C2  PXY d   1       1.194  -0.620  -4.482  0.00  0.00     0.003 A 
ATOM      5  C3  PXY d   1       1.111  -1.981  -4.627  0.00  0.00     0.003 A 
ATOM      6  C4  PXY d   1       1.325  -2.807  -3.557  0.00  0.00    -0.082 A 
ATOM      7  C5  PXY d   1       1.578  -2.271  -2.344  0.00  0.00     0.003 A 
ATOM      8  C6  PXY d   1       1.618  -0.886  -2.209  0.00  0.00     0.003 A 
ENDROOT
TORSDOF 0
ENDMDL
