MODEL 1
REMARK minimizedAffinity 3.95697618
REMARK minimizedRMSD -1
REMARK  0 active torsions:
REMARK  status: ('A' for Active; 'I' for Inactive)
ROOT
ATOM      1  C4' PXY d   1       1.652   0.672  -3.924  0.00  0.00     0.077 C 
ATOM      2  C1' PXY d   1       0.668  -2.617   0.727  0.00  0.00     0.077 C 
ATOM      3  C1  PXY d   1       0.915  -1.747  -0.490  0.00  0.00    -0.082 A 
ATOM      4  C2  PXY d   1       1.616  -2.227  -1.505  0.00  0.00     0.003 A 
ATOM      5  C3  PXY d   1       1.876  -1.443  -2.599  0.00  0.00     0.003 A 
ATOM      6  C4  PXY d   1       1.369  -0.174  -2.679  0.00  0.00    -0.082 A 
ATOM      7  C5  PXY d   1       0.644   0.319  -1.652  0.00  0.00     0.003 A 
ATOM      8  C6  PXY d   1       0.426  -0.478  -0.532  0.00  0.00     0.003 A 
ENDROOT
TORSDOF 0
ENDMDL
