MODEL 1
REMARK minimizedAffinity -3.27393246
REMARK minimizedRMSD -1
REMARK  1 active torsions:
REMARK  status: ('A' for Active; 'I' for Inactive)
REMARK    1  A    between atoms: C1_2  and  C2_3 
ROOT
ATOM      1  C2  UNL d   1       0.281  -0.021  -0.585  0.00  0.00    -0.077 A 
ATOM      2  C3  UNL d   1       0.678   0.494  -1.828  0.00  0.00     0.002 A 
ATOM      3  C4  UNL d   1       0.928   1.859  -1.979  0.00  0.00     0.002 A 
ATOM      4  C5  UNL d   1       0.788   2.720  -0.892  0.00  0.00    -0.004 A 
ATOM      5  C6  UNL d   1       0.392   2.217   0.347  0.00  0.00     0.002 A 
ATOM      6  C7  UNL d   1       0.140   0.853   0.500  0.00  0.00     0.002 A 
ENDROOT
BRANCH   1   7
ATOM      7  C1  UNL d   1       0.058  -1.500  -0.408  0.00  0.00     0.055 C 
ATOM      8  C   UNL d   1       0.072  -1.889   1.063  0.00  0.00     0.019 C 
ENDBRANCH   1   7
TORSDOF 1
ENDMDL
