MODEL 1
REMARK minimizedAffinity -3.37790895
REMARK minimizedRMSD -1
REMARK  1 active torsions:
REMARK  status: ('A' for Active; 'I' for Inactive)
REMARK    1  A    between atoms: C1_2  and  C2_3 
ROOT
ATOM      1  C2  UNL d   1       1.020   1.831  -1.169  0.00  0.00    -0.077 A 
ATOM      2  C3  UNL d   1      -0.017   2.350  -1.957  0.00  0.00     0.002 A 
ATOM      3  C4  UNL d   1       0.251   2.869  -3.225  0.00  0.00     0.002 A 
ATOM      4  C5  UNL d   1       1.554   2.870  -3.718  0.00  0.00    -0.004 A 
ATOM      5  C6  UNL d   1       2.592   2.358  -2.942  0.00  0.00     0.002 A 
ATOM      6  C7  UNL d   1       2.327   1.840  -1.674  0.00  0.00     0.002 A 
ENDROOT
BRANCH   1   7
ATOM      7  C1  UNL d   1       0.726   1.226   0.178  0.00  0.00     0.055 C 
ATOM      8  C   UNL d   1       0.200  -0.196   0.044  0.00  0.00     0.019 C 
ENDBRANCH   1   7
TORSDOF 1
ENDMDL
