MODEL 1
REMARK minimizedAffinity -4.50441408
REMARK minimizedRMSD -1
REMARK  1 active torsions:
REMARK  status: ('A' for Active; 'I' for Inactive)
REMARK    1  A    between atoms: C1_2  and  C2_3 
ROOT
ATOM      1  C2  UNL d   1       0.266   0.643   0.247  0.00  0.00    -0.077 A 
ATOM      2  C3  UNL d   1      -1.055   0.283   0.550  0.00  0.00     0.002 A 
ATOM      3  C4  UNL d   1      -1.361  -1.026   0.928  0.00  0.00     0.002 A 
ATOM      4  C5  UNL d   1      -0.352  -1.983   1.009  0.00  0.00    -0.004 A 
ATOM      5  C6  UNL d   1       0.964  -1.635   0.707  0.00  0.00     0.002 A 
ATOM      6  C7  UNL d   1       1.272  -0.328   0.329  0.00  0.00     0.002 A 
ENDROOT
BRANCH   1   7
ATOM      7  C1  UNL d   1       0.605   2.066  -0.113  0.00  0.00     0.055 C 
ATOM      8  C   UNL d   1       0.831   2.220  -1.610  0.00  0.00     0.019 C 
ENDBRANCH   1   7
TORSDOF 1
ENDMDL
