MODEL 1
REMARK minimizedAffinity -2.12974191
REMARK minimizedRMSD -1
REMARK  1 active torsions:
REMARK  status: ('A' for Active; 'I' for Inactive)
REMARK    1  A    between atoms: C1_2  and  C2_3 
ROOT
ATOM      1  C2  UNL d   1      -1.120  -0.179   1.055  0.00  0.00    -0.077 A 
ATOM      2  C3  UNL d   1      -0.731  -1.481   1.398  0.00  0.00     0.002 A 
ATOM      3  C4  UNL d   1       0.401  -2.057   0.817  0.00  0.00     0.002 A 
ATOM      4  C5  UNL d   1       1.154  -1.336  -0.106  0.00  0.00    -0.004 A 
ATOM      5  C6  UNL d   1       0.775  -0.041  -0.456  0.00  0.00     0.002 A 
ATOM      6  C7  UNL d   1      -0.357   0.535   0.122  0.00  0.00     0.002 A 
ENDROOT
BRANCH   1   7
ATOM      7  C1  UNL d   1      -2.312   0.461   1.717  0.00  0.00     0.055 C 
ATOM      8  C   UNL d   1      -2.787  -0.354   2.910  0.00  0.00     0.019 C 
ENDBRANCH   1   7
TORSDOF 1
ENDMDL
