MODEL 1
REMARK minimizedAffinity -3.87672234
REMARK minimizedRMSD -1
REMARK  1 active torsions:
REMARK  status: ('A' for Active; 'I' for Inactive)
REMARK    1  A    between atoms: C1_2  and  C2_3 
ROOT
ATOM      1  C2  UNL d   1      -0.004   0.008  -0.154  0.00  0.00    -0.077 A 
ATOM      2  C3  UNL d   1      -0.440  -0.843  -1.179  0.00  0.00     0.002 A 
ATOM      3  C4  UNL d   1      -1.073  -2.049  -0.875  0.00  0.00     0.002 A 
ATOM      4  C5  UNL d   1      -1.280  -2.414   0.454  0.00  0.00    -0.004 A 
ATOM      5  C6  UNL d   1      -0.848  -1.576   1.481  0.00  0.00     0.002 A 
ATOM      6  C7  UNL d   1      -0.214  -0.370   1.179  0.00  0.00     0.002 A 
ENDROOT
BRANCH   1   7
ATOM      7  C1  UNL d   1       0.636   1.332  -0.480  0.00  0.00     0.055 C 
ATOM      8  C   UNL d   1       0.281   1.785  -1.889  0.00  0.00     0.019 C 
ENDBRANCH   1   7
TORSDOF 1
ENDMDL
