MODEL 1
REMARK minimizedAffinity -4.66667652
REMARK minimizedRMSD -1
REMARK  1 active torsions:
REMARK  status: ('A' for Active; 'I' for Inactive)
REMARK    1  A    between atoms: C1_2  and  C2_3 
ROOT
ATOM      1  C2  UNL d   1       0.317  -0.753  -0.293  0.00  0.00    -0.077 A 
ATOM      2  C3  UNL d   1       0.374  -0.967  -1.678  0.00  0.00     0.002 A 
ATOM      3  C4  UNL d   1       0.490   0.113  -2.555  0.00  0.00     0.002 A 
ATOM      4  C5  UNL d   1       0.555   1.413  -2.058  0.00  0.00    -0.004 A 
ATOM      5  C6  UNL d   1       0.497   1.636  -0.683  0.00  0.00     0.002 A 
ATOM      6  C7  UNL d   1       0.379   0.558   0.195  0.00  0.00     0.002 A 
ENDROOT
BRANCH   1   7
ATOM      7  C1  UNL d   1       0.241  -1.919   0.657  0.00  0.00     0.055 C 
ATOM      8  C   UNL d   1      -1.185  -2.153   1.134  0.00  0.00     0.019 C 
ENDBRANCH   1   7
TORSDOF 1
ENDMDL
