MODEL 1
REMARK minimizedAffinity -5.36141825
REMARK minimizedRMSD -1
REMARK  1 active torsions:
REMARK  status: ('A' for Active; 'I' for Inactive)
REMARK    1  A    between atoms: C1_2  and  C2_3 
ROOT
ATOM      1  C2  UNL d   1       0.288   0.175  -0.486  0.00  0.00    -0.077 A 
ATOM      2  C3  UNL d   1      -0.045  -0.187   0.827  0.00  0.00     0.002 A 
ATOM      3  C4  UNL d   1      -0.162  -1.532   1.181  0.00  0.00     0.002 A 
ATOM      4  C5  UNL d   1       0.055  -2.526   0.229  0.00  0.00    -0.004 A 
ATOM      5  C6  UNL d   1       0.384  -2.176  -1.080  0.00  0.00     0.002 A 
ATOM      6  C7  UNL d   1       0.501  -0.832  -1.436  0.00  0.00     0.002 A 
ENDROOT
BRANCH   1   7
ATOM      7  C1  UNL d   1       0.463   1.624  -0.857  0.00  0.00     0.055 C 
ATOM      8  C   UNL d   1       1.014   1.771  -2.268  0.00  0.00     0.019 C 
ENDBRANCH   1   7
TORSDOF 1
ENDMDL
