MODEL 1
REMARK minimizedAffinity -5.47579908
REMARK minimizedRMSD -1
REMARK  1 active torsions:
REMARK  status: ('A' for Active; 'I' for Inactive)
REMARK    1  A    between atoms: C1_2  and  C2_3 
ROOT
ATOM      1  C2  UNL d   1       0.101  -0.280   0.231  0.00  0.00    -0.077 A 
ATOM      2  C3  UNL d   1      -1.299  -0.339   0.183  0.00  0.00     0.002 A 
ATOM      3  C4  UNL d   1      -1.979  -1.430   0.727  0.00  0.00     0.002 A 
ATOM      4  C5  UNL d   1      -1.268  -2.468   1.325  0.00  0.00    -0.004 A 
ATOM      5  C6  UNL d   1       0.124  -2.420   1.376  0.00  0.00     0.002 A 
ATOM      6  C7  UNL d   1       0.806  -1.330   0.832  0.00  0.00     0.002 A 
ENDROOT
BRANCH   1   7
ATOM      7  C1  UNL d   1       0.834   0.920  -0.311  0.00  0.00     0.055 C 
ATOM      8  C   UNL d   1       0.734   0.991  -1.828  0.00  0.00     0.019 C 
ENDBRANCH   1   7
TORSDOF 1
ENDMDL
