MODEL 1
REMARK minimizedAffinity 10.8326817
REMARK minimizedRMSD -1
REMARK  0 active torsions:
REMARK  status: ('A' for Active; 'I' for Inactive)
ROOT
ATOM      1  C   UNL d   1       1.729   1.857   3.016  0.00  0.00     0.078 C 
ATOM      2  C1  UNL d   1       0.727   2.268   1.978  0.00  0.00    -0.077 A 
ATOM      3  C2  UNL d   1       1.136   2.671   0.701  0.00  0.00    -0.001 A 
ATOM      4  C3  UNL d   1       0.193   3.060  -0.252  0.00  0.00     0.003 A 
ATOM      5  C4  UNL d   1      -1.165   3.053   0.063  0.00  0.00    -0.005 A 
ATOM      6  C5  UNL d   1      -1.581   2.656   1.333  0.00  0.00     0.003 A 
ATOM      7  C6  UNL d   1      -0.639   2.266   2.286  0.00  0.00    -0.001 A 
ENDROOT
TORSDOF 0
ENDMDL
