MODEL 1
REMARK minimizedAffinity 11.2687159
REMARK minimizedRMSD -1
REMARK  0 active torsions:
REMARK  status: ('A' for Active; 'I' for Inactive)
ROOT
ATOM      1  C   UNL d   1       1.252   5.225  -1.834  0.00  0.00     0.078 C 
ATOM      2  C1  UNL d   1       0.584   4.095  -1.108  0.00  0.00    -0.077 A 
ATOM      3  C2  UNL d   1      -0.672   3.623  -1.507  0.00  0.00    -0.001 A 
ATOM      4  C3  UNL d   1      -1.285   2.577  -0.816  0.00  0.00     0.003 A 
ATOM      5  C4  UNL d   1      -0.651   1.995   0.279  0.00  0.00    -0.005 A 
ATOM      6  C5  UNL d   1       0.598   2.460   0.686  0.00  0.00     0.003 A 
ATOM      7  C6  UNL d   1       1.213   3.506  -0.004  0.00  0.00    -0.001 A 
ENDROOT
TORSDOF 0
ENDMDL
