MODEL 1
REMARK minimizedAffinity 9.95435047
REMARK minimizedRMSD -1
REMARK  0 active torsions:
REMARK  status: ('A' for Active; 'I' for Inactive)
ROOT
ATOM      1  C   UNL d   1      -5.763  -5.476  -5.698  0.00  0.00     0.078 C 
ATOM      2  C1  UNL d   1      -4.358  -5.531  -5.176  0.00  0.00    -0.077 A 
ATOM      3  C2  UNL d   1      -3.300  -5.944  -5.995  0.00  0.00    -0.001 A 
ATOM      4  C3  UNL d   1      -1.999  -5.999  -5.494  0.00  0.00     0.003 A 
ATOM      5  C4  UNL d   1      -1.743  -5.643  -4.171  0.00  0.00    -0.005 A 
ATOM      6  C5  UNL d   1      -2.789  -5.232  -3.348  0.00  0.00     0.003 A 
ATOM      7  C6  UNL d   1      -4.091  -5.177  -3.848  0.00  0.00    -0.001 A 
ENDROOT
TORSDOF 0
ENDMDL
