MODEL 1
REMARK minimizedAffinity 16.8781738
REMARK minimizedRMSD -1
REMARK  0 active torsions:
REMARK  status: ('A' for Active; 'I' for Inactive)
ROOT
ATOM      1  C   UNL d   1       0.774   2.560  -1.523  0.00  0.00     0.078 C 
ATOM      2  C1  UNL d   1       1.665   3.766  -1.478  0.00  0.00    -0.077 A 
ATOM      3  C2  UNL d   1       1.400   4.888  -2.273  0.00  0.00    -0.001 A 
ATOM      4  C3  UNL d   1       2.243   5.999  -2.229  0.00  0.00     0.003 A 
ATOM      5  C4  UNL d   1       3.356   6.000  -1.391  0.00  0.00    -0.005 A 
ATOM      6  C5  UNL d   1       3.629   4.888  -0.598  0.00  0.00     0.003 A 
ATOM      7  C6  UNL d   1       2.787   3.775  -0.641  0.00  0.00    -0.001 A 
ENDROOT
TORSDOF 0
ENDMDL
