MODEL 1
REMARK minimizedAffinity 9.45894051
REMARK minimizedRMSD -1
REMARK  0 active torsions:
REMARK  status: ('A' for Active; 'I' for Inactive)
ROOT
ATOM      1  C   UNL d   1       0.740   3.149  -0.821  0.00  0.00     0.078 C 
ATOM      2  C1  UNL d   1       0.433   2.632   0.552  0.00  0.00    -0.077 A 
ATOM      3  C2  UNL d   1      -0.887   2.395   0.956  0.00  0.00    -0.001 A 
ATOM      4  C3  UNL d   1      -1.158   1.923   2.241  0.00  0.00     0.003 A 
ATOM      5  C4  UNL d   1      -0.115   1.684   3.133  0.00  0.00    -0.005 A 
ATOM      6  C5  UNL d   1       1.202   1.919   2.742  0.00  0.00     0.003 A 
ATOM      7  C6  UNL d   1       1.475   2.392   1.457  0.00  0.00    -0.001 A 
ENDROOT
TORSDOF 0
ENDMDL
