MODEL 1
REMARK minimizedAffinity 6.345644
REMARK minimizedRMSD -1
REMARK  0 active torsions:
REMARK  status: ('A' for Active; 'I' for Inactive)
ROOT
ATOM      1  C   UNL d   1       5.999  -2.623  -3.903  0.00  0.00     0.078 C 
ATOM      2  C1  UNL d   1       5.992  -3.514  -2.697  0.00  0.00    -0.077 A 
ATOM      3  C2  UNL d   1       5.997  -2.976  -1.404  0.00  0.00    -0.001 A 
ATOM      4  C3  UNL d   1       5.999  -3.818  -0.290  0.00  0.00     0.003 A 
ATOM      5  C4  UNL d   1       5.999  -5.201  -0.458  0.00  0.00    -0.005 A 
ATOM      6  C5  UNL d   1       5.996  -5.745  -1.741  0.00  0.00     0.003 A 
ATOM      7  C6  UNL d   1       5.993  -4.905  -2.856  0.00  0.00    -0.001 A 
ENDROOT
TORSDOF 0
ENDMDL
