MODEL 1
REMARK minimizedAffinity 5.54750586
REMARK minimizedRMSD -1
REMARK  0 active torsions:
REMARK  status: ('A' for Active; 'I' for Inactive)
ROOT
ATOM      1  C   UNL d   1      -5.114  -0.697   2.353  0.00  0.00     0.078 C 
ATOM      2  C1  UNL d   1      -4.722   0.136   1.170  0.00  0.00    -0.077 A 
ATOM      3  C2  UNL d   1      -4.964   1.515   1.147  0.00  0.00    -0.001 A 
ATOM      4  C3  UNL d   1      -4.603   2.277   0.035  0.00  0.00     0.003 A 
ATOM      5  C4  UNL d   1      -3.997   1.669  -1.063  0.00  0.00    -0.005 A 
ATOM      6  C5  UNL d   1      -3.754   0.297  -1.050  0.00  0.00     0.003 A 
ATOM      7  C6  UNL d   1      -4.115  -0.466   0.061  0.00  0.00    -0.001 A 
ENDROOT
TORSDOF 0
ENDMDL
