MODEL 1
REMARK minimizedAffinity 4.86983681
REMARK minimizedRMSD -1
REMARK  0 active torsions:
REMARK  status: ('A' for Active; 'I' for Inactive)
ROOT
ATOM      1  C   UNL d   1      -3.049   2.995  -1.649  0.00  0.00     0.078 C 
ATOM      2  C1  UNL d   1      -2.085   2.789  -0.518  0.00  0.00    -0.077 A 
ATOM      3  C2  UNL d   1      -0.742   2.476  -0.763  0.00  0.00    -0.001 A 
ATOM      4  C3  UNL d   1       0.141   2.278   0.299  0.00  0.00     0.003 A 
ATOM      5  C4  UNL d   1      -0.309   2.389   1.614  0.00  0.00    -0.005 A 
ATOM      6  C5  UNL d   1      -1.644   2.697   1.867  0.00  0.00     0.003 A 
ATOM      7  C6  UNL d   1      -2.529   2.896   0.806  0.00  0.00    -0.001 A 
ENDROOT
TORSDOF 0
ENDMDL
