MODEL 1
REMARK minimizedAffinity -2.45124269
REMARK minimizedRMSD -1
REMARK  0 active torsions:
REMARK  status: ('A' for Active; 'I' for Inactive)
ROOT
ATOM      1  C   UNL d   1      -0.030   5.938   5.879  0.00  0.00     0.077 C 
ATOM      2  C1  UNL d   1       1.266   5.231   5.613  0.00  0.00    -0.074 A 
ATOM      3  C2  UNL d   1       1.451   3.900   6.000  0.00  0.00    -0.005 A 
ATOM      4  C3  UNL d   1       2.659   3.253   5.737  0.00  0.00     0.006 A 
ATOM      5  C4  UNL d   1       3.691   3.930   5.087  0.00  0.00    -0.005 A 
ATOM      6  C5  UNL d   1       3.524   5.261   4.692  0.00  0.00    -0.074 A 
ATOM      7  C6  UNL d   1       4.620   6.000   3.983  0.00  0.00     0.077 C 
ATOM      8  C7  UNL d   1       2.305   5.902   4.953  0.00  0.00    -0.001 A 
ENDROOT
TORSDOF 0
ENDMDL
