MODEL 1
REMARK minimizedAffinity 10.1480227
REMARK minimizedRMSD -1
REMARK  0 active torsions:
REMARK  status: ('A' for Active; 'I' for Inactive)
ROOT
ATOM      1  C   UNL d   1      -4.559   2.132   2.420  0.00  0.00     0.077 C 
ATOM      2  C1  UNL d   1      -3.919   1.509   1.216  0.00  0.00    -0.074 A 
ATOM      3  C2  UNL d   1      -4.641   0.649   0.382  0.00  0.00    -0.005 A 
ATOM      4  C3  UNL d   1      -4.036   0.084  -0.741  0.00  0.00     0.006 A 
ATOM      5  C4  UNL d   1      -2.704   0.373  -1.040  0.00  0.00    -0.005 A 
ATOM      6  C5  UNL d   1      -1.966   1.231  -0.218  0.00  0.00    -0.074 A 
ATOM      7  C6  UNL d   1      -0.536   1.559  -0.531  0.00  0.00     0.077 C 
ATOM      8  C7  UNL d   1      -2.584   1.800   0.904  0.00  0.00    -0.001 A 
ENDROOT
TORSDOF 0
ENDMDL
