MODEL 1
REMARK minimizedAffinity 3.58141756
REMARK minimizedRMSD -1
REMARK  0 active torsions:
REMARK  status: ('A' for Active; 'I' for Inactive)
ROOT
ATOM      1  C   UNL d   1       2.332  -3.663   0.351  0.00  0.00     0.077 C 
ATOM      2  C1  UNL d   1       2.693  -2.557  -0.595  0.00  0.00    -0.074 A 
ATOM      3  C2  UNL d   1       2.723  -2.773  -1.977  0.00  0.00    -0.005 A 
ATOM      4  C3  UNL d   1       3.051  -1.732  -2.845  0.00  0.00     0.006 A 
ATOM      5  C4  UNL d   1       3.353  -0.466  -2.341  0.00  0.00    -0.005 A 
ATOM      6  C5  UNL d   1       3.328  -0.231  -0.963  0.00  0.00    -0.074 A 
ATOM      7  C6  UNL d   1       3.640   1.126  -0.406  0.00  0.00     0.077 C 
ATOM      8  C7  UNL d   1       2.990  -1.280  -0.098  0.00  0.00    -0.001 A 
ENDROOT
TORSDOF 0
ENDMDL
