MODEL 1
REMARK minimizedAffinity 9.66171265
REMARK minimizedRMSD -1
REMARK  0 active torsions:
REMARK  status: ('A' for Active; 'I' for Inactive)
ROOT
ATOM      1  C   UNL d   1       3.579   2.755   3.527  0.00  0.00     0.077 C 
ATOM      2  C1  UNL d   1       3.860   2.277   2.134  0.00  0.00    -0.074 A 
ATOM      3  C2  UNL d   1       5.075   2.566   1.505  0.00  0.00    -0.005 A 
ATOM      4  C3  UNL d   1       5.325   2.107   0.212  0.00  0.00     0.006 A 
ATOM      5  C4  UNL d   1       4.364   1.355  -0.464  0.00  0.00    -0.005 A 
ATOM      6  C5  UNL d   1       3.143   1.056   0.148  0.00  0.00    -0.074 A 
ATOM      7  C6  UNL d   1       2.103   0.240  -0.561  0.00  0.00     0.077 C 
ATOM      8  C7  UNL d   1       2.902   1.515   1.450  0.00  0.00    -0.001 A 
ENDROOT
TORSDOF 0
ENDMDL
