MODEL 1
REMARK minimizedAffinity 7.86846972
REMARK minimizedRMSD -1
REMARK  0 active torsions:
REMARK  status: ('A' for Active; 'I' for Inactive)
ROOT
ATOM      1  C   UNL d   1       3.377  -5.960   6.000  0.00  0.00     0.077 C 
ATOM      2  C1  UNL d   1       2.048  -5.363   5.642  0.00  0.00    -0.074 A 
ATOM      3  C2  UNL d   1       0.855  -5.998   6.000  0.00  0.00    -0.005 A 
ATOM      4  C3  UNL d   1      -0.373  -5.426   5.669  0.00  0.00     0.006 A 
ATOM      5  C4  UNL d   1      -0.420  -4.214   4.978  0.00  0.00    -0.005 A 
ATOM      6  C5  UNL d   1       0.763  -3.564   4.613  0.00  0.00    -0.074 A 
ATOM      7  C6  UNL d   1       0.730  -2.256   3.880  0.00  0.00     0.077 C 
ATOM      8  C7  UNL d   1       1.993  -4.142   4.956  0.00  0.00    -0.001 A 
ENDROOT
TORSDOF 0
ENDMDL
