MODEL 1
REMARK minimizedAffinity 1.50320971
REMARK minimizedRMSD -1
REMARK  0 active torsions:
REMARK  status: ('A' for Active; 'I' for Inactive)
ROOT
ATOM      1  C   UNL d   1      -0.951   1.351  -1.086  0.00  0.00     0.077 C 
ATOM      2  C1  UNL d   1      -2.299   1.403  -0.429  0.00  0.00    -0.074 A 
ATOM      3  C2  UNL d   1      -2.450   1.093   0.926  0.00  0.00    -0.005 A 
ATOM      4  C3  UNL d   1      -3.708   1.156   1.526  0.00  0.00     0.006 A 
ATOM      5  C4  UNL d   1      -4.825   1.528   0.777  0.00  0.00    -0.005 A 
ATOM      6  C5  UNL d   1      -4.693   1.842  -0.579  0.00  0.00    -0.074 A 
ATOM      7  C6  UNL d   1      -5.882   2.254  -1.396  0.00  0.00     0.077 C 
ATOM      8  C7  UNL d   1      -3.425   1.784  -1.173  0.00  0.00    -0.001 A 
ENDROOT
TORSDOF 0
ENDMDL
