MODEL 1
REMARK minimizedAffinity 1.72667241
REMARK minimizedRMSD -1
REMARK  0 active torsions:
REMARK  status: ('A' for Active; 'I' for Inactive)
ROOT
ATOM      1  C   UNL d   1       3.375   4.959   3.374  0.00  0.00     0.077 C 
ATOM      2  C1  UNL d   1       3.015   3.672   4.053  0.00  0.00    -0.074 A 
ATOM      3  C2  UNL d   1       3.399   3.425   5.376  0.00  0.00    -0.005 A 
ATOM      4  C3  UNL d   1       3.049   2.227   5.998  0.00  0.00     0.006 A 
ATOM      5  C4  UNL d   1       2.314   1.264   5.305  0.00  0.00    -0.005 A 
ATOM      6  C5  UNL d   1       1.920   1.493   3.983  0.00  0.00    -0.074 A 
ATOM      7  C6  UNL d   1       1.121   0.473   3.227  0.00  0.00     0.077 C 
ATOM      8  C7  UNL d   1       2.270   2.703   3.367  0.00  0.00    -0.001 A 
ENDROOT
TORSDOF 0
ENDMDL
