MODEL 1
REMARK minimizedAffinity 9.13962555
REMARK minimizedRMSD -1
REMARK  0 active torsions:
REMARK  status: ('A' for Active; 'I' for Inactive)
ROOT
ATOM      1  C   UNL d   1      -3.599   2.411  -6.000  0.00  0.00     0.077 C 
ATOM      2  C1  UNL d   1      -3.772   1.331  -4.973  0.00  0.00    -0.074 A 
ATOM      3  C2  UNL d   1      -5.034   0.791  -4.703  0.00  0.00    -0.005 A 
ATOM      4  C3  UNL d   1      -5.178  -0.219  -3.752  0.00  0.00     0.006 A 
ATOM      5  C4  UNL d   1      -4.064  -0.699  -3.063  0.00  0.00    -0.005 A 
ATOM      6  C5  UNL d   1      -2.794  -0.172  -3.320  0.00  0.00    -0.074 A 
ATOM      7  C6  UNL d   1      -1.585  -0.683  -2.595  0.00  0.00     0.077 C 
ATOM      8  C7  UNL d   1      -2.657   0.838  -4.282  0.00  0.00    -0.001 A 
ENDROOT
TORSDOF 0
ENDMDL
