MODEL 1
REMARK minimizedAffinity -3.32842922
REMARK minimizedRMSD -1
REMARK  0 active torsions:
REMARK  status: ('A' for Active; 'I' for Inactive)
ROOT
ATOM      1  C   UNL d   1       1.906   6.000   6.000  0.00  0.00     0.077 C 
ATOM      2  C1  UNL d   1       2.621   4.963   5.186  0.00  0.00    -0.074 A 
ATOM      3  C2  UNL d   1       3.240   5.300   3.977  0.00  0.00    -0.005 A 
ATOM      4  C3  UNL d   1       3.910   4.327   3.236  0.00  0.00     0.006 A 
ATOM      5  C4  UNL d   1       3.968   3.010   3.694  0.00  0.00    -0.005 A 
ATOM      6  C5  UNL d   1       3.355   2.655   4.900  0.00  0.00    -0.074 A 
ATOM      7  C6  UNL d   1       3.416   1.246   5.411  0.00  0.00     0.077 C 
ATOM      8  C7  UNL d   1       2.690   3.640   5.643  0.00  0.00    -0.001 A 
ENDROOT
TORSDOF 0
ENDMDL
