MODEL 1
REMARK minimizedAffinity 6.34321404
REMARK minimizedRMSD -1
REMARK  0 active torsions:
REMARK  status: ('A' for Active; 'I' for Inactive)
ROOT
ATOM      1  C   UNL d   1      -1.063   1.035  -0.444  0.00  0.00     0.077 C 
ATOM      2  C1  UNL d   1      -2.507   0.968  -0.043  0.00  0.00    -0.074 A 
ATOM      3  C2  UNL d   1      -3.396   0.111  -0.700  0.00  0.00    -0.005 A 
ATOM      4  C3  UNL d   1      -4.734   0.052  -0.310  0.00  0.00     0.006 A 
ATOM      5  C4  UNL d   1      -5.195   0.848   0.739  0.00  0.00    -0.005 A 
ATOM      6  C5  UNL d   1      -4.321   1.710   1.409  0.00  0.00    -0.074 A 
ATOM      7  C6  UNL d   1      -4.798   2.565   2.545  0.00  0.00     0.077 C 
ATOM      8  C7  UNL d   1      -2.976   1.758   1.015  0.00  0.00    -0.001 A 
ENDROOT
TORSDOF 0
ENDMDL
