MODEL 1
REMARK minimizedAffinity 0.568445921
REMARK minimizedRMSD -1
REMARK  0 active torsions:
REMARK  status: ('A' for Active; 'I' for Inactive)
ROOT
ATOM      1  C   UNL d   1      -0.364   3.185   3.347  0.00  0.00     0.077 C 
ATOM      2  C1  UNL d   1      -1.828   2.925   3.155  0.00  0.00    -0.074 A 
ATOM      3  C2  UNL d   1      -2.779   3.518   3.992  0.00  0.00    -0.005 A 
ATOM      4  C3  UNL d   1      -4.138   3.274   3.795  0.00  0.00     0.006 A 
ATOM      5  C4  UNL d   1      -4.560   2.437   2.761  0.00  0.00    -0.005 A 
ATOM      6  C5  UNL d   1      -3.623   1.837   1.914  0.00  0.00    -0.074 A 
ATOM      7  C6  UNL d   1      -4.059   0.942   0.791  0.00  0.00     0.077 C 
ATOM      8  C7  UNL d   1      -2.260   2.092   2.114  0.00  0.00    -0.001 A 
ENDROOT
TORSDOF 0
ENDMDL
