MODEL 1
REMARK minimizedAffinity -2.40315914
REMARK minimizedRMSD -1
REMARK  0 active torsions:
REMARK  status: ('A' for Active; 'I' for Inactive)
ROOT
ATOM      1  C   UNL d   1       0.446   6.000   5.247  0.00  0.00     0.077 C 
ATOM      2  C1  UNL d   1       1.750   5.260   5.258  0.00  0.00    -0.074 A 
ATOM      3  C2  UNL d   1       1.813   3.907   4.908  0.00  0.00    -0.005 A 
ATOM      4  C3  UNL d   1       3.035   3.235   4.915  0.00  0.00     0.006 A 
ATOM      5  C4  UNL d   1       4.205   3.907   5.271  0.00  0.00    -0.005 A 
ATOM      6  C5  UNL d   1       4.162   5.260   5.623  0.00  0.00    -0.074 A 
ATOM      7  C6  UNL d   1       5.411   5.999   5.999  0.00  0.00     0.077 C 
ATOM      8  C7  UNL d   1       2.931   5.930   5.608  0.00  0.00    -0.001 A 
ENDROOT
TORSDOF 0
ENDMDL
