MODEL 1
REMARK minimizedAffinity 2.76530027
REMARK minimizedRMSD -1
REMARK  0 active torsions:
REMARK  status: ('A' for Active; 'I' for Inactive)
ROOT
ATOM      1  N1  IND d   1       2.330  -1.613   0.575  0.00  0.00    -0.196 N 
ATOM      2  C2  IND d   1       2.083  -0.340   0.142  0.00  0.00     0.054 A 
ATOM      3  C3  IND d   1       0.943   0.132   0.695  0.00  0.00    -0.031 A 
ATOM      4  C4  IND d   1      -0.621  -0.975   2.414  0.00  0.00     0.051 A 
ATOM      5  C5  IND d   1      -0.830  -2.149   3.081  0.00  0.00    -0.031 A 
ATOM      6  C6  IND d   1       0.023  -3.225   2.946  0.00  0.00     0.015 A 
ATOM      7  C7  IND d   1       1.127  -3.163   2.145  0.00  0.00    -0.016 A 
ATOM      8  C8  IND d   1       1.338  -1.975   1.460  0.00  0.00    -0.047 A 
ATOM      9  C9  IND d   1       0.453  -0.894   1.560  0.00  0.00    -0.096 A 
ATOM     10  HN1 IND d   1       2.993  -2.105   0.334  0.00  0.00     0.298 HD
ENDROOT
TORSDOF 0
ENDMDL
