MODEL 1
REMARK minimizedAffinity 9.58882713
REMARK minimizedRMSD -1
REMARK  0 active torsions:
REMARK  status: ('A' for Active; 'I' for Inactive)
ROOT
ATOM      1  N1  IND d   1       2.229  -0.749  -0.588  0.00  0.00    -0.196 N 
ATOM      2  C2  IND d   1       2.368   0.610  -0.557  0.00  0.00     0.054 A 
ATOM      3  C3  IND d   1       3.620   0.946  -0.172  0.00  0.00    -0.031 A 
ATOM      4  C4  IND d   1       5.631  -0.571   0.359  0.00  0.00     0.051 A 
ATOM      5  C5  IND d   1       5.981  -1.885   0.502  0.00  0.00    -0.031 A 
ATOM      6  C6  IND d   1       5.081  -2.907   0.283  0.00  0.00     0.015 A 
ATOM      7  C7  IND d   1       3.795  -2.654  -0.101  0.00  0.00    -0.016 A 
ATOM      8  C8  IND d   1       3.434  -1.321  -0.241  0.00  0.00    -0.047 A 
ATOM      9  C9  IND d   1       4.331  -0.278   0.021  0.00  0.00    -0.096 A 
ATOM     10  HN1 IND d   1       1.510  -1.176  -0.789  0.00  0.00     0.298 HD
ENDROOT
TORSDOF 0
ENDMDL
