MODEL 1
REMARK minimizedAffinity 1.96674383
REMARK minimizedRMSD -1
REMARK  0 active torsions:
REMARK  status: ('A' for Active; 'I' for Inactive)
ROOT
ATOM      1  N1  IND d   1       4.803   5.944   3.700  0.00  0.00    -0.196 N 
ATOM      2  C2  IND d   1       4.607   5.912   2.348  0.00  0.00     0.054 A 
ATOM      3  C3  IND d   1       3.285   5.887   2.064  0.00  0.00    -0.031 A 
ATOM      4  C4  IND d   1       1.268   5.995   3.661  0.00  0.00     0.051 A 
ATOM      5  C5  IND d   1       0.944   5.997   4.988  0.00  0.00    -0.031 A 
ATOM      6  C6  IND d   1       1.909   5.984   5.974  0.00  0.00     0.015 A 
ATOM      7  C7  IND d   1       3.241   5.980   5.668  0.00  0.00    -0.016 A 
ATOM      8  C8  IND d   1       3.574   5.971   4.321  0.00  0.00    -0.047 A 
ATOM      9  C9  IND d   1       2.598   5.941   3.316  0.00  0.00    -0.096 A 
ATOM     10  HN1 IND d   1       5.566   5.947   4.096  0.00  0.00     0.298 HD
ENDROOT
TORSDOF 0
ENDMDL
