MODEL 1
REMARK minimizedAffinity 6.88693333
REMARK minimizedRMSD -1
REMARK  0 active torsions:
REMARK  status: ('A' for Active; 'I' for Inactive)
ROOT
ATOM      1  N1  IND d   1      -5.330   0.361   2.451  0.00  0.00    -0.196 N 
ATOM      2  C2  IND d   1      -5.998  -0.498   1.624  0.00  0.00     0.054 A 
ATOM      3  C3  IND d   1      -5.138  -1.087   0.763  0.00  0.00    -0.031 A 
ATOM      4  C4  IND d   1      -2.578  -0.865   0.601  0.00  0.00     0.051 A 
ATOM      5  C5  IND d   1      -1.522  -0.170   1.121  0.00  0.00    -0.031 A 
ATOM      6  C6  IND d   1      -1.685   0.754   2.132  0.00  0.00     0.015 A 
ATOM      7  C7  IND d   1      -2.913   1.010   2.673  0.00  0.00    -0.016 A 
ATOM      8  C8  IND d   1      -3.988   0.312   2.143  0.00  0.00    -0.047 A 
ATOM      9  C9  IND d   1      -3.836  -0.596   1.087  0.00  0.00    -0.096 A 
ATOM     10  HN1 IND d   1      -5.688   0.850   3.061  0.00  0.00     0.298 HD
ENDROOT
TORSDOF 0
ENDMDL
