MODEL 1
REMARK minimizedAffinity 1.35298467
REMARK minimizedRMSD -1
REMARK  0 active torsions:
REMARK  status: ('A' for Active; 'I' for Inactive)
ROOT
ATOM      1  N1  IND d   1       1.407  -0.953  -0.604  0.00  0.00    -0.196 N 
ATOM      2  C2  IND d   1       2.370  -1.790  -0.111  0.00  0.00     0.054 A 
ATOM      3  C3  IND d   1       2.117  -2.087   1.183  0.00  0.00    -0.031 A 
ATOM      4  C4  IND d   1       0.126  -1.394   2.661  0.00  0.00     0.051 A 
ATOM      5  C5  IND d   1      -0.990  -0.605   2.665  0.00  0.00    -0.031 A 
ATOM      6  C6  IND d   1      -1.373   0.120   1.556  0.00  0.00     0.015 A 
ATOM      7  C7  IND d   1      -0.658   0.075   0.392  0.00  0.00    -0.016 A 
ATOM      8  C8  IND d   1       0.480  -0.719   0.388  0.00  0.00    -0.047 A 
ATOM      9  C9  IND d   1       0.898  -1.424   1.524  0.00  0.00    -0.096 A 
ATOM     10  HN1 IND d   1       1.384  -0.628  -1.400  0.00  0.00     0.298 HD
ENDROOT
TORSDOF 0
ENDMDL
