MODEL 1
REMARK minimizedAffinity 1.43450117
REMARK minimizedRMSD -1
REMARK  0 active torsions:
REMARK  status: ('A' for Active; 'I' for Inactive)
ROOT
ATOM      1  N1  IND d   1       2.042  -3.414   0.916  0.00  0.00    -0.196 N 
ATOM      2  C2  IND d   1       2.472  -2.376   0.137  0.00  0.00     0.054 A 
ATOM      3  C3  IND d   1       1.740  -1.267   0.386  0.00  0.00    -0.031 A 
ATOM      4  C4  IND d   1      -0.143  -0.901   2.102  0.00  0.00     0.051 A 
ATOM      5  C5  IND d   1      -0.911  -1.566   3.017  0.00  0.00    -0.031 A 
ATOM      6  C6  IND d   1      -0.728  -2.907   3.286  0.00  0.00     0.015 A 
ATOM      7  C7  IND d   1       0.241  -3.634   2.654  0.00  0.00    -0.016 A 
ATOM      8  C8  IND d   1       1.018  -2.964   1.720  0.00  0.00    -0.047 A 
ATOM      9  C9  IND d   1       0.809  -1.613   1.412  0.00  0.00    -0.096 A 
ATOM     10  HN1 IND d   1       2.358  -4.214   0.905  0.00  0.00     0.298 HD
ENDROOT
TORSDOF 0
ENDMDL
