MODEL 1
REMARK minimizedAffinity 1.52819252
REMARK minimizedRMSD -1
REMARK  1 active torsions:
REMARK  status: ('A' for Active; 'I' for Inactive)
REMARK    1  A    between atoms: C3_4  and  O_7 
ROOT
ATOM      1  C   UNL d   1       2.907  -0.964  -2.861  0.00  0.00    -0.033 A 
ATOM      2  C1  UNL d   1       3.678  -0.598  -1.756  0.00  0.00     0.039 A 
ATOM      3  C2  UNL d   1       3.062  -0.100  -0.606  0.00  0.00    -0.080 A 
ATOM      4  C3  UNL d   1       1.676   0.027  -0.574  0.00  0.00     0.150 A 
ATOM      5  C4  UNL d   1       0.901  -0.339  -1.670  0.00  0.00    -0.007 A 
ATOM      6  C5  UNL d   1       1.518  -0.836  -2.817  0.00  0.00     0.039 A 
ENDROOT
BRANCH   4   7
ATOM      7  O   UNL d   1       1.030   0.513   0.524  0.00  0.00    -0.526 OA
ATOM      8  H5  UNL d   1       1.695   0.751   1.191  0.00  0.00     0.418 HD
ENDBRANCH   4   7
TORSDOF 1
ENDMDL
