MODEL 1
REMARK minimizedAffinity -3.73413682
REMARK minimizedRMSD -1
REMARK  1 active torsions:
REMARK  status: ('A' for Active; 'I' for Inactive)
REMARK    1  A    between atoms: C3_4  and  O_7 
ROOT
ATOM      1  C   UNL d   1       1.695  -0.564  -2.436  0.00  0.00    -0.033 A 
ATOM      2  C1  UNL d   1       1.428   0.122  -1.249  0.00  0.00     0.039 A 
ATOM      3  C2  UNL d   1       2.478   0.523  -0.421  0.00  0.00    -0.080 A 
ATOM      4  C3  UNL d   1       3.789   0.235  -0.791  0.00  0.00     0.150 A 
ATOM      5  C4  UNL d   1       4.062  -0.445  -1.974  0.00  0.00    -0.007 A 
ATOM      6  C5  UNL d   1       3.012  -0.846  -2.799  0.00  0.00     0.039 A 
ENDROOT
BRANCH   4   7
ATOM      7  O   UNL d   1       4.846   0.602  -0.013  0.00  0.00    -0.526 OA
ATOM      8  H5  UNL d   1       4.504   1.038   0.785  0.00  0.00     0.418 HD
ENDBRANCH   4   7
TORSDOF 1
ENDMDL
