MODEL 1
REMARK minimizedAffinity -2.31719136
REMARK minimizedRMSD -1
REMARK  1 active torsions:
REMARK  status: ('A' for Active; 'I' for Inactive)
REMARK    1  A    between atoms: C3_4  and  O_7 
ROOT
ATOM      1  C   UNL d   1       3.461  -0.469  -0.846  0.00  0.00    -0.033 A 
ATOM      2  C1  UNL d   1       2.442   0.456  -0.611  0.00  0.00     0.039 A 
ATOM      3  C2  UNL d   1       1.370   0.557  -1.500  0.00  0.00    -0.080 A 
ATOM      4  C3  UNL d   1       1.328  -0.273  -2.617  0.00  0.00     0.150 A 
ATOM      5  C4  UNL d   1       2.338  -1.200  -2.855  0.00  0.00    -0.007 A 
ATOM      6  C5  UNL d   1       3.408  -1.298  -1.967  0.00  0.00     0.039 A 
ENDROOT
BRANCH   4   7
ATOM      7  O   UNL d   1       0.304  -0.208  -3.515  0.00  0.00    -0.526 OA
ATOM      8  H5  UNL d   1      -0.305   0.497  -3.237  0.00  0.00     0.418 HD
ENDBRANCH   4   7
TORSDOF 1
ENDMDL
