MODEL 1
REMARK minimizedAffinity -1.10315895
REMARK minimizedRMSD -1
REMARK  1 active torsions:
REMARK  status: ('A' for Active; 'I' for Inactive)
REMARK    1  A    between atoms: C3_4  and  O_7 
ROOT
ATOM      1  C   UNL d   1       0.876   1.205   0.363  0.00  0.00    -0.033 A 
ATOM      2  C1  UNL d   1       2.028   1.676  -0.269  0.00  0.00     0.039 A 
ATOM      3  C2  UNL d   1       2.839   0.797  -0.990  0.00  0.00    -0.080 A 
ATOM      4  C3  UNL d   1       2.488  -0.547  -1.071  0.00  0.00     0.150 A 
ATOM      5  C4  UNL d   1       1.339  -1.022  -0.446  0.00  0.00    -0.007 A 
ATOM      6  C5  UNL d   1       0.531  -0.144   0.274  0.00  0.00     0.039 A 
ENDROOT
BRANCH   4   7
ATOM      7  O   UNL d   1       3.251  -1.443  -1.759  0.00  0.00    -0.526 OA
ATOM      8  H5  UNL d   1       4.027  -0.978  -2.113  0.00  0.00     0.418 HD
ENDBRANCH   4   7
TORSDOF 1
ENDMDL
