MODEL 1
REMARK minimizedAffinity -2.98352861
REMARK minimizedRMSD -1
REMARK  1 active torsions:
REMARK  status: ('A' for Active; 'I' for Inactive)
REMARK    1  A    between atoms: C3_4  and  O_7 
ROOT
ATOM      1  C   UNL d   1      -4.725   0.611  -5.962  0.00  0.00    -0.033 A 
ATOM      2  C1  UNL d   1      -5.430   1.817  -5.965  0.00  0.00     0.039 A 
ATOM      3  C2  UNL d   1      -4.739   3.030  -5.980  0.00  0.00    -0.080 A 
ATOM      4  C3  UNL d   1      -3.347   3.025  -5.991  0.00  0.00     0.150 A 
ATOM      5  C4  UNL d   1      -2.639   1.827  -5.991  0.00  0.00    -0.007 A 
ATOM      6  C5  UNL d   1      -3.330   0.616  -5.976  0.00  0.00     0.039 A 
ENDROOT
BRANCH   4   7
ATOM      7  O   UNL d   1      -2.630   4.184  -6.000  0.00  0.00    -0.526 OA
ATOM      8  H5  UNL d   1      -3.251   4.930  -5.969  0.00  0.00     0.418 HD
ENDBRANCH   4   7
TORSDOF 1
ENDMDL
