MODEL 1
REMARK minimizedAffinity 1.23547888
REMARK minimizedRMSD -1
REMARK  1 active torsions:
REMARK  status: ('A' for Active; 'I' for Inactive)
REMARK    1  A    between atoms: C3_4  and  O_7 
ROOT
ATOM      1  C   UNL d   1      -3.499   1.251  -5.989  0.00  0.00    -0.033 A 
ATOM      2  C1  UNL d   1      -2.182   1.713  -5.976  0.00  0.00     0.039 A 
ATOM      3  C2  UNL d   1      -1.921   3.085  -5.977  0.00  0.00    -0.080 A 
ATOM      4  C3  UNL d   1      -2.985   3.982  -5.991  0.00  0.00     0.150 A 
ATOM      5  C4  UNL d   1      -4.300   3.529  -6.000  0.00  0.00    -0.007 A 
ATOM      6  C5  UNL d   1      -4.558   2.159  -5.999  0.00  0.00     0.039 A 
ENDROOT
BRANCH   4   7
ATOM      7  O   UNL d   1      -2.780   5.330  -5.998  0.00  0.00    -0.526 OA
ATOM      8  H5  UNL d   1      -1.823   5.496  -6.019  0.00  0.00     0.418 HD
ENDBRANCH   4   7
TORSDOF 1
ENDMDL
