MODEL 1
REMARK minimizedAffinity -0.562754929
REMARK minimizedRMSD -1
REMARK  1 active torsions:
REMARK  status: ('A' for Active; 'I' for Inactive)
REMARK    1  A    between atoms: C3_4  and  O_7 
ROOT
ATOM      1  C   UNL d   1      -0.178   0.042  -1.543  0.00  0.00    -0.033 A 
ATOM      2  C1  UNL d   1       0.084   0.283  -0.193  0.00  0.00     0.039 A 
ATOM      3  C2  UNL d   1       1.378   0.130   0.308  0.00  0.00    -0.080 A 
ATOM      4  C3  UNL d   1       2.401  -0.263  -0.551  0.00  0.00     0.150 A 
ATOM      5  C4  UNL d   1       2.148  -0.501  -1.898  0.00  0.00    -0.007 A 
ATOM      6  C5  UNL d   1       0.855  -0.348  -2.396  0.00  0.00     0.039 A 
ENDROOT
BRANCH   4   7
ATOM      7  O   UNL d   1       3.679  -0.430  -0.107  0.00  0.00    -0.526 OA
ATOM      8  H5  UNL d   1       3.698  -0.258   0.849  0.00  0.00     0.418 HD
ENDBRANCH   4   7
TORSDOF 1
ENDMDL
