MODEL 1
REMARK minimizedAffinity -2.17870283
REMARK minimizedRMSD -1
REMARK  1 active torsions:
REMARK  status: ('A' for Active; 'I' for Inactive)
REMARK    1  A    between atoms: C3_4  and  O_7 
ROOT
ATOM      1  C   UNL d   1      -4.265   1.273  -5.999  0.00  0.00    -0.033 A 
ATOM      2  C1  UNL d   1      -5.080   2.407  -6.000  0.00  0.00     0.039 A 
ATOM      3  C2  UNL d   1      -4.508   3.680  -5.997  0.00  0.00    -0.080 A 
ATOM      4  C3  UNL d   1      -3.121   3.806  -5.994  0.00  0.00     0.150 A 
ATOM      5  C4  UNL d   1      -2.303   2.681  -5.997  0.00  0.00    -0.007 A 
ATOM      6  C5  UNL d   1      -2.876   1.410  -5.999  0.00  0.00     0.039 A 
ENDROOT
BRANCH   4   7
ATOM      7  O   UNL d   1      -2.517   5.028  -5.986  0.00  0.00    -0.526 OA
ATOM      8  H5  UNL d   1      -3.206   5.712  -5.956  0.00  0.00     0.418 HD
ENDBRANCH   4   7
TORSDOF 1
ENDMDL
