MODEL 1
REMARK minimizedAffinity -4.1962285
REMARK minimizedRMSD -1
REMARK  1 active torsions:
REMARK  status: ('A' for Active; 'I' for Inactive)
REMARK    1  A    between atoms: C3_4  and  O_7 
ROOT
ATOM      1  C   UNL d   1      -3.504  -0.347  -5.993  0.00  0.00    -0.033 A 
ATOM      2  C1  UNL d   1      -4.849  -0.229  -5.638  0.00  0.00     0.039 A 
ATOM      3  C2  UNL d   1      -5.373   1.016  -5.285  0.00  0.00    -0.080 A 
ATOM      4  C3  UNL d   1      -4.543   2.134  -5.292  0.00  0.00     0.150 A 
ATOM      5  C4  UNL d   1      -3.203   2.024  -5.648  0.00  0.00    -0.007 A 
ATOM      6  C5  UNL d   1      -2.681   0.779  -5.999  0.00  0.00     0.039 A 
ENDROOT
BRANCH   4   7
ATOM      7  O   UNL d   1      -5.008   3.369  -4.950  0.00  0.00    -0.526 OA
ATOM      8  H5  UNL d   1      -5.943   3.287  -4.700  0.00  0.00     0.418 HD
ENDBRANCH   4   7
TORSDOF 1
ENDMDL
