MODEL 1
REMARK minimizedAffinity -1.75945377
REMARK minimizedRMSD -1
REMARK  1 active torsions:
REMARK  status: ('A' for Active; 'I' for Inactive)
REMARK    1  A    between atoms: C3_4  and  O_7 
ROOT
ATOM      1  C   UNL d   1      -3.910   4.354  -5.999  0.00  0.00    -0.033 A 
ATOM      2  C1  UNL d   1      -2.801   3.507  -5.970  0.00  0.00     0.039 A 
ATOM      3  C2  UNL d   1      -2.978   2.123  -5.934  0.00  0.00    -0.080 A 
ATOM      4  C3  UNL d   1      -4.268   1.599  -5.928  0.00  0.00     0.150 A 
ATOM      5  C4  UNL d   1      -5.378   2.437  -5.960  0.00  0.00    -0.007 A 
ATOM      6  C5  UNL d   1      -5.199   3.819  -5.996  0.00  0.00     0.039 A 
ENDROOT
BRANCH   4   7
ATOM      7  O   UNL d   1      -4.491   0.255  -5.888  0.00  0.00    -0.526 OA
ATOM      8  H5  UNL d   1      -3.633  -0.199  -5.839  0.00  0.00     0.418 HD
ENDBRANCH   4   7
TORSDOF 1
ENDMDL
