MODEL 1
REMARK minimizedAffinity -1.96228325
REMARK minimizedRMSD -1
REMARK  1 active torsions:
REMARK  status: ('A' for Active; 'I' for Inactive)
REMARK    1  A    between atoms: C3_4  and  O_7 
ROOT
ATOM      1  C   UNL d   1      -3.700   4.066  -5.982  0.00  0.00    -0.033 A 
ATOM      2  C1  UNL d   1      -5.017   3.601  -5.995  0.00  0.00     0.039 A 
ATOM      3  C2  UNL d   1      -5.274   2.229  -5.998  0.00  0.00    -0.080 A 
ATOM      4  C3  UNL d   1      -4.208   1.334  -5.985  0.00  0.00     0.150 A 
ATOM      5  C4  UNL d   1      -2.894   1.790  -5.968  0.00  0.00    -0.007 A 
ATOM      6  C5  UNL d   1      -2.639   3.161  -5.966  0.00  0.00     0.039 A 
ENDROOT
BRANCH   4   7
ATOM      7  O   UNL d   1      -4.409  -0.015  -5.992  0.00  0.00    -0.526 OA
ATOM      8  H5  UNL d   1      -5.366  -0.183  -6.033  0.00  0.00     0.418 HD
ENDBRANCH   4   7
TORSDOF 1
ENDMDL
