MODEL 1
REMARK minimizedAffinity -0.195074797
REMARK minimizedRMSD -1
REMARK  1 active torsions:
REMARK  status: ('A' for Active; 'I' for Inactive)
REMARK    1  A    between atoms: C3_4  and  O_7 
ROOT
ATOM      1  C   UNL d   1       0.810   0.645   0.241  0.00  0.00    -0.033 A 
ATOM      2  C1  UNL d   1       1.823   1.454  -0.279  0.00  0.00     0.039 A 
ATOM      3  C2  UNL d   1       2.166   1.364  -1.629  0.00  0.00    -0.080 A 
ATOM      4  C3  UNL d   1       1.491   0.463  -2.447  0.00  0.00     0.150 A 
ATOM      5  C4  UNL d   1       0.478  -0.343  -1.937  0.00  0.00    -0.007 A 
ATOM      6  C5  UNL d   1       0.137  -0.253  -0.588  0.00  0.00     0.039 A 
ENDROOT
BRANCH   4   7
ATOM      7  O   UNL d   1       1.794   0.336  -3.770  0.00  0.00    -0.526 OA
ATOM      8  H5  UNL d   1       2.532   0.934  -3.976  0.00  0.00     0.418 HD
ENDBRANCH   4   7
TORSDOF 1
ENDMDL
