MODEL 1
REMARK minimizedAffinity -1.06338024
REMARK minimizedRMSD -1
REMARK  1 active torsions:
REMARK  status: ('A' for Active; 'I' for Inactive)
REMARK    1  A    between atoms: C3_4  and  O_7 
ROOT
ATOM      1  C   UNL d   1      -4.011   1.899  -5.981  0.00  0.00    -0.033 A 
ATOM      2  C1  UNL d   1      -4.844   3.019  -5.982  0.00  0.00     0.039 A 
ATOM      3  C2  UNL d   1      -4.292   4.302  -5.989  0.00  0.00    -0.080 A 
ATOM      4  C3  UNL d   1      -2.907   4.450  -5.996  0.00  0.00     0.150 A 
ATOM      5  C4  UNL d   1      -2.072   3.338  -6.000  0.00  0.00    -0.007 A 
ATOM      6  C5  UNL d   1      -2.625   2.058  -5.991  0.00  0.00     0.039 A 
ENDROOT
BRANCH   4   7
ATOM      7  O   UNL d   1      -2.323   5.681  -5.999  0.00  0.00    -0.526 OA
ATOM      8  H5  UNL d   1      -3.023   6.355  -5.967  0.00  0.00     0.418 HD
ENDBRANCH   4   7
TORSDOF 1
ENDMDL
