MODEL 1
REMARK minimizedAffinity -1.46935642
REMARK minimizedRMSD -1
REMARK  1 active torsions:
REMARK  status: ('A' for Active; 'I' for Inactive)
REMARK    1  A    between atoms: C3_4  and  O_7 
ROOT
ATOM      1  C   UNL d   1      -4.082   4.122  -5.904  0.00  0.00    -0.033 A 
ATOM      2  C1  UNL d   1      -5.371   3.592  -5.970  0.00  0.00     0.039 A 
ATOM      3  C2  UNL d   1      -5.558   2.208  -6.000  0.00  0.00    -0.080 A 
ATOM      4  C3  UNL d   1      -4.449   1.368  -5.963  0.00  0.00     0.150 A 
ATOM      5  C4  UNL d   1      -3.161   1.890  -5.894  0.00  0.00    -0.007 A 
ATOM      6  C5  UNL d   1      -2.977   3.272  -5.865  0.00  0.00     0.039 A 
ENDROOT
BRANCH   4   7
ATOM      7  O   UNL d   1      -4.581   0.012  -5.995  0.00  0.00    -0.526 OA
ATOM      8  H5  UNL d   1      -5.525  -0.204  -6.072  0.00  0.00     0.418 HD
ENDBRANCH   4   7
TORSDOF 1
ENDMDL
