MODEL 1
REMARK minimizedAffinity -1.81952703
REMARK minimizedRMSD -1
REMARK  1 active torsions:
REMARK  status: ('A' for Active; 'I' for Inactive)
REMARK    1  A    between atoms: C3_4  and  O_7 
ROOT
ATOM      1  C   UNL d   1      -2.969  -0.383  -5.988  0.00  0.00    -0.033 A 
ATOM      2  C1  UNL d   1      -1.763   0.321  -5.998  0.00  0.00     0.039 A 
ATOM      3  C2  UNL d   1      -1.767   1.717  -5.999  0.00  0.00    -0.080 A 
ATOM      4  C3  UNL d   1      -2.982   2.397  -5.990  0.00  0.00     0.150 A 
ATOM      5  C4  UNL d   1      -4.187   1.703  -5.976  0.00  0.00    -0.007 A 
ATOM      6  C5  UNL d   1      -4.181   0.308  -5.976  0.00  0.00     0.039 A 
ENDROOT
BRANCH   4   7
ATOM      7  O   UNL d   1      -3.036   3.759  -5.995  0.00  0.00    -0.526 OA
ATOM      8  H5  UNL d   1      -2.128   4.103  -6.034  0.00  0.00     0.418 HD
ENDBRANCH   4   7
TORSDOF 1
ENDMDL
