MODEL 1
REMARK minimizedAffinity -0.850274503
REMARK minimizedRMSD -1
REMARK  1 active torsions:
REMARK  status: ('A' for Active; 'I' for Inactive)
REMARK    1  A    between atoms: C3_4  and  O_7 
ROOT
ATOM      1  C   UNL d   1      -4.370   3.318  -5.998  0.00  0.00    -0.033 A 
ATOM      2  C1  UNL d   1      -5.262   2.244  -5.997  0.00  0.00     0.039 A 
ATOM      3  C2  UNL d   1      -4.779   0.934  -5.981  0.00  0.00    -0.080 A 
ATOM      4  C3  UNL d   1      -3.405   0.712  -5.967  0.00  0.00     0.150 A 
ATOM      5  C4  UNL d   1      -2.511   1.778  -5.965  0.00  0.00    -0.007 A 
ATOM      6  C5  UNL d   1      -2.995   3.085  -5.981  0.00  0.00     0.039 A 
ENDROOT
BRANCH   4   7
ATOM      7  O   UNL d   1      -2.886  -0.549  -5.957  0.00  0.00    -0.526 OA
ATOM      8  H5  UNL d   1      -3.621  -1.184  -5.989  0.00  0.00     0.418 HD
ENDBRANCH   4   7
TORSDOF 1
ENDMDL
