MODEL 1
REMARK minimizedAffinity -3.15941095
REMARK minimizedRMSD -1
REMARK  1 active torsions:
REMARK  status: ('A' for Active; 'I' for Inactive)
REMARK    1  A    between atoms: C3_4  and  O_7 
ROOT
ATOM      1  C   UNL d   1      -1.968  -5.464  -5.619  0.00  0.00    -0.033 A 
ATOM      2  C1  UNL d   1      -3.201  -5.998  -5.998  0.00  0.00     0.039 A 
ATOM      3  C2  UNL d   1      -4.342  -5.193  -6.000  0.00  0.00    -0.080 A 
ATOM      4  C3  UNL d   1      -4.237  -3.858  -5.622  0.00  0.00     0.150 A 
ATOM      5  C4  UNL d   1      -3.011  -3.318  -5.247  0.00  0.00    -0.007 A 
ATOM      6  C5  UNL d   1      -1.873  -4.123  -5.245  0.00  0.00     0.039 A 
ENDROOT
BRANCH   4   7
ATOM      7  O   UNL d   1      -5.323  -3.035  -5.603  0.00  0.00    -0.526 OA
ATOM      8  H5  UNL d   1      -6.105  -3.552  -5.858  0.00  0.00     0.418 HD
ENDBRANCH   4   7
TORSDOF 1
ENDMDL
