MODEL 1
REMARK minimizedAffinity -0.80518806
REMARK minimizedRMSD -1
REMARK  0 active torsions:
REMARK  status: ('A' for Active; 'I' for Inactive)
ROOT
ATOM      1  C   UNL d   1      -5.852   4.763   4.637  0.00  0.00     0.078 C 
ATOM      2  C1  UNL d   1      -5.768   4.782   3.140  0.00  0.00    -0.077 A 
ATOM      3  C2  UNL d   1      -5.999   3.622   2.390  0.00  0.00    -0.001 A 
ATOM      4  C3  UNL d   1      -5.908   3.652   0.997  0.00  0.00     0.003 A 
ATOM      5  C4  UNL d   1      -5.585   4.839   0.343  0.00  0.00    -0.005 A 
ATOM      6  C5  UNL d   1      -5.351   5.998   1.081  0.00  0.00     0.003 A 
ATOM      7  C6  UNL d   1      -5.441   5.970   2.473  0.00  0.00    -0.001 A 
ENDROOT
TORSDOF 0
ENDMDL
