MODEL 1
REMARK minimizedAffinity -2.30257702
REMARK minimizedRMSD -1
REMARK  0 active torsions:
REMARK  status: ('A' for Active; 'I' for Inactive)
ROOT
ATOM      1  C   UNL d   1      -4.495   1.863   1.492  0.00  0.00     0.078 C 
ATOM      2  C1  UNL d   1      -4.891   3.304   1.612  0.00  0.00    -0.077 A 
ATOM      3  C2  UNL d   1      -4.518   4.238   0.638  0.00  0.00    -0.001 A 
ATOM      4  C3  UNL d   1      -4.885   5.579   0.768  0.00  0.00     0.003 A 
ATOM      5  C4  UNL d   1      -5.626   5.997   1.872  0.00  0.00    -0.005 A 
ATOM      6  C5  UNL d   1      -5.999   5.076   2.847  0.00  0.00     0.003 A 
ATOM      7  C6  UNL d   1      -5.633   3.735   2.719  0.00  0.00    -0.001 A 
ENDROOT
TORSDOF 0
ENDMDL
