MODEL 1
REMARK minimizedAffinity -1.71502233
REMARK minimizedRMSD -1
REMARK  0 active torsions:
REMARK  status: ('A' for Active; 'I' for Inactive)
ROOT
ATOM      1  C   UNL d   1      -4.502   3.746   5.043  0.00  0.00     0.078 C 
ATOM      2  C1  UNL d   1      -4.988   4.128   3.677  0.00  0.00    -0.077 A 
ATOM      3  C2  UNL d   1      -4.875   3.242   2.598  0.00  0.00    -0.001 A 
ATOM      4  C3  UNL d   1      -5.323   3.614   1.329  0.00  0.00     0.003 A 
ATOM      5  C4  UNL d   1      -5.886   4.873   1.127  0.00  0.00    -0.005 A 
ATOM      6  C5  UNL d   1      -6.000   5.762   2.194  0.00  0.00     0.003 A 
ATOM      7  C6  UNL d   1      -5.552   5.392   3.463  0.00  0.00    -0.001 A 
ENDROOT
TORSDOF 0
ENDMDL
