MODEL 1
REMARK minimizedAffinity -2.61141706
REMARK minimizedRMSD -1
REMARK  0 active torsions:
REMARK  status: ('A' for Active; 'I' for Inactive)
ROOT
ATOM      1  C   UNL d   1      -5.610   3.002   5.153  0.00  0.00     0.078 C 
ATOM      2  C1  UNL d   1      -5.722   3.826   3.905  0.00  0.00    -0.077 A 
ATOM      3  C2  UNL d   1      -5.906   3.222   2.655  0.00  0.00    -0.001 A 
ATOM      4  C3  UNL d   1      -5.999   4.001   1.501  0.00  0.00     0.003 A 
ATOM      5  C4  UNL d   1      -5.908   5.389   1.585  0.00  0.00    -0.005 A 
ATOM      6  C5  UNL d   1      -5.724   5.999   2.824  0.00  0.00     0.003 A 
ATOM      7  C6  UNL d   1      -5.630   5.222   3.979  0.00  0.00    -0.001 A 
ENDROOT
TORSDOF 0
ENDMDL
