MODEL 1
REMARK minimizedAffinity -2.76875758
REMARK minimizedRMSD -1
REMARK  0 active torsions:
REMARK  status: ('A' for Active; 'I' for Inactive)
ROOT
ATOM      1  C   UNL d   1      -5.252   5.051   1.663  0.00  0.00     0.078 C 
ATOM      2  C1  UNL d   1      -5.241   5.050   3.163  0.00  0.00    -0.077 A 
ATOM      3  C2  UNL d   1      -4.495   4.105   3.878  0.00  0.00    -0.001 A 
ATOM      4  C3  UNL d   1      -4.501   4.110   5.273  0.00  0.00     0.003 A 
ATOM      5  C4  UNL d   1      -5.253   5.057   5.966  0.00  0.00    -0.005 A 
ATOM      6  C5  UNL d   1      -6.000   6.000   5.264  0.00  0.00     0.003 A 
ATOM      7  C6  UNL d   1      -5.994   5.997   3.868  0.00  0.00    -0.001 A 
ENDROOT
TORSDOF 0
ENDMDL
