MODEL 1
REMARK minimizedAffinity -1.59174049
REMARK minimizedRMSD -1
REMARK  0 active torsions:
REMARK  status: ('A' for Active; 'I' for Inactive)
ROOT
ATOM      1  C   UNL d   1      -1.692  -1.533  -2.321  0.00  0.00     0.078 C 
ATOM      2  C1  UNL d   1      -1.501  -1.009  -0.929  0.00  0.00    -0.077 A 
ATOM      3  C2  UNL d   1      -2.531  -1.084   0.017  0.00  0.00    -0.001 A 
ATOM      4  C3  UNL d   1      -2.342  -0.584   1.306  0.00  0.00     0.003 A 
ATOM      5  C4  UNL d   1      -1.126  -0.004   1.661  0.00  0.00    -0.005 A 
ATOM      6  C5  UNL d   1      -0.096   0.076   0.726  0.00  0.00     0.003 A 
ATOM      7  C6  UNL d   1      -0.282  -0.423  -0.564  0.00  0.00    -0.001 A 
ENDROOT
TORSDOF 0
ENDMDL
