MODEL 1
REMARK minimizedAffinity -2.65214658
REMARK minimizedRMSD -1
REMARK  0 active torsions:
REMARK  status: ('A' for Active; 'I' for Inactive)
ROOT
ATOM      1  C   UNL d   1      -5.258   5.640   0.003  0.00  0.00     0.078 C 
ATOM      2  C1  UNL d   1      -5.243   5.137   1.415  0.00  0.00    -0.077 A 
ATOM      3  C2  UNL d   1      -4.495   4.009   1.772  0.00  0.00    -0.001 A 
ATOM      4  C3  UNL d   1      -4.498   3.547   3.089  0.00  0.00     0.003 A 
ATOM      5  C4  UNL d   1      -5.250   4.206   4.060  0.00  0.00    -0.005 A 
ATOM      6  C5  UNL d   1      -6.000   5.328   3.714  0.00  0.00     0.003 A 
ATOM      7  C6  UNL d   1      -5.998   5.792   2.397  0.00  0.00    -0.001 A 
ENDROOT
TORSDOF 0
ENDMDL
