MODEL 1
REMARK minimizedAffinity -2.19208264
REMARK minimizedRMSD -1
REMARK  0 active torsions:
REMARK  status: ('A' for Active; 'I' for Inactive)
ROOT
ATOM      1  C   UNL d   1      -5.965   4.762   1.686  0.00  0.00     0.078 C 
ATOM      2  C1  UNL d   1      -5.975   4.784   3.185  0.00  0.00    -0.077 A 
ATOM      3  C2  UNL d   1      -6.000   5.994   3.889  0.00  0.00    -0.001 A 
ATOM      4  C3  UNL d   1      -5.999   5.999   5.285  0.00  0.00     0.003 A 
ATOM      5  C4  UNL d   1      -5.972   4.797   5.989  0.00  0.00    -0.005 A 
ATOM      6  C5  UNL d   1      -5.945   3.588   5.297  0.00  0.00     0.003 A 
ATOM      7  C6  UNL d   1      -5.946   3.581   3.902  0.00  0.00    -0.001 A 
ENDROOT
TORSDOF 0
ENDMDL
