MODEL 1
REMARK minimizedAffinity -1.70055711
REMARK minimizedRMSD -1
REMARK  0 active torsions:
REMARK  status: ('A' for Active; 'I' for Inactive)
ROOT
ATOM      1  C   UNL d   1      -5.959   2.227   5.953  0.00  0.00     0.078 C 
ATOM      2  C1  UNL d   1      -5.973   3.536   5.223  0.00  0.00    -0.077 A 
ATOM      3  C2  UNL d   1      -5.948   3.582   3.823  0.00  0.00    -0.001 A 
ATOM      4  C3  UNL d   1      -5.951   4.809   3.157  0.00  0.00     0.003 A 
ATOM      5  C4  UNL d   1      -5.978   5.999   3.882  0.00  0.00    -0.005 A 
ATOM      6  C5  UNL d   1      -6.000   5.963   5.275  0.00  0.00     0.003 A 
ATOM      7  C6  UNL d   1      -5.997   4.738   5.943  0.00  0.00    -0.001 A 
ENDROOT
TORSDOF 0
ENDMDL
