MODEL 1
REMARK minimizedAffinity -1.37464964
REMARK minimizedRMSD -1
REMARK  0 active torsions:
REMARK  status: ('A' for Active; 'I' for Inactive)
ROOT
ATOM      1  C   UNL d   1      -5.853   6.000   0.873  0.00  0.00     0.078 C 
ATOM      2  C1  UNL d   1      -5.338   5.286   2.087  0.00  0.00    -0.077 A 
ATOM      3  C2  UNL d   1      -5.576   3.919   2.275  0.00  0.00    -0.001 A 
ATOM      4  C3  UNL d   1      -5.098   3.269   3.414  0.00  0.00     0.003 A 
ATOM      5  C4  UNL d   1      -4.380   3.978   4.375  0.00  0.00    -0.005 A 
ATOM      6  C5  UNL d   1      -4.140   5.339   4.197  0.00  0.00     0.003 A 
ATOM      7  C6  UNL d   1      -4.617   5.991   3.059  0.00  0.00    -0.001 A 
ENDROOT
TORSDOF 0
ENDMDL
