MODEL 1
REMARK minimizedAffinity -3.3385644
REMARK minimizedRMSD -1
REMARK  0 active torsions:
REMARK  status: ('A' for Active; 'I' for Inactive)
ROOT
ATOM      1  C   UNL d   1      -5.435   2.938   5.994  0.00  0.00     0.078 C 
ATOM      2  C1  UNL d   1      -5.228   3.824   4.802  0.00  0.00    -0.077 A 
ATOM      3  C2  UNL d   1      -4.280   4.854   4.825  0.00  0.00    -0.001 A 
ATOM      4  C3  UNL d   1      -4.105   5.678   3.712  0.00  0.00     0.003 A 
ATOM      5  C4  UNL d   1      -4.875   5.481   2.568  0.00  0.00    -0.005 A 
ATOM      6  C5  UNL d   1      -5.823   4.460   2.536  0.00  0.00     0.003 A 
ATOM      7  C6  UNL d   1      -6.000   3.636   3.649  0.00  0.00    -0.001 A 
ENDROOT
TORSDOF 0
ENDMDL
