MODEL 1
REMARK minimizedAffinity -3.54162741
REMARK minimizedRMSD -1
REMARK  0 active torsions:
REMARK  status: ('A' for Active; 'I' for Inactive)
ROOT
ATOM      1  C   UNL d   1      -5.281   3.383   5.818  0.00  0.00     0.078 C 
ATOM      2  C1  UNL d   1      -5.260   4.046   4.473  0.00  0.00    -0.077 A 
ATOM      3  C2  UNL d   1      -4.520   5.215   4.256  0.00  0.00    -0.001 A 
ATOM      4  C3  UNL d   1      -4.517   5.826   3.002  0.00  0.00     0.003 A 
ATOM      5  C4  UNL d   1      -5.255   5.278   1.954  0.00  0.00    -0.005 A 
ATOM      6  C5  UNL d   1      -5.996   4.116   2.161  0.00  0.00     0.003 A 
ATOM      7  C6  UNL d   1      -6.000   3.503   3.415  0.00  0.00    -0.001 A 
ENDROOT
TORSDOF 0
ENDMDL
