MODEL 1
REMARK minimizedAffinity -3.62294912
REMARK minimizedRMSD -1
REMARK  0 active torsions:
REMARK  status: ('A' for Active; 'I' for Inactive)
ROOT
ATOM      1  C   UNL d   1      -4.440   5.978   2.972  0.00  0.00     0.078 C 
ATOM      2  C1  UNL d   1      -4.987   4.693   3.517  0.00  0.00    -0.077 A 
ATOM      3  C2  UNL d   1      -5.485   4.618   4.824  0.00  0.00    -0.001 A 
ATOM      4  C3  UNL d   1      -5.982   3.413   5.322  0.00  0.00     0.003 A 
ATOM      5  C4  UNL d   1      -5.985   2.273   4.520  0.00  0.00    -0.005 A 
ATOM      6  C5  UNL d   1      -5.489   2.337   3.220  0.00  0.00     0.003 A 
ATOM      7  C6  UNL d   1      -4.992   3.542   2.720  0.00  0.00    -0.001 A 
ENDROOT
TORSDOF 0
ENDMDL
