MODEL 1
REMARK minimizedAffinity -2.79782581
REMARK minimizedRMSD -1
REMARK  0 active torsions:
REMARK  status: ('A' for Active; 'I' for Inactive)
ROOT
ATOM      1  C   UNL d   1      -5.082   5.878   0.894  0.00  0.00     0.078 C 
ATOM      2  C1  UNL d   1      -5.349   5.244   2.227  0.00  0.00    -0.077 A 
ATOM      3  C2  UNL d   1      -5.738   3.902   2.321  0.00  0.00    -0.001 A 
ATOM      4  C3  UNL d   1      -5.992   3.327   3.568  0.00  0.00     0.003 A 
ATOM      5  C4  UNL d   1      -5.861   4.087   4.728  0.00  0.00    -0.005 A 
ATOM      6  C5  UNL d   1      -5.477   5.423   4.644  0.00  0.00     0.003 A 
ATOM      7  C6  UNL d   1      -5.222   6.000   3.399  0.00  0.00    -0.001 A 
ENDROOT
TORSDOF 0
ENDMDL
