MODEL 1
REMARK minimizedAffinity -3.86040187
REMARK minimizedRMSD -1
REMARK  0 active torsions:
REMARK  status: ('A' for Active; 'I' for Inactive)
ROOT
ATOM      1  C   UNL d   1      -4.882   5.385   1.439  0.00  0.00     0.078 C 
ATOM      2  C1  UNL d   1      -5.135   4.738   2.767  0.00  0.00    -0.077 A 
ATOM      3  C2  UNL d   1      -4.779   3.404   2.999  0.00  0.00    -0.001 A 
ATOM      4  C3  UNL d   1      -5.029   2.811   4.238  0.00  0.00     0.003 A 
ATOM      5  C4  UNL d   1      -5.639   3.545   5.254  0.00  0.00    -0.005 A 
ATOM      6  C5  UNL d   1      -6.000   4.872   5.031  0.00  0.00     0.003 A 
ATOM      7  C6  UNL d   1      -5.750   5.466   3.793  0.00  0.00    -0.001 A 
ENDROOT
TORSDOF 0
ENDMDL
