MODEL 1
REMARK minimizedAffinity -4.0960803
REMARK minimizedRMSD -1
REMARK  0 active torsions:
REMARK  status: ('A' for Active; 'I' for Inactive)
ROOT
ATOM      1  C   UNL d   1      -5.079   5.856   1.061  0.00  0.00     0.078 C 
ATOM      2  C1  UNL d   1      -5.263   5.230   2.411  0.00  0.00    -0.077 A 
ATOM      3  C2  UNL d   1      -5.638   6.000   3.518  0.00  0.00    -0.001 A 
ATOM      4  C3  UNL d   1      -5.797   5.405   4.771  0.00  0.00     0.003 A 
ATOM      5  C4  UNL d   1      -5.580   4.037   4.928  0.00  0.00    -0.005 A 
ATOM      6  C5  UNL d   1      -5.205   3.263   3.832  0.00  0.00     0.003 A 
ATOM      7  C6  UNL d   1      -5.046   3.856   2.579  0.00  0.00    -0.001 A 
ENDROOT
TORSDOF 0
ENDMDL
