MODEL 1
REMARK minimizedAffinity -1.85691428
REMARK minimizedRMSD -1
REMARK  0 active torsions:
REMARK  status: ('A' for Active; 'I' for Inactive)
ROOT
ATOM      1  C   UNL d   1      -5.239   2.746   5.668  0.00  0.00     0.078 C 
ATOM      2  C1  UNL d   1      -5.320   3.793   4.598  0.00  0.00    -0.077 A 
ATOM      3  C2  UNL d   1      -5.919   5.034   4.847  0.00  0.00    -0.001 A 
ATOM      4  C3  UNL d   1      -5.996   5.995   3.838  0.00  0.00     0.003 A 
ATOM      5  C4  UNL d   1      -5.477   5.726   2.573  0.00  0.00    -0.005 A 
ATOM      6  C5  UNL d   1      -4.881   4.493   2.316  0.00  0.00     0.003 A 
ATOM      7  C6  UNL d   1      -4.803   3.530   3.323  0.00  0.00    -0.001 A 
ENDROOT
TORSDOF 0
ENDMDL
