MODEL 1
REMARK minimizedAffinity -3.37770629
REMARK minimizedRMSD -1
REMARK  0 active torsions:
REMARK  status: ('A' for Active; 'I' for Inactive)
ROOT
ATOM      1  C   UNL d   1      -5.988   5.659   5.995  0.00  0.00     0.078 C 
ATOM      2  C1  UNL d   1      -5.868   5.125   4.599  0.00  0.00    -0.077 A 
ATOM      3  C2  UNL d   1      -5.775   5.989   3.501  0.00  0.00    -0.001 A 
ATOM      4  C3  UNL d   1      -5.674   5.477   2.206  0.00  0.00     0.003 A 
ATOM      5  C4  UNL d   1      -5.666   4.100   1.997  0.00  0.00    -0.005 A 
ATOM      6  C5  UNL d   1      -5.760   3.232   3.083  0.00  0.00     0.003 A 
ATOM      7  C6  UNL d   1      -5.861   3.741   4.378  0.00  0.00    -0.001 A 
ENDROOT
TORSDOF 0
ENDMDL
