MODEL 1
REMARK minimizedAffinity -4.75005484
REMARK minimizedRMSD -1
REMARK  1 active torsions:
REMARK  status: ('A' for Active; 'I' for Inactive)
REMARK    1  A    between atoms: C3_4  and  O_7 
ROOT
ATOM      1  C   UNL d   1      -0.932   4.255   0.094  0.00  0.00    -0.033 A 
ATOM      2  C1  UNL d   1      -0.885   3.274   1.087  0.00  0.00     0.039 A 
ATOM      3  C2  UNL d   1      -0.642   1.943   0.744  0.00  0.00    -0.080 A 
ATOM      4  C3  UNL d   1      -0.447   1.606  -0.593  0.00  0.00     0.150 A 
ATOM      5  C4  UNL d   1      -0.488   2.578  -1.586  0.00  0.00    -0.007 A 
ATOM      6  C5  UNL d   1      -0.731   3.907  -1.242  0.00  0.00     0.039 A 
ENDROOT
BRANCH   4   7
ATOM      7  O   UNL d   1      -0.212   0.319  -0.976  0.00  0.00    -0.526 OA
ATOM      8  H5  UNL d   1      -0.240  -0.248  -0.187  0.00  0.00     0.418 HD
ENDBRANCH   4   7
TORSDOF 1
ENDMDL
