MODEL 1
REMARK minimizedAffinity 0.0556164496
REMARK minimizedRMSD -1
REMARK  1 active torsions:
REMARK  status: ('A' for Active; 'I' for Inactive)
REMARK    1  A    between atoms: C3_4  and  O_7 
ROOT
ATOM      1  C   UNL d   1       2.735   5.255   1.064  0.00  0.00    -0.033 A 
ATOM      2  C1  UNL d   1       1.605   4.969   0.294  0.00  0.00     0.039 A 
ATOM      3  C2  UNL d   1       0.750   3.929   0.665  0.00  0.00    -0.080 A 
ATOM      4  C3  UNL d   1       1.035   3.185   1.807  0.00  0.00     0.150 A 
ATOM      5  C4  UNL d   1       2.156   3.467   2.580  0.00  0.00    -0.007 A 
ATOM      6  C5  UNL d   1       3.009   4.505   2.208  0.00  0.00     0.039 A 
ENDROOT
BRANCH   4   7
ATOM      7  O   UNL d   1       0.232   2.158   2.206  0.00  0.00    -0.526 OA
ATOM      8  H5  UNL d   1      -0.487   2.061   1.560  0.00  0.00     0.418 HD
ENDBRANCH   4   7
TORSDOF 1
ENDMDL
