MODEL 1
REMARK minimizedAffinity -5.07240391
REMARK minimizedRMSD -1
REMARK  1 active torsions:
REMARK  status: ('A' for Active; 'I' for Inactive)
REMARK    1  A    between atoms: C3_4  and  O_7 
ROOT
ATOM      1  C   UNL d   1       0.358   0.701  -0.963  0.00  0.00    -0.033 A 
ATOM      2  C1  UNL d   1       0.363   0.095   0.295  0.00  0.00     0.039 A 
ATOM      3  C2  UNL d   1      -0.370   0.652   1.344  0.00  0.00    -0.080 A 
ATOM      4  C3  UNL d   1      -1.104   1.814   1.123  0.00  0.00     0.150 A 
ATOM      5  C4  UNL d   1      -1.117   2.422  -0.128  0.00  0.00    -0.007 A 
ATOM      6  C5  UNL d   1      -0.384   1.864  -1.175  0.00  0.00     0.039 A 
ENDROOT
BRANCH   4   7
ATOM      7  O   UNL d   1      -1.832   2.398   2.117  0.00  0.00    -0.526 OA
ATOM      8  H5  UNL d   1      -1.705   1.884   2.933  0.00  0.00     0.418 HD
ENDBRANCH   4   7
TORSDOF 1
ENDMDL
