MODEL 1
REMARK minimizedAffinity -5.77116489
REMARK minimizedRMSD -1
REMARK  1 active torsions:
REMARK  status: ('A' for Active; 'I' for Inactive)
REMARK    1  A    between atoms: C3_4  and  O_7 
ROOT
ATOM      1  C   UNL d   1      -0.881   2.996   1.503  0.00  0.00    -0.033 A 
ATOM      2  C1  UNL d   1      -0.236   1.941   2.151  0.00  0.00     0.039 A 
ATOM      3  C2  UNL d   1       0.057   0.766   1.456  0.00  0.00    -0.080 A 
ATOM      4  C3  UNL d   1      -0.299   0.659   0.115  0.00  0.00     0.150 A 
ATOM      5  C4  UNL d   1      -0.939   1.708  -0.539  0.00  0.00    -0.007 A 
ATOM      6  C5  UNL d   1      -1.231   2.879   0.157  0.00  0.00     0.039 A 
ENDROOT
BRANCH   4   7
ATOM      7  O   UNL d   1      -0.038  -0.469  -0.604  0.00  0.00    -0.526 OA
ATOM      8  H5  UNL d   1       0.381  -1.119  -0.015  0.00  0.00     0.418 HD
ENDBRANCH   4   7
TORSDOF 1
ENDMDL
