MODEL 1
REMARK minimizedAffinity -4.58541441
REMARK minimizedRMSD -1
REMARK  1 active torsions:
REMARK  status: ('A' for Active; 'I' for Inactive)
REMARK    1  A    between atoms: C3_4  and  O_7 
ROOT
ATOM      1  C   UNL d   1      -1.299   2.857   1.800  0.00  0.00    -0.033 A 
ATOM      2  C1  UNL d   1      -1.359   1.684   2.555  0.00  0.00     0.039 A 
ATOM      3  C2  UNL d   1      -0.729   0.525   2.097  0.00  0.00    -0.080 A 
ATOM      4  C3  UNL d   1      -0.043   0.553   0.886  0.00  0.00     0.150 A 
ATOM      5  C4  UNL d   1       0.024   1.719   0.131  0.00  0.00    -0.007 A 
ATOM      6  C5  UNL d   1      -0.606   2.875   0.589  0.00  0.00     0.039 A 
ENDROOT
BRANCH   4   7
ATOM      7  O   UNL d   1       0.584  -0.555   0.396  0.00  0.00    -0.526 OA
ATOM      8  H5  UNL d   1       0.429  -1.292   1.009  0.00  0.00     0.418 HD
ENDBRANCH   4   7
TORSDOF 1
ENDMDL
