MODEL 1
REMARK minimizedAffinity -2.89592576
REMARK minimizedRMSD -1
REMARK  0 active torsions:
REMARK  status: ('A' for Active; 'I' for Inactive)
ROOT
ATOM      1  O1  BZF d   1       1.886  -0.922   1.150  0.00  0.00    -0.204 OA
ATOM      2  C2  BZF d   1       0.713  -1.231   1.811  0.00  0.00     0.174 A 
ATOM      3  C3  BZF d   1       0.954  -1.509   3.109  0.00  0.00    -0.012 A 
ATOM      4  C3A BZF d   1       2.354  -1.275   3.290  0.00  0.00    -0.107 A 
ATOM      5  C4  BZF d   1       3.189  -1.363   4.368  0.00  0.00     0.055 A 
ATOM      6  C5  BZF d   1       4.517  -1.137   4.194  0.00  0.00    -0.016 A 
ATOM      7  C6  BZF d   1       5.045  -0.827   2.957  0.00  0.00     0.022 A 
ATOM      8  C7  BZF d   1       4.256  -0.723   1.861  0.00  0.00     0.029 A 
ATOM      9  C7A BZF d   1       2.908  -0.918   2.039  0.00  0.00     0.058 A 
ENDROOT
TORSDOF 0
ENDMDL
