MODEL 1
REMARK minimizedAffinity 2.25707126
REMARK minimizedRMSD -1
REMARK  0 active torsions:
REMARK  status: ('A' for Active; 'I' for Inactive)
ROOT
ATOM      1  O1  BZF d   1       2.860  -0.558   4.736  0.00  0.00    -0.204 OA
ATOM      2  C2  BZF d   1       4.231  -0.391   4.779  0.00  0.00     0.174 A 
ATOM      3  C3  BZF d   1       4.787  -0.687   3.587  0.00  0.00    -0.012 A 
ATOM      4  C3A BZF d   1       3.686  -0.973   2.719  0.00  0.00    -0.107 A 
ATOM      5  C4  BZF d   1       3.595  -1.318   1.401  0.00  0.00     0.055 A 
ATOM      6  C5  BZF d   1       2.374  -1.601   0.875  0.00  0.00    -0.016 A 
ATOM      7  C6  BZF d   1       1.226  -1.553   1.638  0.00  0.00     0.022 A 
ATOM      8  C7  BZF d   1       1.266  -1.211   2.949  0.00  0.00     0.029 A 
ATOM      9  C7A BZF d   1       2.494  -0.893   3.475  0.00  0.00     0.058 A 
ENDROOT
TORSDOF 0
ENDMDL
