MODEL 1
REMARK minimizedAffinity -3.69047904
REMARK minimizedRMSD -1
REMARK  0 active torsions:
REMARK  status: ('A' for Active; 'I' for Inactive)
ROOT
ATOM      1  O1  BZF d   1      -0.141  -5.485  -3.905  0.00  0.00    -0.204 OA
ATOM      2  C2  BZF d   1       0.193  -5.544  -5.244  0.00  0.00     0.174 A 
ATOM      3  C3  BZF d   1      -0.898  -5.790  -5.999  0.00  0.00    -0.012 A 
ATOM      4  C3A BZF d   1      -1.996  -5.799  -5.081  0.00  0.00    -0.107 A 
ATOM      5  C4  BZF d   1      -3.342  -5.976  -5.230  0.00  0.00     0.055 A 
ATOM      6  C5  BZF d   1      -4.131  -6.000  -4.124  0.00  0.00    -0.016 A 
ATOM      7  C6  BZF d   1      -3.608  -5.855  -2.855  0.00  0.00     0.022 A 
ATOM      8  C7  BZF d   1      -2.280  -5.672  -2.658  0.00  0.00     0.029 A 
ATOM      9  C7A BZF d   1      -1.484  -5.615  -3.776  0.00  0.00     0.058 A 
ENDROOT
TORSDOF 0
ENDMDL
