MODEL 1
REMARK minimizedAffinity 5.3074193
REMARK minimizedRMSD -1
REMARK  0 active torsions:
REMARK  status: ('A' for Active; 'I' for Inactive)
ROOT
ATOM      1  O1  BZF d   1       2.130  -1.145   2.868  0.00  0.00    -0.204 OA
ATOM      2  C2  BZF d   1       3.475  -1.381   2.656  0.00  0.00     0.174 A 
ATOM      3  C3  BZF d   1       3.821  -1.073   1.389  0.00  0.00    -0.012 A 
ATOM      4  C3A BZF d   1       2.637  -0.529   0.797  0.00  0.00    -0.107 A 
ATOM      5  C4  BZF d   1       2.352  -0.027  -0.440  0.00  0.00     0.055 A 
ATOM      6  C5  BZF d   1       1.079   0.356  -0.720  0.00  0.00    -0.016 A 
ATOM      7  C6  BZF d   1       0.066   0.246   0.210  0.00  0.00     0.022 A 
ATOM      8  C7  BZF d   1       0.302  -0.241   1.453  0.00  0.00     0.029 A 
ATOM      9  C7A BZF d   1       1.594  -0.598   1.750  0.00  0.00     0.058 A 
ENDROOT
TORSDOF 0
ENDMDL
