MODEL 1
REMARK minimizedAffinity 3.05230093
REMARK minimizedRMSD -1
REMARK  0 active torsions:
REMARK  status: ('A' for Active; 'I' for Inactive)
ROOT
ATOM      1  O1  BZF d   1      -0.018  -5.213  -2.699  0.00  0.00    -0.204 OA
ATOM      2  C2  BZF d   1      -1.250  -5.621  -3.173  0.00  0.00     0.174 A 
ATOM      3  C3  BZF d   1      -1.177  -5.939  -4.482  0.00  0.00    -0.012 A 
ATOM      4  C3A BZF d   1       0.206  -5.805  -4.825  0.00  0.00    -0.107 A 
ATOM      5  C4  BZF d   1       0.910  -6.000  -5.979  0.00  0.00     0.055 A 
ATOM      6  C5  BZF d   1       2.237  -5.710  -6.000  0.00  0.00    -0.016 A 
ATOM      7  C6  BZF d   1       2.891  -5.220  -4.888  0.00  0.00     0.022 A 
ATOM      8  C7  BZF d   1       2.236  -5.016  -3.719  0.00  0.00     0.029 A 
ATOM      9  C7A BZF d   1       0.901  -5.339  -3.686  0.00  0.00     0.058 A 
ENDROOT
TORSDOF 0
ENDMDL
