MODEL 1
REMARK minimizedAffinity -0.89359957
REMARK minimizedRMSD -1
REMARK  0 active torsions:
REMARK  status: ('A' for Active; 'I' for Inactive)
ROOT
ATOM      1  O1  BZF d   1       0.259  -0.392   1.093  0.00  0.00    -0.204 OA
ATOM      2  C2  BZF d   1       0.489  -0.026  -0.219  0.00  0.00     0.174 A 
ATOM      3  C3  BZF d   1       1.810  -0.017  -0.489  0.00  0.00    -0.012 A 
ATOM      4  C3A BZF d   1       2.441  -0.491   0.704  0.00  0.00    -0.107 A 
ATOM      5  C4  BZF d   1       3.742  -0.719   1.051  0.00  0.00     0.055 A 
ATOM      6  C5  BZF d   1       4.028  -1.112   2.320  0.00  0.00    -0.016 A 
ATOM      7  C6  BZF d   1       3.040  -1.281   3.268  0.00  0.00     0.022 A 
ATOM      8  C7  BZF d   1       1.735  -1.071   2.970  0.00  0.00     0.029 A 
ATOM      9  C7A BZF d   1       1.440  -0.706   1.679  0.00  0.00     0.058 A 
ENDROOT
TORSDOF 0
ENDMDL
