MODEL 1
REMARK minimizedAffinity 5.38694859
REMARK minimizedRMSD -1
REMARK  0 active torsions:
REMARK  status: ('A' for Active; 'I' for Inactive)
ROOT
ATOM      1  O1  BZF d   1       1.206  -0.787   1.884  0.00  0.00    -0.204 OA
ATOM      2  C2  BZF d   1       1.196  -0.687   0.506  0.00  0.00     0.174 A 
ATOM      3  C3  BZF d   1       2.454  -0.665   0.019  0.00  0.00    -0.012 A 
ATOM      4  C3A BZF d   1       3.301  -0.851   1.157  0.00  0.00    -0.107 A 
ATOM      5  C4  BZF d   1       4.655  -0.935   1.315  0.00  0.00     0.055 A 
ATOM      6  C5  BZF d   1       5.168  -1.044   2.569  0.00  0.00    -0.016 A 
ATOM      7  C6  BZF d   1       4.358  -1.066   3.685  0.00  0.00     0.022 A 
ATOM      8  C7  BZF d   1       3.009  -0.990   3.578  0.00  0.00     0.029 A 
ATOM      9  C7A BZF d   1       2.486  -0.913   2.310  0.00  0.00     0.058 A 
ENDROOT
TORSDOF 0
ENDMDL
