MODEL 1
REMARK minimizedAffinity 7.51673174
REMARK minimizedRMSD -1
REMARK  0 active torsions:
REMARK  status: ('A' for Active; 'I' for Inactive)
ROOT
ATOM      1  O1  BZF d   1      -0.675  -0.010   0.037  0.00  0.00    -0.204 OA
ATOM      2  C2  BZF d   1       0.685  -0.228   0.151  0.00  0.00     0.174 A 
ATOM      3  C3  BZF d   1       0.942  -1.529   0.392  0.00  0.00    -0.012 A 
ATOM      4  C3A BZF d   1      -0.331  -2.181   0.340  0.00  0.00    -0.107 A 
ATOM      5  C4  BZF d   1      -0.727  -3.479   0.486  0.00  0.00     0.055 A 
ATOM      6  C5  BZF d   1      -2.054  -3.772   0.450  0.00  0.00    -0.016 A 
ATOM      7  C6  BZF d   1      -3.010  -2.793   0.277  0.00  0.00     0.022 A 
ATOM      8  C7  BZF d   1      -2.664  -1.491   0.123  0.00  0.00     0.029 A 
ATOM      9  C7A BZF d   1      -1.323  -1.196   0.126  0.00  0.00     0.058 A 
ENDROOT
TORSDOF 0
ENDMDL
