MODEL 1
REMARK minimizedAffinity 0.913898647
REMARK minimizedRMSD -1
REMARK  0 active torsions:
REMARK  status: ('A' for Active; 'I' for Inactive)
ROOT
ATOM      1  O1  BZF d   1      -0.827  -5.999  -5.999  0.00  0.00    -0.204 OA
ATOM      2  C2  BZF d   1      -1.804  -5.894  -5.028  0.00  0.00     0.174 A 
ATOM      3  C3  BZF d   1      -1.252  -5.698  -3.813  0.00  0.00    -0.012 A 
ATOM      4  C3A BZF d   1       0.155  -5.587  -4.053  0.00  0.00    -0.107 A 
ATOM      5  C4  BZF d   1       1.231  -5.371  -3.240  0.00  0.00     0.055 A 
ATOM      6  C5  BZF d   1       2.479  -5.392  -3.778  0.00  0.00    -0.016 A 
ATOM      7  C6  BZF d   1       2.687  -5.629  -5.121  0.00  0.00     0.022 A 
ATOM      8  C7  BZF d   1       1.650  -5.844  -5.967  0.00  0.00     0.029 A 
ATOM      9  C7A BZF d   1       0.386  -5.791  -5.433  0.00  0.00     0.058 A 
ENDROOT
TORSDOF 0
ENDMDL
