MODEL 1
REMARK minimizedAffinity 1.45312798
REMARK minimizedRMSD -1
REMARK  0 active torsions:
REMARK  status: ('A' for Active; 'I' for Inactive)
ROOT
ATOM      1  O1  BZF d   1      -4.202   2.346  -3.821  0.00  0.00    -0.204 OA
ATOM      2  C2  BZF d   1      -4.283   1.091  -3.249  0.00  0.00     0.174 A 
ATOM      3  C3  BZF d   1      -3.052   0.600  -2.999  0.00  0.00    -0.012 A 
ATOM      4  C3A BZF d   1      -2.148   1.650  -3.356  0.00  0.00    -0.107 A 
ATOM      5  C4  BZF d   1      -0.788   1.771  -3.319  0.00  0.00     0.055 A 
ATOM      6  C5  BZF d   1      -0.212   2.900  -3.809  0.00  0.00    -0.016 A 
ATOM      7  C6  BZF d   1      -0.964   3.924  -4.347  0.00  0.00     0.022 A 
ATOM      8  C7  BZF d   1      -2.316   3.851  -4.402  0.00  0.00     0.029 A 
ATOM      9  C7A BZF d   1      -2.903   2.726  -3.878  0.00  0.00     0.058 A 
ENDROOT
TORSDOF 0
ENDMDL
