MODEL 1
REMARK minimizedAffinity 6.16396999
REMARK minimizedRMSD -1
REMARK  0 active torsions:
REMARK  status: ('A' for Active; 'I' for Inactive)
ROOT
ATOM      1  O1  BZF d   1      -1.085  -5.482  -3.777  0.00  0.00    -0.204 OA
ATOM      2  C2  BZF d   1      -1.779  -5.817  -4.923  0.00  0.00     0.174 A 
ATOM      3  C3  BZF d   1      -0.946  -5.896  -5.981  0.00  0.00    -0.012 A 
ATOM      4  C3A BZF d   1       0.363  -5.682  -5.445  0.00  0.00    -0.107 A 
ATOM      5  C4  BZF d   1       1.611  -5.657  -5.999  0.00  0.00     0.055 A 
ATOM      6  C5  BZF d   1       2.676  -5.348  -5.213  0.00  0.00    -0.016 A 
ATOM      7  C6  BZF d   1       2.529  -5.054  -3.873  0.00  0.00     0.022 A 
ATOM      8  C7  BZF d   1       1.311  -5.071  -3.278  0.00  0.00     0.029 A 
ATOM      9  C7A BZF d   1       0.237  -5.415  -4.062  0.00  0.00     0.058 A 
ENDROOT
TORSDOF 0
ENDMDL
