MODEL 1
REMARK minimizedAffinity 5.44627857
REMARK minimizedRMSD -1
REMARK  0 active torsions:
REMARK  status: ('A' for Active; 'I' for Inactive)
ROOT
ATOM      1  O1  BZF d   1       1.472  -5.890  -5.969  0.00  0.00    -0.204 OA
ATOM      2  C2  BZF d   1       2.436  -5.364  -5.130  0.00  0.00     0.174 A 
ATOM      3  C3  BZF d   1       1.869  -4.630  -4.151  0.00  0.00    -0.012 A 
ATOM      4  C3A BZF d   1       0.458  -4.777  -4.339  0.00  0.00    -0.107 A 
ATOM      5  C4  BZF d   1      -0.633  -4.298  -3.672  0.00  0.00     0.055 A 
ATOM      6  C5  BZF d   1      -1.874  -4.567  -4.156  0.00  0.00    -0.016 A 
ATOM      7  C6  BZF d   1      -2.060  -5.306  -5.306  0.00  0.00     0.022 A 
ATOM      8  C7  BZF d   1      -1.008  -5.807  -5.999  0.00  0.00     0.029 A 
ATOM      9  C7A BZF d   1       0.246  -5.565  -5.494  0.00  0.00     0.058 A 
ENDROOT
TORSDOF 0
ENDMDL
