MODEL 1
REMARK minimizedAffinity 11.5295715
REMARK minimizedRMSD -1
REMARK  0 active torsions:
REMARK  status: ('A' for Active; 'I' for Inactive)
ROOT
ATOM      1  O1  BZF d   1       1.718  -1.245   2.926  0.00  0.00    -0.204 OA
ATOM      2  C2  BZF d   1       3.031  -1.669   2.858  0.00  0.00     0.174 A 
ATOM      3  C3  BZF d   1       3.497  -1.580   1.595  0.00  0.00    -0.012 A 
ATOM      4  C3A BZF d   1       2.437  -0.983   0.844  0.00  0.00    -0.107 A 
ATOM      5  C4  BZF d   1       2.302  -0.623  -0.467  0.00  0.00     0.055 A 
ATOM      6  C5  BZF d   1       1.110  -0.130  -0.897  0.00  0.00    -0.016 A 
ATOM      7  C6  BZF d   1       0.033   0.010  -0.047  0.00  0.00     0.022 A 
ATOM      8  C7  BZF d   1       0.121  -0.329   1.263  0.00  0.00     0.029 A 
ATOM      9  C7A BZF d   1       1.333  -0.795   1.708  0.00  0.00     0.058 A 
ENDROOT
TORSDOF 0
ENDMDL
