MODEL 1
REMARK minimizedAffinity 8.00658894
REMARK minimizedRMSD -1
REMARK  0 active torsions:
REMARK  status: ('A' for Active; 'I' for Inactive)
ROOT
ATOM      1  O1  BZF d   1       4.961  -0.598   1.951  0.00  0.00    -0.204 OA
ATOM      2  C2  BZF d   1       4.814  -1.009   3.261  0.00  0.00     0.174 A 
ATOM      3  C3  BZF d   1       3.515  -1.219   3.554  0.00  0.00    -0.012 A 
ATOM      4  C3A BZF d   1       2.813  -1.008   2.325  0.00  0.00    -0.107 A 
ATOM      5  C4  BZF d   1       1.496  -1.083   1.971  0.00  0.00     0.055 A 
ATOM      6  C5  BZF d   1       1.132  -0.746   0.706  0.00  0.00    -0.016 A 
ATOM      7  C6  BZF d   1       2.056  -0.324  -0.227  0.00  0.00     0.022 A 
ATOM      8  C7  BZF d   1       3.374  -0.238   0.076  0.00  0.00     0.029 A 
ATOM      9  C7A BZF d   1       3.750  -0.610   1.344  0.00  0.00     0.058 A 
ENDROOT
TORSDOF 0
ENDMDL
