MODEL 1
REMARK minimizedAffinity -1.21256518
REMARK minimizedRMSD -1
REMARK  0 active torsions:
REMARK  status: ('A' for Active; 'I' for Inactive)
ROOT
ATOM      1  O1  BZF d   1       0.201  -5.872  -2.088  0.00  0.00    -0.204 OA
ATOM      2  C2  BZF d   1      -1.029  -5.954  -1.465  0.00  0.00     0.174 A 
ATOM      3  C3  BZF d   1      -2.026  -5.962  -2.373  0.00  0.00    -0.012 A 
ATOM      4  C3A BZF d   1      -1.374  -5.972  -3.647  0.00  0.00    -0.107 A 
ATOM      5  C4  BZF d   1      -1.829  -5.998  -4.934  0.00  0.00     0.055 A 
ATOM      6  C5  BZF d   1      -0.933  -5.926  -5.953  0.00  0.00    -0.016 A 
ATOM      7  C6  BZF d   1       0.423  -5.823  -5.721  0.00  0.00     0.022 A 
ATOM      8  C7  BZF d   1       0.922  -5.799  -4.461  0.00  0.00     0.029 A 
ATOM      9  C7A BZF d   1       0.021  -5.905  -3.430  0.00  0.00     0.058 A 
ENDROOT
TORSDOF 0
ENDMDL
