MODEL 1
REMARK minimizedAffinity 7.35710335
REMARK minimizedRMSD -1
REMARK  0 active torsions:
REMARK  status: ('A' for Active; 'I' for Inactive)
ROOT
ATOM      1  O1  BZF d   1       0.053  -4.888  -3.169  0.00  0.00    -0.204 OA
ATOM      2  C2  BZF d   1      -0.995  -5.397  -3.911  0.00  0.00     0.174 A 
ATOM      3  C3  BZF d   1      -0.566  -5.822  -5.117  0.00  0.00    -0.012 A 
ATOM      4  C3A BZF d   1       0.854  -5.646  -5.095  0.00  0.00    -0.107 A 
ATOM      5  C4  BZF d   1       1.846  -5.901  -5.998  0.00  0.00     0.055 A 
ATOM      6  C5  BZF d   1       3.122  -5.546  -5.695  0.00  0.00    -0.016 A 
ATOM      7  C6  BZF d   1       3.441  -4.931  -4.503  0.00  0.00     0.022 A 
ATOM      8  C7  BZF d   1       2.492  -4.662  -3.573  0.00  0.00     0.029 A 
ATOM      9  C7A BZF d   1       1.206  -5.049  -3.862  0.00  0.00     0.058 A 
ENDROOT
TORSDOF 0
ENDMDL
