MODEL 1
REMARK minimizedAffinity -3.01488233
REMARK minimizedRMSD -1
REMARK  0 active torsions:
REMARK  status: ('A' for Active; 'I' for Inactive)
ROOT
ATOM      1  O1  BZF d   1      -2.113  -5.944   0.430  0.00  0.00    -0.204 OA
ATOM      2  C2  BZF d   1      -3.100  -5.941   1.397  0.00  0.00     0.174 A 
ATOM      3  C3  BZF d   1      -4.324  -5.906   0.832  0.00  0.00    -0.012 A 
ATOM      4  C3A BZF d   1      -4.090  -5.978  -0.578  0.00  0.00    -0.107 A 
ATOM      5  C4  BZF d   1      -4.913  -5.999  -1.667  0.00  0.00     0.055 A 
ATOM      6  C5  BZF d   1      -4.365  -5.999  -2.910  0.00  0.00    -0.016 A 
ATOM      7  C6  BZF d   1      -2.999  -5.973  -3.101  0.00  0.00     0.022 A 
ATOM      8  C7  BZF d   1      -2.141  -5.957  -2.052  0.00  0.00     0.029 A 
ATOM      9  C7A BZF d   1      -2.692  -5.990  -0.794  0.00  0.00     0.058 A 
ENDROOT
TORSDOF 0
ENDMDL
