MODEL 1
REMARK minimizedAffinity -2.51530862
REMARK minimizedRMSD -1
REMARK  0 active torsions:
REMARK  status: ('A' for Active; 'I' for Inactive)
ROOT
ATOM      1  N1  IND d   1      -3.425   1.722  -2.465  0.00  0.00    -0.196 N 
ATOM      2  C2  IND d   1      -4.503   1.534  -3.284  0.00  0.00     0.054 A 
ATOM      3  C3  IND d   1      -5.650   1.570  -2.569  0.00  0.00    -0.031 A 
ATOM      4  C4  IND d   1      -5.999   2.025  -0.060  0.00  0.00     0.051 A 
ATOM      5  C5  IND d   1      -5.312   2.217   1.106  0.00  0.00    -0.031 A 
ATOM      6  C6  IND d   1      -3.933   2.258   1.141  0.00  0.00     0.015 A 
ATOM      7  C7  IND d   1      -3.187   2.118   0.005  0.00  0.00    -0.016 A 
ATOM      8  C8  IND d   1      -3.881   1.916  -1.179  0.00  0.00    -0.047 A 
ATOM      9  C9  IND d   1      -5.279   1.831  -1.215  0.00  0.00    -0.096 A 
ATOM     10  HN1 IND d   1      -2.601   1.719  -2.710  0.00  0.00     0.298 HD
ENDROOT
TORSDOF 0
ENDMDL
