MODEL 1
REMARK minimizedAffinity 4.09089899
REMARK minimizedRMSD -1
REMARK  0 active torsions:
REMARK  status: ('A' for Active; 'I' for Inactive)
ROOT
ATOM      1  N1  IND d   1       4.108  -5.999  -5.417  0.00  0.00    -0.196 N 
ATOM      2  C2  IND d   1       2.770  -5.995  -5.702  0.00  0.00     0.054 A 
ATOM      3  C3  IND d   1       2.047  -5.991  -4.560  0.00  0.00    -0.031 A 
ATOM      4  C4  IND d   1       2.849  -5.887  -2.116  0.00  0.00     0.051 A 
ATOM      5  C5  IND d   1       3.982  -5.912  -1.352  0.00  0.00    -0.031 A 
ATOM      6  C6  IND d   1       5.240  -5.965  -1.916  0.00  0.00     0.015 A 
ATOM      7  C7  IND d   1       5.414  -5.984  -3.271  0.00  0.00    -0.016 A 
ATOM      8  C8  IND d   1       4.265  -5.966  -4.049  0.00  0.00    -0.047 A 
ATOM      9  C9  IND d   1       2.984  -5.955  -3.482  0.00  0.00    -0.096 A 
ATOM     10  HN1 IND d   1       4.743  -6.018  -5.996  0.00  0.00     0.298 HD
ENDROOT
TORSDOF 0
ENDMDL
