MODEL 1
REMARK minimizedAffinity 5.44945574
REMARK minimizedRMSD -1
REMARK  0 active torsions:
REMARK  status: ('A' for Active; 'I' for Inactive)
ROOT
ATOM      1  N1  IND d   1       5.436  -5.771  -4.711  0.00  0.00    -0.196 N 
ATOM      2  C2  IND d   1       4.922  -5.833  -5.976  0.00  0.00     0.054 A 
ATOM      3  C3  IND d   1       3.577  -5.962  -5.931  0.00  0.00    -0.031 A 
ATOM      4  C4  IND d   1       2.004  -5.991  -3.893  0.00  0.00     0.051 A 
ATOM      5  C5  IND d   1       2.012  -5.999  -2.527  0.00  0.00    -0.031 A 
ATOM      6  C6  IND d   1       3.185  -5.927  -1.804  0.00  0.00     0.015 A 
ATOM      7  C7  IND d   1       4.399  -5.833  -2.424  0.00  0.00    -0.016 A 
ATOM      8  C8  IND d   1       4.395  -5.832  -3.811  0.00  0.00    -0.047 A 
ATOM      9  C9  IND d   1       3.211  -5.947  -4.550  0.00  0.00    -0.096 A 
ATOM     10  HN1 IND d   1       6.270  -5.705  -4.512  0.00  0.00     0.298 HD
ENDROOT
TORSDOF 0
ENDMDL
