MODEL 1
REMARK minimizedAffinity -2.21258426
REMARK minimizedRMSD -1
REMARK  0 active torsions:
REMARK  status: ('A' for Active; 'I' for Inactive)
ROOT
ATOM      1  N1  IND d   1       4.923  -5.980  -2.519  0.00  0.00    -0.196 N 
ATOM      2  C2  IND d   1       4.024  -5.974  -1.489  0.00  0.00     0.054 A 
ATOM      3  C3  IND d   1       2.760  -5.943  -1.967  0.00  0.00    -0.031 A 
ATOM      4  C4  IND d   1       1.932  -5.999  -4.404  0.00  0.00     0.051 A 
ATOM      5  C5  IND d   1       2.380  -5.970  -5.695  0.00  0.00    -0.031 A 
ATOM      6  C6  IND d   1       3.725  -5.946  -6.000  0.00  0.00     0.015 A 
ATOM      7  C7  IND d   1       4.678  -5.960  -5.020  0.00  0.00    -0.016 A 
ATOM      8  C8  IND d   1       4.227  -5.982  -3.708  0.00  0.00    -0.047 A 
ATOM      9  C9  IND d   1       2.862  -5.964  -3.392  0.00  0.00    -0.096 A 
ATOM     10  HN1 IND d   1       5.779  -5.982  -2.439  0.00  0.00     0.298 HD
ENDROOT
TORSDOF 0
ENDMDL
