MODEL 1
REMARK minimizedAffinity 10.2131596
REMARK minimizedRMSD -1
REMARK  0 active torsions:
REMARK  status: ('A' for Active; 'I' for Inactive)
ROOT
ATOM      1  N1  IND d   1       0.838  -0.921   3.716  0.00  0.00    -0.196 N 
ATOM      2  C2  IND d   1       1.586  -0.330   2.736  0.00  0.00     0.054 A 
ATOM      3  C3  IND d   1       2.489  -1.206   2.241  0.00  0.00    -0.031 A 
ATOM      4  C4  IND d   1       2.846  -3.689   2.820  0.00  0.00     0.051 A 
ATOM      5  C5  IND d   1       2.428  -4.665   3.679  0.00  0.00    -0.031 A 
ATOM      6  C6  IND d   1       1.437  -4.440   4.612  0.00  0.00     0.015 A 
ATOM      7  C7  IND d   1       0.816  -3.227   4.713  0.00  0.00    -0.016 A 
ATOM      8  C8  IND d   1       1.243  -2.231   3.846  0.00  0.00    -0.047 A 
ATOM      9  C9  IND d   1       2.278  -2.441   2.926  0.00  0.00    -0.096 A 
ATOM     10  HN1 IND d   1       0.219  -0.538   4.174  0.00  0.00     0.298 HD
ENDROOT
TORSDOF 0
ENDMDL
