MODEL 1
REMARK minimizedAffinity 8.14830685
REMARK minimizedRMSD -1
REMARK  0 active torsions:
REMARK  status: ('A' for Active; 'I' for Inactive)
ROOT
ATOM      1  N1  IND d   1       1.250  -1.894   2.163  0.00  0.00    -0.196 N 
ATOM      2  C2  IND d   1       1.540  -0.714   2.789  0.00  0.00     0.054 A 
ATOM      3  C3  IND d   1       2.046  -0.948   4.021  0.00  0.00    -0.031 A 
ATOM      4  C4  IND d   1       2.581  -3.188   5.172  0.00  0.00     0.051 A 
ATOM      5  C5  IND d   1       2.456  -4.539   5.010  0.00  0.00    -0.031 A 
ATOM      6  C6  IND d   1       1.914  -5.089   3.866  0.00  0.00     0.015 A 
ATOM      7  C7  IND d   1       1.486  -4.305   2.833  0.00  0.00    -0.016 A 
ATOM      8  C8  IND d   1       1.604  -2.932   2.997  0.00  0.00    -0.047 A 
ATOM      9  C9  IND d   1       2.114  -2.367   4.173  0.00  0.00    -0.096 A 
ATOM     10  HN1 IND d   1       0.904  -1.975   1.380  0.00  0.00     0.298 HD
ENDROOT
TORSDOF 0
ENDMDL
