MODEL 1
REMARK minimizedAffinity 7.24183798
REMARK minimizedRMSD -1
REMARK  0 active torsions:
REMARK  status: ('A' for Active; 'I' for Inactive)
ROOT
ATOM      1  N1  IND d   1       5.108  -3.454   5.038  0.00  0.00    -0.196 N 
ATOM      2  C2  IND d   1       5.899  -2.507   4.449  0.00  0.00     0.054 A 
ATOM      3  C3  IND d   1       5.200  -1.828   3.511  0.00  0.00    -0.031 A 
ATOM      4  C4  IND d   1       2.721  -2.036   2.849  0.00  0.00     0.051 A 
ATOM      5  C5  IND d   1       1.603  -2.787   3.083  0.00  0.00    -0.031 A 
ATOM      6  C6  IND d   1       1.595  -3.817   4.001  0.00  0.00     0.015 A 
ATOM      7  C7  IND d   1       2.708  -4.129   4.731  0.00  0.00    -0.016 A 
ATOM      8  C8  IND d   1       3.847  -3.374   4.491  0.00  0.00    -0.047 A 
ATOM      9  C9  IND d   1       3.873  -2.355   3.530  0.00  0.00    -0.096 A 
ATOM     10  HN1 IND d   1       5.358  -4.007   5.647  0.00  0.00     0.298 HD
ENDROOT
TORSDOF 0
ENDMDL
