MODEL 1
REMARK minimizedAffinity 11.2507734
REMARK minimizedRMSD -1
REMARK  0 active torsions:
REMARK  status: ('A' for Active; 'I' for Inactive)
ROOT
ATOM      1  N1  IND d   1       4.736   0.998  -5.059  0.00  0.00    -0.196 N 
ATOM      2  C2  IND d   1       5.848   0.375  -5.552  0.00  0.00     0.054 A 
ATOM      3  C3  IND d   1       5.998  -0.841  -4.980  0.00  0.00    -0.031 A 
ATOM      4  C4  IND d   1       4.482  -2.051  -3.287  0.00  0.00     0.051 A 
ATOM      5  C5  IND d   1       3.369  -1.868  -2.515  0.00  0.00    -0.031 A 
ATOM      6  C6  IND d   1       2.639  -0.698  -2.554  0.00  0.00     0.015 A 
ATOM      7  C7  IND d   1       2.989   0.334  -3.379  0.00  0.00    -0.016 A 
ATOM      8  C8  IND d   1       4.122   0.154  -4.159  0.00  0.00    -0.047 A 
ATOM      9  C9  IND d   1       4.892  -1.015  -4.092  0.00  0.00    -0.096 A 
ATOM     10  HN1 IND d   1       4.465   1.785  -5.274  0.00  0.00     0.298 HD
ENDROOT
TORSDOF 0
ENDMDL
