MODEL 1
REMARK minimizedAffinity 3.52628517
REMARK minimizedRMSD -1
REMARK  0 active torsions:
REMARK  status: ('A' for Active; 'I' for Inactive)
ROOT
ATOM      1  C   UNL d   1       0.500   3.311   0.745  0.00  0.00     0.078 C 
ATOM      2  C1  UNL d   1       0.306   1.886   0.321  0.00  0.00    -0.077 A 
ATOM      3  C2  UNL d   1      -0.200   0.931   1.211  0.00  0.00    -0.001 A 
ATOM      4  C3  UNL d   1      -0.366  -0.394   0.806  0.00  0.00     0.003 A 
ATOM      5  C4  UNL d   1      -0.028  -0.777  -0.491  0.00  0.00    -0.005 A 
ATOM      6  C5  UNL d   1       0.478   0.166  -1.383  0.00  0.00     0.003 A 
ATOM      7  C6  UNL d   1       0.645   1.492  -0.980  0.00  0.00    -0.001 A 
ENDROOT
TORSDOF 0
ENDMDL
