MODEL 1
REMARK minimizedAffinity 0.0574460439
REMARK minimizedRMSD -1
REMARK  0 active torsions:
REMARK  status: ('A' for Active; 'I' for Inactive)
ROOT
ATOM      1  C   UNL d   1      -1.212   0.099   0.792  0.00  0.00     0.078 C 
ATOM      2  C1  UNL d   1      -0.071   0.458  -0.111  0.00  0.00    -0.077 A 
ATOM      3  C2  UNL d   1      -0.095   0.127  -1.471  0.00  0.00    -0.001 A 
ATOM      4  C3  UNL d   1       0.979   0.459  -2.299  0.00  0.00     0.003 A 
ATOM      5  C4  UNL d   1       2.086   1.123  -1.775  0.00  0.00    -0.005 A 
ATOM      6  C5  UNL d   1       2.121   1.455  -0.422  0.00  0.00     0.003 A 
ATOM      7  C6  UNL d   1       1.048   1.124   0.407  0.00  0.00    -0.001 A 
ENDROOT
TORSDOF 0
ENDMDL
