MODEL 1
REMARK minimizedAffinity -3.3313055
REMARK minimizedRMSD -1
REMARK  0 active torsions:
REMARK  status: ('A' for Active; 'I' for Inactive)
ROOT
ATOM      1  C   UNL d   1      -0.757  -2.510   0.753  0.00  0.00     0.078 C 
ATOM      2  C1  UNL d   1      -0.537  -1.141   0.182  0.00  0.00    -0.077 A 
ATOM      3  C2  UNL d   1      -1.116  -0.012   0.773  0.00  0.00    -0.001 A 
ATOM      4  C3  UNL d   1      -0.910   1.255   0.225  0.00  0.00     0.003 A 
ATOM      5  C4  UNL d   1      -0.126   1.405  -0.917  0.00  0.00    -0.005 A 
ATOM      6  C5  UNL d   1       0.453   0.286  -1.514  0.00  0.00     0.003 A 
ATOM      7  C6  UNL d   1       0.248  -0.982  -0.967  0.00  0.00    -0.001 A 
ENDROOT
TORSDOF 0
ENDMDL
