MODEL 1
REMARK minimizedAffinity 2.6003468
REMARK minimizedRMSD -1
REMARK  0 active torsions:
REMARK  status: ('A' for Active; 'I' for Inactive)
ROOT
ATOM      1  C   UNL d   1      -2.240  -2.646   0.223  0.00  0.00     0.078 C 
ATOM      2  C1  UNL d   1      -1.706  -1.397   0.857  0.00  0.00    -0.077 A 
ATOM      3  C2  UNL d   1      -1.230  -0.337   0.075  0.00  0.00    -0.001 A 
ATOM      4  C3  UNL d   1      -0.727   0.816   0.680  0.00  0.00     0.003 A 
ATOM      5  C4  UNL d   1      -0.692   0.919   2.069  0.00  0.00    -0.005 A 
ATOM      6  C5  UNL d   1      -1.161  -0.131   2.855  0.00  0.00     0.003 A 
ATOM      7  C6  UNL d   1      -1.665  -1.285   2.253  0.00  0.00    -0.001 A 
ENDROOT
TORSDOF 0
ENDMDL
