MODEL 1
REMARK minimizedAffinity 2.14069319
REMARK minimizedRMSD -1
REMARK  0 active torsions:
REMARK  status: ('A' for Active; 'I' for Inactive)
ROOT
ATOM      1  C   UNL d   1       1.782   3.334   1.240  0.00  0.00     0.078 C 
ATOM      2  C1  UNL d   1       1.237   2.238   0.375  0.00  0.00    -0.077 A 
ATOM      3  C2  UNL d   1      -0.069   1.763   0.549  0.00  0.00    -0.001 A 
ATOM      4  C3  UNL d   1      -0.560   0.736  -0.257  0.00  0.00     0.003 A 
ATOM      5  C4  UNL d   1       0.247   0.173  -1.243  0.00  0.00    -0.005 A 
ATOM      6  C5  UNL d   1       1.549   0.637  -1.423  0.00  0.00     0.003 A 
ATOM      7  C6  UNL d   1       2.042   1.664  -0.617  0.00  0.00    -0.001 A 
ENDROOT
TORSDOF 0
ENDMDL
