MODEL 1
REMARK minimizedAffinity -0.0291350838
REMARK minimizedRMSD -1
REMARK  0 active torsions:
REMARK  status: ('A' for Active; 'I' for Inactive)
ROOT
ATOM      1  C   UNL d   1       0.320  -0.482  -1.822  0.00  0.00     0.078 C 
ATOM      2  C1  UNL d   1      -0.288  -1.037  -0.568  0.00  0.00    -0.077 A 
ATOM      3  C2  UNL d   1      -0.456  -2.417  -0.398  0.00  0.00    -0.001 A 
ATOM      4  C3  UNL d   1      -1.033  -2.919   0.770  0.00  0.00     0.003 A 
ATOM      5  C4  UNL d   1      -1.448  -2.048   1.776  0.00  0.00    -0.005 A 
ATOM      6  C5  UNL d   1      -1.287  -0.673   1.614  0.00  0.00     0.003 A 
ATOM      7  C6  UNL d   1      -0.710  -0.170   0.447  0.00  0.00    -0.001 A 
ENDROOT
TORSDOF 0
ENDMDL
