MODEL 1
REMARK minimizedAffinity -5.48890162
REMARK minimizedRMSD -1
REMARK  0 active torsions:
REMARK  status: ('A' for Active; 'I' for Inactive)
ROOT
ATOM      1  C   UNL d   1       1.267  -0.337  -1.914  0.00  0.00     0.078 C 
ATOM      2  C1  UNL d   1       0.349  -0.577  -0.752  0.00  0.00    -0.077 A 
ATOM      3  C2  UNL d   1       0.072  -1.876  -0.308  0.00  0.00    -0.001 A 
ATOM      4  C3  UNL d   1      -0.792  -2.085   0.768  0.00  0.00     0.003 A 
ATOM      5  C4  UNL d   1      -1.387  -0.999   1.408  0.00  0.00    -0.005 A 
ATOM      6  C5  UNL d   1      -1.120   0.297   0.971  0.00  0.00     0.003 A 
ATOM      7  C6  UNL d   1      -0.256   0.507  -0.104  0.00  0.00    -0.001 A 
ENDROOT
TORSDOF 0
ENDMDL
