MODEL 1
REMARK minimizedAffinity -1.2114197
REMARK minimizedRMSD -1
REMARK  0 active torsions:
REMARK  status: ('A' for Active; 'I' for Inactive)
ROOT
ATOM      1  C   UNL d   1       0.926  -0.072  -1.564  0.00  0.00     0.078 C 
ATOM      2  C1  UNL d   1       0.231  -0.683  -0.384  0.00  0.00    -0.077 A 
ATOM      3  C2  UNL d   1       0.063  -2.070  -0.285  0.00  0.00    -0.001 A 
ATOM      4  C3  UNL d   1      -0.594  -2.624   0.815  0.00  0.00     0.003 A 
ATOM      5  C4  UNL d   1      -1.089  -1.800   1.823  0.00  0.00    -0.005 A 
ATOM      6  C5  UNL d   1      -0.928  -0.419   1.733  0.00  0.00     0.003 A 
ATOM      7  C6  UNL d   1      -0.271   0.138   0.634  0.00  0.00    -0.001 A 
ENDROOT
TORSDOF 0
ENDMDL
