MODEL 1
REMARK minimizedAffinity -2.44680429
REMARK minimizedRMSD -1
REMARK  0 active torsions:
REMARK  status: ('A' for Active; 'I' for Inactive)
ROOT
ATOM      1  C   UNL d   1       6.000  -2.677   2.126  0.00  0.00     0.078 C 
ATOM      2  C1  UNL d   1       5.352  -2.597   3.476  0.00  0.00    -0.077 A 
ATOM      3  C2  UNL d   1       6.000  -1.977   4.551  0.00  0.00    -0.001 A 
ATOM      4  C3  UNL d   1       5.388  -1.918   5.805  0.00  0.00     0.003 A 
ATOM      5  C4  UNL d   1       4.127  -2.479   5.995  0.00  0.00    -0.005 A 
ATOM      6  C5  UNL d   1       3.475  -3.099   4.931  0.00  0.00     0.003 A 
ATOM      7  C6  UNL d   1       4.085  -3.159   3.677  0.00  0.00    -0.001 A 
ENDROOT
TORSDOF 0
ENDMDL
