MODEL 1
REMARK minimizedAffinity -3.52583528
REMARK minimizedRMSD -1
REMARK  0 active torsions:
REMARK  status: ('A' for Active; 'I' for Inactive)
ROOT
ATOM      1  C   UNL d   1       0.995  -3.004   0.700  0.00  0.00     0.078 C 
ATOM      2  C1  UNL d   1       0.206  -1.773   0.364  0.00  0.00    -0.077 A 
ATOM      3  C2  UNL d   1      -1.080  -1.576   0.881  0.00  0.00    -0.001 A 
ATOM      4  C3  UNL d   1      -1.806  -0.431   0.552  0.00  0.00     0.003 A 
ATOM      5  C4  UNL d   1      -1.255   0.527  -0.298  0.00  0.00    -0.005 A 
ATOM      6  C5  UNL d   1       0.024   0.338  -0.820  0.00  0.00     0.003 A 
ATOM      7  C6  UNL d   1       0.751  -0.806  -0.491  0.00  0.00    -0.001 A 
ENDROOT
TORSDOF 0
ENDMDL
