MODEL 1
REMARK minimizedAffinity -5.77156591
REMARK minimizedRMSD -1
REMARK  0 active torsions:
REMARK  status: ('A' for Active; 'I' for Inactive)
ROOT
ATOM      1  C   UNL d   1       0.498   1.160  -0.817  0.00  0.00     0.078 C 
ATOM      2  C1  UNL d   1       0.126  -0.226  -0.383  0.00  0.00    -0.077 A 
ATOM      3  C2  UNL d   1      -0.674  -0.439   0.747  0.00  0.00    -0.001 A 
ATOM      4  C3  UNL d   1      -1.004  -1.735   1.144  0.00  0.00     0.003 A 
ATOM      5  C4  UNL d   1      -0.537  -2.830   0.419  0.00  0.00    -0.005 A 
ATOM      6  C5  UNL d   1       0.261  -2.628  -0.705  0.00  0.00     0.003 A 
ATOM      7  C6  UNL d   1       0.592  -1.332  -1.105  0.00  0.00    -0.001 A 
ENDROOT
TORSDOF 0
ENDMDL
