MODEL 1
REMARK minimizedAffinity -0.944900334
REMARK minimizedRMSD -1
REMARK  0 active torsions:
REMARK  status: ('A' for Active; 'I' for Inactive)
ROOT
ATOM      1  C   UNL d   1      -1.412  -2.854   0.683  0.00  0.00     0.078 C 
ATOM      2  C1  UNL d   1      -0.776  -1.692  -0.019  0.00  0.00    -0.077 A 
ATOM      3  C2  UNL d   1      -0.316  -1.809  -1.337  0.00  0.00    -0.001 A 
ATOM      4  C3  UNL d   1       0.282  -0.721  -1.975  0.00  0.00     0.003 A 
ATOM      5  C4  UNL d   1       0.427   0.491  -1.303  0.00  0.00    -0.005 A 
ATOM      6  C5  UNL d   1      -0.026   0.617   0.008  0.00  0.00     0.003 A 
ATOM      7  C6  UNL d   1      -0.625  -0.470   0.648  0.00  0.00    -0.001 A 
ENDROOT
TORSDOF 0
ENDMDL
