MODEL 1
REMARK minimizedAffinity 4.49362707
REMARK minimizedRMSD -1
REMARK  0 active torsions:
REMARK  status: ('A' for Active; 'I' for Inactive)
ROOT
ATOM      1  C   UNL d   1      -2.982  -2.780   1.250  0.00  0.00     0.078 C 
ATOM      2  C1  UNL d   1      -2.228  -1.491   1.391  0.00  0.00    -0.077 A 
ATOM      3  C2  UNL d   1      -0.869  -1.412   1.066  0.00  0.00    -0.001 A 
ATOM      4  C3  UNL d   1      -0.178  -0.208   1.211  0.00  0.00     0.003 A 
ATOM      5  C4  UNL d   1      -0.837   0.925   1.685  0.00  0.00    -0.005 A 
ATOM      6  C5  UNL d   1      -2.189   0.854   2.014  0.00  0.00     0.003 A 
ATOM      7  C6  UNL d   1      -2.882  -0.348   1.869  0.00  0.00    -0.001 A 
ENDROOT
TORSDOF 0
ENDMDL
