MODEL 1
REMARK minimizedAffinity -4.97452211
REMARK minimizedRMSD -1
REMARK  0 active torsions:
REMARK  status: ('A' for Active; 'I' for Inactive)
ROOT
ATOM      1  C   UNL d   1       0.051   0.059  -1.455  0.00  0.00     0.078 C 
ATOM      2  C1  UNL d   1      -0.018  -1.351  -0.950  0.00  0.00    -0.077 A 
ATOM      3  C2  UNL d   1       0.063  -1.632   0.419  0.00  0.00    -0.001 A 
ATOM      4  C3  UNL d   1       0.007  -2.950   0.874  0.00  0.00     0.003 A 
ATOM      5  C4  UNL d   1      -0.128  -3.999  -0.034  0.00  0.00    -0.005 A 
ATOM      6  C5  UNL d   1      -0.206  -3.729  -1.399  0.00  0.00     0.003 A 
ATOM      7  C6  UNL d   1      -0.151  -2.412  -1.855  0.00  0.00    -0.001 A 
ENDROOT
TORSDOF 0
ENDMDL
