MODEL 1
REMARK minimizedAffinity 0.067450203
REMARK minimizedRMSD -1
REMARK  0 active torsions:
REMARK  status: ('A' for Active; 'I' for Inactive)
ROOT
ATOM      1  C   UNL d   1       1.506   3.354   1.963  0.00  0.00     0.078 C 
ATOM      2  C1  UNL d   1       0.755   2.221   1.330  0.00  0.00    -0.077 A 
ATOM      3  C2  UNL d   1      -0.156   2.451   0.292  0.00  0.00    -0.001 A 
ATOM      4  C3  UNL d   1      -0.855   1.388  -0.282  0.00  0.00     0.003 A 
ATOM      5  C4  UNL d   1      -0.652   0.088   0.177  0.00  0.00    -0.005 A 
ATOM      6  C5  UNL d   1       0.251  -0.150   1.211  0.00  0.00     0.003 A 
ATOM      7  C6  UNL d   1       0.951   0.912   1.786  0.00  0.00    -0.001 A 
ENDROOT
TORSDOF 0
ENDMDL
