MODEL 1
REMARK minimizedAffinity -4.87897778
REMARK minimizedRMSD -1
REMARK  0 active torsions:
REMARK  status: ('A' for Active; 'I' for Inactive)
ROOT
ATOM      1  C   UNL d   1       0.245  -1.320  -1.958  0.00  0.00     0.078 C 
ATOM      2  C1  UNL d   1       0.386   0.040  -1.342  0.00  0.00    -0.077 A 
ATOM      3  C2  UNL d   1       1.246   0.255  -0.258  0.00  0.00    -0.001 A 
ATOM      4  C3  UNL d   1       1.360   1.524   0.312  0.00  0.00     0.003 A 
ATOM      5  C4  UNL d   1       0.617   2.587  -0.195  0.00  0.00    -0.005 A 
ATOM      6  C5  UNL d   1      -0.243   2.383  -1.273  0.00  0.00     0.003 A 
ATOM      7  C6  UNL d   1      -0.358   1.115  -1.844  0.00  0.00    -0.001 A 
ENDROOT
TORSDOF 0
ENDMDL
