MODEL 1
REMARK minimizedAffinity -1.52787352
REMARK minimizedRMSD -1
REMARK  0 active torsions:
REMARK  status: ('A' for Active; 'I' for Inactive)
ROOT
ATOM      1  C   UNL d   1       0.653   1.800  -1.798  0.00  0.00     0.023 A 
ATOM      2  C1  UNL d   1       0.068   0.622  -2.262  0.00  0.00     0.003 A 
ATOM      3  C2  UNL d   1      -0.055  -0.480  -1.414  0.00  0.00     0.048 A 
ATOM      4  C3  UNL d   1       0.408  -0.397  -0.101  0.00  0.00     0.023 A 
ATOM      5  C4  UNL d   1       0.993   0.780   0.369  0.00  0.00     0.048 A 
ATOM      6  C5  UNL d   1       1.115   1.879  -0.484  0.00  0.00     0.003 A 
ATOM      7  I   UNL d   1       0.226  -2.036   1.164  0.00  0.00    -0.146 I 
ENDROOT
TORSDOF 0
ENDMDL
