MODEL 1
REMARK minimizedAffinity 1.47549808
REMARK minimizedRMSD -1
REMARK  0 active torsions:
REMARK  status: ('A' for Active; 'I' for Inactive)
ROOT
ATOM      1  C   UNL d   1       0.654   2.045  -1.761  0.00  0.00     0.023 A 
ATOM      2  C1  UNL d   1       0.636   2.232  -0.379  0.00  0.00     0.003 A 
ATOM      3  C2  UNL d   1       0.501   1.134   0.473  0.00  0.00     0.048 A 
ATOM      4  C3  UNL d   1       0.386  -0.148  -0.063  0.00  0.00     0.023 A 
ATOM      5  C4  UNL d   1       0.404  -0.339  -1.446  0.00  0.00     0.048 A 
ATOM      6  C5  UNL d   1       0.538   0.761  -2.294  0.00  0.00     0.003 A 
ATOM      7  I   UNL d   1       0.184  -1.783   1.203  0.00  0.00    -0.146 I 
ENDROOT
TORSDOF 0
ENDMDL
