MODEL 1
REMARK minimizedAffinity -3.31991291
REMARK minimizedRMSD -1
REMARK  0 active torsions:
REMARK  status: ('A' for Active; 'I' for Inactive)
ROOT
ATOM      1  C   UNL d   1      -1.725  -1.561   2.759  0.00  0.00     0.023 A 
ATOM      2  C1  UNL d   1      -0.657  -2.182   2.112  0.00  0.00     0.003 A 
ATOM      3  C2  UNL d   1       0.074  -1.488   1.145  0.00  0.00     0.048 A 
ATOM      4  C3  UNL d   1      -0.269  -0.174   0.830  0.00  0.00     0.023 A 
ATOM      5  C4  UNL d   1      -1.337   0.452   1.475  0.00  0.00     0.048 A 
ATOM      6  C5  UNL d   1      -2.065  -0.246   2.441  0.00  0.00     0.003 A 
ATOM      7  I   UNL d   1       0.816   0.860  -0.609  0.00  0.00    -0.146 I 
ENDROOT
TORSDOF 0
ENDMDL
