MODEL 1
REMARK minimizedAffinity 0.262664288
REMARK minimizedRMSD -1
REMARK  0 active torsions:
REMARK  status: ('A' for Active; 'I' for Inactive)
ROOT
ATOM      1  C   UNL d   1       2.360  -0.033  -0.128  0.00  0.00     0.023 A 
ATOM      2  C1  UNL d   1       1.584   1.052  -0.538  0.00  0.00     0.003 A 
ATOM      3  C2  UNL d   1       0.219   1.086  -0.244  0.00  0.00     0.048 A 
ATOM      4  C3  UNL d   1      -0.363   0.032   0.460  0.00  0.00     0.023 A 
ATOM      5  C4  UNL d   1       0.410  -1.054   0.873  0.00  0.00     0.048 A 
ATOM      6  C5  UNL d   1       1.774  -1.084   0.576  0.00  0.00     0.003 A 
ATOM      7  I   UNL d   1      -2.394   0.080   0.898  0.00  0.00    -0.146 I 
ENDROOT
TORSDOF 0
ENDMDL
