MODEL 1
REMARK minimizedAffinity -1.73852861
REMARK minimizedRMSD -1
REMARK  0 active torsions:
REMARK  status: ('A' for Active; 'I' for Inactive)
ROOT
ATOM      1  C   UNL d   1      -1.337  -0.856  -0.441  0.00  0.00     0.023 A 
ATOM      2  C1  UNL d   1      -2.074  -1.778   0.302  0.00  0.00     0.003 A 
ATOM      3  C2  UNL d   1      -1.578  -2.253   1.518  0.00  0.00     0.048 A 
ATOM      4  C3  UNL d   1      -0.345  -1.800   1.986  0.00  0.00     0.023 A 
ATOM      5  C4  UNL d   1       0.395  -0.876   1.246  0.00  0.00     0.048 A 
ATOM      6  C5  UNL d   1      -0.104  -0.406   0.030  0.00  0.00     0.003 A 
ATOM      7  I   UNL d   1       0.395  -2.504   3.796  0.00  0.00    -0.146 I 
ENDROOT
TORSDOF 0
ENDMDL
