MODEL 1
REMARK minimizedAffinity -4.08041811
REMARK minimizedRMSD -1
REMARK  0 active torsions:
REMARK  status: ('A' for Active; 'I' for Inactive)
ROOT
ATOM      1  C   UNL d   1      -1.704  -2.931   1.237  0.00  0.00     0.023 A 
ATOM      2  C1  UNL d   1      -2.468  -1.970   0.575  0.00  0.00     0.003 A 
ATOM      3  C2  UNL d   1      -1.926  -0.713   0.300  0.00  0.00     0.048 A 
ATOM      4  C3  UNL d   1      -0.619  -0.424   0.690  0.00  0.00     0.023 A 
ATOM      5  C4  UNL d   1       0.150  -1.382   1.352  0.00  0.00     0.048 A 
ATOM      6  C5  UNL d   1      -0.397  -2.638   1.625  0.00  0.00     0.003 A 
ATOM      7  I   UNL d   1       0.190   1.447   0.283  0.00  0.00    -0.146 I 
ENDROOT
TORSDOF 0
ENDMDL
