MODEL 1
REMARK minimizedAffinity -3.5778656
REMARK minimizedRMSD -1
REMARK  0 active torsions:
REMARK  status: ('A' for Active; 'I' for Inactive)
ROOT
ATOM      1  C   UNL d   1       0.339   1.711   0.005  0.00  0.00     0.023 A 
ATOM      2  C1  UNL d   1       0.846   0.432  -0.227  0.00  0.00     0.003 A 
ATOM      3  C2  UNL d   1       0.205  -0.683   0.316  0.00  0.00     0.048 A 
ATOM      4  C3  UNL d   1      -0.943  -0.513   1.090  0.00  0.00     0.023 A 
ATOM      5  C4  UNL d   1      -1.454   0.765   1.324  0.00  0.00     0.048 A 
ATOM      6  C5  UNL d   1      -0.809   1.877   0.779  0.00  0.00     0.003 A 
ATOM      7  I   UNL d   1      -1.899  -2.171   1.899  0.00  0.00    -0.146 I 
ENDROOT
TORSDOF 0
ENDMDL
