MODEL 1
REMARK minimizedAffinity -4.07163191
REMARK minimizedRMSD -1
REMARK  0 active torsions:
REMARK  status: ('A' for Active; 'I' for Inactive)
ROOT
ATOM      1  C   UNL d   1      -1.892  -1.414   0.691  0.00  0.00     0.023 A 
ATOM      2  C1  UNL d   1      -1.680  -0.060   0.954  0.00  0.00     0.003 A 
ATOM      3  C2  UNL d   1      -0.731   0.654   0.219  0.00  0.00     0.048 A 
ATOM      4  C3  UNL d   1      -0.000   0.009  -0.778  0.00  0.00     0.023 A 
ATOM      5  C4  UNL d   1      -0.210  -1.345  -1.045  0.00  0.00     0.048 A 
ATOM      6  C5  UNL d   1      -1.159  -2.055  -0.306  0.00  0.00     0.003 A 
ATOM      7  I   UNL d   1       1.412   1.070  -1.874  0.00  0.00    -0.146 I 
ENDROOT
TORSDOF 0
ENDMDL
