MODEL 1
REMARK minimizedAffinity -3.39342594
REMARK minimizedRMSD -1
REMARK  0 active torsions:
REMARK  status: ('A' for Active; 'I' for Inactive)
ROOT
ATOM      1  C   UNL d   1      -0.544  -1.477  -0.532  0.00  0.00     0.023 A 
ATOM      2  C1  UNL d   1      -1.457  -2.197   0.239  0.00  0.00     0.003 A 
ATOM      3  C2  UNL d   1      -1.082  -2.689   1.490  0.00  0.00     0.048 A 
ATOM      4  C3  UNL d   1       0.207  -2.457   1.967  0.00  0.00     0.023 A 
ATOM      5  C4  UNL d   1       1.125  -1.736   1.200  0.00  0.00     0.048 A 
ATOM      6  C5  UNL d   1       0.746  -1.247  -0.051  0.00  0.00     0.003 A 
ATOM      7  I   UNL d   1       0.768  -3.188   3.830  0.00  0.00    -0.146 I 
ENDROOT
TORSDOF 0
ENDMDL
