MODEL 1
REMARK minimizedAffinity -3.13552928
REMARK minimizedRMSD -1
REMARK  0 active torsions:
REMARK  status: ('A' for Active; 'I' for Inactive)
ROOT
ATOM      1  C   UNL d   1       0.844   2.152  -3.939  0.00  0.00     0.023 A 
ATOM      2  C1  UNL d   1       0.205   0.915  -3.847  0.00  0.00     0.003 A 
ATOM      3  C2  UNL d   1       0.091   0.277  -2.609  0.00  0.00     0.048 A 
ATOM      4  C3  UNL d   1       0.617   0.883  -1.469  0.00  0.00     0.023 A 
ATOM      5  C4  UNL d   1       1.257   2.120  -1.556  0.00  0.00     0.048 A 
ATOM      6  C5  UNL d   1       1.369   2.753  -2.796  0.00  0.00     0.003 A 
ATOM      7  I   UNL d   1       0.448  -0.064   0.374  0.00  0.00    -0.146 I 
ENDROOT
TORSDOF 0
ENDMDL
