MODEL 1
REMARK minimizedAffinity -0.64463383
REMARK minimizedRMSD -1
REMARK  0 active torsions:
REMARK  status: ('A' for Active; 'I' for Inactive)
ROOT
ATOM      1  C   UNL d   1       0.182  -2.325   1.170  0.00  0.00     0.023 A 
ATOM      2  C1  UNL d   1      -0.372  -1.108   1.567  0.00  0.00     0.003 A 
ATOM      3  C2  UNL d   1      -0.350  -0.014   0.700  0.00  0.00     0.048 A 
ATOM      4  C3  UNL d   1       0.227  -0.143  -0.563  0.00  0.00     0.023 A 
ATOM      5  C4  UNL d   1       0.782  -1.360  -0.965  0.00  0.00     0.048 A 
ATOM      6  C5  UNL d   1       0.758  -2.451  -0.094  0.00  0.00     0.003 A 
ATOM      7  I   UNL d   1       0.261   1.484  -1.855  0.00  0.00    -0.146 I 
ENDROOT
TORSDOF 0
ENDMDL
