MODEL 1
REMARK minimizedAffinity -3.51810741
REMARK minimizedRMSD -1
REMARK  0 active torsions:
REMARK  status: ('A' for Active; 'I' for Inactive)
ROOT
ATOM      1  C   UNL d   1       0.982   1.118  -1.056  0.00  0.00     0.023 A 
ATOM      2  C1  UNL d   1      -0.323   1.114  -0.564  0.00  0.00     0.003 A 
ATOM      3  C2  UNL d   1      -0.788   0.025   0.176  0.00  0.00     0.048 A 
ATOM      4  C3  UNL d   1       0.057  -1.056   0.421  0.00  0.00     0.023 A 
ATOM      5  C4  UNL d   1       1.364  -1.056  -0.069  0.00  0.00     0.048 A 
ATOM      6  C5  UNL d   1       1.824   0.035  -0.809  0.00  0.00     0.003 A 
ATOM      7  I   UNL d   1      -0.632  -2.678   1.522  0.00  0.00    -0.146 I 
ENDROOT
TORSDOF 0
ENDMDL
