MODEL 1
REMARK minimizedAffinity -2.1153698
REMARK minimizedRMSD -1
REMARK  0 active torsions:
REMARK  status: ('A' for Active; 'I' for Inactive)
ROOT
ATOM      1  C   UNL d   1       2.099   2.610  -3.382  0.00  0.00     0.023 A 
ATOM      2  C1  UNL d   1       2.994   1.853  -2.627  0.00  0.00     0.003 A 
ATOM      3  C2  UNL d   1       2.523   1.026  -1.606  0.00  0.00     0.048 A 
ATOM      4  C3  UNL d   1       1.155   0.961  -1.345  0.00  0.00     0.023 A 
ATOM      5  C4  UNL d   1       0.255   1.717  -2.098  0.00  0.00     0.048 A 
ATOM      6  C5  UNL d   1       0.731   2.543  -3.118  0.00  0.00     0.003 A 
ATOM      7  I   UNL d   1       0.451  -0.269   0.176  0.00  0.00    -0.146 I 
ENDROOT
TORSDOF 0
ENDMDL
