MODEL 1
REMARK minimizedAffinity -2.35995626
REMARK minimizedRMSD -1
REMARK  0 active torsions:
REMARK  status: ('A' for Active; 'I' for Inactive)
ROOT
ATOM      1  C   UNL d   1      -0.012  -2.577   1.311  0.00  0.00     0.023 A 
ATOM      2  C1  UNL d   1      -0.889  -1.498   1.425  0.00  0.00     0.003 A 
ATOM      3  C2  UNL d   1      -0.660  -0.330   0.695  0.00  0.00     0.048 A 
ATOM      4  C3  UNL d   1       0.446  -0.248  -0.150  0.00  0.00     0.023 A 
ATOM      5  C4  UNL d   1       1.326  -1.325  -0.268  0.00  0.00     0.048 A 
ATOM      6  C5  UNL d   1       1.094  -2.491   0.465  0.00  0.00     0.003 A 
ATOM      7  I   UNL d   1       0.789   1.489  -1.238  0.00  0.00    -0.146 I 
ENDROOT
TORSDOF 0
ENDMDL
