MODEL 1
REMARK minimizedAffinity -1.64391506
REMARK minimizedRMSD -1
REMARK  0 active torsions:
REMARK  status: ('A' for Active; 'I' for Inactive)
ROOT
ATOM      1  C   UNL d   1       0.510  -2.162   0.583  0.00  0.00     0.023 A 
ATOM      2  C1  UNL d   1       0.793  -2.294  -0.777  0.00  0.00     0.003 A 
ATOM      3  C2  UNL d   1       1.028  -1.159  -1.556  0.00  0.00     0.048 A 
ATOM      4  C3  UNL d   1       0.978   0.105  -0.969  0.00  0.00     0.023 A 
ATOM      5  C4  UNL d   1       0.696   0.242   0.391  0.00  0.00     0.048 A 
ATOM      6  C5  UNL d   1       0.462  -0.896   1.166  0.00  0.00     0.003 A 
ATOM      7  I   UNL d   1       1.327   1.796  -2.126  0.00  0.00    -0.146 I 
ENDROOT
TORSDOF 0
ENDMDL
