MODEL 1
REMARK minimizedAffinity -2.15159774
REMARK minimizedRMSD -1
REMARK  0 active torsions:
REMARK  status: ('A' for Active; 'I' for Inactive)
ROOT
ATOM      1  C   UNL d   1       0.755   1.589  -2.353  0.00  0.00     0.023 A 
ATOM      2  C1  UNL d   1       0.695   0.248  -2.732  0.00  0.00     0.003 A 
ATOM      3  C2  UNL d   1       0.511  -0.744  -1.767  0.00  0.00     0.048 A 
ATOM      4  C3  UNL d   1       0.386  -0.388  -0.425  0.00  0.00     0.023 A 
ATOM      5  C4  UNL d   1       0.444   0.952  -0.041  0.00  0.00     0.048 A 
ATOM      6  C5  UNL d   1       0.629   1.941  -1.009  0.00  0.00     0.003 A 
ATOM      7  I   UNL d   1       0.111  -1.863   1.014  0.00  0.00    -0.146 I 
ENDROOT
TORSDOF 0
ENDMDL
