MODEL 1
REMARK minimizedAffinity -3.06483269
REMARK minimizedRMSD -1
REMARK  0 active torsions:
REMARK  status: ('A' for Active; 'I' for Inactive)
ROOT
ATOM      1  C   UNL d   1       1.318   1.369  -2.232  0.00  0.00     0.023 A 
ATOM      2  C1  UNL d   1       0.965   0.061  -2.566  0.00  0.00     0.003 A 
ATOM      3  C2  UNL d   1       0.634  -0.852  -1.563  0.00  0.00     0.048 A 
ATOM      4  C3  UNL d   1       0.657  -0.451  -0.228  0.00  0.00     0.023 A 
ATOM      5  C4  UNL d   1       1.008   0.857   0.111  0.00  0.00     0.048 A 
ATOM      6  C5  UNL d   1       1.339   1.766  -0.895  0.00  0.00     0.003 A 
ATOM      7  I   UNL d   1       0.164  -1.808   1.267  0.00  0.00    -0.146 I 
ENDROOT
TORSDOF 0
ENDMDL
