MODEL 1
REMARK minimizedAffinity -4.93022394
REMARK minimizedRMSD -1
REMARK  1 active torsions:
REMARK  status: ('A' for Active; 'I' for Inactive)
REMARK    1  A    between atoms: N_2  and  C1_3 
ROOT
ATOM      1  C1  UNL d   1      -0.480   0.216   0.880  0.00  0.00     0.143 A 
ATOM      2  C2  UNL d   1      -1.638   0.404   1.642  0.00  0.00    -0.057 A 
ATOM      3  C3  UNL d   1      -1.568   0.715   3.005  0.00  0.00     0.033 A 
ATOM      4  C4  UNL d   1      -0.334   0.815   3.639  0.00  0.00    -0.042 A 
ATOM      5  C5  UNL d   1       0.830   0.607   2.907  0.00  0.00     0.033 A 
ATOM      6  C6  UNL d   1       0.753   0.304   1.544  0.00  0.00    -0.057 A 
ENDROOT
BRANCH   1   7
ATOM      7  N   UNL d   1      -0.486  -0.191  -0.457  0.00  0.00    -0.732 N 
ATOM      8  C   UNL d   1       0.615  -0.958  -0.998  0.00  0.00     0.284 C 
ATOM      9  H3  UNL d   1      -1.403  -0.508  -0.762  0.00  0.00     0.395 HD
ENDBRANCH   1   7
TORSDOF 1
ENDMDL
