MODEL 1
REMARK minimizedAffinity -4.53940868
REMARK minimizedRMSD -1
REMARK  1 active torsions:
REMARK  status: ('A' for Active; 'I' for Inactive)
REMARK    1  A    between atoms: N_2  and  C1_3 
ROOT
ATOM      1  C1  UNL d   1      -0.185   0.115  -0.006  0.00  0.00     0.143 A 
ATOM      2  C2  UNL d   1      -1.535   0.283   0.318  0.00  0.00    -0.057 A 
ATOM      3  C3  UNL d   1      -1.926   0.789   1.563  0.00  0.00     0.033 A 
ATOM      4  C4  UNL d   1      -0.970   1.110   2.522  0.00  0.00    -0.042 A 
ATOM      5  C5  UNL d   1       0.377   0.927   2.231  0.00  0.00     0.033 A 
ATOM      6  C6  UNL d   1       0.761   0.428   0.983  0.00  0.00    -0.057 A 
ENDROOT
BRANCH   1   7
ATOM      7  N   UNL d   1       0.264  -0.476  -1.190  0.00  0.00    -0.732 N 
ATOM      8  C   UNL d   1       0.604   0.338  -2.337  0.00  0.00     0.284 C 
ATOM      9  H3  UNL d   1       0.907  -1.245  -1.020  0.00  0.00     0.395 HD
ENDBRANCH   1   7
TORSDOF 1
ENDMDL
