MODEL 1
REMARK minimizedAffinity -4.90318298
REMARK minimizedRMSD -1
REMARK  1 active torsions:
REMARK  status: ('A' for Active; 'I' for Inactive)
REMARK    1  A    between atoms: N_2  and  C1_3 
ROOT
ATOM      1  C1  UNL d   1       0.530   0.000   1.081  0.00  0.00     0.143 A 
ATOM      2  C2  UNL d   1      -0.619   0.780   1.255  0.00  0.00    -0.057 A 
ATOM      3  C3  UNL d   1      -0.882   1.423   2.470  0.00  0.00     0.033 A 
ATOM      4  C4  UNL d   1      -0.013   1.274   3.546  0.00  0.00    -0.042 A 
ATOM      5  C5  UNL d   1       1.122   0.484   3.404  0.00  0.00     0.033 A 
ATOM      6  C6  UNL d   1       1.383  -0.151   2.185  0.00  0.00    -0.057 A 
ENDROOT
BRANCH   1   7
ATOM      7  N   UNL d   1       0.797  -0.745  -0.070  0.00  0.00    -0.732 N 
ATOM      8  C   UNL d   1       0.076  -0.487  -1.299  0.00  0.00     0.284 C 
ATOM      9  H3  UNL d   1       1.792  -0.915  -0.200  0.00  0.00     0.395 HD
ENDBRANCH   1   7
TORSDOF 1
ENDMDL
