MODEL 1
REMARK minimizedAffinity -3.35662556
REMARK minimizedRMSD -1
REMARK  1 active torsions:
REMARK  status: ('A' for Active; 'I' for Inactive)
REMARK    1  A    between atoms: N_2  and  C1_3 
ROOT
ATOM      1  C1  UNL d   1      -0.678  -0.108   1.305  0.00  0.00     0.143 A 
ATOM      2  C2  UNL d   1      -1.346   0.555   2.340  0.00  0.00    -0.057 A 
ATOM      3  C3  UNL d   1      -0.858   0.532   3.652  0.00  0.00     0.033 A 
ATOM      4  C4  UNL d   1       0.295  -0.181   3.959  0.00  0.00    -0.042 A 
ATOM      5  C5  UNL d   1       0.963  -0.869   2.951  0.00  0.00     0.033 A 
ATOM      6  C6  UNL d   1       0.474  -0.837   1.642  0.00  0.00    -0.057 A 
ENDROOT
BRANCH   1   7
ATOM      7  N   UNL d   1      -1.166  -0.205  -0.000  0.00  0.00    -0.732 N 
ATOM      8  C   UNL d   1      -2.553  -0.534  -0.246  0.00  0.00     0.284 C 
ATOM      9  H3  UNL d   1      -0.797   0.524  -0.607  0.00  0.00     0.395 HD
ENDBRANCH   1   7
TORSDOF 1
ENDMDL
