MODEL 1
REMARK minimizedAffinity 5.76821947
REMARK minimizedRMSD -1
REMARK  2 active torsions:
REMARK  status: ('A' for Active; 'I' for Inactive)
REMARK    1  A    between atoms: C1_2  and  C2_3 
REMARK    2  A    between atoms: C2_3  and  C3_4 
ROOT
ATOM      1  C3  UNL d   1      -3.808   0.915  -3.227  0.00  0.00    -0.075 A 
ATOM      2  C4  UNL d   1      -4.231  -0.280  -3.826  0.00  0.00     0.002 A 
ATOM      3  C5  UNL d   1      -3.709  -1.505  -3.410  0.00  0.00     0.002 A 
ATOM      4  C6  UNL d   1      -2.752  -1.550  -2.398  0.00  0.00    -0.004 A 
ATOM      5  C7  UNL d   1      -2.312  -0.368  -1.807  0.00  0.00     0.002 A 
ATOM      6  C8  UNL d   1      -2.836   0.859  -2.219  0.00  0.00     0.002 A 
ENDROOT
BRANCH   1   7
ATOM      7  C2  UNL d   1      -4.391   2.242  -3.652  0.00  0.00     0.056 C 
BRANCH   7   8
ATOM      8  C1  UNL d   1      -4.976   2.240  -5.068  0.00  0.00     0.007 C 
ATOM      9  C   UNL d   1      -5.991   3.352  -5.300  0.00  0.00     0.009 C 
ENDBRANCH   7   8
ENDBRANCH   1   7
TORSDOF 2
ENDMDL
