MODEL 1
REMARK minimizedAffinity 0.555549741
REMARK minimizedRMSD -1
REMARK  2 active torsions:
REMARK  status: ('A' for Active; 'I' for Inactive)
REMARK    1  A    between atoms: C1_2  and  C2_3 
REMARK    2  A    between atoms: C2_3  and  C3_4 
ROOT
ATOM      1  C3  UNL d   1       1.677  -2.764   4.199  0.00  0.00    -0.075 A 
ATOM      2  C4  UNL d   1       1.492  -2.846   2.811  0.00  0.00     0.002 A 
ATOM      3  C5  UNL d   1       1.489  -1.692   2.028  0.00  0.00     0.002 A 
ATOM      4  C6  UNL d   1       1.660  -0.443   2.621  0.00  0.00    -0.004 A 
ATOM      5  C7  UNL d   1       1.828  -0.348   4.000  0.00  0.00     0.002 A 
ATOM      6  C8  UNL d   1       1.836  -1.501   4.787  0.00  0.00     0.002 A 
ENDROOT
BRANCH   1   7
ATOM      7  C2  UNL d   1       1.711  -4.011   5.049  0.00  0.00     0.056 C 
BRANCH   7   8
ATOM      8  C1  UNL d   1       0.396  -4.797   5.056  0.00  0.00     0.007 C 
ATOM      9  C   UNL d   1       0.416  -5.994   5.998  0.00  0.00     0.009 C 
ENDBRANCH   7   8
ENDBRANCH   1   7
TORSDOF 2
ENDMDL
