MODEL 1
REMARK minimizedAffinity -2.3864336
REMARK minimizedRMSD -1
REMARK  2 active torsions:
REMARK  status: ('A' for Active; 'I' for Inactive)
REMARK    1  A    between atoms: C1_2  and  C2_3 
REMARK    2  A    between atoms: C2_3  and  C3_4 
ROOT
ATOM      1  C3  UNL d   1       3.437  -5.980  -4.427  0.00  0.00    -0.075 A 
ATOM      2  C4  UNL d   1       2.064  -5.940  -4.139  0.00  0.00     0.002 A 
ATOM      3  C5  UNL d   1       1.619  -5.894  -2.818  0.00  0.00     0.002 A 
ATOM      4  C6  UNL d   1       2.536  -5.897  -1.770  0.00  0.00    -0.004 A 
ATOM      5  C7  UNL d   1       3.901  -5.953  -2.044  0.00  0.00     0.002 A 
ATOM      6  C8  UNL d   1       4.350  -5.995  -3.365  0.00  0.00     0.002 A 
ENDROOT
BRANCH   1   7
ATOM      7  C2  UNL d   1       3.926  -6.000  -5.856  0.00  0.00     0.056 C 
BRANCH   7   8
ATOM      8  C1  UNL d   1       5.437  -5.791  -6.000  0.00  0.00     0.007 C 
ATOM      9  C   UNL d   1       5.845  -4.324  -5.985  0.00  0.00     0.009 C 
ENDBRANCH   7   8
ENDBRANCH   1   7
TORSDOF 2
ENDMDL
