MODEL 1
REMARK minimizedAffinity 10.4193687
REMARK minimizedRMSD -1
REMARK  2 active torsions:
REMARK  status: ('A' for Active; 'I' for Inactive)
REMARK    1  A    between atoms: C1_2  and  C2_3 
REMARK    2  A    between atoms: C2_3  and  C3_4 
ROOT
ATOM      1  C3  UNL d   1       2.433   0.556   2.148  0.00  0.00    -0.075 A 
ATOM      2  C4  UNL d   1       2.046   1.781   2.709  0.00  0.00     0.002 A 
ATOM      3  C5  UNL d   1       2.228   2.972   2.006  0.00  0.00     0.002 A 
ATOM      4  C6  UNL d   1       2.806   2.954   0.738  0.00  0.00    -0.004 A 
ATOM      5  C7  UNL d   1       3.210   1.745   0.177  0.00  0.00     0.002 A 
ATOM      6  C8  UNL d   1       3.026   0.551   0.878  0.00  0.00     0.002 A 
ENDROOT
BRANCH   1   7
ATOM      7  C2  UNL d   1       2.213  -0.740   2.892  0.00  0.00     0.056 C 
BRANCH   7   8
ATOM      8  C1  UNL d   1       1.432  -1.791   2.096  0.00  0.00     0.007 C 
ATOM      9  C   UNL d   1       1.327  -3.130   2.813  0.00  0.00     0.009 C 
ENDBRANCH   7   8
ENDBRANCH   1   7
TORSDOF 2
ENDMDL
