MODEL 1
REMARK minimizedAffinity 7.76714087
REMARK minimizedRMSD -1
REMARK  2 active torsions:
REMARK  status: ('A' for Active; 'I' for Inactive)
REMARK    1  A    between atoms: C1_2  and  C2_3 
REMARK    2  A    between atoms: C2_3  and  C3_4 
ROOT
ATOM      1  C3  UNL d   1      -3.155   2.600   0.534  0.00  0.00    -0.075 A 
ATOM      2  C4  UNL d   1      -4.082   2.264   1.532  0.00  0.00     0.002 A 
ATOM      3  C5  UNL d   1      -5.359   2.823   1.530  0.00  0.00     0.002 A 
ATOM      4  C6  UNL d   1      -5.724   3.732   0.539  0.00  0.00    -0.004 A 
ATOM      5  C7  UNL d   1      -4.806   4.086  -0.448  0.00  0.00     0.002 A 
ATOM      6  C8  UNL d   1      -3.529   3.524  -0.451  0.00  0.00     0.002 A 
ENDROOT
BRANCH   1   7
ATOM      7  C2  UNL d   1      -1.781   1.975   0.513  0.00  0.00     0.056 C 
BRANCH   7   8
ATOM      8  C1  UNL d   1      -1.785   0.467   0.242  0.00  0.00     0.007 C 
ATOM      9  C   UNL d   1      -1.943   0.123  -1.233  0.00  0.00     0.009 C 
ENDBRANCH   7   8
ENDBRANCH   1   7
TORSDOF 2
ENDMDL
