MODEL 1
REMARK minimizedAffinity 3.70806384
REMARK minimizedRMSD -1
REMARK  2 active torsions:
REMARK  status: ('A' for Active; 'I' for Inactive)
REMARK    1  A    between atoms: C1_2  and  C2_3 
REMARK    2  A    between atoms: C2_3  and  C3_4 
ROOT
ATOM      1  C3  UNL d   1       2.245  -2.234   3.245  0.00  0.00    -0.075 A 
ATOM      2  C4  UNL d   1       1.418  -3.321   3.562  0.00  0.00     0.002 A 
ATOM      3  C5  UNL d   1       1.893  -4.364   4.358  0.00  0.00     0.002 A 
ATOM      4  C6  UNL d   1       3.201  -4.337   4.838  0.00  0.00    -0.004 A 
ATOM      5  C7  UNL d   1       4.036  -3.270   4.516  0.00  0.00     0.002 A 
ATOM      6  C8  UNL d   1       3.562  -2.224   3.723  0.00  0.00     0.002 A 
ENDROOT
BRANCH   1   7
ATOM      7  C2  UNL d   1       1.728  -1.088   2.408  0.00  0.00     0.056 C 
BRANCH   7   8
ATOM      8  C1  UNL d   1       2.826  -0.287   1.700  0.00  0.00     0.007 C 
ATOM      9  C   UNL d   1       2.712   1.215   1.925  0.00  0.00     0.009 C 
ENDBRANCH   7   8
ENDBRANCH   1   7
TORSDOF 2
ENDMDL
