MODEL 1
REMARK minimizedAffinity 4.6665535
REMARK minimizedRMSD -1
REMARK  2 active torsions:
REMARK  status: ('A' for Active; 'I' for Inactive)
REMARK    1  A    between atoms: C1_2  and  C2_3 
REMARK    2  A    between atoms: C2_3  and  C3_4 
ROOT
ATOM      1  C3  UNL d   1       1.874  -3.141   3.604  0.00  0.00    -0.075 A 
ATOM      2  C4  UNL d   1       2.241  -2.872   2.277  0.00  0.00     0.002 A 
ATOM      3  C5  UNL d   1       2.616  -1.585   1.892  0.00  0.00     0.002 A 
ATOM      4  C6  UNL d   1       2.620  -0.550   2.825  0.00  0.00    -0.004 A 
ATOM      5  C7  UNL d   1       2.242  -0.802   4.142  0.00  0.00     0.002 A 
ATOM      6  C8  UNL d   1       1.870  -2.090   4.530  0.00  0.00     0.002 A 
ENDROOT
BRANCH   1   7
ATOM      7  C2  UNL d   1       1.495  -4.538   4.033  0.00  0.00     0.056 C 
BRANCH   7   8
ATOM      8  C1  UNL d   1       1.475  -4.740   5.552  0.00  0.00     0.007 C 
ATOM      9  C   UNL d   1       0.547  -5.864   5.995  0.00  0.00     0.009 C 
ENDBRANCH   7   8
ENDBRANCH   1   7
TORSDOF 2
ENDMDL
