MODEL 1
REMARK minimizedAffinity 4.33486748
REMARK minimizedRMSD -1
REMARK  2 active torsions:
REMARK  status: ('A' for Active; 'I' for Inactive)
REMARK    1  A    between atoms: C1_2  and  C2_3 
REMARK    2  A    between atoms: C2_3  and  C3_4 
ROOT
ATOM      1  C3  UNL d   1       2.124  -3.836   3.887  0.00  0.00    -0.075 A 
ATOM      2  C4  UNL d   1       1.619  -2.717   4.565  0.00  0.00     0.002 A 
ATOM      3  C5  UNL d   1       1.462  -1.499   3.903  0.00  0.00     0.002 A 
ATOM      4  C6  UNL d   1       1.816  -1.382   2.560  0.00  0.00    -0.004 A 
ATOM      5  C7  UNL d   1       2.334  -2.483   1.882  0.00  0.00     0.002 A 
ATOM      6  C8  UNL d   1       2.489  -3.704   2.541  0.00  0.00     0.002 A 
ENDROOT
BRANCH   1   7
ATOM      7  C2  UNL d   1       2.269  -5.165   4.590  0.00  0.00     0.056 C 
BRANCH   7   8
ATOM      8  C1  UNL d   1       1.616  -5.212   5.976  0.00  0.00     0.007 C 
ATOM      9  C   UNL d   1       0.302  -5.982   5.994  0.00  0.00     0.009 C 
ENDBRANCH   7   8
ENDBRANCH   1   7
TORSDOF 2
ENDMDL
