MODEL 1
REMARK minimizedAffinity -2.33699417
REMARK minimizedRMSD -1
REMARK  0 active torsions:
REMARK  status: ('A' for Active; 'I' for Inactive)
ROOT
ATOM      1  C   UNL d   1       2.303   5.471   0.278  0.00  0.00     0.172 C 
ATOM      2  N   UNL d   1       1.579   4.222   0.261  0.00  0.00    -0.070 N 
ATOM      3  C1  UNL d   1       2.140   2.973   0.296  0.00  0.00    -0.004 A 
ATOM      4  C2  UNL d   1       1.118   2.050   0.264  0.00  0.00    -0.047 A 
ATOM      5  C3  UNL d   1      -0.100   2.768   0.206  0.00  0.00    -0.047 A 
ATOM      6  C4  UNL d   1       0.215   4.111   0.205  0.00  0.00    -0.004 A 
ENDROOT
TORSDOF 0
ENDMDL
