MODEL 1
REMARK minimizedAffinity 0.79651022
REMARK minimizedRMSD -1
REMARK  0 active torsions:
REMARK  status: ('A' for Active; 'I' for Inactive)
ROOT
ATOM      1  C   UNL d   1      -3.941   1.373  -0.013  0.00  0.00     0.172 C 
ATOM      2  N   UNL d   1      -2.579   1.742   0.295  0.00  0.00    -0.070 N 
ATOM      3  C1  UNL d   1      -1.689   0.986   1.010  0.00  0.00    -0.004 A 
ATOM      4  C2  UNL d   1      -0.504   1.685   1.084  0.00  0.00    -0.047 A 
ATOM      5  C3  UNL d   1      -0.688   2.904   0.389  0.00  0.00    -0.047 A 
ATOM      6  C4  UNL d   1      -1.981   2.914  -0.089  0.00  0.00    -0.004 A 
ENDROOT
TORSDOF 0
ENDMDL
