MODEL 1
REMARK minimizedAffinity 0.502959669
REMARK minimizedRMSD -1
REMARK  0 active torsions:
REMARK  status: ('A' for Active; 'I' for Inactive)
ROOT
ATOM      1  C   UNL d   1      -0.612  -0.290   2.204  0.00  0.00     0.172 C 
ATOM      2  N   UNL d   1      -0.414   1.103   1.878  0.00  0.00    -0.070 N 
ATOM      3  C1  UNL d   1       0.044   1.585   0.681  0.00  0.00    -0.004 A 
ATOM      4  C2  UNL d   1       0.091   2.960   0.770  0.00  0.00    -0.047 A 
ATOM      5  C3  UNL d   1      -0.352   3.316   2.066  0.00  0.00    -0.047 A 
ATOM      6  C4  UNL d   1      -0.659   2.147   2.730  0.00  0.00    -0.004 A 
ENDROOT
TORSDOF 0
ENDMDL
