MODEL 1
REMARK minimizedAffinity 3.03414106
REMARK minimizedRMSD -1
REMARK  0 active torsions:
REMARK  status: ('A' for Active; 'I' for Inactive)
ROOT
ATOM      1  C   UNL d   1       0.845   0.244  -3.388  0.00  0.00     0.172 C 
ATOM      2  N   UNL d   1       1.375   0.008  -2.065  0.00  0.00    -0.070 N 
ATOM      3  C1  UNL d   1       2.230   0.835  -1.388  0.00  0.00    -0.004 A 
ATOM      4  C2  UNL d   1       2.497   0.258  -0.166  0.00  0.00    -0.047 A 
ATOM      5  C3  UNL d   1       1.779  -0.960  -0.107  0.00  0.00    -0.047 A 
ATOM      6  C4  UNL d   1       1.092  -1.090  -1.296  0.00  0.00    -0.004 A 
ENDROOT
TORSDOF 0
ENDMDL
