MODEL 1
REMARK minimizedAffinity 4.10745287
REMARK minimizedRMSD -1
REMARK  0 active torsions:
REMARK  status: ('A' for Active; 'I' for Inactive)
ROOT
ATOM      1  C   UNL d   1       1.668  -3.788   1.551  0.00  0.00     0.172 C 
ATOM      2  N   UNL d   1       2.608  -4.288   0.574  0.00  0.00    -0.070 N 
ATOM      3  C1  UNL d   1       2.733  -3.841  -0.714  0.00  0.00    -0.004 A 
ATOM      4  C2  UNL d   1       3.736  -4.568  -1.318  0.00  0.00    -0.047 A 
ATOM      5  C3  UNL d   1       4.229  -5.485  -0.359  0.00  0.00    -0.047 A 
ATOM      6  C4  UNL d   1       3.513  -5.290   0.803  0.00  0.00    -0.004 A 
ENDROOT
TORSDOF 0
ENDMDL
