MODEL 1
REMARK minimizedAffinity 0.184658557
REMARK minimizedRMSD -1
REMARK  0 active torsions:
REMARK  status: ('A' for Active; 'I' for Inactive)
ROOT
ATOM      1  C   UNL d   1      -6.000   2.577   1.341  0.00  0.00     0.172 C 
ATOM      2  N   UNL d   1      -4.612   2.253   1.107  0.00  0.00    -0.070 N 
ATOM      3  C1  UNL d   1      -3.728   3.008   0.383  0.00  0.00    -0.004 A 
ATOM      4  C2  UNL d   1      -2.511   2.361   0.396  0.00  0.00    -0.047 A 
ATOM      5  C3  UNL d   1      -2.670   1.176   1.153  0.00  0.00    -0.047 A 
ATOM      6  C4  UNL d   1      -3.980   1.134   1.581  0.00  0.00    -0.004 A 
ENDROOT
TORSDOF 0
ENDMDL
