MODEL 1
REMARK minimizedAffinity -0.934223473
REMARK minimizedRMSD -1
REMARK  0 active torsions:
REMARK  status: ('A' for Active; 'I' for Inactive)
ROOT
ATOM      1  C   UNL d   1       3.735  -5.910   0.035  0.00  0.00     0.172 C 
ATOM      2  N   UNL d   1       2.966  -4.775   0.488  0.00  0.00    -0.070 N 
ATOM      3  C1  UNL d   1       3.196  -3.468   0.147  0.00  0.00    -0.004 A 
ATOM      4  C2  UNL d   1       2.250  -2.694   0.783  0.00  0.00    -0.047 A 
ATOM      5  C3  UNL d   1       1.423  -3.565   1.532  0.00  0.00    -0.047 A 
ATOM      6  C4  UNL d   1       1.890  -4.847   1.332  0.00  0.00    -0.004 A 
ENDROOT
TORSDOF 0
ENDMDL
