MODEL 1
REMARK minimizedAffinity -0.626857698
REMARK minimizedRMSD -1
REMARK  0 active torsions:
REMARK  status: ('A' for Active; 'I' for Inactive)
ROOT
ATOM      1  C   UNL d   1       1.896   0.242  -0.102  0.00  0.00     0.172 C 
ATOM      2  N   UNL d   1       2.692   1.289   0.493  0.00  0.00    -0.070 N 
ATOM      3  C1  UNL d   1       2.294   2.586   0.680  0.00  0.00    -0.004 A 
ATOM      4  C2  UNL d   1       3.335   3.266   1.274  0.00  0.00    -0.047 A 
ATOM      5  C3  UNL d   1       4.396   2.346   1.449  0.00  0.00    -0.047 A 
ATOM      6  C4  UNL d   1       3.971   1.130   0.957  0.00  0.00    -0.004 A 
ENDROOT
TORSDOF 0
ENDMDL
