MODEL 1
REMARK minimizedAffinity 1.66955316
REMARK minimizedRMSD -1
REMARK  0 active torsions:
REMARK  status: ('A' for Active; 'I' for Inactive)
ROOT
ATOM      1  C   UNL d   1       0.167   2.509   1.684  0.00  0.00     0.172 C 
ATOM      2  N   UNL d   1       1.594   2.450   1.471  0.00  0.00    -0.070 N 
ATOM      3  C1  UNL d   1       2.534   2.174   2.429  0.00  0.00    -0.004 A 
ATOM      4  C2  UNL d   1       3.773   2.213   1.828  0.00  0.00    -0.047 A 
ATOM      5  C3  UNL d   1       3.572   2.524   0.462  0.00  0.00    -0.047 A 
ATOM      6  C4  UNL d   1       2.214   2.666   0.269  0.00  0.00    -0.004 A 
ENDROOT
TORSDOF 0
ENDMDL
