MODEL 1
REMARK minimizedAffinity 5.50959587
REMARK minimizedRMSD -1
REMARK  0 active torsions:
REMARK  status: ('A' for Active; 'I' for Inactive)
ROOT
ATOM      1  C   UNL d   1       4.223   1.319   1.810  0.00  0.00     0.172 C 
ATOM      2  N   UNL d   1       4.678   2.004   2.997  0.00  0.00    -0.070 N 
ATOM      3  C1  UNL d   1       5.985   2.244   3.329  0.00  0.00    -0.004 A 
ATOM      4  C2  UNL d   1       5.998   2.919   4.530  0.00  0.00    -0.047 A 
ATOM      5  C3  UNL d   1       4.652   3.090   4.935  0.00  0.00    -0.047 A 
ATOM      6  C4  UNL d   1       3.856   2.514   3.967  0.00  0.00    -0.004 A 
ENDROOT
TORSDOF 0
ENDMDL
