MODEL 1
REMARK minimizedAffinity 0.11231529
REMARK minimizedRMSD -1
REMARK  0 active torsions:
REMARK  status: ('A' for Active; 'I' for Inactive)
ROOT
ATOM      1  C   UNL d   1      -2.842  -4.637  -1.359  0.00  0.00     0.172 C 
ATOM      2  N   UNL d   1      -2.246  -4.860  -0.063  0.00  0.00    -0.070 N 
ATOM      3  C1  UNL d   1      -1.141  -5.629   0.187  0.00  0.00    -0.004 A 
ATOM      4  C2  UNL d   1      -0.894  -5.586   1.542  0.00  0.00    -0.047 A 
ATOM      5  C3  UNL d   1      -1.885  -4.764   2.127  0.00  0.00    -0.047 A 
ATOM      6  C4  UNL d   1      -2.710  -4.328   1.112  0.00  0.00    -0.004 A 
ENDROOT
TORSDOF 0
ENDMDL
