MODEL 1
REMARK minimizedAffinity 6.02036381
REMARK minimizedRMSD -1
REMARK  0 active torsions:
REMARK  status: ('A' for Active; 'I' for Inactive)
ROOT
ATOM      1  C   UNL d   1       0.350   2.746   0.765  0.00  0.00     0.172 C 
ATOM      2  N   UNL d   1       1.539   1.947   0.580  0.00  0.00    -0.070 N 
ATOM      3  C1  UNL d   1       2.828   2.395   0.698  0.00  0.00    -0.004 A 
ATOM      4  C2  UNL d   1       3.668   1.332   0.447  0.00  0.00    -0.047 A 
ATOM      5  C3  UNL d   1       2.857   0.207   0.169  0.00  0.00    -0.047 A 
ATOM      6  C4  UNL d   1       1.543   0.616   0.258  0.00  0.00    -0.004 A 
ENDROOT
TORSDOF 0
ENDMDL
