MODEL 1
REMARK minimizedAffinity 1.51036215
REMARK minimizedRMSD -1
REMARK  0 active torsions:
REMARK  status: ('A' for Active; 'I' for Inactive)
ROOT
ATOM      1  C   UNL d   1      -0.775   3.300   1.812  0.00  0.00     0.172 C 
ATOM      2  N   UNL d   1       0.524   2.970   1.272  0.00  0.00    -0.070 N 
ATOM      3  C1  UNL d   1       1.139   3.607   0.228  0.00  0.00    -0.004 A 
ATOM      4  C2  UNL d   1       2.358   2.997   0.021  0.00  0.00    -0.047 A 
ATOM      5  C3  UNL d   1       2.479   1.958   0.974  0.00  0.00    -0.047 A 
ATOM      6  C4  UNL d   1       1.329   1.964   1.736  0.00  0.00    -0.004 A 
ENDROOT
TORSDOF 0
ENDMDL
