MODEL 1
REMARK minimizedAffinity 5.00417471
REMARK minimizedRMSD -1
REMARK  0 active torsions:
REMARK  status: ('A' for Active; 'I' for Inactive)
ROOT
ATOM      1  C   UNL d   1       2.027  -0.270   0.596  0.00  0.00     0.172 C 
ATOM      2  N   UNL d   1       1.614   1.113   0.633  0.00  0.00    -0.070 N 
ATOM      3  C1  UNL d   1       2.327   2.173   0.139  0.00  0.00    -0.004 A 
ATOM      4  C2  UNL d   1       1.594   3.318   0.366  0.00  0.00    -0.047 A 
ATOM      5  C3  UNL d   1       0.400   2.933   1.020  0.00  0.00    -0.047 A 
ATOM      6  C4  UNL d   1       0.438   1.563   1.173  0.00  0.00    -0.004 A 
ENDROOT
TORSDOF 0
ENDMDL
