MODEL 1
REMARK minimizedAffinity -2.99558449
REMARK minimizedRMSD -1
REMARK  0 active torsions:
REMARK  status: ('A' for Active; 'I' for Inactive)
ROOT
ATOM      1  C   UNL d   1       2.320  -1.084  -0.022  0.00  0.00     0.020 A 
ATOM      2  C1  UNL d   1       2.324  -1.931   1.085  0.00  0.00     0.020 A 
ATOM      3  C2  UNL d   1       1.202  -2.000   1.914  0.00  0.00     0.034 A 
ATOM      4  C3  UNL d   1       0.072  -1.222   1.637  0.00  0.00     0.017 A 
ATOM      5  C4  UNL d   1       0.070  -0.373   0.525  0.00  0.00     0.017 A 
ATOM      6  C5  UNL d   1       1.196  -0.307  -0.302  0.00  0.00     0.034 A 
ATOM      7 Cl   UNL d   1      -1.287   0.618   0.118  0.00  0.00    -0.070 Cl
ATOM      8 Cl1  UNL d   1      -1.279  -1.359   2.705  0.00  0.00    -0.070 Cl
ENDROOT
TORSDOF 0
ENDMDL
