MODEL 1
REMARK minimizedAffinity -2.96728587
REMARK minimizedRMSD -1
REMARK  0 active torsions:
REMARK  status: ('A' for Active; 'I' for Inactive)
ROOT
ATOM      1  C   UNL d   1      -1.028   0.813   0.729  0.00  0.00     0.020 A 
ATOM      2  C1  UNL d   1      -1.191  -0.301   1.551  0.00  0.00     0.020 A 
ATOM      3  C2  UNL d   1      -0.186  -1.269   1.623  0.00  0.00     0.034 A 
ATOM      4  C3  UNL d   1       0.986  -1.124   0.872  0.00  0.00     0.017 A 
ATOM      5  C4  UNL d   1       1.149  -0.005   0.047  0.00  0.00     0.017 A 
ATOM      6  C5  UNL d   1       0.140   0.961  -0.022  0.00  0.00     0.034 A 
ATOM      7 Cl   UNL d   1       2.567   0.243  -0.909  0.00  0.00    -0.070 Cl
ATOM      8 Cl1  UNL d   1       2.187  -2.359   1.010  0.00  0.00    -0.070 Cl
ENDROOT
TORSDOF 0
ENDMDL
