MODEL 1
REMARK minimizedAffinity -5.40677071
REMARK minimizedRMSD -1
REMARK  0 active torsions:
REMARK  status: ('A' for Active; 'I' for Inactive)
ROOT
ATOM      1  C   UNL d   1       1.310  -2.328   1.930  0.00  0.00     0.020 A 
ATOM      2  C1  UNL d   1       0.041  -1.931   2.349  0.00  0.00     0.020 A 
ATOM      3  C2  UNL d   1      -0.602  -0.866   1.715  0.00  0.00     0.034 A 
ATOM      4  C3  UNL d   1       0.024  -0.194   0.658  0.00  0.00     0.017 A 
ATOM      5  C4  UNL d   1       1.298  -0.594   0.238  0.00  0.00     0.017 A 
ATOM      6  C5  UNL d   1       1.937  -1.661   0.877  0.00  0.00     0.034 A 
ATOM      7 Cl   UNL d   1       2.133   0.186  -1.059  0.00  0.00    -0.070 Cl
ATOM      8 Cl1  UNL d   1      -0.830   1.113  -0.081  0.00  0.00    -0.070 Cl
ENDROOT
TORSDOF 0
ENDMDL
