MODEL 1
REMARK minimizedAffinity -3.26457191
REMARK minimizedRMSD -1
REMARK  0 active torsions:
REMARK  status: ('A' for Active; 'I' for Inactive)
ROOT
ATOM      1  C   UNL d   1       1.953  -2.675   1.866  0.00  0.00     0.020 A 
ATOM      2  C1  UNL d   1       2.356  -2.035   0.695  0.00  0.00     0.020 A 
ATOM      3  C2  UNL d   1       1.561  -1.032   0.138  0.00  0.00     0.034 A 
ATOM      4  C3  UNL d   1       0.357  -0.666   0.752  0.00  0.00     0.017 A 
ATOM      5  C4  UNL d   1      -0.047  -1.309   1.927  0.00  0.00     0.017 A 
ATOM      6  C5  UNL d   1       0.754  -2.313   2.481  0.00  0.00     0.034 A 
ATOM      7 Cl   UNL d   1      -1.519  -0.911   2.742  0.00  0.00    -0.070 Cl
ATOM      8 Cl1  UNL d   1      -0.577   0.583   0.008  0.00  0.00    -0.070 Cl
ENDROOT
TORSDOF 0
ENDMDL
