MODEL 1
REMARK minimizedAffinity -6.39779949
REMARK minimizedRMSD -1
REMARK  0 active torsions:
REMARK  status: ('A' for Active; 'I' for Inactive)
ROOT
ATOM      1  C   UNL d   1       1.227  -2.908   1.687  0.00  0.00     0.020 A 
ATOM      2  C1  UNL d   1       0.250  -2.652   2.648  0.00  0.00     0.020 A 
ATOM      3  C2  UNL d   1      -0.629  -1.580   2.480  0.00  0.00     0.034 A 
ATOM      4  C3  UNL d   1      -0.532  -0.760   1.349  0.00  0.00     0.017 A 
ATOM      5  C4  UNL d   1       0.449  -1.019   0.386  0.00  0.00     0.017 A 
ATOM      6  C5  UNL d   1       1.327  -2.093   0.559  0.00  0.00     0.034 A 
ATOM      7 Cl   UNL d   1       0.631  -0.052  -1.035  0.00  0.00    -0.070 Cl
ATOM      8 Cl1  UNL d   1      -1.653   0.548   1.206  0.00  0.00    -0.070 Cl
ENDROOT
TORSDOF 0
ENDMDL
