MODEL 1
REMARK minimizedAffinity -4.33742571
REMARK minimizedRMSD -1
REMARK  0 active torsions:
REMARK  status: ('A' for Active; 'I' for Inactive)
ROOT
ATOM      1  C   UNL d   1       1.066  -2.697   1.808  0.00  0.00     0.020 A 
ATOM      2  C1  UNL d   1       0.103  -2.304   2.737  0.00  0.00     0.020 A 
ATOM      3  C2  UNL d   1      -0.682  -1.175   2.495  0.00  0.00     0.034 A 
ATOM      4  C3  UNL d   1      -0.505  -0.434   1.321  0.00  0.00     0.017 A 
ATOM      5  C4  UNL d   1       0.462  -0.828   0.389  0.00  0.00     0.017 A 
ATOM      6  C5  UNL d   1       1.245  -1.960   0.636  0.00  0.00     0.034 A 
ATOM      7 Cl   UNL d   1       0.738   0.036  -1.083  0.00  0.00    -0.070 Cl
ATOM      8 Cl1  UNL d   1      -1.511   0.952   1.086  0.00  0.00    -0.070 Cl
ENDROOT
TORSDOF 0
ENDMDL
