MODEL 1
REMARK minimizedAffinity -3.80760336
REMARK minimizedRMSD -1
REMARK  0 active torsions:
REMARK  status: ('A' for Active; 'I' for Inactive)
ROOT
ATOM      1  C   UNL d   1      -0.575  -1.518   2.897  0.00  0.00     0.020 A 
ATOM      2  C1  UNL d   1       0.642  -2.189   2.784  0.00  0.00     0.020 A 
ATOM      3  C2  UNL d   1       1.485  -1.929   1.701  0.00  0.00     0.034 A 
ATOM      4  C3  UNL d   1       1.112  -0.995   0.727  0.00  0.00     0.017 A 
ATOM      5  C4  UNL d   1      -0.110  -0.322   0.842  0.00  0.00     0.017 A 
ATOM      6  C5  UNL d   1      -0.950  -0.586   1.928  0.00  0.00     0.034 A 
ATOM      7 Cl   UNL d   1      -0.638   0.844  -0.320  0.00  0.00    -0.070 Cl
ATOM      8 Cl1  UNL d   1       2.204  -0.723  -0.584  0.00  0.00    -0.070 Cl
ENDROOT
TORSDOF 0
ENDMDL
