MODEL 1
REMARK minimizedAffinity -3.84123325
REMARK minimizedRMSD -1
REMARK  0 active torsions:
REMARK  status: ('A' for Active; 'I' for Inactive)
ROOT
ATOM      1  C   UNL d   1       1.608  -3.185   1.541  0.00  0.00     0.020 A 
ATOM      2  C1  UNL d   1       1.975  -2.463   0.406  0.00  0.00     0.020 A 
ATOM      3  C2  UNL d   1       1.261  -1.319   0.046  0.00  0.00     0.034 A 
ATOM      4  C3  UNL d   1       0.177  -0.892   0.822  0.00  0.00     0.017 A 
ATOM      5  C4  UNL d   1      -0.190  -1.618   1.961  0.00  0.00     0.017 A 
ATOM      6  C5  UNL d   1       0.528  -2.763   2.317  0.00  0.00     0.034 A 
ATOM      7 Cl   UNL d   1      -1.516  -1.154   2.968  0.00  0.00    -0.070 Cl
ATOM      8 Cl1  UNL d   1      -0.661   0.532   0.318  0.00  0.00    -0.070 Cl
ENDROOT
TORSDOF 0
ENDMDL
