MODEL 1
REMARK minimizedAffinity -4.65873432
REMARK minimizedRMSD -1
REMARK  0 active torsions:
REMARK  status: ('A' for Active; 'I' for Inactive)
ROOT
ATOM      1  C   UNL d   1      -0.609  -1.703   2.526  0.00  0.00     0.020 A 
ATOM      2  C1  UNL d   1       0.670  -2.232   2.357  0.00  0.00     0.020 A 
ATOM      3  C2  UNL d   1       1.461  -1.819   1.283  0.00  0.00     0.034 A 
ATOM      4  C3  UNL d   1       0.974  -0.873   0.374  0.00  0.00     0.017 A 
ATOM      5  C4  UNL d   1      -0.309  -0.342   0.544  0.00  0.00     0.017 A 
ATOM      6  C5  UNL d   1      -1.097  -0.759   1.621  0.00  0.00     0.034 A 
ATOM      7 Cl   UNL d   1      -0.979   0.829  -0.537  0.00  0.00    -0.070 Cl
ATOM      8 Cl1  UNL d   1       2.007  -0.408  -0.931  0.00  0.00    -0.070 Cl
ENDROOT
TORSDOF 0
ENDMDL
