MODEL 1
REMARK minimizedAffinity -5.48982191
REMARK minimizedRMSD -1
REMARK  0 active torsions:
REMARK  status: ('A' for Active; 'I' for Inactive)
ROOT
ATOM      1  C   UNL d   1       1.890  -2.918   0.926  0.00  0.00     0.020 A 
ATOM      2  C1  UNL d   1       2.149  -2.027  -0.114  0.00  0.00     0.020 A 
ATOM      3  C2  UNL d   1       1.343  -0.898  -0.283  0.00  0.00     0.034 A 
ATOM      4  C3  UNL d   1       0.276  -0.658   0.590  0.00  0.00     0.017 A 
ATOM      5  C4  UNL d   1       0.017  -1.553   1.634  0.00  0.00     0.017 A 
ATOM      6  C5  UNL d   1       0.827  -2.682   1.799  0.00  0.00     0.034 A 
ATOM      7 Cl   UNL d   1      -1.281  -1.324   2.751  0.00  0.00    -0.070 Cl
ATOM      8 Cl1  UNL d   1      -0.678   0.757   0.322  0.00  0.00    -0.070 Cl
ENDROOT
TORSDOF 0
ENDMDL
