MODEL 1
REMARK minimizedAffinity -2.21150303
REMARK minimizedRMSD -1
REMARK  0 active torsions:
REMARK  status: ('A' for Active; 'I' for Inactive)
ROOT
ATOM      1  C   UNL d   1      -0.673   1.113  -0.398  0.00  0.00     0.020 A 
ATOM      2  C1  UNL d   1       0.472   0.630  -1.031  0.00  0.00     0.020 A 
ATOM      3  C2  UNL d   1       0.977  -0.628  -0.696  0.00  0.00     0.034 A 
ATOM      4  C3  UNL d   1       0.338  -1.407   0.276  0.00  0.00     0.017 A 
ATOM      5  C4  UNL d   1      -0.811  -0.921   0.910  0.00  0.00     0.017 A 
ATOM      6  C5  UNL d   1      -1.313   0.339   0.570  0.00  0.00     0.034 A 
ATOM      7 Cl   UNL d   1      -1.654  -1.825   2.118  0.00  0.00    -0.070 Cl
ATOM      8 Cl1  UNL d   1       1.018  -2.953   0.641  0.00  0.00    -0.070 Cl
ENDROOT
TORSDOF 0
ENDMDL
