MODEL 1
REMARK minimizedAffinity -2.45396233
REMARK minimizedRMSD -1
REMARK  0 active torsions:
REMARK  status: ('A' for Active; 'I' for Inactive)
ROOT
ATOM      1  C   UNL d   1       2.120  -1.549   1.073  0.00  0.00     0.020 A 
ATOM      2  C1  UNL d   1       1.451  -2.010   2.206  0.00  0.00     0.020 A 
ATOM      3  C2  UNL d   1       0.220  -1.457   2.563  0.00  0.00     0.034 A 
ATOM      4  C3  UNL d   1      -0.346  -0.439   1.787  0.00  0.00     0.017 A 
ATOM      5  C4  UNL d   1       0.326   0.023   0.650  0.00  0.00     0.017 A 
ATOM      6  C5  UNL d   1       1.559  -0.535   0.296  0.00  0.00     0.034 A 
ATOM      7 Cl   UNL d   1      -0.309   1.275  -0.358  0.00  0.00    -0.070 Cl
ATOM      8 Cl1  UNL d   1      -1.872   0.199   2.287  0.00  0.00    -0.070 Cl
ENDROOT
TORSDOF 0
ENDMDL
