MODEL 1
REMARK minimizedAffinity -5.63695526
REMARK minimizedRMSD -1
REMARK  0 active torsions:
REMARK  status: ('A' for Active; 'I' for Inactive)
ROOT
ATOM      1  C   UNL d   1       2.201  -2.828   0.589  0.00  0.00     0.020 A 
ATOM      2  C1  UNL d   1       1.885  -3.363   1.837  0.00  0.00     0.020 A 
ATOM      3  C2  UNL d   1       0.787  -2.874   2.548  0.00  0.00     0.034 A 
ATOM      4  C3  UNL d   1       0.002  -1.847   2.012  0.00  0.00     0.017 A 
ATOM      5  C4  UNL d   1       0.320  -1.310   0.760  0.00  0.00     0.017 A 
ATOM      6  C5  UNL d   1       1.420  -1.804   0.052  0.00  0.00     0.034 A 
ATOM      7 Cl   UNL d   1      -0.602  -0.041   0.034  0.00  0.00    -0.070 Cl
ATOM      8 Cl1  UNL d   1      -1.341  -1.291   2.947  0.00  0.00    -0.070 Cl
ENDROOT
TORSDOF 0
ENDMDL
