MODEL 1
REMARK minimizedAffinity -3.98477292
REMARK minimizedRMSD -1
REMARK  0 active torsions:
REMARK  status: ('A' for Active; 'I' for Inactive)
ROOT
ATOM      1  C   UNL d   1      -0.818   1.220  -0.466  0.00  0.00     0.020 A 
ATOM      2  C1  UNL d   1       0.291   0.773  -1.182  0.00  0.00     0.020 A 
ATOM      3  C2  UNL d   1       0.996  -0.351  -0.748  0.00  0.00     0.034 A 
ATOM      4  C3  UNL d   1       0.592  -1.033   0.406  0.00  0.00     0.017 A 
ATOM      5  C4  UNL d   1      -0.522  -0.583   1.125  0.00  0.00     0.017 A 
ATOM      6  C5  UNL d   1      -1.224   0.544   0.685  0.00  0.00     0.034 A 
ATOM      7 Cl   UNL d   1      -1.080  -1.371   2.558  0.00  0.00    -0.070 Cl
ATOM      8 Cl1  UNL d   1       1.510  -2.416   0.885  0.00  0.00    -0.070 Cl
ENDROOT
TORSDOF 0
ENDMDL
