MODEL 1
REMARK minimizedAffinity 1.46262455
REMARK minimizedRMSD -1
REMARK  0 active torsions:
REMARK  status: ('A' for Active; 'I' for Inactive)
ROOT
ATOM      1  C   UNL d   1      -4.402   1.423  -2.002  0.00  0.00     0.020 A 
ATOM      2  C1  UNL d   1      -4.339   2.409  -2.986  0.00  0.00     0.020 A 
ATOM      3  C2  UNL d   1      -3.139   3.083  -3.222  0.00  0.00     0.034 A 
ATOM      4  C3  UNL d   1      -1.998   2.773  -2.475  0.00  0.00     0.017 A 
ATOM      5  C4  UNL d   1      -2.062   1.783  -1.487  0.00  0.00     0.017 A 
ATOM      6  C5  UNL d   1      -3.266   1.111  -1.254  0.00  0.00     0.034 A 
ATOM      7 Cl   UNL d   1      -0.696   1.344  -0.524  0.00  0.00    -0.070 Cl
ATOM      8 Cl1  UNL d   1      -0.548   3.646  -2.821  0.00  0.00    -0.070 Cl
ENDROOT
TORSDOF 0
ENDMDL
