MODEL 1
REMARK minimizedAffinity -4.35750246
REMARK minimizedRMSD -1
REMARK  0 active torsions:
REMARK  status: ('A' for Active; 'I' for Inactive)
ROOT
ATOM      1  C   UNL d   1      -0.181  -2.498   2.151  0.00  0.00     0.020 A 
ATOM      2  C1  UNL d   1       1.129  -2.755   1.747  0.00  0.00     0.020 A 
ATOM      3  C2  UNL d   1       1.759  -1.904   0.837  0.00  0.00     0.034 A 
ATOM      4  C3  UNL d   1       1.079  -0.792   0.327  0.00  0.00     0.017 A 
ATOM      5  C4  UNL d   1      -0.235  -0.534   0.733  0.00  0.00     0.017 A 
ATOM      6  C5  UNL d   1      -0.861  -1.390   1.645  0.00  0.00     0.034 A 
ATOM      7 Cl   UNL d   1      -1.138   0.818   0.147  0.00  0.00    -0.070 Cl
ATOM      8 Cl1  UNL d   1       1.920   0.218  -0.795  0.00  0.00    -0.070 Cl
ENDROOT
TORSDOF 0
ENDMDL
