MODEL 1
REMARK minimizedAffinity -1.97715378
REMARK minimizedRMSD -1
REMARK  0 active torsions:
REMARK  status: ('A' for Active; 'I' for Inactive)
ROOT
ATOM      1  C   UNL d   1       2.364  -0.956  -0.960  0.00  0.00     0.020 A 
ATOM      2  C1  UNL d   1       2.489  -1.848   0.105  0.00  0.00     0.020 A 
ATOM      3  C2  UNL d   1       1.555  -1.832   1.143  0.00  0.00     0.034 A 
ATOM      4  C3  UNL d   1       0.491  -0.922   1.118  0.00  0.00     0.017 A 
ATOM      5  C4  UNL d   1       0.366  -0.028   0.049  0.00  0.00     0.017 A 
ATOM      6  C5  UNL d   1       1.305  -0.048  -0.988  0.00  0.00     0.034 A 
ATOM      7 Cl   UNL d   1      -0.920   1.123  -0.052  0.00  0.00    -0.070 Cl
ATOM      8 Cl1  UNL d   1      -0.628  -0.958   2.434  0.00  0.00    -0.070 Cl
ENDROOT
TORSDOF 0
ENDMDL
