MODEL 1
REMARK minimizedAffinity -4.08212423
REMARK minimizedRMSD -1
REMARK  0 active torsions:
REMARK  status: ('A' for Active; 'I' for Inactive)
ROOT
ATOM      1  C   UNL d   1      -1.097   0.539   0.377  0.00  0.00     0.020 A 
ATOM      2  C1  UNL d   1      -0.037   0.144  -0.438  0.00  0.00     0.020 A 
ATOM      3  C2  UNL d   1       0.749  -0.953  -0.079  0.00  0.00     0.034 A 
ATOM      4  C3  UNL d   1       0.476  -1.658   1.099  0.00  0.00     0.017 A 
ATOM      5  C4  UNL d   1      -0.588  -1.261   1.917  0.00  0.00     0.017 A 
ATOM      6  C5  UNL d   1      -1.372  -0.162   1.552  0.00  0.00     0.034 A 
ATOM      7 Cl   UNL d   1      -0.985  -2.081   3.385  0.00  0.00    -0.070 Cl
ATOM      8 Cl1  UNL d   1       1.489  -3.005   1.481  0.00  0.00    -0.070 Cl
ENDROOT
TORSDOF 0
ENDMDL
