MODEL 1
REMARK minimizedAffinity -0.589845479
REMARK minimizedRMSD -1
REMARK  1 active torsions:
REMARK  status: ('A' for Active; 'I' for Inactive)
REMARK    1  A    between atoms: C1_2  and  C2_3 
ROOT
ATOM      1  C2  UNL d   1      -1.027  -2.330   1.647  0.00  0.00    -0.081 A 
ATOM      2  C3  UNL d   1       0.027  -3.147   1.219  0.00  0.00     0.006 A 
ATOM      3  C4  UNL d   1       0.568  -2.994  -0.060  0.00  0.00     0.002 A 
ATOM      4  C5  UNL d   1       0.070  -2.016  -0.928  0.00  0.00    -0.080 A 
ATOM      5  C6  UNL d   1       0.662  -1.821  -2.292  0.00  0.00     0.076 C 
ATOM      6  C7  UNL d   1      -0.994  -1.212  -0.507  0.00  0.00     0.002 A 
ATOM      7  C8  UNL d   1      -1.536  -1.365   0.771  0.00  0.00     0.006 A 
ENDROOT
BRANCH   1   8
ATOM      8  C1  UNL d   1      -1.569  -2.450   3.048  0.00  0.00     0.054 C 
ATOM      9  C   UNL d   1      -1.487  -1.123   3.789  0.00  0.00     0.018 C 
ENDBRANCH   1   8
TORSDOF 1
ENDMDL
