MODEL 1
REMARK minimizedAffinity 7.70762634
REMARK minimizedRMSD -1
REMARK  1 active torsions:
REMARK  status: ('A' for Active; 'I' for Inactive)
REMARK    1  A    between atoms: C1_2  and  C2_3 
ROOT
ATOM      1  C2  UNL d   1      -0.867  -2.650   0.691  0.00  0.00    -0.081 A 
ATOM      2  C3  UNL d   1       0.212  -3.540   0.630  0.00  0.00     0.006 A 
ATOM      3  C4  UNL d   1       1.215  -3.371  -0.328  0.00  0.00     0.002 A 
ATOM      4  C5  UNL d   1       1.160  -2.306  -1.234  0.00  0.00    -0.080 A 
ATOM      5  C6  UNL d   1       2.245  -2.096  -2.247  0.00  0.00     0.076 C 
ATOM      6  C7  UNL d   1       0.072  -1.428  -1.184  0.00  0.00     0.002 A 
ATOM      7  C8  UNL d   1      -0.931  -1.596  -0.227  0.00  0.00     0.006 A 
ENDROOT
BRANCH   1   8
ATOM      8  C1  UNL d   1      -1.916  -2.792   1.764  0.00  0.00     0.054 C 
ATOM      9  C   UNL d   1      -1.681  -1.808   2.902  0.00  0.00     0.018 C 
ENDBRANCH   1   8
TORSDOF 1
ENDMDL
