MODEL 1
REMARK minimizedAffinity 10.8135118
REMARK minimizedRMSD -1
REMARK  1 active torsions:
REMARK  status: ('A' for Active; 'I' for Inactive)
REMARK    1  A    between atoms: C1_2  and  C2_3 
ROOT
ATOM      1  C2  UNL d   1      -1.268  -2.160   1.849  0.00  0.00    -0.081 A 
ATOM      2  C3  UNL d   1      -2.054  -2.980   1.030  0.00  0.00     0.006 A 
ATOM      3  C4  UNL d   1      -1.466  -3.994   0.270  0.00  0.00     0.002 A 
ATOM      4  C5  UNL d   1      -0.085  -4.211   0.323  0.00  0.00    -0.080 A 
ATOM      5  C6  UNL d   1       0.555  -5.315  -0.465  0.00  0.00     0.076 C 
ATOM      6  C7  UNL d   1       0.703  -3.381   1.128  0.00  0.00     0.002 A 
ATOM      7  C8  UNL d   1       0.116  -2.366   1.887  0.00  0.00     0.006 A 
ENDROOT
BRANCH   1   8
ATOM      8  C1  UNL d   1      -1.907  -1.108   2.719  0.00  0.00     0.054 C 
ATOM      9  C   UNL d   1      -1.115  -0.895   4.001  0.00  0.00     0.018 C 
ENDBRANCH   1   8
TORSDOF 1
ENDMDL
