MODEL 1
REMARK minimizedAffinity 9.13704872
REMARK minimizedRMSD -1
REMARK  1 active torsions:
REMARK  status: ('A' for Active; 'I' for Inactive)
REMARK    1  A    between atoms: C1_2  and  C2_3 
ROOT
ATOM      1  C2  UNL d   1       1.964   1.718  -0.196  0.00  0.00    -0.081 A 
ATOM      2  C3  UNL d   1       0.868   1.697  -1.067  0.00  0.00     0.006 A 
ATOM      3  C4  UNL d   1       0.691   0.635  -1.957  0.00  0.00     0.002 A 
ATOM      4  C5  UNL d   1       1.602  -0.426  -1.986  0.00  0.00    -0.080 A 
ATOM      5  C6  UNL d   1       1.407  -1.587  -2.915  0.00  0.00     0.076 C 
ATOM      6  C7  UNL d   1       2.706  -0.397  -1.128  0.00  0.00     0.002 A 
ATOM      7  C8  UNL d   1       2.884   0.665  -0.238  0.00  0.00     0.006 A 
ENDROOT
BRANCH   1   8
ATOM      8  C1  UNL d   1       2.122   2.829   0.810  0.00  0.00     0.054 C 
ATOM      9  C   UNL d   1       0.841   3.640   0.946  0.00  0.00     0.018 C 
ENDBRANCH   1   8
TORSDOF 1
ENDMDL
