MODEL 1
REMARK minimizedAffinity 10.3815432
REMARK minimizedRMSD -1
REMARK  1 active torsions:
REMARK  status: ('A' for Active; 'I' for Inactive)
REMARK    1  A    between atoms: C1_2  and  C2_3 
ROOT
ATOM      1  C2  UNL d   1       1.257  -2.757  -2.576  0.00  0.00    -0.081 A 
ATOM      2  C3  UNL d   1       0.746  -1.607  -1.963  0.00  0.00     0.006 A 
ATOM      3  C4  UNL d   1       0.159  -1.680  -0.698  0.00  0.00     0.002 A 
ATOM      4  C5  UNL d   1       0.082  -2.902  -0.021  0.00  0.00    -0.080 A 
ATOM      5  C6  UNL d   1      -0.518  -2.988   1.351  0.00  0.00     0.076 C 
ATOM      6  C7  UNL d   1       0.577  -4.054  -0.640  0.00  0.00     0.002 A 
ATOM      7  C8  UNL d   1       1.163  -3.982  -1.906  0.00  0.00     0.006 A 
ENDROOT
BRANCH   1   8
ATOM      8  C1  UNL d   1       1.948  -2.671  -3.913  0.00  0.00     0.054 C 
ATOM      9  C   UNL d   1       2.955  -3.799  -4.089  0.00  0.00     0.018 C 
ENDBRANCH   1   8
TORSDOF 1
ENDMDL
