MODEL 1
REMARK minimizedAffinity 2.05558944
REMARK minimizedRMSD -1
REMARK  1 active torsions:
REMARK  status: ('A' for Active; 'I' for Inactive)
REMARK    1  A    between atoms: C1_2  and  C2_3 
ROOT
ATOM      1  C2  UNL d   1      -0.237  -2.686   0.807  0.00  0.00    -0.081 A 
ATOM      2  C3  UNL d   1       0.261  -3.922   0.376  0.00  0.00     0.006 A 
ATOM      3  C4  UNL d   1       0.855  -4.045  -0.883  0.00  0.00     0.002 A 
ATOM      4  C5  UNL d   1       0.967  -2.935  -1.727  0.00  0.00    -0.080 A 
ATOM      5  C6  UNL d   1       1.629  -3.048  -3.068  0.00  0.00     0.076 C 
ATOM      6  C7  UNL d   1       0.453  -1.705  -1.303  0.00  0.00     0.002 A 
ATOM      7  C8  UNL d   1      -0.141  -1.581  -0.045  0.00  0.00     0.006 A 
ENDROOT
BRANCH   1   8
ATOM      8  C1  UNL d   1      -0.819  -2.535   2.189  0.00  0.00     0.054 C 
ATOM      9  C   UNL d   1      -1.119  -1.077   2.507  0.00  0.00     0.018 C 
ENDBRANCH   1   8
TORSDOF 1
ENDMDL
