MODEL 1
REMARK minimizedAffinity 7.10759592
REMARK minimizedRMSD -1
REMARK  1 active torsions:
REMARK  status: ('A' for Active; 'I' for Inactive)
REMARK    1  A    between atoms: C1_2  and  C2_3 
ROOT
ATOM      1  C2  UNL d   1       0.937  -3.528   1.334  0.00  0.00    -0.081 A 
ATOM      2  C3  UNL d   1       0.658  -3.536  -0.039  0.00  0.00     0.006 A 
ATOM      3  C4  UNL d   1      -0.645  -3.327  -0.498  0.00  0.00     0.002 A 
ATOM      4  C5  UNL d   1      -1.688  -3.101   0.406  0.00  0.00    -0.080 A 
ATOM      5  C6  UNL d   1      -3.086  -2.846  -0.074  0.00  0.00     0.076 C 
ATOM      6  C7  UNL d   1      -1.413  -3.111   1.778  0.00  0.00     0.002 A 
ATOM      7  C8  UNL d   1      -0.111  -3.320   2.238  0.00  0.00     0.006 A 
ENDROOT
BRANCH   1   8
ATOM      8  C1  UNL d   1       2.351  -3.688   1.829  0.00  0.00     0.054 C 
ATOM      9  C   UNL d   1       2.976  -2.341   2.164  0.00  0.00     0.018 C 
ENDBRANCH   1   8
TORSDOF 1
ENDMDL
