MODEL 1
REMARK minimizedAffinity 1.23065197
REMARK minimizedRMSD -1
REMARK  1 active torsions:
REMARK  status: ('A' for Active; 'I' for Inactive)
REMARK    1  A    between atoms: C1_2  and  C2_3 
ROOT
ATOM      1  C2  UNL d   1      -0.540  -1.455  -0.546  0.00  0.00    -0.081 A 
ATOM      2  C3  UNL d   1      -0.956  -0.252   0.038  0.00  0.00     0.006 A 
ATOM      3  C4  UNL d   1      -1.299  -0.203   1.391  0.00  0.00     0.002 A 
ATOM      4  C5  UNL d   1      -1.225  -1.353   2.184  0.00  0.00    -0.080 A 
ATOM      5  C6  UNL d   1      -1.562  -1.307   3.645  0.00  0.00     0.076 C 
ATOM      6  C7  UNL d   1      -0.827  -2.559   1.597  0.00  0.00     0.002 A 
ATOM      7  C8  UNL d   1      -0.484  -2.609   0.244  0.00  0.00     0.006 A 
ENDROOT
BRANCH   1   8
ATOM      8  C1  UNL d   1      -0.108  -1.498  -1.989  0.00  0.00     0.054 C 
ATOM      9  C   UNL d   1       0.337  -0.125  -2.474  0.00  0.00     0.018 C 
ENDBRANCH   1   8
TORSDOF 1
ENDMDL
