MODEL 1
REMARK minimizedAffinity -1.15548265
REMARK minimizedRMSD -1
REMARK  1 active torsions:
REMARK  status: ('A' for Active; 'I' for Inactive)
REMARK    1  A    between atoms: C1_2  and  C2_3 
ROOT
ATOM      1  C2  UNL d   1       0.525   1.863   0.350  0.00  0.00    -0.081 A 
ATOM      2  C3  UNL d   1       1.003   1.086  -0.712  0.00  0.00     0.006 A 
ATOM      3  C4  UNL d   1       0.584  -0.238  -0.865  0.00  0.00     0.002 A 
ATOM      4  C5  UNL d   1      -0.324  -0.804   0.036  0.00  0.00    -0.080 A 
ATOM      5  C6  UNL d   1      -0.804  -2.214  -0.134  0.00  0.00     0.076 C 
ATOM      6  C7  UNL d   1      -0.787  -0.033   1.108  0.00  0.00     0.002 A 
ATOM      7  C8  UNL d   1      -0.369   1.290   1.262  0.00  0.00     0.006 A 
ENDROOT
BRANCH   1   8
ATOM      8  C1  UNL d   1       0.924   3.311   0.481  0.00  0.00     0.054 C 
ATOM      9  C   UNL d   1       0.419   3.909   1.786  0.00  0.00     0.018 C 
ENDBRANCH   1   8
TORSDOF 1
ENDMDL
