MODEL 1
REMARK minimizedAffinity -5.15895939
REMARK minimizedRMSD -1
REMARK  1 active torsions:
REMARK  status: ('A' for Active; 'I' for Inactive)
REMARK    1  A    between atoms: C1_2  and  C2_3 
ROOT
ATOM      1  C2  UNL d   1      -0.212  -1.785  -0.030  0.00  0.00    -0.081 A 
ATOM      2  C3  UNL d   1       0.601  -1.129  -0.963  0.00  0.00     0.006 A 
ATOM      3  C4  UNL d   1       0.604   0.265  -1.043  0.00  0.00     0.002 A 
ATOM      4  C5  UNL d   1      -0.199   1.027  -0.188  0.00  0.00    -0.080 A 
ATOM      5  C6  UNL d   1      -0.182   2.526  -0.243  0.00  0.00     0.076 C 
ATOM      6  C7  UNL d   1      -1.024   0.372   0.732  0.00  0.00     0.002 A 
ATOM      7  C8  UNL d   1      -1.028  -1.022   0.812  0.00  0.00     0.006 A 
ENDROOT
BRANCH   1   8
ATOM      8  C1  UNL d   1      -0.169  -3.286   0.103  0.00  0.00     0.054 C 
ATOM      9  C   UNL d   1       0.979  -3.880  -0.702  0.00  0.00     0.018 C 
ENDBRANCH   1   8
TORSDOF 1
ENDMDL
