MODEL 1
REMARK minimizedAffinity 3.5194602
REMARK minimizedRMSD -1
REMARK  1 active torsions:
REMARK  status: ('A' for Active; 'I' for Inactive)
REMARK    1  A    between atoms: C1_2  and  C2_3 
ROOT
ATOM      1  C2  UNL d   1      -1.186  -2.274  -1.013  0.00  0.00    -0.081 A 
ATOM      2  C3  UNL d   1      -1.762  -2.501   0.243  0.00  0.00     0.006 A 
ATOM      3  C4  UNL d   1      -1.553  -1.601   1.291  0.00  0.00     0.002 A 
ATOM      4  C5  UNL d   1      -0.773  -0.456   1.099  0.00  0.00    -0.080 A 
ATOM      5  C6  UNL d   1      -0.566   0.534   2.206  0.00  0.00     0.076 C 
ATOM      6  C7  UNL d   1      -0.183  -0.238  -0.151  0.00  0.00     0.002 A 
ATOM      7  C8  UNL d   1      -0.390  -1.138  -1.199  0.00  0.00     0.006 A 
ENDROOT
BRANCH   1   8
ATOM      8  C1  UNL d   1      -1.462  -3.209  -2.163  0.00  0.00     0.054 C 
ATOM      9  C   UNL d   1      -0.538  -2.927  -3.339  0.00  0.00     0.018 C 
ENDBRANCH   1   8
TORSDOF 1
ENDMDL
