MODEL 1
REMARK minimizedAffinity -0.242097318
REMARK minimizedRMSD -1
REMARK  1 active torsions:
REMARK  status: ('A' for Active; 'I' for Inactive)
REMARK    1  A    between atoms: C1_2  and  C2_3 
ROOT
ATOM      1  C2  UNL d   1      -0.837  -2.311  -1.439  0.00  0.00    -0.081 A 
ATOM      2  C3  UNL d   1      -0.195  -1.069  -1.524  0.00  0.00     0.006 A 
ATOM      3  C4  UNL d   1       0.118  -0.353  -0.366  0.00  0.00     0.002 A 
ATOM      4  C5  UNL d   1      -0.197  -0.870   0.895  0.00  0.00    -0.080 A 
ATOM      5  C6  UNL d   1       0.161  -0.126   2.147  0.00  0.00     0.076 C 
ATOM      6  C7  UNL d   1      -0.854  -2.103   0.979  0.00  0.00     0.002 A 
ATOM      7  C8  UNL d   1      -1.168  -2.819  -0.178  0.00  0.00     0.006 A 
ENDROOT
BRANCH   1   8
ATOM      8  C1  UNL d   1      -1.118  -3.115  -2.683  0.00  0.00     0.054 C 
ATOM      9  C   UNL d   1      -2.482  -3.785  -2.612  0.00  0.00     0.018 C 
ENDBRANCH   1   8
TORSDOF 1
ENDMDL
