MODEL 1
REMARK minimizedAffinity 11.273098
REMARK minimizedRMSD -1
REMARK  1 active torsions:
REMARK  status: ('A' for Active; 'I' for Inactive)
REMARK    1  A    between atoms: N_2  and  C1_3 
ROOT
ATOM      1  C1  UNL d   1       0.649   0.492   3.244  0.00  0.00     0.143 A 
ATOM      2  C2  UNL d   1      -0.164   1.089   2.275  0.00  0.00    -0.057 A 
ATOM      3  C3  UNL d   1      -0.841   2.286   2.533  0.00  0.00     0.033 A 
ATOM      4  C4  UNL d   1      -0.740   2.895   3.779  0.00  0.00    -0.042 A 
ATOM      5  C5  UNL d   1       0.042   2.307   4.766  0.00  0.00     0.033 A 
ATOM      6  C6  UNL d   1       0.722   1.114   4.501  0.00  0.00    -0.057 A 
ENDROOT
BRANCH   1   7
ATOM      7  N   UNL d   1       1.270  -0.750   3.082  0.00  0.00    -0.732 N 
ATOM      8  C   UNL d   1       1.463  -1.630   4.214  0.00  0.00     0.284 C 
ATOM      9  H3  UNL d   1       0.973  -1.224   2.232  0.00  0.00     0.395 HD
ENDBRANCH   1   7
TORSDOF 1
ENDMDL
