MODEL 1
REMARK minimizedAffinity 7.9706912
REMARK minimizedRMSD -1
REMARK  1 active torsions:
REMARK  status: ('A' for Active; 'I' for Inactive)
REMARK    1  A    between atoms: N_2  and  C1_3 
ROOT
ATOM      1  C1  UNL d   1      -0.430  -2.522  -5.375  0.00  0.00     0.143 A 
ATOM      2  C2  UNL d   1       0.133  -1.380  -5.956  0.00  0.00    -0.057 A 
ATOM      3  C3  UNL d   1       0.058  -0.133  -5.325  0.00  0.00     0.033 A 
ATOM      4  C4  UNL d   1      -0.608   0.001  -4.111  0.00  0.00    -0.042 A 
ATOM      5  C5  UNL d   1      -1.196  -1.115  -3.527  0.00  0.00     0.033 A 
ATOM      6  C6  UNL d   1      -1.112  -2.360  -4.159  0.00  0.00    -0.057 A 
ENDROOT
BRANCH   1   7
ATOM      7  N   UNL d   1      -0.474  -3.771  -5.999  0.00  0.00    -0.732 N 
ATOM      8  C   UNL d   1      -1.693  -4.552  -5.999  0.00  0.00     0.284 C 
ATOM      9  H3  UNL d   1       0.026  -3.780  -6.885  0.00  0.00     0.395 HD
ENDBRANCH   1   7
TORSDOF 1
ENDMDL
