MODEL 1
REMARK minimizedAffinity 4.65812159
REMARK minimizedRMSD -1
REMARK  1 active torsions:
REMARK  status: ('A' for Active; 'I' for Inactive)
REMARK    1  A    between atoms: N_2  and  C1_3 
ROOT
ATOM      1  C1  UNL d   1      -1.261  -3.578  -3.333  0.00  0.00     0.143 A 
ATOM      2  C2  UNL d   1      -1.519  -3.397  -4.696  0.00  0.00    -0.057 A 
ATOM      3  C3  UNL d   1      -1.737  -4.489  -5.545  0.00  0.00     0.033 A 
ATOM      4  C4  UNL d   1      -1.673  -5.787  -5.050  0.00  0.00    -0.042 A 
ATOM      5  C5  UNL d   1      -1.394  -5.992  -3.703  0.00  0.00     0.033 A 
ATOM      6  C6  UNL d   1      -1.183  -4.897  -2.859  0.00  0.00    -0.057 A 
ENDROOT
BRANCH   1   7
ATOM      7  N   UNL d   1      -0.938  -2.539  -2.458  0.00  0.00    -0.732 N 
ATOM      8  C   UNL d   1      -0.449  -1.274  -2.963  0.00  0.00     0.284 C 
ATOM      9  H3  UNL d   1      -1.606  -2.451  -1.695  0.00  0.00     0.395 HD
ENDBRANCH   1   7
TORSDOF 1
ENDMDL
