MODEL 1
REMARK minimizedAffinity 4.95054817
REMARK minimizedRMSD -1
REMARK  1 active torsions:
REMARK  status: ('A' for Active; 'I' for Inactive)
REMARK    1  A    between atoms: N_2  and  C1_3 
ROOT
ATOM      1  C1  UNL d   1      -1.304  -3.136  -4.609  0.00  0.00     0.143 A 
ATOM      2  C2  UNL d   1      -1.239  -3.252  -3.216  0.00  0.00    -0.057 A 
ATOM      3  C3  UNL d   1      -0.583  -2.291  -2.438  0.00  0.00     0.033 A 
ATOM      4  C4  UNL d   1       0.047  -1.208  -3.043  0.00  0.00    -0.042 A 
ATOM      5  C5  UNL d   1       0.016  -1.086  -4.428  0.00  0.00     0.033 A 
ATOM      6  C6  UNL d   1      -0.646  -2.045  -5.199  0.00  0.00    -0.057 A 
ENDROOT
BRANCH   1   7
ATOM      7  N   UNL d   1      -1.857  -4.109  -5.446  0.00  0.00    -0.732 N 
ATOM      8  C   UNL d   1      -1.733  -5.514  -5.124  0.00  0.00     0.284 C 
ATOM      9  H3  UNL d   1      -2.773  -3.842  -5.799  0.00  0.00     0.395 HD
ENDBRANCH   1   7
TORSDOF 1
ENDMDL
