MODEL 1
REMARK minimizedAffinity 6.88834953
REMARK minimizedRMSD -1
REMARK  1 active torsions:
REMARK  status: ('A' for Active; 'I' for Inactive)
REMARK    1  A    between atoms: N_2  and  C1_3 
ROOT
ATOM      1  C1  UNL d   1      -0.764  -1.593  -2.702  0.00  0.00     0.143 A 
ATOM      2  C2  UNL d   1      -1.032  -1.604  -1.329  0.00  0.00    -0.057 A 
ATOM      3  C3  UNL d   1      -1.709  -2.674  -0.730  0.00  0.00     0.033 A 
ATOM      4  C4  UNL d   1      -2.156  -3.741  -1.502  0.00  0.00    -0.042 A 
ATOM      5  C5  UNL d   1      -1.923  -3.740  -2.872  0.00  0.00     0.033 A 
ATOM      6  C6  UNL d   1      -1.241  -2.672  -3.463  0.00  0.00    -0.057 A 
ENDROOT
BRANCH   1   7
ATOM      7  N   UNL d   1      -0.183  -0.514  -3.372  0.00  0.00    -0.732 N 
ATOM      8  C   UNL d   1       0.542  -0.717  -4.608  0.00  0.00     0.284 C 
ATOM      9  H3  UNL d   1      -0.779   0.311  -3.371  0.00  0.00     0.395 HD
ENDBRANCH   1   7
TORSDOF 1
ENDMDL
