MODEL 1
REMARK minimizedAffinity 4.67199755
REMARK minimizedRMSD -1
REMARK  1 active torsions:
REMARK  status: ('A' for Active; 'I' for Inactive)
REMARK    1  A    between atoms: N_2  and  C1_3 
ROOT
ATOM      1  C1  UNL d   1      -0.096  -1.337  -3.100  0.00  0.00     0.143 A 
ATOM      2  C2  UNL d   1       0.171   0.023  -3.290  0.00  0.00    -0.057 A 
ATOM      3  C3  UNL d   1       1.031   0.460  -4.304  0.00  0.00     0.033 A 
ATOM      4  C4  UNL d   1       1.666  -0.462  -5.131  0.00  0.00    -0.042 A 
ATOM      5  C5  UNL d   1       1.435  -1.820  -4.944  0.00  0.00     0.033 A 
ATOM      6  C6  UNL d   1       0.570  -2.250  -3.934  0.00  0.00    -0.057 A 
ENDROOT
BRANCH   1   7
ATOM      7  N   UNL d   1      -0.864  -1.839  -2.047  0.00  0.00    -0.732 N 
ATOM      8  C   UNL d   1      -1.677  -3.023  -2.227  0.00  0.00     0.284 C 
ATOM      9  H3  UNL d   1      -0.374  -1.803  -1.156  0.00  0.00     0.395 HD
ENDBRANCH   1   7
TORSDOF 1
ENDMDL
