MODEL 1
REMARK minimizedAffinity 8.34811687
REMARK minimizedRMSD -1
REMARK  1 active torsions:
REMARK  status: ('A' for Active; 'I' for Inactive)
REMARK    1  A    between atoms: N_2  and  C1_3 
ROOT
ATOM      1  C1  UNL d   1       1.915  -1.440  -3.136  0.00  0.00     0.143 A 
ATOM      2  C2  UNL d   1       1.615  -2.075  -1.926  0.00  0.00    -0.057 A 
ATOM      3  C3  UNL d   1       0.295  -2.182  -1.470  0.00  0.00     0.033 A 
ATOM      4  C4  UNL d   1      -0.748  -1.628  -2.205  0.00  0.00    -0.042 A 
ATOM      5  C5  UNL d   1      -0.470  -0.970  -3.398  0.00  0.00     0.033 A 
ATOM      6  C6  UNL d   1       0.849  -0.873  -3.851  0.00  0.00    -0.057 A 
ENDROOT
BRANCH   1   7
ATOM      7  N   UNL d   1       3.215  -1.215  -3.595  0.00  0.00    -0.732 N 
ATOM      8  C   UNL d   1       3.666   0.125  -3.906  0.00  0.00     0.284 C 
ATOM      9  H3  UNL d   1       3.904  -1.781  -3.104  0.00  0.00     0.395 HD
ENDBRANCH   1   7
TORSDOF 1
ENDMDL
