MODEL 1
REMARK minimizedAffinity 4.97151709
REMARK minimizedRMSD -1
REMARK  1 active torsions:
REMARK  status: ('A' for Active; 'I' for Inactive)
REMARK    1  A    between atoms: N_2  and  C1_3 
ROOT
ATOM      1  C1  UNL d   1       4.005  -2.790   5.086  0.00  0.00     0.143 A 
ATOM      2  C2  UNL d   1       4.436  -1.473   4.889  0.00  0.00    -0.057 A 
ATOM      3  C3  UNL d   1       3.729  -0.595   4.059  0.00  0.00     0.033 A 
ATOM      4  C4  UNL d   1       2.591  -1.027   3.387  0.00  0.00    -0.042 A 
ATOM      5  C5  UNL d   1       2.158  -2.339   3.549  0.00  0.00     0.033 A 
ATOM      6  C6  UNL d   1       2.865  -3.209   4.384  0.00  0.00    -0.057 A 
ENDROOT
BRANCH   1   7
ATOM      7  N   UNL d   1       4.719  -3.740   5.820  0.00  0.00    -0.732 N 
ATOM      8  C   UNL d   1       5.812  -4.471   5.215  0.00  0.00     0.284 C 
ATOM      9  H3  UNL d   1       4.900  -3.438   6.775  0.00  0.00     0.395 HD
ENDBRANCH   1   7
TORSDOF 1
ENDMDL
