MODEL 1
REMARK minimizedAffinity 9.21294117
REMARK minimizedRMSD -1
REMARK  1 active torsions:
REMARK  status: ('A' for Active; 'I' for Inactive)
REMARK    1  A    between atoms: N_2  and  C1_3 
ROOT
ATOM      1  C1  UNL d   1      -0.090  -1.213   0.355  0.00  0.00     0.143 A 
ATOM      2  C2  UNL d   1      -0.371   0.037   0.917  0.00  0.00    -0.057 A 
ATOM      3  C3  UNL d   1       0.299   0.485   2.062  0.00  0.00     0.033 A 
ATOM      4  C4  UNL d   1       1.245  -0.324   2.683  0.00  0.00    -0.042 A 
ATOM      5  C5  UNL d   1       1.522  -1.580   2.156  0.00  0.00     0.033 A 
ATOM      6  C6  UNL d   1       0.854  -2.019   1.009  0.00  0.00    -0.057 A 
ENDROOT
BRANCH   1   7
ATOM      7  N   UNL d   1      -0.792  -1.755  -0.724  0.00  0.00    -0.732 N 
ATOM      8  C   UNL d   1      -0.684  -1.170  -2.044  0.00  0.00     0.284 C 
ATOM      9  H3  UNL d   1      -0.787  -2.773  -0.719  0.00  0.00     0.395 HD
ENDBRANCH   1   7
TORSDOF 1
ENDMDL
