MODEL 1
REMARK minimizedAffinity 7.94388199
REMARK minimizedRMSD -1
REMARK  1 active torsions:
REMARK  status: ('A' for Active; 'I' for Inactive)
REMARK    1  A    between atoms: N_2  and  C1_3 
ROOT
ATOM      1  C1  UNL d   1      -1.981  -3.931  -3.525  0.00  0.00     0.143 A 
ATOM      2  C2  UNL d   1      -1.797  -3.250  -4.733  0.00  0.00    -0.057 A 
ATOM      3  C3  UNL d   1      -1.844  -3.922  -5.961  0.00  0.00     0.033 A 
ATOM      4  C4  UNL d   1      -2.049  -5.298  -6.000  0.00  0.00    -0.042 A 
ATOM      5  C5  UNL d   1      -2.210  -5.999  -4.810  0.00  0.00     0.033 A 
ATOM      6  C6  UNL d   1      -2.168  -5.321  -3.588  0.00  0.00    -0.057 A 
ENDROOT
BRANCH   1   7
ATOM      7  N   UNL d   1      -1.848  -3.336  -2.268  0.00  0.00    -0.732 N 
ATOM      8  C   UNL d   1      -2.658  -2.194  -1.904  0.00  0.00     0.284 C 
ATOM      9  H3  UNL d   1      -1.735  -4.021  -1.524  0.00  0.00     0.395 HD
ENDBRANCH   1   7
TORSDOF 1
ENDMDL
