MODEL 1
REMARK minimizedAffinity 1.0252322
REMARK minimizedRMSD -1
REMARK  0 active torsions:
REMARK  status: ('A' for Active; 'I' for Inactive)
ROOT
ATOM      1  C   UNL d   1      -0.627   0.802   2.596  0.00  0.00    -0.002 A 
ATOM      2  C1  UNL d   1       0.716   0.690   2.263  0.00  0.00     0.010 A 
ATOM      3  C2  UNL d   1       1.099   0.264   0.990  0.00  0.00     0.041 A 
ATOM      4  C3  UNL d   1       0.101  -0.049   0.047  0.00  0.00    -0.075 A 
ATOM      5  S   UNL d   1       0.335  -0.590  -1.573  0.00  0.00     0.015 SA
ATOM      6  C4  UNL d   1      -1.342  -0.685  -1.863  0.00  0.00     0.022 A 
ATOM      7  C5  UNL d   1      -2.077  -0.316  -0.761  0.00  0.00     0.026 A 
ATOM      8  C6  UNL d   1      -1.258   0.056   0.357  0.00  0.00    -0.082 A 
ATOM      9  C7  UNL d   1      -1.614   0.490   1.657  0.00  0.00     0.045 A 
ENDROOT
TORSDOF 0
ENDMDL
