MODEL 1
REMARK minimizedAffinity -0.481360555
REMARK minimizedRMSD -1
REMARK  0 active torsions:
REMARK  status: ('A' for Active; 'I' for Inactive)
ROOT
ATOM      1  C   UNL d   1       1.878   0.222  -3.690  0.00  0.00    -0.002 A 
ATOM      2  C1  UNL d   1       0.524   0.065  -3.949  0.00  0.00     0.010 A 
ATOM      3  C2  UNL d   1      -0.381  -0.131  -2.903  0.00  0.00     0.041 A 
ATOM      4  C3  UNL d   1       0.102  -0.164  -1.581  0.00  0.00    -0.075 A 
ATOM      5  S   UNL d   1      -0.821  -0.390  -0.142  0.00  0.00     0.015 SA
ATOM      6  C4  UNL d   1       0.561  -0.282   0.850  0.00  0.00     0.022 A 
ATOM      7  C5  UNL d   1       1.707  -0.079   0.119  0.00  0.00     0.026 A 
ATOM      8  C6  UNL d   1       1.461  -0.007  -1.295  0.00  0.00    -0.082 A 
ATOM      9  C7  UNL d   1       2.354   0.188  -2.376  0.00  0.00     0.045 A 
ENDROOT
TORSDOF 0
ENDMDL
