MODEL 1
REMARK minimizedAffinity -0.797917366
REMARK minimizedRMSD -1
REMARK  0 active torsions:
REMARK  status: ('A' for Active; 'I' for Inactive)
ROOT
ATOM      1  C   UNL d   1      -0.030   1.945   2.389  0.00  0.00    -0.002 A 
ATOM      2  C1  UNL d   1       1.020   1.831   1.489  0.00  0.00     0.010 A 
ATOM      3  C2  UNL d   1       0.903   1.018   0.360  0.00  0.00     0.041 A 
ATOM      4  C3  UNL d   1      -0.300   0.316   0.148  0.00  0.00    -0.075 A 
ATOM      5  S   UNL d   1      -0.671  -0.738  -1.166  0.00  0.00     0.015 SA
ATOM      6  C4  UNL d   1      -2.232  -1.061  -0.564  0.00  0.00     0.022 A 
ATOM      7  C5  UNL d   1      -2.481  -0.390   0.610  0.00  0.00     0.026 A 
ATOM      8  C6  UNL d   1      -1.372   0.415   1.039  0.00  0.00    -0.082 A 
ATOM      9  C7  UNL d   1      -1.222   1.247   2.175  0.00  0.00     0.045 A 
ENDROOT
TORSDOF 0
ENDMDL
