MODEL 1
REMARK minimizedAffinity 11.9674721
REMARK minimizedRMSD -1
REMARK  0 active torsions:
REMARK  status: ('A' for Active; 'I' for Inactive)
ROOT
ATOM      1  C   UNL d   1       3.389   0.466  -4.141  0.00  0.00    -0.002 A 
ATOM      2  C1  UNL d   1       2.034   0.719  -3.985  0.00  0.00     0.010 A 
ATOM      3  C2  UNL d   1       1.331   0.184  -2.903  0.00  0.00     0.041 A 
ATOM      4  C3  UNL d   1       2.021  -0.616  -1.971  0.00  0.00    -0.075 A 
ATOM      5  S   UNL d   1       1.367  -1.376  -0.568  0.00  0.00     0.015 SA
ATOM      6  C4  UNL d   1       2.872  -2.054  -0.143  0.00  0.00     0.022 A 
ATOM      7  C5  UNL d   1       3.860  -1.719  -1.038  0.00  0.00     0.026 A 
ATOM      8  C6  UNL d   1       3.386  -0.884  -2.106  0.00  0.00    -0.082 A 
ATOM      9  C7  UNL d   1       4.070  -0.328  -3.214  0.00  0.00     0.045 A 
ENDROOT
TORSDOF 0
ENDMDL
