MODEL 1
REMARK minimizedAffinity 10.4739351
REMARK minimizedRMSD -1
REMARK  0 active torsions:
REMARK  status: ('A' for Active; 'I' for Inactive)
ROOT
ATOM      1  C   UNL d   1      -3.234  -1.618   2.874  0.00  0.00    -0.002 A 
ATOM      2  C1  UNL d   1      -2.944  -1.489   1.524  0.00  0.00     0.010 A 
ATOM      3  C2  UNL d   1      -2.068  -0.497   1.077  0.00  0.00     0.041 A 
ATOM      4  C3  UNL d   1      -1.482   0.370   2.021  0.00  0.00    -0.075 A 
ATOM      5  S   UNL d   1      -0.379   1.657   1.705  0.00  0.00     0.015 SA
ATOM      6  C4  UNL d   1      -0.267   2.065   3.356  0.00  0.00     0.022 A 
ATOM      7  C5  UNL d   1      -1.046   1.250   4.143  0.00  0.00     0.026 A 
ATOM      8  C6  UNL d   1      -1.758   0.259   3.386  0.00  0.00    -0.082 A 
ATOM      9  C7  UNL d   1      -2.651  -0.756   3.807  0.00  0.00     0.045 A 
ENDROOT
TORSDOF 0
ENDMDL
