MODEL 1
REMARK minimizedAffinity 7.28937292
REMARK minimizedRMSD -1
REMARK  0 active torsions:
REMARK  status: ('A' for Active; 'I' for Inactive)
ROOT
ATOM      1  C   UNL d   1       5.900  -1.889  -4.719  0.00  0.00    -0.002 A 
ATOM      2  C1  UNL d   1       6.000  -2.079  -3.348  0.00  0.00     0.010 A 
ATOM      3  C2  UNL d   1       5.072  -1.497  -2.481  0.00  0.00     0.041 A 
ATOM      4  C3  UNL d   1       4.032  -0.715  -3.020  0.00  0.00    -0.075 A 
ATOM      5  S   UNL d   1       2.782   0.094  -2.152  0.00  0.00     0.015 SA
ATOM      6  C4  UNL d   1       2.086   0.710  -3.580  0.00  0.00     0.022 A 
ATOM      7  C5  UNL d   1       2.778   0.319  -4.702  0.00  0.00     0.026 A 
ATOM      8  C6  UNL d   1       3.911  -0.510  -4.398  0.00  0.00    -0.082 A 
ATOM      9  C7  UNL d   1       4.867  -1.112  -5.250  0.00  0.00     0.045 A 
ENDROOT
TORSDOF 0
ENDMDL
