MODEL 1
REMARK minimizedAffinity 18.4951992
REMARK minimizedRMSD -1
REMARK  0 active torsions:
REMARK  status: ('A' for Active; 'I' for Inactive)
ROOT
ATOM      1  N1  IND d   1       2.854  -0.785  -0.405  0.00  0.00    -0.196 N 
ATOM      2  C2  IND d   1       2.184  -0.155  -1.416  0.00  0.00     0.054 A 
ATOM      3  C3  IND d   1       2.145   1.178  -1.196  0.00  0.00    -0.031 A 
ATOM      4  C4  IND d   1       3.204   2.554   0.705  0.00  0.00     0.051 A 
ATOM      5  C5  IND d   1       3.884   2.418   1.883  0.00  0.00    -0.031 A 
ATOM      6  C6  IND d   1       4.266   1.184   2.366  0.00  0.00     0.015 A 
ATOM      7  C7  IND d   1       3.991   0.034   1.681  0.00  0.00    -0.016 A 
ATOM      8  C8  IND d   1       3.294   0.167   0.489  0.00  0.00    -0.047 A 
ATOM      9  C9  IND d   1       2.866   1.414   0.014  0.00  0.00    -0.096 A 
ATOM     10  HN1 IND d   1       2.981  -1.633  -0.338  0.00  0.00     0.298 HD
ENDROOT
TORSDOF 0
ENDMDL
