MODEL 1
REMARK minimizedAffinity 15.5303764
REMARK minimizedRMSD -1
REMARK  0 active torsions:
REMARK  status: ('A' for Active; 'I' for Inactive)
ROOT
ATOM      1  N1  IND d   1      -0.029  -4.807  -0.910  0.00  0.00    -0.196 N 
ATOM      2  C2  IND d   1      -0.082  -4.569   0.435  0.00  0.00     0.054 A 
ATOM      3  C3  IND d   1      -0.456  -3.291   0.672  0.00  0.00    -0.031 A 
ATOM      4  C4  IND d   1      -1.128  -1.447  -0.993  0.00  0.00     0.051 A 
ATOM      5  C5  IND d   1      -1.201  -1.179  -2.332  0.00  0.00    -0.031 A 
ATOM      6  C6  IND d   1      -0.883  -2.126  -3.284  0.00  0.00     0.015 A 
ATOM      7  C7  IND d   1      -0.490  -3.386  -2.931  0.00  0.00    -0.016 A 
ATOM      8  C8  IND d   1      -0.408  -3.660  -1.573  0.00  0.00    -0.047 A 
ATOM      9  C9  IND d   1      -0.688  -2.690  -0.602  0.00  0.00    -0.096 A 
ATOM     10  HN1 IND d   1       0.202  -5.548  -1.280  0.00  0.00     0.298 HD
ENDROOT
TORSDOF 0
ENDMDL
