MODEL 1
REMARK minimizedAffinity 22.3437519
REMARK minimizedRMSD -1
REMARK  0 active torsions:
REMARK  status: ('A' for Active; 'I' for Inactive)
ROOT
ATOM      1  N1  IND d   1       1.628  -0.598  -3.337  0.00  0.00    -0.196 N 
ATOM      2  C2  IND d   1       2.368   0.315  -2.640  0.00  0.00     0.054 A 
ATOM      3  C3  IND d   1       1.739   0.652  -1.491  0.00  0.00    -0.031 A 
ATOM      4  C4  IND d   1      -0.464  -0.247  -0.509  0.00  0.00     0.051 A 
ATOM      5  C5  IND d   1      -1.517  -1.068  -0.799  0.00  0.00    -0.031 A 
ATOM      6  C6  IND d   1      -1.576  -1.791  -1.973  0.00  0.00     0.015 A 
ATOM      7  C7  IND d   1      -0.574  -1.728  -2.899  0.00  0.00    -0.016 A 
ATOM      8  C8  IND d   1       0.494  -0.890  -2.611  0.00  0.00    -0.047 A 
ATOM      9  C9  IND d   1       0.539  -0.122  -1.440  0.00  0.00    -0.096 A 
ATOM     10  HN1 IND d   1       1.835  -0.933  -4.101  0.00  0.00     0.298 HD
ENDROOT
TORSDOF 0
ENDMDL
