MODEL 1
REMARK minimizedAffinity 5.82152891
REMARK minimizedRMSD -1
REMARK  0 active torsions:
REMARK  status: ('A' for Active; 'I' for Inactive)
ROOT
ATOM      1  N1  IND d   1      -4.934   6.000  -1.938  0.00  0.00    -0.196 N 
ATOM      2  C2  IND d   1      -4.049   5.175  -2.573  0.00  0.00     0.054 A 
ATOM      3  C3  IND d   1      -3.684   4.159  -1.758  0.00  0.00    -0.031 A 
ATOM      4  C4  IND d   1      -4.495   3.599   0.620  0.00  0.00     0.051 A 
ATOM      5  C5  IND d   1      -5.275   4.081   1.633  0.00  0.00    -0.031 A 
ATOM      6  C6  IND d   1      -5.998   5.249   1.505  0.00  0.00     0.015 A 
ATOM      7  C7  IND d   1      -5.977   5.976   0.349  0.00  0.00    -0.016 A 
ATOM      8  C8  IND d   1      -5.180   5.494  -0.680  0.00  0.00    -0.047 A 
ATOM      9  C9  IND d   1      -4.411   4.332  -0.541  0.00  0.00    -0.096 A 
ATOM     10  HN1 IND d   1      -5.279   6.715  -2.268  0.00  0.00     0.298 HD
ENDROOT
TORSDOF 0
ENDMDL
