MODEL 1
REMARK minimizedAffinity 23.0896912
REMARK minimizedRMSD -1
REMARK  0 active torsions:
REMARK  status: ('A' for Active; 'I' for Inactive)
ROOT
ATOM      1  N1  IND d   1      -2.593   2.132  -4.275  0.00  0.00    -0.196 N 
ATOM      2  C2  IND d   1      -1.588   2.908  -4.783  0.00  0.00     0.054 A 
ATOM      3  C3  IND d   1      -0.420   2.226  -4.779  0.00  0.00    -0.031 A 
ATOM      4  C4  IND d   1       0.052  -0.206  -4.080  0.00  0.00     0.051 A 
ATOM      5  C5  IND d   1      -0.544  -1.300  -3.517  0.00  0.00    -0.031 A 
ATOM      6  C6  IND d   1      -1.880  -1.306  -3.173  0.00  0.00     0.015 A 
ATOM      7  C7  IND d   1      -2.677  -0.218  -3.392  0.00  0.00    -0.016 A 
ATOM      8  C8  IND d   1      -2.074   0.896  -3.957  0.00  0.00    -0.047 A 
ATOM      9  C9  IND d   1      -0.709   0.924  -4.268  0.00  0.00    -0.096 A 
ATOM     10  HN1 IND d   1      -3.411   2.376  -4.172  0.00  0.00     0.298 HD
ENDROOT
TORSDOF 0
ENDMDL
