MODEL 1
REMARK minimizedAffinity 15.3576136
REMARK minimizedRMSD -1
REMARK  0 active torsions:
REMARK  status: ('A' for Active; 'I' for Inactive)
ROOT
ATOM      1  N1  IND d   1      -0.272  -4.587  -1.094  0.00  0.00    -0.196 N 
ATOM      2  C2  IND d   1      -0.259  -4.687   0.269  0.00  0.00     0.054 A 
ATOM      3  C3  IND d   1      -0.649  -3.520   0.830  0.00  0.00    -0.031 A 
ATOM      4  C4  IND d   1      -1.453  -1.351  -0.299  0.00  0.00     0.051 A 
ATOM      5  C5  IND d   1      -1.604  -0.766  -1.525  0.00  0.00    -0.031 A 
ATOM      6  C6  IND d   1      -1.316  -1.441  -2.694  0.00  0.00     0.015 A 
ATOM      7  C7  IND d   1      -0.874  -2.734  -2.681  0.00  0.00    -0.016 A 
ATOM      8  C8  IND d   1      -0.713  -3.327  -1.437  0.00  0.00    -0.047 A 
ATOM      9  C9  IND d   1      -0.963  -2.634  -0.246  0.00  0.00    -0.096 A 
ATOM     10  HN1 IND d   1      -0.044  -5.206  -1.645  0.00  0.00     0.298 HD
ENDROOT
TORSDOF 0
ENDMDL
