MODEL 1
REMARK minimizedAffinity 21.3860645
REMARK minimizedRMSD -1
REMARK  0 active torsions:
REMARK  status: ('A' for Active; 'I' for Inactive)
ROOT
ATOM      1  N1  IND d   1       4.556   4.548   0.367  0.00  0.00    -0.196 N 
ATOM      2  C2  IND d   1       5.798   4.699  -0.183  0.00  0.00     0.054 A 
ATOM      3  C3  IND d   1       6.000   3.776  -1.149  0.00  0.00    -0.031 A 
ATOM      4  C4  IND d   1       4.391   1.986  -2.063  0.00  0.00     0.051 A 
ATOM      5  C5  IND d   1       3.156   1.439  -1.852  0.00  0.00    -0.031 A 
ATOM      6  C6  IND d   1       2.307   1.911  -0.872  0.00  0.00     0.015 A 
ATOM      7  C7  IND d   1       2.658   2.961  -0.071  0.00  0.00    -0.016 A 
ATOM      8  C8  IND d   1       3.913   3.514  -0.278  0.00  0.00    -0.047 A 
ATOM      9  C9  IND d   1       4.796   3.012  -1.242  0.00  0.00    -0.096 A 
ATOM     10  HN1 IND d   1       4.231   5.019   1.009  0.00  0.00     0.298 HD
ENDROOT
TORSDOF 0
ENDMDL
