MODEL 1
REMARK minimizedAffinity 18.8960037
REMARK minimizedRMSD -1
REMARK  0 active torsions:
REMARK  status: ('A' for Active; 'I' for Inactive)
ROOT
ATOM      1  N1  IND d   1       0.750   1.171  -0.495  0.00  0.00    -0.196 N 
ATOM      2  C2  IND d   1       1.731   1.280  -1.440  0.00  0.00     0.054 A 
ATOM      3  C3  IND d   1       1.478   0.452  -2.479  0.00  0.00    -0.031 A 
ATOM      4  C4  IND d   1      -0.541  -1.093  -2.883  0.00  0.00     0.051 A 
ATOM      5  C5  IND d   1      -1.678  -1.559  -2.284  0.00  0.00    -0.031 A 
ATOM      6  C6  IND d   1      -2.073  -1.128  -1.034  0.00  0.00     0.015 A 
ATOM      7  C7  IND d   1      -1.349  -0.202  -0.338  0.00  0.00    -0.016 A 
ATOM      8  C8  IND d   1      -0.190   0.268  -0.940  0.00  0.00    -0.047 A 
ATOM      9  C9  IND d   1       0.239  -0.198  -2.190  0.00  0.00    -0.096 A 
ATOM     10  HN1 IND d   1       0.724   1.596   0.253  0.00  0.00     0.298 HD
ENDROOT
TORSDOF 0
ENDMDL
