MODEL 1
REMARK minimizedAffinity 13.9381695
REMARK minimizedRMSD -1
REMARK  0 active torsions:
REMARK  status: ('A' for Active; 'I' for Inactive)
ROOT
ATOM      1  N1  IND d   1      -5.939   4.770  -5.999  0.00  0.00    -0.196 N 
ATOM      2  C2  IND d   1      -5.852   5.931  -5.282  0.00  0.00     0.054 A 
ATOM      3  C3  IND d   1      -4.874   5.837  -4.353  0.00  0.00    -0.031 A 
ATOM      4  C4  IND d   1      -3.226   3.913  -3.901  0.00  0.00     0.051 A 
ATOM      5  C5  IND d   1      -2.938   2.630  -4.276  0.00  0.00    -0.031 A 
ATOM      6  C6  IND d   1      -3.649   1.983  -5.266  0.00  0.00     0.015 A 
ATOM      7  C7  IND d   1      -4.671   2.602  -5.929  0.00  0.00    -0.016 A 
ATOM      8  C8  IND d   1      -4.970   3.902  -5.547  0.00  0.00    -0.047 A 
ATOM      9  C9  IND d   1      -4.280   4.548  -4.513  0.00  0.00    -0.096 A 
ATOM     10  HN1 IND d   1      -6.503   4.610  -6.628  0.00  0.00     0.298 HD
ENDROOT
TORSDOF 0
ENDMDL
