MODEL 1
REMARK minimizedAffinity 19.2658329
REMARK minimizedRMSD -1
REMARK  0 active torsions:
REMARK  status: ('A' for Active; 'I' for Inactive)
ROOT
ATOM      1  N1  IND d   1      -0.485  -4.100   0.450  0.00  0.00    -0.196 N 
ATOM      2  C2  IND d   1      -0.172  -4.293  -0.867  0.00  0.00     0.054 A 
ATOM      3  C3  IND d   1      -0.689  -3.299  -1.624  0.00  0.00    -0.031 A 
ATOM      4  C4  IND d   1      -1.994  -1.202  -0.900  0.00  0.00     0.051 A 
ATOM      5  C5  IND d   1      -2.555  -0.606   0.195  0.00  0.00    -0.031 A 
ATOM      6  C6  IND d   1      -2.450  -1.155   1.457  0.00  0.00     0.015 A 
ATOM      7  C7  IND d   1      -1.767  -2.318   1.673  0.00  0.00    -0.016 A 
ATOM      8  C8  IND d   1      -1.203  -2.929   0.563  0.00  0.00    -0.047 A 
ATOM      9  C9  IND d   1      -1.342  -2.400  -0.727  0.00  0.00    -0.096 A 
ATOM     10  HN1 IND d   1      -0.270  -4.622   1.099  0.00  0.00     0.298 HD
ENDROOT
TORSDOF 0
ENDMDL
