MODEL 1
REMARK minimizedAffinity 16.6917648
REMARK minimizedRMSD -1
REMARK  0 active torsions:
REMARK  status: ('A' for Active; 'I' for Inactive)
ROOT
ATOM      1  N1  IND d   1      -2.699   2.993  -4.441  0.00  0.00    -0.196 N 
ATOM      2  C2  IND d   1      -3.016   1.931  -5.241  0.00  0.00     0.054 A 
ATOM      3  C3  IND d   1      -4.145   2.187  -5.938  0.00  0.00    -0.031 A 
ATOM      4  C4  IND d   1      -5.580   4.323  -6.000  0.00  0.00     0.051 A 
ATOM      5  C5  IND d   1      -5.711   5.550  -5.413  0.00  0.00    -0.031 A 
ATOM      6  C6  IND d   1      -4.825   5.998  -4.455  0.00  0.00     0.015 A 
ATOM      7  C7  IND d   1      -3.763   5.237  -4.055  0.00  0.00    -0.016 A 
ATOM      8  C8  IND d   1      -3.632   3.987  -4.643  0.00  0.00    -0.047 A 
ATOM      9  C9  IND d   1      -4.552   3.509  -5.585  0.00  0.00    -0.096 A 
ATOM     10  HN1 IND d   1      -2.030   3.035  -3.903  0.00  0.00     0.298 HD
ENDROOT
TORSDOF 0
ENDMDL
