MODEL 1
REMARK minimizedAffinity 8.42340469
REMARK minimizedRMSD -1
REMARK  0 active torsions:
REMARK  status: ('A' for Active; 'I' for Inactive)
ROOT
ATOM      1  N1  IND d   1      -5.999   4.820  -5.999  0.00  0.00    -0.196 N 
ATOM      2  C2  IND d   1      -5.908   6.000  -5.315  0.00  0.00     0.054 A 
ATOM      3  C3  IND d   1      -4.865   5.967  -4.456  0.00  0.00    -0.031 A 
ATOM      4  C4  IND d   1      -3.112   4.119  -4.082  0.00  0.00     0.051 A 
ATOM      5  C5  IND d   1      -2.800   2.840  -4.448  0.00  0.00    -0.031 A 
ATOM      6  C6  IND d   1      -3.552   2.142  -5.371  0.00  0.00     0.015 A 
ATOM      7  C7  IND d   1      -4.642   2.704  -5.973  0.00  0.00    -0.016 A 
ATOM      8  C8  IND d   1      -4.966   4.001  -5.598  0.00  0.00    -0.047 A 
ATOM      9  C9  IND d   1      -4.232   4.698  -4.631  0.00  0.00    -0.096 A 
ATOM     10  HN1 IND d   1      -6.599   4.622  -6.582  0.00  0.00     0.298 HD
ENDROOT
TORSDOF 0
ENDMDL
