MODEL 1
REMARK minimizedAffinity 8.08928967
REMARK minimizedRMSD -1
REMARK  0 active torsions:
REMARK  status: ('A' for Active; 'I' for Inactive)
ROOT
ATOM      1  N1  IND d   1      -2.850  -0.952  -1.414  0.00  0.00    -0.196 N 
ATOM      2  C2  IND d   1      -2.156  -1.265  -2.550  0.00  0.00     0.054 A 
ATOM      3  C3  IND d   1      -1.078  -2.022  -2.249  0.00  0.00    -0.031 A 
ATOM      4  C4  IND d   1      -0.316  -2.952   0.028  0.00  0.00     0.051 A 
ATOM      5  C5  IND d   1      -0.608  -2.906   1.363  0.00  0.00    -0.031 A 
ATOM      6  C6  IND d   1      -1.685  -2.194   1.849  0.00  0.00     0.015 A 
ATOM      7  C7  IND d   1      -2.521  -1.508   1.014  0.00  0.00    -0.016 A 
ATOM      8  C8  IND d   1      -2.224  -1.547  -0.340  0.00  0.00    -0.047 A 
ATOM      9  C9  IND d   1      -1.107  -2.232  -0.836  0.00  0.00    -0.096 A 
ATOM     10  HN1 IND d   1      -3.558  -0.466  -1.376  0.00  0.00     0.298 HD
ENDROOT
TORSDOF 0
ENDMDL
