MODEL 1
REMARK minimizedAffinity 17.7738667
REMARK minimizedRMSD -1
REMARK  0 active torsions:
REMARK  status: ('A' for Active; 'I' for Inactive)
ROOT
ATOM      1  N1  IND d   1      -2.912  -1.287   2.536  0.00  0.00    -0.196 N 
ATOM      2  C2  IND d   1      -2.814  -2.195   3.554  0.00  0.00     0.054 A 
ATOM      3  C3  IND d   1      -2.030  -3.232   3.185  0.00  0.00    -0.031 A 
ATOM      4  C4  IND d   1      -0.724  -3.598   0.997  0.00  0.00     0.051 A 
ATOM      5  C5  IND d   1      -0.530  -3.060  -0.245  0.00  0.00    -0.031 A 
ATOM      6  C6  IND d   1      -1.130  -1.879  -0.629  0.00  0.00     0.015 A 
ATOM      7  C7  IND d   1      -1.941  -1.182   0.221  0.00  0.00    -0.016 A 
ATOM      8  C8  IND d   1      -2.146  -1.729   1.480  0.00  0.00    -0.047 A 
ATOM      9  C9  IND d   1      -1.574  -2.949   1.861  0.00  0.00    -0.096 A 
ATOM     10  HN1 IND d   1      -3.375  -0.563   2.553  0.00  0.00     0.298 HD
ENDROOT
TORSDOF 0
ENDMDL
