MODEL 1
REMARK minimizedAffinity 18.776825
REMARK minimizedRMSD -1
REMARK  0 active torsions:
REMARK  status: ('A' for Active; 'I' for Inactive)
ROOT
ATOM      1  N1  IND d   1       0.432  -0.800  -3.677  0.00  0.00    -0.196 N 
ATOM      2  C2  IND d   1      -0.083  -1.909  -3.066  0.00  0.00     0.054 A 
ATOM      3  C3  IND d   1      -1.423  -1.790  -2.928  0.00  0.00    -0.031 A 
ATOM      4  C4  IND d   1      -2.988   0.093  -3.722  0.00  0.00     0.051 A 
ATOM      5  C5  IND d   1      -2.976   1.333  -4.297  0.00  0.00    -0.031 A 
ATOM      6  C6  IND d   1      -1.804   1.936  -4.705  0.00  0.00     0.015 A 
ATOM      7  C7  IND d   1      -0.596   1.314  -4.563  0.00  0.00    -0.016 A 
ATOM      8  C8  IND d   1      -0.603   0.058  -3.974  0.00  0.00    -0.047 A 
ATOM      9  C9  IND d   1      -1.785  -0.541  -3.518  0.00  0.00    -0.096 A 
ATOM     10  HN1 IND d   1       1.264  -0.662  -3.847  0.00  0.00     0.298 HD
ENDROOT
TORSDOF 0
ENDMDL
