MODEL 1
REMARK minimizedAffinity 8.06728649
REMARK minimizedRMSD -1
REMARK  0 active torsions:
REMARK  status: ('A' for Active; 'I' for Inactive)
ROOT
ATOM      1  N1  IND d   1      -4.913   2.216  -5.999  0.00  0.00    -0.196 N 
ATOM      2  C2  IND d   1      -3.822   1.692  -5.364  0.00  0.00     0.054 A 
ATOM      3  C3  IND d   1      -3.236   2.630  -4.585  0.00  0.00    -0.031 A 
ATOM      4  C4  IND d   1      -3.958   5.057  -4.124  0.00  0.00     0.051 A 
ATOM      5  C5  IND d   1      -4.872   6.000  -4.504  0.00  0.00    -0.031 A 
ATOM      6  C6  IND d   1      -5.868   5.723  -5.418  0.00  0.00     0.015 A 
ATOM      7  C7  IND d   1      -5.995   4.484  -5.980  0.00  0.00    -0.016 A 
ATOM      8  C8  IND d   1      -5.065   3.527  -5.602  0.00  0.00    -0.047 A 
ATOM      9  C9  IND d   1      -4.026   3.814  -4.707  0.00  0.00    -0.096 A 
ATOM     10  HN1 IND d   1      -5.420   1.798  -6.553  0.00  0.00     0.298 HD
ENDROOT
TORSDOF 0
ENDMDL
