MODEL 1
REMARK minimizedAffinity -3.89074016
REMARK minimizedRMSD -1
REMARK  1 active torsions:
REMARK  status: ('A' for Active; 'I' for Inactive)
REMARK    1  A    between atoms: C1_2  and  C2_3 
ROOT
ATOM      1  C2  UNL d   1      -0.024  -0.322   0.267  0.00  0.00    -0.077 A 
ATOM      2  C3  UNL d   1      -1.350  -0.525   0.671  0.00  0.00     0.002 A 
ATOM      3  C4  UNL d   1      -1.673  -0.591   2.028  0.00  0.00     0.002 A 
ATOM      4  C5  UNL d   1      -0.675  -0.451   2.991  0.00  0.00    -0.004 A 
ATOM      5  C6  UNL d   1       0.647  -0.251   2.598  0.00  0.00     0.002 A 
ATOM      6  C7  UNL d   1       0.972  -0.186   1.243  0.00  0.00     0.002 A 
ENDROOT
BRANCH   1   7
ATOM      7  C1  UNL d   1       0.319  -0.201  -1.195  0.00  0.00     0.055 C 
ATOM      8  C   UNL d   1       0.634  -1.560  -1.804  0.00  0.00     0.019 C 
ENDBRANCH   1   7
TORSDOF 1
ENDMDL
