MODEL 1
REMARK minimizedAffinity -4.34162331
REMARK minimizedRMSD -1
REMARK  1 active torsions:
REMARK  status: ('A' for Active; 'I' for Inactive)
REMARK    1  A    between atoms: C1_2  and  C2_3 
ROOT
ATOM      1  C2  UNL d   1       0.029   0.200   0.157  0.00  0.00    -0.077 A 
ATOM      2  C3  UNL d   1       0.746   0.722   1.242  0.00  0.00     0.002 A 
ATOM      3  C4  UNL d   1       0.447   0.321   2.545  0.00  0.00     0.002 A 
ATOM      4  C5  UNL d   1      -0.567  -0.608   2.775  0.00  0.00    -0.004 A 
ATOM      5  C6  UNL d   1      -1.287  -1.132   1.702  0.00  0.00     0.002 A 
ATOM      6  C7  UNL d   1      -0.990  -0.730   0.399  0.00  0.00     0.002 A 
ENDROOT
BRANCH   1   7
ATOM      7  C1  UNL d   1       0.383   0.595  -1.253  0.00  0.00     0.055 C 
ATOM      8  C   UNL d   1       0.325  -0.601  -2.194  0.00  0.00     0.019 C 
ENDBRANCH   1   7
TORSDOF 1
ENDMDL
