MODEL 1
REMARK minimizedAffinity -3.94271588
REMARK minimizedRMSD -1
REMARK  1 active torsions:
REMARK  status: ('A' for Active; 'I' for Inactive)
REMARK    1  A    between atoms: C1_2  and  C2_3 
ROOT
ATOM      1  C2  UNL d   1      -0.907  -0.621   0.798  0.00  0.00    -0.077 A 
ATOM      2  C3  UNL d   1       0.307  -0.416   0.128  0.00  0.00     0.002 A 
ATOM      3  C4  UNL d   1       0.324   0.172  -1.138  0.00  0.00     0.002 A 
ATOM      4  C5  UNL d   1      -0.869   0.562  -1.743  0.00  0.00    -0.004 A 
ATOM      5  C6  UNL d   1      -2.082   0.360  -1.086  0.00  0.00     0.002 A 
ATOM      6  C7  UNL d   1      -2.101  -0.229   0.179  0.00  0.00     0.002 A 
ENDROOT
BRANCH   1   7
ATOM      7  C1  UNL d   1      -0.924  -1.210   2.185  0.00  0.00     0.055 C 
ATOM      8  C   UNL d   1      -0.491  -0.187   3.225  0.00  0.00     0.019 C 
ENDBRANCH   1   7
TORSDOF 1
ENDMDL
