MODEL 1
REMARK minimizedAffinity -1.94979978
REMARK minimizedRMSD -1
REMARK  1 active torsions:
REMARK  status: ('A' for Active; 'I' for Inactive)
REMARK    1  A    between atoms: C1_2  and  C2_3 
ROOT
ATOM      1  C2  UNL d   1       0.366  -0.249  -0.165  0.00  0.00    -0.077 A 
ATOM      2  C3  UNL d   1       0.848   0.194   1.074  0.00  0.00     0.002 A 
ATOM      3  C4  UNL d   1       0.045   0.115   2.214  0.00  0.00     0.002 A 
ATOM      4  C5  UNL d   1      -1.242  -0.411   2.126  0.00  0.00    -0.004 A 
ATOM      5  C6  UNL d   1      -1.732  -0.852   0.897  0.00  0.00     0.002 A 
ATOM      6  C7  UNL d   1      -0.931  -0.772  -0.243  0.00  0.00     0.002 A 
ENDROOT
BRANCH   1   7
ATOM      7  C1  UNL d   1       1.248  -0.210  -1.386  0.00  0.00     0.055 C 
ATOM      8  C   UNL d   1       0.677  -1.063  -2.509  0.00  0.00     0.019 C 
ENDBRANCH   1   7
TORSDOF 1
ENDMDL
