MODEL 1
REMARK minimizedAffinity -5.21241951
REMARK minimizedRMSD -1
REMARK  1 active torsions:
REMARK  status: ('A' for Active; 'I' for Inactive)
REMARK    1  A    between atoms: C1_2  and  C2_3 
ROOT
ATOM      1  C2  UNL d   1      -0.119   0.481   0.287  0.00  0.00    -0.077 A 
ATOM      2  C3  UNL d   1      -1.008  -0.083   1.213  0.00  0.00     0.002 A 
ATOM      3  C4  UNL d   1      -0.595  -0.341   2.521  0.00  0.00     0.002 A 
ATOM      4  C5  UNL d   1       0.706  -0.036   2.916  0.00  0.00    -0.004 A 
ATOM      5  C6  UNL d   1       1.598   0.524   2.002  0.00  0.00     0.002 A 
ATOM      6  C7  UNL d   1       1.187   0.782   0.693  0.00  0.00     0.002 A 
ENDROOT
BRANCH   1   7
ATOM      7  C1  UNL d   1      -0.577   0.807  -1.111  0.00  0.00     0.055 C 
ATOM      8  C   UNL d   1       0.342   0.187  -2.153  0.00  0.00     0.019 C 
ENDBRANCH   1   7
TORSDOF 1
ENDMDL
