MODEL 1
REMARK minimizedAffinity -5.43185902
REMARK minimizedRMSD -1
REMARK  1 active torsions:
REMARK  status: ('A' for Active; 'I' for Inactive)
REMARK    1  A    between atoms: C1_2  and  C2_3 
ROOT
ATOM      1  C2  UNL d   1       0.356  -0.144  -0.109  0.00  0.00    -0.077 A 
ATOM      2  C3  UNL d   1       1.225   0.383   0.857  0.00  0.00     0.002 A 
ATOM      3  C4  UNL d   1       0.926   0.266   2.216  0.00  0.00     0.002 A 
ATOM      4  C5  UNL d   1      -0.239  -0.381   2.621  0.00  0.00    -0.004 A 
ATOM      5  C6  UNL d   1      -1.111  -0.907   1.668  0.00  0.00     0.002 A 
ATOM      6  C7  UNL d   1      -0.814  -0.790   0.309  0.00  0.00     0.002 A 
ENDROOT
BRANCH   1   7
ATOM      7  C1  UNL d   1       0.702  -0.062  -1.573  0.00  0.00     0.055 C 
ATOM      8  C   UNL d   1       0.633  -1.431  -2.235  0.00  0.00     0.019 C 
ENDBRANCH   1   7
TORSDOF 1
ENDMDL
