MODEL 1
REMARK minimizedAffinity -5.35389042
REMARK minimizedRMSD -1
REMARK  1 active torsions:
REMARK  status: ('A' for Active; 'I' for Inactive)
REMARK    1  A    between atoms: C1_2  and  C2_3 
ROOT
ATOM      1  C2  UNL d   1      -0.027  -0.021  -0.559  0.00  0.00    -0.077 A 
ATOM      2  C3  UNL d   1      -1.225  -0.373   0.081  0.00  0.00     0.002 A 
ATOM      3  C4  UNL d   1      -1.249  -0.602   1.458  0.00  0.00     0.002 A 
ATOM      4  C5  UNL d   1      -0.081  -0.478   2.207  0.00  0.00    -0.004 A 
ATOM      5  C6  UNL d   1       1.115  -0.131   1.580  0.00  0.00     0.002 A 
ATOM      6  C7  UNL d   1       1.142   0.097   0.204  0.00  0.00     0.002 A 
ENDROOT
BRANCH   1   7
ATOM      7  C1  UNL d   1      -0.009   0.275  -2.036  0.00  0.00     0.055 C 
ATOM      8  C   UNL d   1       0.367  -0.959  -2.843  0.00  0.00     0.019 C 
ENDBRANCH   1   7
TORSDOF 1
ENDMDL
