MODEL 1
REMARK minimizedAffinity -4.07806587
REMARK minimizedRMSD -1
REMARK  1 active torsions:
REMARK  status: ('A' for Active; 'I' for Inactive)
REMARK    1  A    between atoms: C1_2  and  C2_3 
ROOT
ATOM      1  C2  UNL d   1       0.132   0.025  -0.139  0.00  0.00    -0.077 A 
ATOM      2  C3  UNL d   1      -1.187  -0.321   0.186  0.00  0.00     0.002 A 
ATOM      3  C4  UNL d   1      -1.558  -0.518   1.517  0.00  0.00     0.002 A 
ATOM      4  C5  UNL d   1      -0.618  -0.368   2.534  0.00  0.00    -0.004 A 
ATOM      5  C6  UNL d   1       0.697  -0.026   2.221  0.00  0.00     0.002 A 
ATOM      6  C7  UNL d   1       1.070   0.171   0.890  0.00  0.00     0.002 A 
ENDROOT
BRANCH   1   7
ATOM      7  C1  UNL d   1       0.522   0.286  -1.571  0.00  0.00     0.055 C 
ATOM      8  C   UNL d   1       0.967  -0.992  -2.265  0.00  0.00     0.019 C 
ENDBRANCH   1   7
TORSDOF 1
ENDMDL
