MODEL 1
REMARK minimizedAffinity -2.48155642
REMARK minimizedRMSD -1
REMARK  1 active torsions:
REMARK  status: ('A' for Active; 'I' for Inactive)
REMARK    1  A    between atoms: C1_2  and  C2_3 
ROOT
ATOM      1  C2  UNL d   1       0.353  -0.664  -1.793  0.00  0.00    -0.077 A 
ATOM      2  C3  UNL d   1       0.435  -2.007  -2.186  0.00  0.00     0.002 A 
ATOM      3  C4  UNL d   1       1.011  -2.351  -3.411  0.00  0.00     0.002 A 
ATOM      4  C5  UNL d   1       1.515  -1.359  -4.249  0.00  0.00    -0.004 A 
ATOM      5  C6  UNL d   1       1.436  -0.020  -3.868  0.00  0.00     0.002 A 
ATOM      6  C7  UNL d   1       0.859   0.326  -2.645  0.00  0.00     0.002 A 
ENDROOT
BRANCH   1   7
ATOM      7  C1  UNL d   1      -0.224  -0.294  -0.452  0.00  0.00     0.055 C 
ATOM      8  C   UNL d   1       0.866  -0.155   0.600  0.00  0.00     0.019 C 
ENDBRANCH   1   7
TORSDOF 1
ENDMDL
