MODEL 1
REMARK minimizedAffinity -4.99646902
REMARK minimizedRMSD -1
REMARK  1 active torsions:
REMARK  status: ('A' for Active; 'I' for Inactive)
REMARK    1  A    between atoms: C1_2  and  C2_3 
ROOT
ATOM      1  C2  UNL d   1      -0.441   0.132   0.190  0.00  0.00    -0.077 A 
ATOM      2  C3  UNL d   1      -1.513  -0.364   0.946  0.00  0.00     0.002 A 
ATOM      3  C4  UNL d   1      -1.445  -0.384   2.340  0.00  0.00     0.002 A 
ATOM      4  C5  UNL d   1      -0.309   0.094   2.990  0.00  0.00    -0.004 A 
ATOM      5  C6  UNL d   1       0.763   0.587   2.248  0.00  0.00     0.002 A 
ATOM      6  C7  UNL d   1       0.697   0.606   0.854  0.00  0.00     0.002 A 
ENDROOT
BRANCH   1   7
ATOM      7  C1  UNL d   1      -0.533   0.200  -1.312  0.00  0.00     0.055 C 
ATOM      8  C   UNL d   1       0.513  -0.687  -1.971  0.00  0.00     0.019 C 
ENDBRANCH   1   7
TORSDOF 1
ENDMDL
