MODEL 1
REMARK minimizedAffinity -1.60790765
REMARK minimizedRMSD -1
REMARK  1 active torsions:
REMARK  status: ('A' for Active; 'I' for Inactive)
REMARK    1  A    between atoms: C1_2  and  C2_3 
ROOT
ATOM      1  C2  UNL d   1       1.012   0.403   0.363  0.00  0.00    -0.077 A 
ATOM      2  C3  UNL d   1       1.199   1.787   0.485  0.00  0.00     0.002 A 
ATOM      3  C4  UNL d   1       0.622   2.487   1.547  0.00  0.00     0.002 A 
ATOM      4  C5  UNL d   1      -0.141   1.810   2.496  0.00  0.00    -0.004 A 
ATOM      5  C6  UNL d   1      -0.334   0.434   2.383  0.00  0.00     0.002 A 
ATOM      6  C7  UNL d   1       0.241  -0.267   1.322  0.00  0.00     0.002 A 
ENDROOT
BRANCH   1   7
ATOM      7  C1  UNL d   1       1.674  -0.361  -0.754  0.00  0.00     0.055 C 
ATOM      8  C   UNL d   1       3.084   0.149  -1.014  0.00  0.00     0.019 C 
ENDBRANCH   1   7
TORSDOF 1
ENDMDL
