MODEL 1
REMARK minimizedAffinity 0.552305937
REMARK minimizedRMSD -1
REMARK  1 active torsions:
REMARK  status: ('A' for Active; 'I' for Inactive)
REMARK    1  A    between atoms: C1_2  and  C2_3 
ROOT
ATOM      1  C2  UNL d   1       0.798   1.058   2.548  0.00  0.00    -0.077 A 
ATOM      2  C3  UNL d   1       1.149   2.196   1.809  0.00  0.00     0.002 A 
ATOM      3  C4  UNL d   1       1.063   2.188   0.416  0.00  0.00     0.002 A 
ATOM      4  C5  UNL d   1       0.622   1.046  -0.250  0.00  0.00    -0.004 A 
ATOM      5  C6  UNL d   1       0.273  -0.092   0.476  0.00  0.00     0.002 A 
ATOM      6  C7  UNL d   1       0.359  -0.086   1.869  0.00  0.00     0.002 A 
ENDROOT
BRANCH   1   7
ATOM      7  C1  UNL d   1       0.843   1.081   4.054  0.00  0.00     0.055 C 
ATOM      8  C   UNL d   1       2.274   1.009   4.566  0.00  0.00     0.019 C 
ENDBRANCH   1   7
TORSDOF 1
ENDMDL
