MODEL 1
REMARK minimizedAffinity -5.41428614
REMARK minimizedRMSD -1
REMARK  1 active torsions:
REMARK  status: ('A' for Active; 'I' for Inactive)
REMARK    1  A    between atoms: C1_2  and  C2_3 
ROOT
ATOM      1  C2  UNL d   1       0.417   0.029   0.653  0.00  0.00    -0.077 A 
ATOM      2  C3  UNL d   1      -0.336   0.707   1.621  0.00  0.00     0.002 A 
ATOM      3  C4  UNL d   1      -0.153   2.076   1.828  0.00  0.00     0.002 A 
ATOM      4  C5  UNL d   1       0.780   2.778   1.068  0.00  0.00    -0.004 A 
ATOM      5  C6  UNL d   1       1.536   2.112   0.104  0.00  0.00     0.002 A 
ATOM      6  C7  UNL d   1       1.355   0.744  -0.103  0.00  0.00     0.002 A 
ENDROOT
BRANCH   1   7
ATOM      7  C1  UNL d   1       0.186  -1.437   0.395  0.00  0.00     0.055 C 
ATOM      8  C   UNL d   1      -0.710  -2.052   1.460  0.00  0.00     0.019 C 
ENDBRANCH   1   7
TORSDOF 1
ENDMDL
