MODEL 1
REMARK minimizedAffinity 8.33020306
REMARK minimizedRMSD -1
REMARK  1 active torsions:
REMARK  status: ('A' for Active; 'I' for Inactive)
REMARK    1  A    between atoms: C1_2  and  C2_3 
ROOT
ATOM      1  C2  UNL d   1       0.428   2.001  -0.609  0.00  0.00    -0.077 A 
ATOM      2  C3  UNL d   1      -0.576   2.954  -0.832  0.00  0.00     0.002 A 
ATOM      3  C4  UNL d   1      -0.516   3.795  -1.945  0.00  0.00     0.002 A 
ATOM      4  C5  UNL d   1       0.543   3.689  -2.844  0.00  0.00    -0.004 A 
ATOM      5  C6  UNL d   1       1.548   2.747  -2.629  0.00  0.00     0.002 A 
ATOM      6  C7  UNL d   1       1.490   1.906  -1.517  0.00  0.00     0.002 A 
ENDROOT
BRANCH   1   7
ATOM      7  C1  UNL d   1       0.340   1.060   0.564  0.00  0.00     0.055 C 
ATOM      8  C   UNL d   1      -0.068  -0.338   0.122  0.00  0.00     0.019 C 
ENDBRANCH   1   7
TORSDOF 1
ENDMDL
