MODEL 1
REMARK minimizedAffinity -3.04475403
REMARK minimizedRMSD -1
REMARK  1 active torsions:
REMARK  status: ('A' for Active; 'I' for Inactive)
REMARK    1  A    between atoms: C1_2  and  C2_3 
ROOT
ATOM      1  C2  UNL d   1       1.859   5.371  -4.885  0.00  0.00    -0.077 A 
ATOM      2  C3  UNL d   1       2.983   5.106  -5.680  0.00  0.00     0.002 A 
ATOM      3  C4  UNL d   1       4.105   4.482  -5.131  0.00  0.00     0.002 A 
ATOM      4  C5  UNL d   1       4.112   4.114  -3.787  0.00  0.00    -0.004 A 
ATOM      5  C6  UNL d   1       2.999   4.375  -2.988  0.00  0.00     0.002 A 
ATOM      6  C7  UNL d   1       1.878   5.000  -3.535  0.00  0.00     0.002 A 
ENDROOT
BRANCH   1   7
ATOM      7  C1  UNL d   1       0.630   5.999  -5.487  0.00  0.00     0.055 C 
ATOM      8  C   UNL d   1      -0.531   6.000  -4.503  0.00  0.00     0.019 C 
ENDBRANCH   1   7
TORSDOF 1
ENDMDL
