MODEL 1
REMARK minimizedAffinity -3.55675578
REMARK minimizedRMSD -1
REMARK  1 active torsions:
REMARK  status: ('A' for Active; 'I' for Inactive)
REMARK    1  A    between atoms: C1_2  and  C2_3 
ROOT
ATOM      1  C2  UNL d   1      -1.045  -0.954   1.994  0.00  0.00    -0.077 A 
ATOM      2  C3  UNL d   1      -1.836  -0.420   3.022  0.00  0.00     0.002 A 
ATOM      3  C4  UNL d   1      -2.623  -1.257   3.815  0.00  0.00     0.002 A 
ATOM      4  C5  UNL d   1      -2.624  -2.632   3.593  0.00  0.00    -0.004 A 
ATOM      5  C6  UNL d   1      -1.842  -3.173   2.573  0.00  0.00     0.002 A 
ATOM      6  C7  UNL d   1      -1.056  -2.338   1.778  0.00  0.00     0.002 A 
ENDROOT
BRANCH   1   7
ATOM      7  C1  UNL d   1      -0.158  -0.059   1.169  0.00  0.00     0.055 C 
ATOM      8  C   UNL d   1       0.958   0.542   2.011  0.00  0.00     0.019 C 
ENDBRANCH   1   7
TORSDOF 1
ENDMDL
