MODEL 1
REMARK minimizedAffinity 6.62995672
REMARK minimizedRMSD -1
REMARK  1 active torsions:
REMARK  status: ('A' for Active; 'I' for Inactive)
REMARK    1  A    between atoms: C1_2  and  C2_3 
ROOT
ATOM      1  C2  UNL d   1       4.179   3.382   4.421  0.00  0.00    -0.077 A 
ATOM      2  C3  UNL d   1       5.498   3.650   4.812  0.00  0.00     0.002 A 
ATOM      3  C4  UNL d   1       5.998   4.952   4.765  0.00  0.00     0.002 A 
ATOM      4  C5  UNL d   1       5.186   5.998   4.331  0.00  0.00    -0.004 A 
ATOM      5  C6  UNL d   1       3.873   5.741   3.938  0.00  0.00     0.002 A 
ATOM      6  C7  UNL d   1       3.371   4.440   3.983  0.00  0.00     0.002 A 
ENDROOT
BRANCH   1   7
ATOM      7  C1  UNL d   1       3.622   1.986   4.518  0.00  0.00     0.055 C 
ATOM      8  C   UNL d   1       2.133   2.004   4.832  0.00  0.00     0.019 C 
ENDBRANCH   1   7
TORSDOF 1
ENDMDL
