MODEL 1
REMARK minimizedAffinity -4.36425066
REMARK minimizedRMSD -1
REMARK  0 active torsions:
REMARK  status: ('A' for Active; 'I' for Inactive)
ROOT
ATOM      1  C2' OXE d   1       2.693   0.330  -0.306  0.00  0.00     0.078 C 
ATOM      2  C1' OXE d   1       0.132   1.474  -0.206  0.00  0.00     0.078 C 
ATOM      3  C1  OXE d   1       0.304   0.086   0.356  0.00  0.00    -0.078 A 
ATOM      4  C2  OXE d   1       1.551  -0.485   0.261  0.00  0.00    -0.078 A 
ATOM      5  C3  OXE d   1       1.778  -1.742   0.813  0.00  0.00     0.003 A 
ATOM      6  C4  OXE d   1       0.714  -2.493   1.327  0.00  0.00    -0.002 A 
ATOM      7  C5  OXE d   1      -0.572  -1.946   1.398  0.00  0.00    -0.002 A 
ATOM      8  C6  OXE d   1      -0.784  -0.645   0.957  0.00  0.00     0.003 A 
ENDROOT
TORSDOF 0
ENDMDL
