MODEL 1
REMARK minimizedAffinity -2.13218069
REMARK minimizedRMSD -1
REMARK  0 active torsions:
REMARK  status: ('A' for Active; 'I' for Inactive)
ROOT
ATOM      1  C2' OXE d   1      -0.811   1.621  -0.009  0.00  0.00     0.078 C 
ATOM      2  C1' OXE d   1       0.810   3.912  -0.076  0.00  0.00     0.078 C 
ATOM      3  C1  OXE d   1       0.183   3.457  -1.369  0.00  0.00    -0.078 A 
ATOM      4  C2  OXE d   1      -0.571   2.308  -1.336  0.00  0.00    -0.078 A 
ATOM      5  C3  OXE d   1      -1.217   1.874  -2.490  0.00  0.00     0.003 A 
ATOM      6  C4  OXE d   1      -0.982   2.510  -3.716  0.00  0.00    -0.002 A 
ATOM      7  C5  OXE d   1      -0.186   3.658  -3.779  0.00  0.00    -0.002 A 
ATOM      8  C6  OXE d   1       0.368   4.168  -2.610  0.00  0.00     0.003 A 
ENDROOT
TORSDOF 0
ENDMDL
