MODEL 1
REMARK minimizedAffinity -2.37999654
REMARK minimizedRMSD -1
REMARK  0 active torsions:
REMARK  status: ('A' for Active; 'I' for Inactive)
ROOT
ATOM      1  C2' OXE d   1       3.080   3.030  -0.259  0.00  0.00     0.078 C 
ATOM      2  C1' OXE d   1       0.449   3.923   0.144  0.00  0.00     0.078 C 
ATOM      3  C1  OXE d   1       0.675   2.438   0.009  0.00  0.00    -0.078 A 
ATOM      4  C2  OXE d   1       1.959   2.013  -0.235  0.00  0.00    -0.078 A 
ATOM      5  C3  OXE d   1       2.230   0.651  -0.314  0.00  0.00     0.003 A 
ATOM      6  C4  OXE d   1       1.186  -0.282  -0.300  0.00  0.00    -0.002 A 
ATOM      7  C5  OXE d   1      -0.133   0.132  -0.093  0.00  0.00    -0.002 A 
ATOM      8  C6  OXE d   1      -0.400   1.482   0.106  0.00  0.00     0.003 A 
ENDROOT
TORSDOF 0
ENDMDL
