MODEL 1
REMARK minimizedAffinity -2.80945253
REMARK minimizedRMSD -1
REMARK  0 active torsions:
REMARK  status: ('A' for Active; 'I' for Inactive)
ROOT
ATOM      1  C2' OXE d   1      -0.743  -0.770   1.477  0.00  0.00     0.078 C 
ATOM      2  C1' OXE d   1       1.320  -2.673   1.492  0.00  0.00     0.078 C 
ATOM      3  C1  OXE d   1       1.584  -1.355   0.808  0.00  0.00    -0.078 A 
ATOM      4  C2  OXE d   1       0.553  -0.447   0.765  0.00  0.00    -0.078 A 
ATOM      5  C3  OXE d   1       0.761   0.805   0.195  0.00  0.00     0.003 A 
ATOM      6  C4  OXE d   1       1.960   1.092  -0.470  0.00  0.00    -0.002 A 
ATOM      7  C5  OXE d   1       3.009   0.166  -0.472  0.00  0.00    -0.002 A 
ATOM      8  C6  OXE d   1       2.853  -1.043   0.198  0.00  0.00     0.003 A 
ENDROOT
TORSDOF 0
ENDMDL
