MODEL 1
REMARK minimizedAffinity -0.747607648
REMARK minimizedRMSD -1
REMARK  0 active torsions:
REMARK  status: ('A' for Active; 'I' for Inactive)
ROOT
ATOM      1  C2' OXE d   1       0.486   4.972   0.973  0.00  0.00     0.078 C 
ATOM      2  C1' OXE d   1       3.212   4.341   0.740  0.00  0.00     0.078 C 
ATOM      3  C1  OXE d   1       2.212   3.351   0.198  0.00  0.00    -0.078 A 
ATOM      4  C2  OXE d   1       0.879   3.646   0.358  0.00  0.00    -0.078 A 
ATOM      5  C3  OXE d   1      -0.084   2.793  -0.172  0.00  0.00     0.003 A 
ATOM      6  C4  OXE d   1       0.287   1.563  -0.730  0.00  0.00    -0.002 A 
ATOM      7  C5  OXE d   1       1.638   1.225  -0.866  0.00  0.00    -0.002 A 
ATOM      8  C6  OXE d   1       2.611   2.125  -0.447  0.00  0.00     0.003 A 
ENDROOT
TORSDOF 0
ENDMDL
