MODEL 1
REMARK minimizedAffinity -2.12202358
REMARK minimizedRMSD -1
REMARK  0 active torsions:
REMARK  status: ('A' for Active; 'I' for Inactive)
ROOT
ATOM      1  C2' OXE d   1      -0.762   0.216   0.348  0.00  0.00     0.078 C 
ATOM      2  C1' OXE d   1       0.625   2.632  -0.004  0.00  0.00     0.078 C 
ATOM      3  C1  OXE d   1      -0.502   2.322  -0.957  0.00  0.00    -0.078 A 
ATOM      4  C2  OXE d   1      -1.145   1.117  -0.806  0.00  0.00    -0.078 A 
ATOM      5  C3  OXE d   1      -2.227   0.806  -1.624  0.00  0.00     0.003 A 
ATOM      6  C4  OXE d   1      -2.569   1.640  -2.696  0.00  0.00    -0.002 A 
ATOM      7  C5  OXE d   1      -1.901   2.854  -2.891  0.00  0.00    -0.002 A 
ATOM      8  C6  OXE d   1      -0.896   3.229  -2.007  0.00  0.00     0.003 A 
ENDROOT
TORSDOF 0
ENDMDL
