MODEL 1
REMARK minimizedAffinity -2.48105168
REMARK minimizedRMSD -1
REMARK  0 active torsions:
REMARK  status: ('A' for Active; 'I' for Inactive)
ROOT
ATOM      1  C2' OXE d   1       2.490   1.020  -0.425  0.00  0.00     0.078 C 
ATOM      2  C1' OXE d   1      -0.314   0.900  -0.479  0.00  0.00     0.078 C 
ATOM      3  C1  OXE d   1       0.429  -0.268   0.121  0.00  0.00    -0.078 A 
ATOM      4  C2  OXE d   1       1.802  -0.221   0.101  0.00  0.00    -0.078 A 
ATOM      5  C3  OXE d   1       2.536  -1.247   0.690  0.00  0.00     0.003 A 
ATOM      6  C4  OXE d   1       1.892  -2.396   1.165  0.00  0.00    -0.002 A 
ATOM      7  C5  OXE d   1       0.496  -2.482   1.159  0.00  0.00    -0.002 A 
ATOM      8  C6  OXE d   1      -0.251  -1.410   0.680  0.00  0.00     0.003 A 
ENDROOT
TORSDOF 0
ENDMDL
