MODEL 1
REMARK minimizedAffinity 3.582026
REMARK minimizedRMSD -1
REMARK  0 active torsions:
REMARK  status: ('A' for Active; 'I' for Inactive)
ROOT
ATOM      1  C2' OXE d   1      -2.009  -1.990   2.780  0.00  0.00     0.078 C 
ATOM      2  C1' OXE d   1       0.135  -2.785   1.152  0.00  0.00     0.078 C 
ATOM      3  C1  OXE d   1      -0.381  -1.377   0.997  0.00  0.00    -0.078 A 
ATOM      4  C2  OXE d   1      -1.461  -1.011   1.765  0.00  0.00    -0.078 A 
ATOM      5  C3  OXE d   1      -1.942   0.294   1.701  0.00  0.00     0.003 A 
ATOM      6  C4  OXE d   1      -1.436   1.190   0.752  0.00  0.00    -0.002 A 
ATOM      7  C5  OXE d   1      -0.362   0.825  -0.067  0.00  0.00    -0.002 A 
ATOM      8  C6  OXE d   1       0.203  -0.438   0.072  0.00  0.00     0.003 A 
ENDROOT
TORSDOF 0
ENDMDL
