MODEL 1
REMARK minimizedAffinity -4.56656981
REMARK minimizedRMSD -1
REMARK  0 active torsions:
REMARK  status: ('A' for Active; 'I' for Inactive)
ROOT
ATOM      1  C2' OXE d   1      -1.101   3.423  -3.669  0.00  0.00     0.078 C 
ATOM      2  C1' OXE d   1      -2.845   1.363  -2.900  0.00  0.00     0.078 C 
ATOM      3  C1  OXE d   1      -1.740   1.742  -1.946  0.00  0.00    -0.078 A 
ATOM      4  C2  OXE d   1      -0.863   2.719  -2.351  0.00  0.00    -0.078 A 
ATOM      5  C3  OXE d   1       0.141   3.146  -1.487  0.00  0.00     0.003 A 
ATOM      6  C4  OXE d   1       0.361   2.482  -0.273  0.00  0.00    -0.002 A 
ATOM      7  C5  OXE d   1      -0.496   1.457   0.141  0.00  0.00    -0.002 A 
ATOM      8  C6  OXE d   1      -1.575   1.105  -0.663  0.00  0.00     0.003 A 
ENDROOT
TORSDOF 0
ENDMDL
