MODEL 1
REMARK minimizedAffinity -2.45109391
REMARK minimizedRMSD -1
REMARK  0 active torsions:
REMARK  status: ('A' for Active; 'I' for Inactive)
ROOT
ATOM      1  C2' OXE d   1      -0.178   3.909   0.170  0.00  0.00     0.078 C 
ATOM      2  C1' OXE d   1       2.580   3.401   0.038  0.00  0.00     0.078 C 
ATOM      3  C1  OXE d   1       1.644   2.218   0.016  0.00  0.00    -0.078 A 
ATOM      4  C2  OXE d   1       0.299   2.473   0.128  0.00  0.00    -0.078 A 
ATOM      5  C3  OXE d   1      -0.611   1.422   0.058  0.00  0.00     0.003 A 
ATOM      6  C4  OXE d   1      -0.162   0.097   0.029  0.00  0.00    -0.002 A 
ATOM      7  C5  OXE d   1       1.206  -0.188  -0.045  0.00  0.00    -0.002 A 
ATOM      8  C6  OXE d   1       2.118   0.860  -0.095  0.00  0.00     0.003 A 
ENDROOT
TORSDOF 0
ENDMDL
