MODEL 1
REMARK minimizedAffinity -3.76240301
REMARK minimizedRMSD -1
REMARK  0 active torsions:
REMARK  status: ('A' for Active; 'I' for Inactive)
ROOT
ATOM      1  C2' OXE d   1       0.500  -1.059  -2.574  0.00  0.00     0.078 C 
ATOM      2  C1' OXE d   1      -1.403   0.673  -1.451  0.00  0.00     0.078 C 
ATOM      3  C1  OXE d   1      -0.667  -0.260  -0.523  0.00  0.00    -0.078 A 
ATOM      4  C2  OXE d   1       0.229  -1.137  -1.087  0.00  0.00    -0.078 A 
ATOM      5  C3  OXE d   1       0.975  -1.981  -0.270  0.00  0.00     0.003 A 
ATOM      6  C4  OXE d   1       0.711  -2.054   1.103  0.00  0.00    -0.002 A 
ATOM      7  C5  OXE d   1      -0.226  -1.198   1.692  0.00  0.00    -0.002 A 
ATOM      8  C6  OXE d   1      -0.891  -0.268   0.901  0.00  0.00     0.003 A 
ENDROOT
TORSDOF 0
ENDMDL
