MODEL 1
REMARK minimizedAffinity -2.89251304
REMARK minimizedRMSD -1
REMARK  0 active torsions:
REMARK  status: ('A' for Active; 'I' for Inactive)
ROOT
ATOM      1  C2' OXE d   1      -0.791   0.482   0.490  0.00  0.00     0.078 C 
ATOM      2  C1' OXE d   1       0.583   2.836  -0.181  0.00  0.00     0.078 C 
ATOM      3  C1  OXE d   1      -0.566   2.416  -1.063  0.00  0.00    -0.078 A 
ATOM      4  C2  OXE d   1      -1.203   1.238  -0.754  0.00  0.00    -0.078 A 
ATOM      5  C3  OXE d   1      -2.304   0.833  -1.503  0.00  0.00     0.003 A 
ATOM      6  C4  OXE d   1      -2.672   1.533  -2.658  0.00  0.00    -0.002 A 
ATOM      7  C5  OXE d   1      -2.012   2.714  -3.013  0.00  0.00    -0.002 A 
ATOM      8  C6  OXE d   1      -0.987   3.191  -2.204  0.00  0.00     0.003 A 
ENDROOT
TORSDOF 0
ENDMDL
