MODEL 1
REMARK minimizedAffinity 3.77942634
REMARK minimizedRMSD -1
REMARK  0 active torsions:
REMARK  status: ('A' for Active; 'I' for Inactive)
ROOT
ATOM      1  C2' OXE d   1      -0.709   1.071  -0.357  0.00  0.00     0.078 C 
ATOM      2  C1' OXE d   1      -0.506   3.425  -1.873  0.00  0.00     0.078 C 
ATOM      3  C1  OXE d   1      -1.370   2.313  -2.413  0.00  0.00    -0.078 A 
ATOM      4  C2  OXE d   1      -1.427   1.147  -1.687  0.00  0.00    -0.078 A 
ATOM      5  C3  OXE d   1      -2.252   0.110  -2.112  0.00  0.00     0.003 A 
ATOM      6  C4  OXE d   1      -2.904   0.184  -3.349  0.00  0.00    -0.002 A 
ATOM      7  C5  OXE d   1      -2.828   1.347  -4.123  0.00  0.00    -0.002 A 
ATOM      8  C6  OXE d   1      -2.101   2.434  -3.650  0.00  0.00     0.003 A 
ENDROOT
TORSDOF 0
ENDMDL
