MODEL 1
REMARK minimizedAffinity -3.29962683
REMARK minimizedRMSD -1
REMARK  0 active torsions:
REMARK  status: ('A' for Active; 'I' for Inactive)
ROOT
ATOM      1  C2' OXE d   1       2.297   0.769  -0.559  0.00  0.00     0.078 C 
ATOM      2  C1' OXE d   1      -0.440   1.366  -0.381  0.00  0.00     0.078 C 
ATOM      3  C1  OXE d   1       0.020   0.020   0.120  0.00  0.00    -0.078 A 
ATOM      4  C2  OXE d   1       1.354  -0.282  -0.014  0.00  0.00    -0.078 A 
ATOM      5  C3  OXE d   1       1.840  -1.488   0.481  0.00  0.00     0.003 A 
ATOM      6  C4  OXE d   1       0.960  -2.459   0.975  0.00  0.00    -0.002 A 
ATOM      7  C5  OXE d   1      -0.408  -2.187   1.083  0.00  0.00    -0.002 A 
ATOM      8  C6  OXE d   1      -0.887  -0.939   0.700  0.00  0.00     0.003 A 
ENDROOT
TORSDOF 0
ENDMDL
