MODEL 1
REMARK minimizedAffinity -1.6112659
REMARK minimizedRMSD -1
REMARK  0 active torsions:
REMARK  status: ('A' for Active; 'I' for Inactive)
ROOT
ATOM      1  C2' OXE d   1       0.462   0.067  -0.827  0.00  0.00     0.078 C 
ATOM      2  C1' OXE d   1      -1.783   0.470   0.809  0.00  0.00     0.078 C 
ATOM      3  C1  OXE d   1      -1.927   0.754  -0.665  0.00  0.00    -0.078 A 
ATOM      4  C2  OXE d   1      -0.810   0.599  -1.450  0.00  0.00    -0.078 A 
ATOM      5  C3  OXE d   1      -0.902   0.795  -2.825  0.00  0.00     0.003 A 
ATOM      6  C4  OXE d   1      -2.079   1.297  -3.393  0.00  0.00    -0.002 A 
ATOM      7  C5  OXE d   1      -3.217   1.500  -2.604  0.00  0.00    -0.002 A 
ATOM      8  C6  OXE d   1      -3.170   1.193  -1.249  0.00  0.00     0.003 A 
ENDROOT
TORSDOF 0
ENDMDL
