MODEL 1
REMARK minimizedAffinity -1.79979527
REMARK minimizedRMSD -1
REMARK  0 active torsions:
REMARK  status: ('A' for Active; 'I' for Inactive)
ROOT
ATOM      1  C2' OXE d   1       3.466  -1.240   1.750  0.00  0.00     0.078 C 
ATOM      2  C1' OXE d   1       1.414  -3.155   1.715  0.00  0.00     0.078 C 
ATOM      3  C1  OXE d   1       1.167  -1.847   1.007  0.00  0.00    -0.078 A 
ATOM      4  C2  OXE d   1       2.159  -0.897   1.069  0.00  0.00    -0.078 A 
ATOM      5  C3  OXE d   1       2.005   0.306   0.387  0.00  0.00     0.003 A 
ATOM      6  C4  OXE d   1       0.789   0.619  -0.232  0.00  0.00    -0.002 A 
ATOM      7  C5  OXE d   1      -0.249  -0.318  -0.273  0.00  0.00    -0.002 A 
ATOM      8  C6  OXE d   1      -0.061  -1.569   0.304  0.00  0.00     0.003 A 
ENDROOT
TORSDOF 0
ENDMDL
