MODEL 1
REMARK minimizedAffinity -3.86785817
REMARK minimizedRMSD -1
REMARK  0 active torsions:
REMARK  status: ('A' for Active; 'I' for Inactive)
ROOT
ATOM      1  C2' OXE d   1      -0.023   4.310   0.353  0.00  0.00     0.078 C 
ATOM      2  C1' OXE d   1      -0.578   1.623  -0.239  0.00  0.00     0.078 C 
ATOM      3  C1  OXE d   1       0.863   2.067  -0.271  0.00  0.00    -0.078 A 
ATOM      4  C2  OXE d   1       1.121   3.394  -0.026  0.00  0.00    -0.078 A 
ATOM      5  C3  OXE d   1       2.437   3.846   0.011  0.00  0.00     0.003 A 
ATOM      6  C4  OXE d   1       3.489   2.994  -0.351  0.00  0.00    -0.002 A 
ATOM      7  C5  OXE d   1       3.244   1.648  -0.642  0.00  0.00    -0.002 A 
ATOM      8  C6  OXE d   1       1.945   1.160  -0.566  0.00  0.00     0.003 A 
ENDROOT
TORSDOF 0
ENDMDL
