MODEL 1
REMARK minimizedAffinity -5.14674902
REMARK minimizedRMSD -1
REMARK  0 active torsions:
REMARK  status: ('A' for Active; 'I' for Inactive)
ROOT
ATOM      1  C2' OXE d   1      -2.221   1.639   0.576  0.00  0.00     0.078 C 
ATOM      2  C1' OXE d   1      -0.454   3.766   0.090  0.00  0.00     0.078 C 
ATOM      3  C1  OXE d   1      -1.087   3.091  -1.101  0.00  0.00    -0.078 A 
ATOM      4  C2  OXE d   1      -1.913   2.021  -0.856  0.00  0.00    -0.078 A 
ATOM      5  C3  OXE d   1      -2.565   1.397  -1.916  0.00  0.00     0.003 A 
ATOM      6  C4  OXE d   1      -2.268   1.750  -3.238  0.00  0.00    -0.002 A 
ATOM      7  C5  OXE d   1      -1.398   2.811  -3.511  0.00  0.00    -0.002 A 
ATOM      8  C6  OXE d   1      -0.833   3.518  -2.455  0.00  0.00     0.003 A 
ENDROOT
TORSDOF 0
ENDMDL
