MODEL 1
REMARK minimizedAffinity 0.368388861
REMARK minimizedRMSD -1
REMARK  2 active torsions:
REMARK  status: ('A' for Active; 'I' for Inactive)
REMARK    1  A    between atoms: C1_2  and  C2_3 
REMARK    2  A    between atoms: C2_3  and  C3_4 
ROOT
ATOM      1  C3  UNL d   1       2.663   3.601  -5.226  0.00  0.00    -0.075 A 
ATOM      2  C4  UNL d   1       2.979   2.236  -5.159  0.00  0.00     0.002 A 
ATOM      3  C5  UNL d   1       4.256   1.787  -5.496  0.00  0.00     0.002 A 
ATOM      4  C6  UNL d   1       5.229   2.693  -5.913  0.00  0.00    -0.004 A 
ATOM      5  C7  UNL d   1       4.921   4.050  -6.000  0.00  0.00     0.002 A 
ATOM      6  C8  UNL d   1       3.645   4.502  -5.659  0.00  0.00     0.002 A 
ENDROOT
BRANCH   1   7
ATOM      7  C2  UNL d   1       1.292   4.097  -4.834  0.00  0.00     0.056 C 
BRANCH   7   8
ATOM      8  C1  UNL d   1       0.288   4.135  -5.992  0.00  0.00     0.007 C 
ATOM      9  C   UNL d   1      -0.571   5.393  -6.000  0.00  0.00     0.009 C 
ENDBRANCH   7   8
ENDBRANCH   1   7
TORSDOF 2
ENDMDL
