MODEL 1
REMARK minimizedAffinity -1.23553276
REMARK minimizedRMSD -1
REMARK  2 active torsions:
REMARK  status: ('A' for Active; 'I' for Inactive)
REMARK    1  A    between atoms: C1_2  and  C2_3 
REMARK    2  A    between atoms: C2_3  and  C3_4 
ROOT
ATOM      1  C3  UNL d   1       3.463   4.109  -5.627  0.00  0.00    -0.075 A 
ATOM      2  C4  UNL d   1       3.033   2.829  -5.249  0.00  0.00     0.002 A 
ATOM      3  C5  UNL d   1       3.928   1.759  -5.223  0.00  0.00     0.002 A 
ATOM      4  C6  UNL d   1       5.260   1.953  -5.584  0.00  0.00    -0.004 A 
ATOM      5  C7  UNL d   1       5.694   3.217  -5.978  0.00  0.00     0.002 A 
ATOM      6  C8  UNL d   1       4.802   4.290  -6.000  0.00  0.00     0.002 A 
ENDROOT
BRANCH   1   7
ATOM      7  C2  UNL d   1       2.506   5.277  -5.628  0.00  0.00     0.056 C 
BRANCH   7   8
ATOM      8  C1  UNL d   1       1.120   4.948  -5.063  0.00  0.00     0.007 C 
ATOM      9  C   UNL d   1      -0.017   5.337  -5.999  0.00  0.00     0.009 C 
ENDBRANCH   7   8
ENDBRANCH   1   7
TORSDOF 2
ENDMDL
