MODEL 1
REMARK minimizedAffinity 4.34873962
REMARK minimizedRMSD -1
REMARK  2 active torsions:
REMARK  status: ('A' for Active; 'I' for Inactive)
REMARK    1  A    between atoms: C1_2  and  C2_3 
REMARK    2  A    between atoms: C2_3  and  C3_4 
ROOT
ATOM      1  C3  UNL d   1       3.237   3.316  -5.158  0.00  0.00    -0.075 A 
ATOM      2  C4  UNL d   1       4.302   3.811  -4.391  0.00  0.00     0.002 A 
ATOM      3  C5  UNL d   1       5.148   2.938  -3.707  0.00  0.00     0.002 A 
ATOM      4  C6  UNL d   1       4.935   1.563  -3.772  0.00  0.00    -0.004 A 
ATOM      5  C7  UNL d   1       3.871   1.061  -4.517  0.00  0.00     0.002 A 
ATOM      6  C8  UNL d   1       3.025   1.932  -5.206  0.00  0.00     0.002 A 
ENDROOT
BRANCH   1   7
ATOM      7  C2  UNL d   1       2.335   4.254  -5.924  0.00  0.00     0.056 C 
BRANCH   7   8
ATOM      8  C1  UNL d   1       0.868   3.815  -5.963  0.00  0.00     0.007 C 
ATOM      9  C   UNL d   1      -0.108   4.984  -5.986  0.00  0.00     0.009 C 
ENDBRANCH   7   8
ENDBRANCH   1   7
TORSDOF 2
ENDMDL
