MODEL 1
REMARK minimizedAffinity -3.57047296
REMARK minimizedRMSD -1
REMARK  2 active torsions:
REMARK  status: ('A' for Active; 'I' for Inactive)
REMARK    1  A    between atoms: C1_2  and  C2_3 
REMARK    2  A    between atoms: C2_3  and  C3_4 
ROOT
ATOM      1  C3  UNL d   1       2.389   4.277  -4.956  0.00  0.00    -0.075 A 
ATOM      2  C4  UNL d   1       3.269   5.191  -5.553  0.00  0.00     0.002 A 
ATOM      3  C5  UNL d   1       4.593   4.835  -5.812  0.00  0.00     0.002 A 
ATOM      4  C6  UNL d   1       5.056   3.566  -5.469  0.00  0.00    -0.004 A 
ATOM      5  C7  UNL d   1       4.195   2.655  -4.860  0.00  0.00     0.002 A 
ATOM      6  C8  UNL d   1       2.869   3.008  -4.604  0.00  0.00     0.002 A 
ENDROOT
BRANCH   1   7
ATOM      7  C2  UNL d   1       0.948   4.647  -4.699  0.00  0.00     0.056 C 
BRANCH   7   8
ATOM      8  C1  UNL d   1       0.097   4.755  -5.969  0.00  0.00     0.007 C 
ATOM      9  C   UNL d   1      -0.782   5.998  -5.998  0.00  0.00     0.009 C 
ENDBRANCH   7   8
ENDBRANCH   1   7
TORSDOF 2
ENDMDL
