MODEL 1
REMARK minimizedAffinity -2.00979924
REMARK minimizedRMSD -1
REMARK  2 active torsions:
REMARK  status: ('A' for Active; 'I' for Inactive)
REMARK    1  A    between atoms: C1_2  and  C2_3 
REMARK    2  A    between atoms: C2_3  and  C3_4 
ROOT
ATOM      1  C3  UNL d   1       2.670   3.615  -5.740  0.00  0.00    -0.075 A 
ATOM      2  C4  UNL d   1       3.370   4.802  -5.999  0.00  0.00     0.002 A 
ATOM      3  C5  UNL d   1       4.747   4.874  -5.785  0.00  0.00     0.002 A 
ATOM      4  C6  UNL d   1       5.438   3.766  -5.300  0.00  0.00    -0.004 A 
ATOM      5  C7  UNL d   1       4.751   2.586  -5.024  0.00  0.00     0.002 A 
ATOM      6  C8  UNL d   1       3.374   2.510  -5.241  0.00  0.00     0.002 A 
ENDROOT
BRANCH   1   7
ATOM      7  C2  UNL d   1       1.185   3.521  -5.997  0.00  0.00     0.056 C 
BRANCH   7   8
ATOM      8  C1  UNL d   1       0.359   4.594  -5.280  0.00  0.00     0.007 C 
ATOM      9  C   UNL d   1       0.377   5.941  -5.991  0.00  0.00     0.009 C 
ENDBRANCH   7   8
ENDBRANCH   1   7
TORSDOF 2
ENDMDL
