MODEL 1
REMARK minimizedAffinity 3.02831817
REMARK minimizedRMSD -1
REMARK  2 active torsions:
REMARK  status: ('A' for Active; 'I' for Inactive)
REMARK    1  A    between atoms: C1_2  and  C2_3 
REMARK    2  A    between atoms: C2_3  and  C3_4 
ROOT
ATOM      1  C3  UNL d   1       3.135   3.284  -4.634  0.00  0.00    -0.075 A 
ATOM      2  C4  UNL d   1       1.736   3.382  -4.627  0.00  0.00     0.002 A 
ATOM      3  C5  UNL d   1       1.094   4.416  -5.310  0.00  0.00     0.002 A 
ATOM      4  C6  UNL d   1       1.842   5.368  -5.999  0.00  0.00    -0.004 A 
ATOM      5  C7  UNL d   1       3.233   5.290  -6.000  0.00  0.00     0.002 A 
ATOM      6  C8  UNL d   1       3.877   4.255  -5.321  0.00  0.00     0.002 A 
ENDROOT
BRANCH   1   7
ATOM      7  C2  UNL d   1       3.834   2.152  -3.922  0.00  0.00     0.056 C 
BRANCH   7   8
ATOM      8  C1  UNL d   1       4.127   0.940  -4.813  0.00  0.00     0.007 C 
ATOM      9  C   UNL d   1       3.110   0.758  -5.932  0.00  0.00     0.009 C 
ENDBRANCH   7   8
ENDBRANCH   1   7
TORSDOF 2
ENDMDL
