MODEL 1
REMARK minimizedAffinity 7.8015399
REMARK minimizedRMSD -1
REMARK  2 active torsions:
REMARK  status: ('A' for Active; 'I' for Inactive)
REMARK    1  A    between atoms: C1_2  and  C2_3 
REMARK    2  A    between atoms: C2_3  and  C3_4 
ROOT
ATOM      1  C3  UNL d   1       2.632   3.979  -5.899  0.00  0.00    -0.075 A 
ATOM      2  C4  UNL d   1       2.325   2.611  -5.913  0.00  0.00     0.002 A 
ATOM      3  C5  UNL d   1       3.342   1.657  -5.956  0.00  0.00     0.002 A 
ATOM      4  C6  UNL d   1       4.676   2.058  -5.996  0.00  0.00    -0.004 A 
ATOM      5  C7  UNL d   1       4.992   3.414  -5.999  0.00  0.00     0.002 A 
ATOM      6  C8  UNL d   1       3.977   4.371  -5.952  0.00  0.00     0.002 A 
ENDROOT
BRANCH   1   7
ATOM      7  C2  UNL d   1       1.537   5.016  -5.823  0.00  0.00     0.056 C 
BRANCH   7   8
ATOM      8  C1  UNL d   1       0.125   4.446  -5.995  0.00  0.00     0.007 C 
ATOM      9  C   UNL d   1      -0.958   5.516  -5.998  0.00  0.00     0.009 C 
ENDBRANCH   7   8
ENDBRANCH   1   7
TORSDOF 2
ENDMDL
