MODEL 1
REMARK minimizedAffinity -3.40157485
REMARK minimizedRMSD -1
REMARK  2 active torsions:
REMARK  status: ('A' for Active; 'I' for Inactive)
REMARK    1  A    between atoms: C1_2  and  C2_3 
REMARK    2  A    between atoms: C2_3  and  C3_4 
ROOT
ATOM      1  C3  UNL d   1       3.343   4.478  -5.292  0.00  0.00    -0.075 A 
ATOM      2  C4  UNL d   1       3.357   3.076  -5.308  0.00  0.00     0.002 A 
ATOM      3  C5  UNL d   1       4.517   2.382  -5.653  0.00  0.00     0.002 A 
ATOM      4  C6  UNL d   1       5.673   3.080  -5.996  0.00  0.00    -0.004 A 
ATOM      5  C7  UNL d   1       5.666   4.473  -6.000  0.00  0.00     0.002 A 
ATOM      6  C8  UNL d   1       4.508   5.170  -5.650  0.00  0.00     0.002 A 
ENDROOT
BRANCH   1   7
ATOM      7  C2  UNL d   1       2.100   5.234  -4.890  0.00  0.00     0.056 C 
BRANCH   7   8
ATOM      8  C1  UNL d   1       0.823   4.751  -5.587  0.00  0.00     0.007 C 
ATOM      9  C   UNL d   1      -0.105   5.887  -5.995  0.00  0.00     0.009 C 
ENDBRANCH   7   8
ENDBRANCH   1   7
TORSDOF 2
ENDMDL
