MODEL 1
REMARK minimizedAffinity -3.16206574
REMARK minimizedRMSD -1
REMARK  2 active torsions:
REMARK  status: ('A' for Active; 'I' for Inactive)
REMARK    1  A    between atoms: C1_2  and  C2_3 
REMARK    2  A    between atoms: C2_3  and  C3_4 
ROOT
ATOM      1  C3  UNL d   1       2.682   3.789  -5.297  0.00  0.00    -0.075 A 
ATOM      2  C4  UNL d   1       3.324   4.987  -5.645  0.00  0.00     0.002 A 
ATOM      3  C5  UNL d   1       4.674   4.992  -5.998  0.00  0.00     0.002 A 
ATOM      4  C6  UNL d   1       5.400   3.803  -5.999  0.00  0.00    -0.004 A 
ATOM      5  C7  UNL d   1       4.777   2.610  -5.640  0.00  0.00     0.002 A 
ATOM      6  C8  UNL d   1       3.426   2.602  -5.290  0.00  0.00     0.002 A 
ENDROOT
BRANCH   1   7
ATOM      7  C2  UNL d   1       1.215   3.774  -4.943  0.00  0.00     0.056 C 
BRANCH   7   8
ATOM      8  C1  UNL d   1       0.311   4.417  -6.000  0.00  0.00     0.007 C 
ATOM      9  C   UNL d   1       0.182   5.926  -5.842  0.00  0.00     0.009 C 
ENDBRANCH   7   8
ENDBRANCH   1   7
TORSDOF 2
ENDMDL
