MODEL 1
REMARK minimizedAffinity 0.0800723955
REMARK minimizedRMSD -1
REMARK  2 active torsions:
REMARK  status: ('A' for Active; 'I' for Inactive)
REMARK    1  A    between atoms: C1_2  and  C2_3 
REMARK    2  A    between atoms: C2_3  and  C3_4 
ROOT
ATOM      1  C3  UNL d   1       3.412   4.038  -5.955  0.00  0.00    -0.075 A 
ATOM      2  C4  UNL d   1       3.580   5.431  -5.928  0.00  0.00     0.002 A 
ATOM      3  C5  UNL d   1       4.857   5.991  -5.945  0.00  0.00     0.002 A 
ATOM      4  C6  UNL d   1       5.981   5.169  -5.979  0.00  0.00    -0.004 A 
ATOM      5  C7  UNL d   1       5.827   3.784  -5.990  0.00  0.00     0.002 A 
ATOM      6  C8  UNL d   1       4.550   3.221  -5.977  0.00  0.00     0.002 A 
ENDROOT
BRANCH   1   7
ATOM      7  C2  UNL d   1       2.032   3.426  -5.966  0.00  0.00     0.056 C 
BRANCH   7   8
ATOM      8  C1  UNL d   1       1.158   3.836  -4.776  0.00  0.00     0.007 C 
ATOM      9  C   UNL d   1       1.966   4.226  -3.545  0.00  0.00     0.009 C 
ENDBRANCH   7   8
ENDBRANCH   1   7
TORSDOF 2
ENDMDL
