MODEL 1
REMARK minimizedAffinity -0.94536531
REMARK minimizedRMSD -1
REMARK  2 active torsions:
REMARK  status: ('A' for Active; 'I' for Inactive)
REMARK    1  A    between atoms: C1_2  and  C2_3 
REMARK    2  A    between atoms: C2_3  and  C3_4 
ROOT
ATOM      1  C3  UNL d   1       4.111   3.360  -5.942  0.00  0.00    -0.075 A 
ATOM      2  C4  UNL d   1       2.710   3.409  -5.998  0.00  0.00     0.002 A 
ATOM      3  C5  UNL d   1       2.042   4.634  -5.972  0.00  0.00     0.002 A 
ATOM      4  C6  UNL d   1       2.764   5.822  -5.878  0.00  0.00    -0.004 A 
ATOM      5  C7  UNL d   1       4.155   5.785  -5.805  0.00  0.00     0.002 A 
ATOM      6  C8  UNL d   1       4.825   4.561  -5.836  0.00  0.00     0.002 A 
ENDROOT
BRANCH   1   7
ATOM      7  C2  UNL d   1       4.840   2.040  -6.000  0.00  0.00     0.056 C 
BRANCH   7   8
ATOM      8  C1  UNL d   1       4.198   0.934  -5.155  0.00  0.00     0.007 C 
ATOM      9  C   UNL d   1       3.427  -0.084  -5.985  0.00  0.00     0.009 C 
ENDBRANCH   7   8
ENDBRANCH   1   7
TORSDOF 2
ENDMDL
