MODEL 1
REMARK minimizedAffinity -0.649791062
REMARK minimizedRMSD -1
REMARK  2 active torsions:
REMARK  status: ('A' for Active; 'I' for Inactive)
REMARK    1  A    between atoms: C1_2  and  C2_3 
REMARK    2  A    between atoms: C2_3  and  C3_4 
ROOT
ATOM      1  C3  UNL d   1       4.220   2.972  -5.998  0.00  0.00    -0.075 A 
ATOM      2  C4  UNL d   1       5.278   3.894  -6.000  0.00  0.00     0.002 A 
ATOM      3  C5  UNL d   1       5.022   5.265  -5.981  0.00  0.00     0.002 A 
ATOM      4  C6  UNL d   1       3.710   5.732  -5.971  0.00  0.00    -0.004 A 
ATOM      5  C7  UNL d   1       2.652   4.827  -5.986  0.00  0.00     0.002 A 
ATOM      6  C8  UNL d   1       2.904   3.454  -6.000  0.00  0.00     0.002 A 
ENDROOT
BRANCH   1   7
ATOM      7  C2  UNL d   1       4.490   1.487  -5.988  0.00  0.00     0.056 C 
BRANCH   7   8
ATOM      8  C1  UNL d   1       5.263   1.001  -4.757  0.00  0.00     0.007 C 
ATOM      9  C   UNL d   1       4.871   1.727  -3.477  0.00  0.00     0.009 C 
ENDBRANCH   7   8
ENDBRANCH   1   7
TORSDOF 2
ENDMDL
