MODEL 1
REMARK minimizedAffinity -2.98156619
REMARK minimizedRMSD -1
REMARK  2 active torsions:
REMARK  status: ('A' for Active; 'I' for Inactive)
REMARK    1  A    between atoms: C1_2  and  C2_3 
REMARK    2  A    between atoms: C2_3  and  C3_4 
ROOT
ATOM      1  C3  UNL d   1       3.617   4.150  -5.006  0.00  0.00    -0.075 A 
ATOM      2  C4  UNL d   1       4.916   4.679  -4.982  0.00  0.00     0.002 A 
ATOM      3  C5  UNL d   1       5.992   3.938  -5.471  0.00  0.00     0.002 A 
ATOM      4  C6  UNL d   1       5.786   2.658  -5.981  0.00  0.00    -0.004 A 
ATOM      5  C7  UNL d   1       4.503   2.116  -5.995  0.00  0.00     0.002 A 
ATOM      6  C8  UNL d   1       3.424   2.857  -5.510  0.00  0.00     0.002 A 
ENDROOT
BRANCH   1   7
ATOM      7  C2  UNL d   1       2.444   4.958  -4.505  0.00  0.00     0.056 C 
BRANCH   7   8
ATOM      8  C1  UNL d   1       1.079   4.400  -4.922  0.00  0.00     0.007 C 
ATOM      9  C   UNL d   1       0.395   5.232  -5.999  0.00  0.00     0.009 C 
ENDBRANCH   7   8
ENDBRANCH   1   7
TORSDOF 2
ENDMDL
