MODEL 1
REMARK minimizedAffinity -2.51981473
REMARK minimizedRMSD -1
REMARK  2 active torsions:
REMARK  status: ('A' for Active; 'I' for Inactive)
REMARK    1  A    between atoms: C1_2  and  C2_3 
REMARK    2  A    between atoms: C2_3  and  C3_4 
ROOT
ATOM      1  C3  UNL d   1       4.076   4.388  -5.760  0.00  0.00    -0.075 A 
ATOM      2  C4  UNL d   1       5.465   4.191  -5.747  0.00  0.00     0.002 A 
ATOM      3  C5  UNL d   1       5.999   2.908  -5.869  0.00  0.00     0.002 A 
ATOM      4  C6  UNL d   1       5.154   1.807  -5.994  0.00  0.00    -0.004 A 
ATOM      5  C7  UNL d   1       3.773   1.989  -5.991  0.00  0.00     0.002 A 
ATOM      6  C8  UNL d   1       3.236   3.272  -5.874  0.00  0.00     0.002 A 
ENDROOT
BRANCH   1   7
ATOM      7  C2  UNL d   1       3.492   5.777  -5.658  0.00  0.00     0.056 C 
BRANCH   7   8
ATOM      8  C1  UNL d   1       2.116   5.827  -4.987  0.00  0.00     0.007 C 
ATOM      9  C   UNL d   1       0.969   5.966  -5.979  0.00  0.00     0.009 C 
ENDBRANCH   7   8
ENDBRANCH   1   7
TORSDOF 2
ENDMDL
