MODEL 1
REMARK minimizedAffinity -2.17448688
REMARK minimizedRMSD -1
REMARK  2 active torsions:
REMARK  status: ('A' for Active; 'I' for Inactive)
REMARK    1  A    between atoms: C1_2  and  C2_3 
REMARK    2  A    between atoms: C2_3  and  C3_4 
ROOT
ATOM      1  C3  UNL d   1       3.548   3.511  -5.756  0.00  0.00    -0.075 A 
ATOM      2  C4  UNL d   1       4.238   4.708  -5.999  0.00  0.00     0.002 A 
ATOM      3  C5  UNL d   1       3.632   5.939  -5.746  0.00  0.00     0.002 A 
ATOM      4  C6  UNL d   1       2.329   5.990  -5.258  0.00  0.00    -0.004 A 
ATOM      5  C7  UNL d   1       1.628   4.808  -5.028  0.00  0.00     0.002 A 
ATOM      6  C8  UNL d   1       2.233   3.575  -5.276  0.00  0.00     0.002 A 
ENDROOT
BRANCH   1   7
ATOM      7  C2  UNL d   1       4.208   2.175  -5.999  0.00  0.00     0.056 C 
BRANCH   7   8
ATOM      8  C1  UNL d   1       4.087   1.197  -4.826  0.00  0.00     0.007 C 
ATOM      9  C   UNL d   1       3.588  -0.181  -5.242  0.00  0.00     0.009 C 
ENDBRANCH   7   8
ENDBRANCH   1   7
TORSDOF 2
ENDMDL
