MODEL 1
REMARK minimizedAffinity 2.37034917
REMARK minimizedRMSD -1
REMARK  0 active torsions:
REMARK  status: ('A' for Active; 'I' for Inactive)
ROOT
ATOM      1  C4' PXY d   1      -0.125   5.187   0.684  0.00  0.00     0.077 C 
ATOM      2  C1' PXY d   1       1.049  -0.417  -0.109  0.00  0.00     0.077 C 
ATOM      3  C1  PXY d   1       0.753   1.056   0.096  0.00  0.00    -0.082 A 
ATOM      4  C2  PXY d   1      -0.258   1.419   0.869  0.00  0.00     0.003 A 
ATOM      5  C3  PXY d   1      -0.559   2.746   1.040  0.00  0.00     0.003 A 
ATOM      6  C4  PXY d   1       0.216   3.712   0.456  0.00  0.00    -0.082 A 
ATOM      7  C5  PXY d   1       1.255   3.350  -0.326  0.00  0.00     0.003 A 
ATOM      8  C6  PXY d   1       1.519   1.997  -0.519  0.00  0.00     0.003 A 
ENDROOT
TORSDOF 0
ENDMDL
