MODEL 1
REMARK minimizedAffinity -2.72224307
REMARK minimizedRMSD -1
REMARK  0 active torsions:
REMARK  status: ('A' for Active; 'I' for Inactive)
ROOT
ATOM      1  C4' PXY d   1      -2.416  -0.136  -0.929  0.00  0.00     0.077 C 
ATOM      2  C1' PXY d   1       3.087  -0.075   0.840  0.00  0.00     0.077 C 
ATOM      3  C1  PXY d   1       1.645  -0.103   0.372  0.00  0.00    -0.082 A 
ATOM      4  C2  PXY d   1       1.036   1.030   0.063  0.00  0.00     0.003 A 
ATOM      5  C3  PXY d   1      -0.278   1.025  -0.331  0.00  0.00     0.003 A 
ATOM      6  C4  PXY d   1      -0.958  -0.156  -0.461  0.00  0.00    -0.082 A 
ATOM      7  C5  PXY d   1      -0.340  -1.317  -0.158  0.00  0.00     0.003 A 
ATOM      8  C6  PXY d   1       0.981  -1.287   0.280  0.00  0.00     0.003 A 
ENDROOT
TORSDOF 0
ENDMDL
