MODEL 1
REMARK minimizedAffinity 4.65515518
REMARK minimizedRMSD -1
REMARK  0 active torsions:
REMARK  status: ('A' for Active; 'I' for Inactive)
ROOT
ATOM      1  C4' PXY d   1       1.793   1.304   3.569  0.00  0.00     0.077 C 
ATOM      2  C1' PXY d   1       1.570   1.357  -2.207  0.00  0.00     0.077 C 
ATOM      3  C1  PXY d   1       1.640   1.337  -0.693  0.00  0.00    -0.082 A 
ATOM      4  C2  PXY d   1       0.523   1.398   0.014  0.00  0.00     0.003 A 
ATOM      5  C3  PXY d   1       0.570   1.413   1.385  0.00  0.00     0.003 A 
ATOM      6  C4  PXY d   1       1.769   1.312   2.038  0.00  0.00    -0.082 A 
ATOM      7  C5  PXY d   1       2.912   1.239   1.323  0.00  0.00     0.003 A 
ATOM      8  C6  PXY d   1       2.846   1.266  -0.067  0.00  0.00     0.003 A 
ENDROOT
TORSDOF 0
ENDMDL
