MODEL 1
REMARK minimizedAffinity -3.46104932
REMARK minimizedRMSD -1
REMARK  0 active torsions:
REMARK  status: ('A' for Active; 'I' for Inactive)
ROOT
ATOM      1  C4' PXY d   1      -0.502   1.383  -1.450  0.00  0.00     0.077 C 
ATOM      2  C1' PXY d   1       4.076  -0.956   1.193  0.00  0.00     0.077 C 
ATOM      3  C1  PXY d   1       2.884  -0.337   0.491  0.00  0.00    -0.082 A 
ATOM      4  C2  PXY d   1       1.756  -0.153   1.158  0.00  0.00     0.003 A 
ATOM      5  C3  PXY d   1       0.657   0.376   0.530  0.00  0.00     0.003 A 
ATOM      6  C4  PXY d   1       0.731   0.770  -0.780  0.00  0.00    -0.082 A 
ATOM      7  C5  PXY d   1       1.882   0.596  -1.463  0.00  0.00     0.003 A 
ATOM      8  C6  PXY d   1       2.972   0.019  -0.819  0.00  0.00     0.003 A 
ENDROOT
TORSDOF 0
ENDMDL
