MODEL 1
REMARK minimizedAffinity -4.31718206
REMARK minimizedRMSD -1
REMARK  0 active torsions:
REMARK  status: ('A' for Active; 'I' for Inactive)
ROOT
ATOM      1  C4' PXY d   1       0.899   2.851  -0.501  0.00  0.00     0.077 C 
ATOM      2  C1' PXY d   1      -0.151  -2.526   1.343  0.00  0.00     0.077 C 
ATOM      3  C1  PXY d   1       0.135  -1.115   0.867  0.00  0.00    -0.082 A 
ATOM      4  C2  PXY d   1      -0.848  -0.380   0.374  0.00  0.00     0.003 A 
ATOM      5  C3  PXY d   1      -0.601   0.887  -0.090  0.00  0.00     0.003 A 
ATOM      6  C4  PXY d   1       0.655   1.425   0.000  0.00  0.00    -0.082 A 
ATOM      7  C5  PXY d   1       1.661   0.684   0.512  0.00  0.00     0.003 A 
ATOM      8  C6  PXY d   1       1.398  -0.614   0.939  0.00  0.00     0.003 A 
ENDROOT
TORSDOF 0
ENDMDL
