MODEL 1
REMARK minimizedAffinity -4.82730055
REMARK minimizedRMSD -1
REMARK  0 active torsions:
REMARK  status: ('A' for Active; 'I' for Inactive)
ROOT
ATOM      1  C4' PXY d   1       1.188   1.935  -0.674  0.00  0.00     0.077 C 
ATOM      2  C1' PXY d   1       1.658  -2.794   2.618  0.00  0.00     0.077 C 
ATOM      3  C1  PXY d   1       1.544  -1.547   1.763  0.00  0.00    -0.082 A 
ATOM      4  C2  PXY d   1       0.451  -1.346   1.044  0.00  0.00     0.003 A 
ATOM      5  C3  PXY d   1       0.344  -0.240   0.240  0.00  0.00     0.003 A 
ATOM      6  C4  PXY d   1       1.344   0.695   0.212  0.00  0.00    -0.082 A 
ATOM      7  C5  PXY d   1       2.457   0.502   0.951  0.00  0.00     0.003 A 
ATOM      8  C6  PXY d   1       2.563  -0.647   1.729  0.00  0.00     0.003 A 
ENDROOT
TORSDOF 0
ENDMDL
