MODEL 1
REMARK minimizedAffinity -4.79753923
REMARK minimizedRMSD -1
REMARK  0 active torsions:
REMARK  status: ('A' for Active; 'I' for Inactive)
ROOT
ATOM      1  C4' PXY d   1       3.293  -0.070   1.081  0.00  0.00     0.077 C 
ATOM      2  C1' PXY d   1      -2.224   0.244  -0.615  0.00  0.00     0.077 C 
ATOM      3  C1  PXY d   1      -0.775   0.172  -0.177  0.00  0.00    -0.082 A 
ATOM      4  C2  PXY d   1      -0.255  -0.992   0.177  0.00  0.00     0.003 A 
ATOM      5  C3  PXY d   1       1.045  -1.069   0.607  0.00  0.00     0.003 A 
ATOM      6  C4  PXY d   1       1.837   0.048   0.623  0.00  0.00    -0.082 A 
ATOM      7  C5  PXY d   1       1.317   1.237   0.253  0.00  0.00     0.003 A 
ATOM      8  C6  PXY d   1      -0.017   1.302  -0.141  0.00  0.00     0.003 A 
ENDROOT
TORSDOF 0
ENDMDL
