MODEL 1
REMARK minimizedAffinity -0.320013762
REMARK minimizedRMSD -1
REMARK  0 active torsions:
REMARK  status: ('A' for Active; 'I' for Inactive)
ROOT
ATOM      1  C4' PXY d   1      -2.469  -0.239  -2.099  0.00  0.00     0.077 C 
ATOM      2  C1' PXY d   1       1.991   0.871   1.407  0.00  0.00     0.077 C 
ATOM      3  C1  PXY d   1       0.818   0.570   0.496  0.00  0.00    -0.082 A 
ATOM      4  C2  PXY d   1       0.865   0.938  -0.774  0.00  0.00     0.003 A 
ATOM      5  C3  PXY d   1      -0.200   0.702  -1.605  0.00  0.00     0.003 A 
ATOM      6  C4  PXY d   1      -1.304   0.035  -1.144  0.00  0.00    -0.082 A 
ATOM      7  C5  PXY d   1      -1.355  -0.353   0.148  0.00  0.00     0.003 A 
ATOM      8  C6  PXY d   1      -0.280  -0.068   0.985  0.00  0.00     0.003 A 
ENDROOT
TORSDOF 0
ENDMDL
