MODEL 1
REMARK minimizedAffinity -1.25844383
REMARK minimizedRMSD -1
REMARK  0 active torsions:
REMARK  status: ('A' for Active; 'I' for Inactive)
ROOT
ATOM      1  C4' PXY d   1       1.883   0.300   1.845  0.00  0.00     0.077 C 
ATOM      2  C1' PXY d   1      -2.989   0.958  -1.195  0.00  0.00     0.077 C 
ATOM      3  C1  PXY d   1      -1.716   0.774  -0.393  0.00  0.00    -0.082 A 
ATOM      4  C2  PXY d   1      -0.991   1.831  -0.065  0.00  0.00     0.003 A 
ATOM      5  C3  PXY d   1       0.180   1.680   0.632  0.00  0.00     0.003 A 
ATOM      6  C4  PXY d   1       0.585   0.439   1.045  0.00  0.00    -0.082 A 
ATOM      7  C5  PXY d   1      -0.155  -0.643   0.724  0.00  0.00     0.003 A 
ATOM      8  C6  PXY d   1      -1.319  -0.473  -0.021  0.00  0.00     0.003 A 
ENDROOT
TORSDOF 0
ENDMDL
