MODEL 1
REMARK minimizedAffinity -4.03473186
REMARK minimizedRMSD -1
REMARK  0 active torsions:
REMARK  status: ('A' for Active; 'I' for Inactive)
ROOT
ATOM      1  C4' PXY d   1      -3.061  -0.393  -3.367  0.00  0.00     0.077 C 
ATOM      2  C1' PXY d   1       0.928   1.092   0.544  0.00  0.00     0.077 C 
ATOM      3  C1  PXY d   1      -0.123   0.694  -0.473  0.00  0.00    -0.082 A 
ATOM      4  C2  PXY d   1       0.136   0.819  -1.764  0.00  0.00     0.003 A 
ATOM      5  C3  PXY d   1      -0.816   0.494  -2.697  0.00  0.00     0.003 A 
ATOM      6  C4  PXY d   1      -2.026  -0.013  -2.305  0.00  0.00    -0.082 A 
ATOM      7  C5  PXY d   1      -2.294  -0.153  -0.989  0.00  0.00     0.003 A 
ATOM      8  C6  PXY d   1      -1.330   0.221  -0.057  0.00  0.00     0.003 A 
ENDROOT
TORSDOF 0
ENDMDL
