MODEL 1
REMARK minimizedAffinity -4.42105436
REMARK minimizedRMSD -1
REMARK  0 active torsions:
REMARK  status: ('A' for Active; 'I' for Inactive)
ROOT
ATOM      1  N1  IND d   1      -0.709  -0.807   0.174  0.00  0.00    -0.196 N 
ATOM      2  C2  IND d   1      -1.706  -0.171  -0.511  0.00  0.00     0.054 A 
ATOM      3  C3  IND d   1      -2.126   0.918   0.171  0.00  0.00    -0.031 A 
ATOM      4  C4  IND d   1      -1.248   1.901   2.383  0.00  0.00     0.051 A 
ATOM      5  C5  IND d   1      -0.370   1.650   3.399  0.00  0.00    -0.031 A 
ATOM      6  C6  IND d   1       0.459   0.547   3.392  0.00  0.00     0.015 A 
ATOM      7  C7  IND d   1       0.448  -0.345   2.357  0.00  0.00    -0.016 A 
ATOM      8  C8  IND d   1      -0.447  -0.097   1.326  0.00  0.00    -0.047 A 
ATOM      9  C9  IND d   1      -1.321   0.998   1.349  0.00  0.00    -0.096 A 
ATOM     10  HN1 IND d   1      -0.312  -1.528  -0.072  0.00  0.00     0.298 HD
ENDROOT
TORSDOF 0
ENDMDL
