MODEL 1
REMARK minimizedAffinity -2.66246295
REMARK minimizedRMSD -1
REMARK  0 active torsions:
REMARK  status: ('A' for Active; 'I' for Inactive)
ROOT
ATOM      1  N1  IND d   1       1.774  -0.640   0.614  0.00  0.00    -0.196 N 
ATOM      2  C2  IND d   1       2.778  -0.722   1.537  0.00  0.00     0.054 A 
ATOM      3  C3  IND d   1       2.336  -0.322   2.750  0.00  0.00    -0.031 A 
ATOM      4  C4  IND d   1      -0.025   0.409   3.470  0.00  0.00     0.051 A 
ATOM      5  C5  IND d   1      -1.269   0.678   2.971  0.00  0.00    -0.031 A 
ATOM      6  C6  IND d   1      -1.569   0.515   1.634  0.00  0.00     0.015 A 
ATOM      7  C7  IND d   1      -0.635   0.064   0.745  0.00  0.00    -0.016 A 
ATOM      8  C8  IND d   1       0.631  -0.203   1.247  0.00  0.00    -0.047 A 
ATOM      9  C9  IND d   1       0.953   0.001   2.595  0.00  0.00    -0.096 A 
ATOM     10  HN1 IND d   1       1.843  -0.831  -0.222  0.00  0.00     0.298 HD
ENDROOT
TORSDOF 0
ENDMDL
