MODEL 1
REMARK minimizedAffinity -3.40936351
REMARK minimizedRMSD -1
REMARK  0 active torsions:
REMARK  status: ('A' for Active; 'I' for Inactive)
ROOT
ATOM      1  N1  IND d   1       1.849   1.133  -1.495  0.00  0.00    -0.196 N 
ATOM      2  C2  IND d   1       1.687   0.427  -2.655  0.00  0.00     0.054 A 
ATOM      3  C3  IND d   1       0.557  -0.313  -2.601  0.00  0.00    -0.031 A 
ATOM      4  C4  IND d   1      -1.228  -0.440  -0.751  0.00  0.00     0.051 A 
ATOM      5  C5  IND d   1      -1.500  -0.003   0.516  0.00  0.00    -0.031 A 
ATOM      6  C6  IND d   1      -0.654   0.854   1.189  0.00  0.00     0.015 A 
ATOM      7  C7  IND d   1       0.495   1.318   0.613  0.00  0.00    -0.016 A 
ATOM      8  C8  IND d   1       0.778   0.870  -0.669  0.00  0.00    -0.047 A 
ATOM      9  C9  IND d   1      -0.055  -0.033  -1.341  0.00  0.00    -0.096 A 
ATOM     10  HN1 IND d   1       2.509   1.653  -1.313  0.00  0.00     0.298 HD
ENDROOT
TORSDOF 0
ENDMDL
