MODEL 1
REMARK minimizedAffinity -0.92182821
REMARK minimizedRMSD -1
REMARK  0 active torsions:
REMARK  status: ('A' for Active; 'I' for Inactive)
ROOT
ATOM      1  N1  IND d   1       2.205  -0.638   1.619  0.00  0.00    -0.196 N 
ATOM      2  C2  IND d   1       2.386  -0.734   2.971  0.00  0.00     0.054 A 
ATOM      3  C3  IND d   1       1.251  -0.394   3.623  0.00  0.00    -0.031 A 
ATOM      4  C4  IND d   1      -1.051   0.254   2.670  0.00  0.00     0.051 A 
ATOM      5  C5  IND d   1      -1.695   0.514   1.493  0.00  0.00    -0.031 A 
ATOM      6  C6  IND d   1      -1.060   0.399   0.274  0.00  0.00     0.015 A 
ATOM      7  C7  IND d   1       0.245   0.007   0.184  0.00  0.00    -0.016 A 
ATOM      8  C8  IND d   1       0.905  -0.252   1.378  0.00  0.00    -0.047 A 
ATOM      9  C9  IND d   1       0.278  -0.096   2.621  0.00  0.00    -0.096 A 
ATOM     10  HN1 IND d   1       2.803  -0.792   1.021  0.00  0.00     0.298 HD
ENDROOT
TORSDOF 0
ENDMDL
