MODEL 1
REMARK minimizedAffinity -5.97649288
REMARK minimizedRMSD -1
REMARK  0 active torsions:
REMARK  status: ('A' for Active; 'I' for Inactive)
ROOT
ATOM      1  N1  IND d   1       1.998  -0.876   0.979  0.00  0.00    -0.196 N 
ATOM      2  C2  IND d   1       1.569  -0.960  -0.317  0.00  0.00     0.054 A 
ATOM      3  C3  IND d   1       0.429  -0.253  -0.482  0.00  0.00    -0.031 A 
ATOM      4  C4  IND d   1      -0.853   1.203   1.211  0.00  0.00     0.051 A 
ATOM      5  C5  IND d   1      -0.868   1.560   2.530  0.00  0.00    -0.031 A 
ATOM      6  C6  IND d   1       0.092   1.117   3.417  0.00  0.00     0.015 A 
ATOM      7  C7  IND d   1       1.114   0.305   3.013  0.00  0.00    -0.016 A 
ATOM      8  C8  IND d   1       1.129  -0.065   1.676  0.00  0.00    -0.047 A 
ATOM      9  C9  IND d   1       0.133   0.347   0.780  0.00  0.00    -0.096 A 
ATOM     10  HN1 IND d   1       2.693  -1.264   1.303  0.00  0.00     0.298 HD
ENDROOT
TORSDOF 0
ENDMDL
