MODEL 1
REMARK minimizedAffinity -1.41414344
REMARK minimizedRMSD -1
REMARK  0 active torsions:
REMARK  status: ('A' for Active; 'I' for Inactive)
ROOT
ATOM      1  N1  IND d   1       0.849  -0.998  -0.225  0.00  0.00    -0.196 N 
ATOM      2  C2  IND d   1      -0.089  -0.903  -1.215  0.00  0.00     0.054 A 
ATOM      3  C3  IND d   1      -1.195  -0.275  -0.757  0.00  0.00    -0.031 A 
ATOM      4  C4  IND d   1      -1.644   0.771   1.553  0.00  0.00     0.051 A 
ATOM      5  C5  IND d   1      -1.099   0.904   2.799  0.00  0.00    -0.031 A 
ATOM      6  C6  IND d   1       0.149   0.403   3.106  0.00  0.00     0.015 A 
ATOM      7  C7  IND d   1       0.907  -0.244   2.171  0.00  0.00    -0.016 A 
ATOM      8  C8  IND d   1       0.354  -0.387   0.907  0.00  0.00    -0.047 A 
ATOM      9  C9  IND d   1      -0.930   0.082   0.601  0.00  0.00    -0.096 A 
ATOM     10  HN1 IND d   1       1.618  -1.375  -0.297  0.00  0.00     0.298 HD
ENDROOT
TORSDOF 0
ENDMDL
