MODEL 1
REMARK minimizedAffinity -0.00318899727
REMARK minimizedRMSD -1
REMARK  0 active torsions:
REMARK  status: ('A' for Active; 'I' for Inactive)
ROOT
ATOM      1  N1  IND d   1       0.416  -0.452  -0.657  0.00  0.00    -0.196 N 
ATOM      2  C2  IND d   1      -0.909  -0.203  -0.884  0.00  0.00     0.054 A 
ATOM      3  C3  IND d   1      -1.576  -0.099   0.287  0.00  0.00    -0.031 A 
ATOM      4  C4  IND d   1      -0.676  -0.201   2.697  0.00  0.00     0.051 A 
ATOM      5  C5  IND d   1       0.462  -0.445   3.412  0.00  0.00    -0.031 A 
ATOM      6  C6  IND d   1       1.668  -0.708   2.795  0.00  0.00     0.015 A 
ATOM      7  C7  IND d   1       1.784  -0.724   1.434  0.00  0.00    -0.016 A 
ATOM      8  C8  IND d   1       0.628  -0.482   0.704  0.00  0.00    -0.047 A 
ATOM      9  C9  IND d   1      -0.608  -0.258   1.325  0.00  0.00    -0.096 A 
ATOM     10  HN1 IND d   1       1.015  -0.570  -1.261  0.00  0.00     0.298 HD
ENDROOT
TORSDOF 0
ENDMDL
