MODEL 1
REMARK minimizedAffinity -4.97559404
REMARK minimizedRMSD -1
REMARK  0 active torsions:
REMARK  status: ('A' for Active; 'I' for Inactive)
ROOT
ATOM      1  N1  IND d   1       1.810  -0.970   0.895  0.00  0.00    -0.196 N 
ATOM      2  C2  IND d   1       2.393  -1.064   2.128  0.00  0.00     0.054 A 
ATOM      3  C3  IND d   1       1.638  -0.433   3.055  0.00  0.00    -0.031 A 
ATOM      4  C4  IND d   1      -0.641   0.733   2.791  0.00  0.00     0.051 A 
ATOM      5  C5  IND d   1      -1.557   1.108   1.847  0.00  0.00    -0.031 A 
ATOM      6  C6  IND d   1      -1.395   0.800   0.512  0.00  0.00     0.015 A 
ATOM      7  C7  IND d   1      -0.312   0.094   0.070  0.00  0.00    -0.016 A 
ATOM      8  C8  IND d   1       0.623  -0.282   1.024  0.00  0.00    -0.047 A 
ATOM      9  C9  IND d   1       0.485   0.064   2.374  0.00  0.00    -0.096 A 
ATOM     10  HN1 IND d   1       2.130  -1.286   0.163  0.00  0.00     0.298 HD
ENDROOT
TORSDOF 0
ENDMDL
