MODEL 1
REMARK minimizedAffinity -3.69795871
REMARK minimizedRMSD -1
REMARK  0 active torsions:
REMARK  status: ('A' for Active; 'I' for Inactive)
ROOT
ATOM      1  N1  IND d   1       2.049  -0.779   1.944  0.00  0.00    -0.196 N 
ATOM      2  C2  IND d   1       1.965  -0.514   3.283  0.00  0.00     0.054 A 
ATOM      3  C3  IND d   1       0.746  -0.014   3.588  0.00  0.00    -0.031 A 
ATOM      4  C4  IND d   1      -1.297   0.357   2.065  0.00  0.00     0.051 A 
ATOM      5  C5  IND d   1      -1.691   0.297   0.758  0.00  0.00    -0.031 A 
ATOM      6  C6  IND d   1      -0.842  -0.136  -0.240  0.00  0.00     0.015 A 
ATOM      7  C7  IND d   1       0.434  -0.538   0.034  0.00  0.00    -0.016 A 
ATOM      8  C8  IND d   1       0.840  -0.471   1.360  0.00  0.00    -0.047 A 
ATOM      9  C9  IND d   1      -0.003   0.007   2.371  0.00  0.00    -0.096 A 
ATOM     10  HN1 IND d   1       2.741  -1.085   1.536  0.00  0.00     0.298 HD
ENDROOT
TORSDOF 0
ENDMDL
