MODEL 1
REMARK minimizedAffinity -4.07386732
REMARK minimizedRMSD -1
REMARK  0 active torsions:
REMARK  status: ('A' for Active; 'I' for Inactive)
ROOT
ATOM      1  N1  IND d   1       1.994  -1.790   0.389  0.00  0.00    -0.196 N 
ATOM      2  C2  IND d   1       1.500  -1.773  -0.885  0.00  0.00     0.054 A 
ATOM      3  C3  IND d   1       0.237  -1.292  -0.894  0.00  0.00    -0.031 A 
ATOM      4  C4  IND d   1      -1.178  -0.377   1.052  0.00  0.00     0.051 A 
ATOM      5  C5  IND d   1      -1.169  -0.220   2.410  0.00  0.00    -0.031 A 
ATOM      6  C6  IND d   1      -0.083  -0.584   3.179  0.00  0.00     0.015 A 
ATOM      7  C7  IND d   1       1.045  -1.109   2.614  0.00  0.00    -0.016 A 
ATOM      8  C8  IND d   1       1.037  -1.276   1.237  0.00  0.00    -0.047 A 
ATOM      9  C9  IND d   1      -0.079  -0.949   0.456  0.00  0.00    -0.096 A 
ATOM     10  HN1 IND d   1       2.771  -2.074   0.622  0.00  0.00     0.298 HD
ENDROOT
TORSDOF 0
ENDMDL
