MODEL 1
REMARK minimizedAffinity -3.95610404
REMARK minimizedRMSD -1
REMARK  0 active torsions:
REMARK  status: ('A' for Active; 'I' for Inactive)
ROOT
ATOM      1  C1  DEN d   1      -0.569   0.507   0.307  0.00  0.00     0.130 A 
ATOM      2  C2  DEN d   1      -0.070   0.007  -0.971  0.00  0.00    -0.031 A 
ATOM      3  C3  DEN d   1      -0.114  -1.469  -0.932  0.00  0.00     0.027 A 
ATOM      4  C4  DEN d   1      -0.909  -3.018   0.971  0.00  0.00     0.027 A 
ATOM      5  C5  DEN d   1      -1.409  -3.055   2.254  0.00  0.00    -0.003 A 
ATOM      6  C6  DEN d   1      -1.631  -1.918   2.984  0.00  0.00     0.001 A 
ATOM      7  C7  DEN d   1      -1.394  -0.692   2.420  0.00  0.00     0.017 A 
ATOM      8  C8  DEN d   1      -0.882  -0.647   1.130  0.00  0.00    -0.094 A 
ATOM      9  C9  DEN d   1      -0.677  -1.808   0.403  0.00  0.00    -0.072 A 
ENDROOT
TORSDOF 0
ENDMDL
