MODEL 1
REMARK minimizedAffinity -3.60078382
REMARK minimizedRMSD -1
REMARK  0 active torsions:
REMARK  status: ('A' for Active; 'I' for Inactive)
ROOT
ATOM      1  C1  DEN d   1       0.070   1.809   1.588  0.00  0.00     0.130 A 
ATOM      2  C2  DEN d   1       1.254   2.630   1.350  0.00  0.00    -0.031 A 
ATOM      3  C3  DEN d   1       2.196   1.845   0.527  0.00  0.00     0.027 A 
ATOM      4  C4  DEN d   1       1.936  -0.547  -0.401  0.00  0.00     0.027 A 
ATOM      5  C5  DEN d   1       1.108  -1.647  -0.453  0.00  0.00    -0.003 A 
ATOM      6  C6  DEN d   1      -0.099  -1.684   0.194  0.00  0.00     0.001 A 
ATOM      7  C7  DEN d   1      -0.533  -0.583   0.884  0.00  0.00     0.017 A 
ATOM      8  C8  DEN d   1       0.299   0.526   0.948  0.00  0.00    -0.094 A 
ATOM      9  C9  DEN d   1       1.510   0.549   0.277  0.00  0.00    -0.072 A 
ENDROOT
TORSDOF 0
ENDMDL
