MODEL 1
REMARK minimizedAffinity -3.19087315
REMARK minimizedRMSD -1
REMARK  0 active torsions:
REMARK  status: ('A' for Active; 'I' for Inactive)
ROOT
ATOM      1  C1  DEN d   1       1.711   2.350   0.686  0.00  0.00     0.130 A 
ATOM      2  C2  DEN d   1       0.532   2.780   1.432  0.00  0.00    -0.031 A 
ATOM      3  C3  DEN d   1      -0.437   1.666   1.435  0.00  0.00     0.027 A 
ATOM      4  C4  DEN d   1      -0.224  -0.673   0.369  0.00  0.00     0.027 A 
ATOM      5  C5  DEN d   1       0.590  -1.497  -0.377  0.00  0.00    -0.003 A 
ATOM      6  C6  DEN d   1       1.810  -1.087  -0.846  0.00  0.00     0.001 A 
ATOM      7  C7  DEN d   1       2.271   0.164  -0.535  0.00  0.00     0.017 A 
ATOM      8  C8  DEN d   1       1.453   1.003   0.210  0.00  0.00    -0.094 A 
ATOM      9  C9  DEN d   1       0.228   0.567   0.685  0.00  0.00    -0.072 A 
ENDROOT
TORSDOF 0
ENDMDL
