MODEL 1
REMARK minimizedAffinity -4.36473942
REMARK minimizedRMSD -1
REMARK  0 active torsions:
REMARK  status: ('A' for Active; 'I' for Inactive)
ROOT
ATOM      1  C1  DEN d   1      -1.002  -0.471   1.479  0.00  0.00     0.130 A 
ATOM      2  C2  DEN d   1      -0.739  -1.427   0.407  0.00  0.00    -0.031 A 
ATOM      3  C3  DEN d   1       0.272  -0.836  -0.493  0.00  0.00     0.027 A 
ATOM      4  C4  DEN d   1       1.451   1.452  -0.329  0.00  0.00     0.027 A 
ATOM      5  C5  DEN d   1       1.547   2.616   0.401  0.00  0.00    -0.003 A 
ATOM      6  C6  DEN d   1       0.781   2.845   1.513  0.00  0.00     0.001 A 
ATOM      7  C7  DEN d   1      -0.082   1.877   1.954  0.00  0.00     0.017 A 
ATOM      8  C8  DEN d   1      -0.190   0.704   1.218  0.00  0.00    -0.094 A 
ATOM      9  C9  DEN d   1       0.602   0.486   0.104  0.00  0.00    -0.072 A 
ENDROOT
TORSDOF 0
ENDMDL
