MODEL 1
REMARK minimizedAffinity -0.148171887
REMARK minimizedRMSD -1
REMARK  0 active torsions:
REMARK  status: ('A' for Active; 'I' for Inactive)
ROOT
ATOM      1  C1  DEN d   1      -2.639  -3.780   0.119  0.00  0.00     0.130 A 
ATOM      2  C2  DEN d   1      -1.828  -3.860   1.330  0.00  0.00    -0.031 A 
ATOM      3  C3  DEN d   1      -0.799  -2.804   1.261  0.00  0.00     0.027 A 
ATOM      4  C4  DEN d   1      -0.386  -1.059  -0.593  0.00  0.00     0.027 A 
ATOM      5  C5  DEN d   1      -0.811  -0.606  -1.823  0.00  0.00    -0.003 A 
ATOM      6  C6  DEN d   1      -1.844  -1.196  -2.502  0.00  0.00     0.001 A 
ATOM      7  C7  DEN d   1      -2.518  -2.245  -1.934  0.00  0.00     0.017 A 
ATOM      8  C8  DEN d   1      -2.091  -2.712  -0.698  0.00  0.00    -0.094 A 
ATOM      9  C9  DEN d   1      -1.052  -2.094  -0.022  0.00  0.00    -0.072 A 
ENDROOT
TORSDOF 0
ENDMDL
