MODEL 1
REMARK minimizedAffinity -4.76835203
REMARK minimizedRMSD -1
REMARK  0 active torsions:
REMARK  status: ('A' for Active; 'I' for Inactive)
ROOT
ATOM      1  C1  DEN d   1      -0.608   1.338   1.185  0.00  0.00     0.130 A 
ATOM      2  C2  DEN d   1       0.100   2.572   1.512  0.00  0.00    -0.031 A 
ATOM      3  C3  DEN d   1       1.475   2.463   0.983  0.00  0.00     0.027 A 
ATOM      4  C4  DEN d   1       2.567   0.515  -0.307  0.00  0.00     0.027 A 
ATOM      5  C5  DEN d   1       2.365  -0.750  -0.812  0.00  0.00    -0.003 A 
ATOM      6  C6  DEN d   1       1.178  -1.417  -0.657  0.00  0.00     0.001 A 
ATOM      7  C7  DEN d   1       0.132  -0.802  -0.021  0.00  0.00     0.017 A 
ATOM      8  C8  DEN d   1       0.331   0.471   0.497  0.00  0.00    -0.094 A 
ATOM      9  C9  DEN d   1       1.534   1.133   0.320  0.00  0.00    -0.072 A 
ENDROOT
TORSDOF 0
ENDMDL
