MODEL 1
REMARK minimizedAffinity -4.93397713
REMARK minimizedRMSD -1
REMARK  0 active torsions:
REMARK  status: ('A' for Active; 'I' for Inactive)
ROOT
ATOM      1  C1  DEN d   1      -1.674  -1.673   2.920  0.00  0.00     0.130 A 
ATOM      2  C2  DEN d   1      -1.632  -3.090   2.571  0.00  0.00    -0.031 A 
ATOM      3  C3  DEN d   1      -0.893  -3.226   1.300  0.00  0.00     0.027 A 
ATOM      4  C4  DEN d   1       0.189  -1.389  -0.152  0.00  0.00     0.027 A 
ATOM      5  C5  DEN d   1       0.405  -0.034  -0.270  0.00  0.00    -0.003 A 
ATOM      6  C6  DEN d   1      -0.082   0.866   0.641  0.00  0.00     0.001 A 
ATOM      7  C7  DEN d   1      -0.771   0.417   1.736  0.00  0.00     0.017 A 
ATOM      8  C8  DEN d   1      -1.000  -0.948   1.859  0.00  0.00    -0.094 A 
ATOM      9  C9  DEN d   1      -0.489  -1.842   0.933  0.00  0.00    -0.072 A 
ENDROOT
TORSDOF 0
ENDMDL
