MODEL 1
REMARK minimizedAffinity -4.93893242
REMARK minimizedRMSD -1
REMARK  0 active torsions:
REMARK  status: ('A' for Active; 'I' for Inactive)
ROOT
ATOM      1  C1  DEN d   1      -0.543  -0.329   1.793  0.00  0.00     0.130 A 
ATOM      2  C2  DEN d   1      -0.740  -1.233   0.664  0.00  0.00    -0.031 A 
ATOM      3  C3  DEN d   1       0.023  -0.703  -0.484  0.00  0.00     0.027 A 
ATOM      4  C4  DEN d   1       1.488   1.416  -0.620  0.00  0.00     0.027 A 
ATOM      5  C5  DEN d   1       1.949   2.508   0.081  0.00  0.00    -0.003 A 
ATOM      6  C6  DEN d   1       1.589   2.747   1.381  0.00  0.00     0.001 A 
ATOM      7  C7  DEN d   1       0.777   1.858   2.035  0.00  0.00     0.017 A 
ATOM      8  C8  DEN d   1       0.302   0.759   1.332  0.00  0.00    -0.094 A 
ATOM      9  C9  DEN d   1       0.688   0.528   0.023  0.00  0.00    -0.072 A 
ENDROOT
TORSDOF 0
ENDMDL
