MODEL 1
REMARK minimizedAffinity -3.31357312
REMARK minimizedRMSD -1
REMARK  0 active torsions:
REMARK  status: ('A' for Active; 'I' for Inactive)
ROOT
ATOM      1  C1  DEN d   1       0.270  -0.834  -0.775  0.00  0.00     0.130 A 
ATOM      2  C2  DEN d   1      -0.247  -1.904   0.073  0.00  0.00    -0.031 A 
ATOM      3  C3  DEN d   1      -0.605  -1.318   1.381  0.00  0.00     0.027 A 
ATOM      4  C4  DEN d   1      -0.416   1.131   2.167  0.00  0.00     0.027 A 
ATOM      5  C5  DEN d   1      -0.024   2.400   1.803  0.00  0.00    -0.003 A 
ATOM      6  C6  DEN d   1       0.521   2.672   0.576  0.00  0.00     0.001 A 
ATOM      7  C7  DEN d   1       0.646   1.668  -0.348  0.00  0.00     0.017 A 
ATOM      8  C8  DEN d   1       0.260   0.385   0.015  0.00  0.00    -0.094 A 
ATOM      9  C9  DEN d   1      -0.299   0.133   1.256  0.00  0.00    -0.072 A 
ENDROOT
TORSDOF 0
ENDMDL
