MODEL 1
REMARK minimizedAffinity -3.49952888
REMARK minimizedRMSD -1
REMARK  0 active torsions:
REMARK  status: ('A' for Active; 'I' for Inactive)
ROOT
ATOM      1  C1  DEN d   1      -0.127   1.656   0.867  0.00  0.00     0.130 A 
ATOM      2  C2  DEN d   1       1.017   2.561   0.804  0.00  0.00    -0.031 A 
ATOM      3  C3  DEN d   1       2.100   1.878   0.068  0.00  0.00     0.027 A 
ATOM      4  C4  DEN d   1       2.115  -0.479  -0.978  0.00  0.00     0.027 A 
ATOM      5  C5  DEN d   1       1.377  -1.626  -1.172  0.00  0.00    -0.003 A 
ATOM      6  C6  DEN d   1       0.109  -1.771  -0.675  0.00  0.00     0.001 A 
ATOM      7  C7  DEN d   1      -0.477  -0.735   0.003  0.00  0.00     0.017 A 
ATOM      8  C8  DEN d   1       0.263   0.422   0.209  0.00  0.00    -0.094 A 
ATOM      9  C9  DEN d   1       1.539   0.554  -0.313  0.00  0.00    -0.072 A 
ENDROOT
TORSDOF 0
ENDMDL
