MODEL 1
REMARK minimizedAffinity -2.25185704
REMARK minimizedRMSD -1
REMARK  0 active torsions:
REMARK  status: ('A' for Active; 'I' for Inactive)
ROOT
ATOM      1  C1  DEN d   1      -3.040  -2.733  -2.650  0.00  0.00     0.130 A 
ATOM      2  C2  DEN d   1      -2.591  -1.778  -3.660  0.00  0.00    -0.031 A 
ATOM      3  C3  DEN d   1      -1.407  -1.074  -3.128  0.00  0.00     0.027 A 
ATOM      4  C4  DEN d   1      -0.228  -1.372  -0.853  0.00  0.00     0.027 A 
ATOM      5  C5  DEN d   1      -0.251  -2.056   0.342  0.00  0.00    -0.003 A 
ATOM      6  C6  DEN d   1      -1.218  -2.981   0.635  0.00  0.00     0.001 A 
ATOM      7  C7  DEN d   1      -2.175  -3.281  -0.297  0.00  0.00     0.017 A 
ATOM      8  C8  DEN d   1      -2.163  -2.590  -1.502  0.00  0.00    -0.094 A 
ATOM      9  C9  DEN d   1      -1.170  -1.667  -1.784  0.00  0.00    -0.072 A 
ENDROOT
TORSDOF 0
ENDMDL
