MODEL 1
REMARK minimizedAffinity -5.00184393
REMARK minimizedRMSD -1
REMARK  0 active torsions:
REMARK  status: ('A' for Active; 'I' for Inactive)
ROOT
ATOM      1  C1  DEN d   1       1.535  -0.617  -1.045  0.00  0.00     0.130 A 
ATOM      2  C2  DEN d   1       0.570  -1.678  -0.770  0.00  0.00    -0.031 A 
ATOM      3  C3  DEN d   1      -0.372  -1.184   0.255  0.00  0.00     0.027 A 
ATOM      4  C4  DEN d   1      -0.431   1.110   1.433  0.00  0.00     0.027 A 
ATOM      5  C5  DEN d   1       0.191   2.334   1.538  0.00  0.00    -0.003 A 
ATOM      6  C6  DEN d   1       1.316   2.646   0.821  0.00  0.00     0.001 A 
ATOM      7  C7  DEN d   1       1.827   1.738  -0.068  0.00  0.00     0.017 A 
ATOM      8  C8  DEN d   1       1.209   0.498  -0.174  0.00  0.00    -0.094 A 
ATOM      9  C9  DEN d   1       0.066   0.207   0.550  0.00  0.00    -0.072 A 
ENDROOT
TORSDOF 0
ENDMDL
