MODEL 1
REMARK minimizedAffinity -0.877923131
REMARK minimizedRMSD -1
REMARK  0 active torsions:
REMARK  status: ('A' for Active; 'I' for Inactive)
ROOT
ATOM      1  C1  DEN d   1      -2.860  -1.118  -3.504  0.00  0.00     0.130 A 
ATOM      2  C2  DEN d   1      -1.460  -0.806  -3.229  0.00  0.00    -0.031 A 
ATOM      3  C3  DEN d   1      -1.074  -1.499  -1.983  0.00  0.00     0.027 A 
ATOM      4  C4  DEN d   1      -2.499  -3.020  -0.464  0.00  0.00     0.027 A 
ATOM      5  C5  DEN d   1      -3.748  -3.570  -0.281  0.00  0.00    -0.003 A 
ATOM      6  C6  DEN d   1      -4.790  -3.316  -1.134  0.00  0.00     0.001 A 
ATOM      7  C7  DEN d   1      -4.589  -2.526  -2.235  0.00  0.00     0.017 A 
ATOM      8  C8  DEN d   1      -3.334  -1.962  -2.422  0.00  0.00    -0.094 A 
ATOM      9  C9  DEN d   1      -2.290  -2.241  -1.555  0.00  0.00    -0.072 A 
ENDROOT
TORSDOF 0
ENDMDL
