MODEL 1
REMARK minimizedAffinity -3.14622068
REMARK minimizedRMSD -1
REMARK  0 active torsions:
REMARK  status: ('A' for Active; 'I' for Inactive)
ROOT
ATOM      1  C1  DEN d   1      -0.362  -1.239   0.375  0.00  0.00     0.130 A 
ATOM      2  C2  DEN d   1       0.367  -1.869  -0.722  0.00  0.00    -0.031 A 
ATOM      3  C3  DEN d   1       1.319  -0.879  -1.264  0.00  0.00     0.027 A 
ATOM      4  C4  DEN d   1       1.736   1.552  -0.513  0.00  0.00     0.027 A 
ATOM      5  C5  DEN d   1       1.350   2.536   0.371  0.00  0.00    -0.003 A 
ATOM      6  C6  DEN d   1       0.351   2.343   1.287  0.00  0.00     0.001 A 
ATOM      7  C7  DEN d   1      -0.266   1.123   1.372  0.00  0.00     0.017 A 
ATOM      8  C8  DEN d   1       0.113   0.128   0.480  0.00  0.00    -0.094 A 
ATOM      9  C9  DEN d   1       1.133   0.339  -0.432  0.00  0.00    -0.072 A 
ENDROOT
TORSDOF 0
ENDMDL
