MODEL 1
REMARK minimizedAffinity -4.17774963
REMARK minimizedRMSD -1
REMARK  0 active torsions:
REMARK  status: ('A' for Active; 'I' for Inactive)
ROOT
ATOM      1  C1  DEN d   1      -2.770  -3.369   0.235  0.00  0.00     0.130 A 
ATOM      2  C2  DEN d   1      -1.931  -3.225   1.422  0.00  0.00    -0.031 A 
ATOM      3  C3  DEN d   1      -0.979  -2.122   1.176  0.00  0.00     0.027 A 
ATOM      4  C4  DEN d   1      -0.728  -0.631  -0.913  0.00  0.00     0.027 A 
ATOM      5  C5  DEN d   1      -1.208  -0.384  -2.180  0.00  0.00    -0.003 A 
ATOM      6  C6  DEN d   1      -2.211  -1.130  -2.740  0.00  0.00     0.001 A 
ATOM      7  C7  DEN d   1      -2.798  -2.132  -2.012  0.00  0.00     0.017 A 
ATOM      8  C8  DEN d   1      -2.314  -2.392  -0.737  0.00  0.00    -0.094 A 
ATOM      9  C9  DEN d   1      -1.308  -1.618  -0.185  0.00  0.00    -0.072 A 
ENDROOT
TORSDOF 0
ENDMDL
