MODEL 1
REMARK minimizedAffinity 4.67768908
REMARK minimizedRMSD -1
REMARK  0 active torsions:
REMARK  status: ('A' for Active; 'I' for Inactive)
ROOT
ATOM      1  N1  IND d   1       3.102   1.028  -0.038  0.00  0.00    -0.196 N 
ATOM      2  C2  IND d   1       3.138   2.134   0.765  0.00  0.00     0.054 A 
ATOM      3  C3  IND d   1       2.414   1.923   1.887  0.00  0.00    -0.031 A 
ATOM      4  C4  IND d   1       1.171  -0.195   2.659  0.00  0.00     0.051 A 
ATOM      5  C5  IND d   1       0.822  -1.450   2.245  0.00  0.00    -0.031 A 
ATOM      6  C6  IND d   1       1.226  -1.954   1.026  0.00  0.00     0.015 A 
ATOM      7  C7  IND d   1       2.007  -1.223   0.176  0.00  0.00    -0.016 A 
ATOM      8  C8  IND d   1       2.357   0.054   0.590  0.00  0.00    -0.047 A 
ATOM      9  C9  IND d   1       1.914   0.587   1.807  0.00  0.00    -0.096 A 
ATOM     10  HN1 IND d   1       3.481   0.954  -0.806  0.00  0.00     0.298 HD
ENDROOT
TORSDOF 0
ENDMDL
