MODEL 1
REMARK minimizedAffinity -6.54326725
REMARK minimizedRMSD -1
REMARK  0 active torsions:
REMARK  status: ('A' for Active; 'I' for Inactive)
ROOT
ATOM      1  N1  IND d   1      -4.745   2.047  -4.108  0.00  0.00    -0.196 N 
ATOM      2  C2  IND d   1      -4.090   2.702  -3.102  0.00  0.00     0.054 A 
ATOM      3  C3  IND d   1      -3.222   1.869  -2.486  0.00  0.00    -0.031 A 
ATOM      4  C4  IND d   1      -2.639  -0.579  -3.028  0.00  0.00     0.051 A 
ATOM      5  C5  IND d   1      -3.002  -1.619  -3.836  0.00  0.00    -0.031 A 
ATOM      6  C6  IND d   1      -3.983  -1.487  -4.798  0.00  0.00     0.015 A 
ATOM      7  C7  IND d   1      -4.632  -0.301  -4.995  0.00  0.00    -0.016 A 
ATOM      8  C8  IND d   1      -4.270   0.755  -4.171  0.00  0.00    -0.047 A 
ATOM      9  C9  IND d   1      -3.306   0.615  -3.165  0.00  0.00    -0.096 A 
ATOM     10  HN1 IND d   1      -5.351   2.385  -4.615  0.00  0.00     0.298 HD
ENDROOT
TORSDOF 0
ENDMDL
