MODEL 1
REMARK minimizedAffinity -0.82693249
REMARK minimizedRMSD -1
REMARK  0 active torsions:
REMARK  status: ('A' for Active; 'I' for Inactive)
ROOT
ATOM      1  N1  IND d   1       2.099   0.024  -0.143  0.00  0.00    -0.196 N 
ATOM      2  C2  IND d   1       3.002   0.203  -1.153  0.00  0.00     0.054 A 
ATOM      3  C3  IND d   1       3.779  -0.895  -1.289  0.00  0.00    -0.031 A 
ATOM      4  C4  IND d   1       3.675  -3.138  -0.031  0.00  0.00     0.051 A 
ATOM      5  C5  IND d   1       3.040  -3.764   1.004  0.00  0.00    -0.031 A 
ATOM      6  C6  IND d   1       2.037  -3.148   1.724  0.00  0.00     0.015 A 
ATOM      7  C7  IND d   1       1.621  -1.881   1.425  0.00  0.00    -0.016 A 
ATOM      8  C8  IND d   1       2.269  -1.240   0.378  0.00  0.00    -0.047 A 
ATOM      9  C9  IND d   1       3.317  -1.845  -0.328  0.00  0.00    -0.096 A 
ATOM     10  HN1 IND d   1       1.521   0.603   0.123  0.00  0.00     0.298 HD
ENDROOT
TORSDOF 0
ENDMDL
