MODEL 1
REMARK minimizedAffinity 0.916399658
REMARK minimizedRMSD -1
REMARK  0 active torsions:
REMARK  status: ('A' for Active; 'I' for Inactive)
ROOT
ATOM      1  N1  IND d   1       3.665  -2.429   3.293  0.00  0.00    -0.196 N 
ATOM      2  C2  IND d   1       3.119  -3.098   2.233  0.00  0.00     0.054 A 
ATOM      3  C3  IND d   1       3.319  -4.428   2.364  0.00  0.00    -0.031 A 
ATOM      4  C4  IND d   1       4.426  -5.736   4.285  0.00  0.00     0.051 A 
ATOM      5  C5  IND d   1       5.108  -5.558   5.457  0.00  0.00    -0.031 A 
ATOM      6  C6  IND d   1       5.345  -4.303   5.979  0.00  0.00     0.015 A 
ATOM      7  C7  IND d   1       4.899  -3.174   5.352  0.00  0.00    -0.016 A 
ATOM      8  C8  IND d   1       4.213  -3.350   4.159  0.00  0.00    -0.047 A 
ATOM      9  C9  IND d   1       4.005  -4.619   3.602  0.00  0.00    -0.096 A 
ATOM     10  HN1 IND d   1       3.666  -1.576   3.402  0.00  0.00     0.298 HD
ENDROOT
TORSDOF 0
ENDMDL
