MODEL 1
REMARK minimizedAffinity 5.08122063
REMARK minimizedRMSD -1
REMARK  0 active torsions:
REMARK  status: ('A' for Active; 'I' for Inactive)
ROOT
ATOM      1  N1  IND d   1      -5.595  -1.338  -3.271  0.00  0.00    -0.196 N 
ATOM      2  C2  IND d   1      -4.511  -1.870  -2.630  0.00  0.00     0.054 A 
ATOM      3  C3  IND d   1      -3.370  -1.309  -3.090  0.00  0.00    -0.031 A 
ATOM      4  C4  IND d   1      -3.053   0.571  -4.819  0.00  0.00     0.051 A 
ATOM      5  C5  IND d   1      -3.746   1.349  -5.704  0.00  0.00    -0.031 A 
ATOM      6  C6  IND d   1      -5.119   1.271  -5.824  0.00  0.00     0.015 A 
ATOM      7  C7  IND d   1      -5.854   0.417  -5.051  0.00  0.00    -0.016 A 
ATOM      8  C8  IND d   1      -5.153  -0.379  -4.157  0.00  0.00    -0.047 A 
ATOM      9  C9  IND d   1      -3.756  -0.335  -4.061  0.00  0.00    -0.096 A 
ATOM     10  HN1 IND d   1      -6.414  -1.564  -3.143  0.00  0.00     0.298 HD
ENDROOT
TORSDOF 0
ENDMDL
