MODEL 1
REMARK minimizedAffinity 8.70055294
REMARK minimizedRMSD -1
REMARK  0 active torsions:
REMARK  status: ('A' for Active; 'I' for Inactive)
ROOT
ATOM      1  N1  IND d   1       1.416  -2.186  -0.200  0.00  0.00    -0.196 N 
ATOM      2  C2  IND d   1       1.046  -1.207   0.679  0.00  0.00     0.054 A 
ATOM      3  C3  IND d   1       1.519  -1.482   1.916  0.00  0.00    -0.031 A 
ATOM      4  C4  IND d   1       3.007  -3.430   2.702  0.00  0.00     0.051 A 
ATOM      5  C5  IND d   1       3.573  -4.596   2.268  0.00  0.00    -0.031 A 
ATOM      6  C6  IND d   1       3.449  -5.025   0.963  0.00  0.00     0.015 A 
ATOM      7  C7  IND d   1       2.761  -4.296   0.035  0.00  0.00    -0.016 A 
ATOM      8  C8  IND d   1       2.178  -3.115   0.473  0.00  0.00    -0.047 A 
ATOM      9  C9  IND d   1       2.265  -2.696   1.807  0.00  0.00    -0.096 A 
ATOM     10  HN1 IND d   1       1.208  -2.217  -1.034  0.00  0.00     0.298 HD
ENDROOT
TORSDOF 0
ENDMDL
