MODEL 1
REMARK minimizedAffinity 5.32368708
REMARK minimizedRMSD -1
REMARK  0 active torsions:
REMARK  status: ('A' for Active; 'I' for Inactive)
ROOT
ATOM      1  N1  IND d   1       3.797   2.175   0.597  0.00  0.00    -0.196 N 
ATOM      2  C2  IND d   1       3.824   1.481  -0.580  0.00  0.00     0.054 A 
ATOM      3  C3  IND d   1       2.988   0.420  -0.520  0.00  0.00    -0.031 A 
ATOM      4  C4  IND d   1       1.403  -0.307   1.374  0.00  0.00     0.051 A 
ATOM      5  C5  IND d   1       1.054  -0.008   2.661  0.00  0.00    -0.031 A 
ATOM      6  C6  IND d   1       1.611   1.057   3.339  0.00  0.00     0.015 A 
ATOM      7  C7  IND d   1       2.533   1.874   2.748  0.00  0.00    -0.016 A 
ATOM      8  C8  IND d   1       2.895   1.569   1.444  0.00  0.00    -0.047 A 
ATOM      9  C9  IND d   1       2.365   0.463   0.765  0.00  0.00    -0.096 A 
ATOM     10  HN1 IND d   1       4.266   2.873   0.779  0.00  0.00     0.298 HD
ENDROOT
TORSDOF 0
ENDMDL
