MODEL 1
REMARK minimizedAffinity 3.89436126
REMARK minimizedRMSD -1
REMARK  0 active torsions:
REMARK  status: ('A' for Active; 'I' for Inactive)
ROOT
ATOM      1  N1  IND d   1      -3.552   2.653  -4.023  0.00  0.00    -0.196 N 
ATOM      2  C2  IND d   1      -2.695   2.678  -2.958  0.00  0.00     0.054 A 
ATOM      3  C3  IND d   1      -2.651   1.466  -2.361  0.00  0.00    -0.031 A 
ATOM      4  C4  IND d   1      -3.825  -0.728  -3.023  0.00  0.00     0.051 A 
ATOM      5  C5  IND d   1      -4.738  -1.238  -3.903  0.00  0.00    -0.031 A 
ATOM      6  C6  IND d   1      -5.312  -0.462  -4.889  0.00  0.00     0.015 A 
ATOM      7  C7  IND d   1      -4.984   0.856  -5.040  0.00  0.00    -0.016 A 
ATOM      8  C8  IND d   1      -4.063   1.379  -4.144  0.00  0.00    -0.047 A 
ATOM      9  C9  IND d   1      -3.509   0.607  -3.115  0.00  0.00    -0.096 A 
ATOM     10  HN1 IND d   1      -3.741   3.320  -4.531  0.00  0.00     0.298 HD
ENDROOT
TORSDOF 0
ENDMDL
