MODEL 1
REMARK minimizedAffinity 4.99439764
REMARK minimizedRMSD -1
REMARK  0 active torsions:
REMARK  status: ('A' for Active; 'I' for Inactive)
ROOT
ATOM      1  N1  IND d   1       2.326   1.584   1.359  0.00  0.00    -0.196 N 
ATOM      2  C2  IND d   1       3.104   1.559   0.235  0.00  0.00     0.054 A 
ATOM      3  C3  IND d   1       3.140   0.311  -0.284  0.00  0.00    -0.031 A 
ATOM      4  C4  IND d   1       1.916  -1.818   0.488  0.00  0.00     0.051 A 
ATOM      5  C5  IND d   1       1.119  -2.300   1.489  0.00  0.00    -0.031 A 
ATOM      6  C6  IND d   1       0.673  -1.494   2.516  0.00  0.00     0.015 A 
ATOM      7  C7  IND d   1       0.998  -0.169   2.576  0.00  0.00    -0.016 A 
ATOM      8  C8  IND d   1       1.813   0.322   1.566  0.00  0.00    -0.047 A 
ATOM      9  C9  IND d   1       2.304  -0.500   0.543  0.00  0.00    -0.096 A 
ATOM     10  HN1 IND d   1       2.181   2.272   1.854  0.00  0.00     0.298 HD
ENDROOT
TORSDOF 0
ENDMDL
