MODEL 1
REMARK minimizedAffinity 4.08347082
REMARK minimizedRMSD -1
REMARK  0 active torsions:
REMARK  status: ('A' for Active; 'I' for Inactive)
ROOT
ATOM      1  N1  IND d   1      -3.594   1.987  -4.877  0.00  0.00    -0.196 N 
ATOM      2  C2  IND d   1      -3.999   1.320  -6.000  0.00  0.00     0.054 A 
ATOM      3  C3  IND d   1      -4.132   0.000  -5.741  0.00  0.00    -0.031 A 
ATOM      4  C4  IND d   1      -3.836  -1.269  -3.521  0.00  0.00     0.051 A 
ATOM      5  C5  IND d   1      -3.437  -1.095  -2.225  0.00  0.00    -0.031 A 
ATOM      6  C6  IND d   1      -3.066   0.141  -1.737  0.00  0.00     0.015 A 
ATOM      7  C7  IND d   1      -3.090   1.256  -2.526  0.00  0.00    -0.016 A 
ATOM      8  C8  IND d   1      -3.487   1.081  -3.844  0.00  0.00    -0.047 A 
ATOM      9  C9  IND d   1      -3.825  -0.178  -4.357  0.00  0.00    -0.096 A 
ATOM     10  HN1 IND d   1      -3.433   2.830  -4.824  0.00  0.00     0.298 HD
ENDROOT
TORSDOF 0
ENDMDL
