MODEL 1
REMARK minimizedAffinity 0.82861042
REMARK minimizedRMSD -1
REMARK  0 active torsions:
REMARK  status: ('A' for Active; 'I' for Inactive)
ROOT
ATOM      1  N1  IND d   1       3.232   5.920   2.208  0.00  0.00    -0.196 N 
ATOM      2  C2  IND d   1       4.570   5.935   2.486  0.00  0.00     0.054 A 
ATOM      3  C3  IND d   1       4.772   5.991   3.822  0.00  0.00    -0.031 A 
ATOM      4  C4  IND d   1       3.053   5.966   5.738  0.00  0.00     0.051 A 
ATOM      5  C5  IND d   1       1.708   5.996   5.979  0.00  0.00    -0.031 A 
ATOM      6  C6  IND d   1       0.784   5.999   4.955  0.00  0.00     0.015 A 
ATOM      7  C7  IND d   1       1.171   5.961   3.646  0.00  0.00    -0.016 A 
ATOM      8  C8  IND d   1       2.536   5.938   3.397  0.00  0.00    -0.047 A 
ATOM      9  C9  IND d   1       3.480   5.978   4.431  0.00  0.00    -0.096 A 
ATOM     10  HN1 IND d   1       2.883   5.903   1.422  0.00  0.00     0.298 HD
ENDROOT
TORSDOF 0
ENDMDL
