MODEL 1
REMARK minimizedAffinity 1.73245764
REMARK minimizedRMSD -1
REMARK  2 active torsions:
REMARK  status: ('A' for Active; 'I' for Inactive)
REMARK    1  A    between atoms: C2'_3  and  C1'_4 
REMARK    2  A    between atoms: C1'_4  and  C1_5 
ROOT
ATOM      1  C1  I4B d   1       0.368  -0.665   0.828  0.00  0.00    -0.075 A 
ATOM      2  C2  I4B d   1      -0.175  -1.504   1.770  0.00  0.00     0.003 A 
ATOM      3  C3  I4B d   1       0.179  -2.874   1.793  0.00  0.00     0.002 A 
ATOM      4  C4  I4B d   1       1.035  -3.371   0.831  0.00  0.00    -0.004 A 
ATOM      5  C5  I4B d   1       1.602  -2.515  -0.109  0.00  0.00     0.002 A 
ATOM      6  C6  I4B d   1       1.276  -1.151  -0.103  0.00  0.00     0.003 A 
ENDROOT
BRANCH   1   7
ATOM      7  C1' I4B d   1      -0.054   0.770   0.812  0.00  0.00     0.060 C 
BRANCH   7   8
ATOM      8  C2' I4B d   1      -1.564   0.811   0.694  0.00  0.00    -0.013 C 
ATOM      9  C4' I4B d   1      -2.095   2.193   0.974  0.00  0.00     0.013 C 
ATOM     10  C3' I4B d   1      -1.933   0.359  -0.687  0.00  0.00     0.013 C 
ENDBRANCH   7   8
ENDBRANCH   1   7
TORSDOF 2
ENDMDL
