MODEL 1
REMARK minimizedAffinity -4.09089899
REMARK minimizedRMSD -1
REMARK  2 active torsions:
REMARK  status: ('A' for Active; 'I' for Inactive)
REMARK    1  A    between atoms: C2'_3  and  C1'_4 
REMARK    2  A    between atoms: C1'_4  and  C1_5 
ROOT
ATOM      1  C1  I4B d   1       1.325  -2.882  -0.126  0.00  0.00    -0.075 A 
ATOM      2  C2  I4B d   1       1.755  -1.579  -0.157  0.00  0.00     0.003 A 
ATOM      3  C3  I4B d   1       0.971  -0.556   0.427  0.00  0.00     0.002 A 
ATOM      4  C4  I4B d   1      -0.252  -0.870   0.984  0.00  0.00    -0.004 A 
ATOM      5  C5  I4B d   1      -0.676  -2.195   1.035  0.00  0.00     0.002 A 
ATOM      6  C6  I4B d   1       0.123  -3.210   0.488  0.00  0.00     0.003 A 
ENDROOT
BRANCH   1   7
ATOM      7  C1' I4B d   1       2.163  -3.934  -0.782  0.00  0.00     0.060 C 
BRANCH   7   8
ATOM      8  C2' I4B d   1       3.487  -4.001  -0.048  0.00  0.00    -0.013 C 
ATOM      9  C4' I4B d   1       4.305  -5.180  -0.505  0.00  0.00     0.013 C 
ATOM     10  C3' I4B d   1       4.215  -2.712  -0.287  0.00  0.00     0.013 C 
ENDBRANCH   7   8
ENDBRANCH   1   7
TORSDOF 2
ENDMDL
