MODEL 1
REMARK minimizedAffinity 1.77291715
REMARK minimizedRMSD -1
REMARK  2 active torsions:
REMARK  status: ('A' for Active; 'I' for Inactive)
REMARK    1  A    between atoms: C2'_3  and  C1'_4 
REMARK    2  A    between atoms: C1'_4  and  C1_5 
ROOT
ATOM      1  C1  I4B d   1       1.743  -3.309   0.129  0.00  0.00    -0.075 A 
ATOM      2  C2  I4B d   1       2.430  -2.136   0.320  0.00  0.00     0.003 A 
ATOM      3  C3  I4B d   1       1.754  -0.981   0.782  0.00  0.00     0.002 A 
ATOM      4  C4  I4B d   1       0.391  -1.030   0.992  0.00  0.00    -0.004 A 
ATOM      5  C5  I4B d   1      -0.300  -2.226   0.819  0.00  0.00     0.002 A 
ATOM      6  C6  I4B d   1       0.382  -3.376   0.397  0.00  0.00     0.003 A 
ENDROOT
BRANCH   1   7
ATOM      7  C1' I4B d   1       2.482  -4.501  -0.392  0.00  0.00     0.060 C 
BRANCH   7   8
ATOM      8  C2' I4B d   1       3.813  -4.576   0.329  0.00  0.00    -0.013 C 
ATOM      9  C4' I4B d   1       4.294  -5.999   0.439  0.00  0.00     0.013 C 
ATOM     10  C3' I4B d   1       4.796  -3.729  -0.423  0.00  0.00     0.013 C 
ENDBRANCH   7   8
ENDBRANCH   1   7
TORSDOF 2
ENDMDL
