MODEL 1
REMARK minimizedAffinity -3.09896064
REMARK minimizedRMSD -1
REMARK  2 active torsions:
REMARK  status: ('A' for Active; 'I' for Inactive)
REMARK    1  A    between atoms: C2'_3  and  C1'_4 
REMARK    2  A    between atoms: C1'_4  and  C1_5 
ROOT
ATOM      1  C1  I4B d   1       1.471  -2.830   0.721  0.00  0.00    -0.075 A 
ATOM      2  C2  I4B d   1       0.129  -2.723   0.988  0.00  0.00     0.003 A 
ATOM      3  C3  I4B d   1      -0.493  -1.452   1.017  0.00  0.00     0.002 A 
ATOM      4  C4  I4B d   1       0.269  -0.318   0.824  0.00  0.00    -0.004 A 
ATOM      5  C5  I4B d   1       1.625  -0.429   0.531  0.00  0.00     0.002 A 
ATOM      6  C6  I4B d   1       2.228  -1.693   0.466  0.00  0.00     0.003 A 
ENDROOT
BRANCH   1   7
ATOM      7  C1' I4B d   1       2.103  -4.186   0.731  0.00  0.00     0.060 C 
BRANCH   7   8
ATOM      8  C2' I4B d   1       3.340  -4.131  -0.142  0.00  0.00    -0.013 C 
ATOM      9  C4' I4B d   1       4.186  -2.929   0.185  0.00  0.00     0.013 C 
ATOM     10  C3' I4B d   1       4.107  -5.404   0.060  0.00  0.00     0.013 C 
ENDBRANCH   7   8
ENDBRANCH   1   7
TORSDOF 2
ENDMDL
