MODEL 1
REMARK minimizedAffinity -5.57186317
REMARK minimizedRMSD -1
REMARK  2 active torsions:
REMARK  status: ('A' for Active; 'I' for Inactive)
REMARK    1  A    between atoms: C2'_3  and  C1'_4 
REMARK    2  A    between atoms: C1'_4  and  C1_5 
ROOT
ATOM      1  C1  I4B d   1      -0.420  -1.478   0.788  0.00  0.00    -0.075 A 
ATOM      2  C2  I4B d   1       0.583  -0.546   0.689  0.00  0.00     0.003 A 
ATOM      3  C3  I4B d   1       1.924  -0.959   0.498  0.00  0.00     0.002 A 
ATOM      4  C4  I4B d   1       2.222  -2.306   0.462  0.00  0.00    -0.004 A 
ATOM      5  C5  I4B d   1       1.201  -3.249   0.540  0.00  0.00     0.002 A 
ATOM      6  C6  I4B d   1      -0.130  -2.833   0.692  0.00  0.00     0.003 A 
ENDROOT
BRANCH   1   7
ATOM      7  C1' I4B d   1      -1.820  -1.008   1.023  0.00  0.00     0.060 C 
BRANCH   7   8
ATOM      8  C2' I4B d   1      -1.891   0.456   0.640  0.00  0.00    -0.013 C 
ATOM      9  C4' I4B d   1      -3.264   0.824   0.142  0.00  0.00     0.013 C 
ATOM     10  C3' I4B d   1      -1.517   1.268   1.844  0.00  0.00     0.013 C 
ENDBRANCH   7   8
ENDBRANCH   1   7
TORSDOF 2
ENDMDL
