MODEL 1
REMARK minimizedAffinity -3.92429566
REMARK minimizedRMSD -1
REMARK  2 active torsions:
REMARK  status: ('A' for Active; 'I' for Inactive)
REMARK    1  A    between atoms: C2'_3  and  C1'_4 
REMARK    2  A    between atoms: C1'_4  and  C1_5 
ROOT
ATOM      1  C1  I4B d   1       1.265  -2.566   0.269  0.00  0.00    -0.075 A 
ATOM      2  C2  I4B d   1      -0.102  -2.446   0.252  0.00  0.00     0.003 A 
ATOM      3  C3  I4B d   1      -0.719  -1.261   0.722  0.00  0.00     0.002 A 
ATOM      4  C4  I4B d   1       0.060  -0.250   1.244  0.00  0.00    -0.004 A 
ATOM      5  C5  I4B d   1       1.448  -0.364   1.240  0.00  0.00     0.002 A 
ATOM      6  C6  I4B d   1       2.055  -1.525   0.738  0.00  0.00     0.003 A 
ENDROOT
BRANCH   1   7
ATOM      7  C1' I4B d   1       1.882  -3.844  -0.205  0.00  0.00     0.060 C 
BRANCH   7   8
ATOM      8  C2' I4B d   1       3.270  -3.943   0.396  0.00  0.00    -0.013 C 
ATOM      9  C4' I4B d   1       3.919  -5.258   0.053  0.00  0.00     0.013 C 
ATOM     10  C3' I4B d   1       4.079  -2.789  -0.117  0.00  0.00     0.013 C 
ENDBRANCH   7   8
ENDBRANCH   1   7
TORSDOF 2
ENDMDL
