MODEL 1
REMARK minimizedAffinity 2.84593248
REMARK minimizedRMSD -1
REMARK  2 active torsions:
REMARK  status: ('A' for Active; 'I' for Inactive)
REMARK    1  A    between atoms: C2'_3  and  C1'_4 
REMARK    2  A    between atoms: C1'_4  and  C1_5 
ROOT
ATOM      1  C1  I4B d   1       4.590   4.117  -0.507  0.00  0.00    -0.075 A 
ATOM      2  C2  I4B d   1       5.522   5.110  -0.340  0.00  0.00     0.003 A 
ATOM      3  C3  I4B d   1       5.428   5.999   0.758  0.00  0.00     0.002 A 
ATOM      4  C4  I4B d   1       4.365   5.891   1.631  0.00  0.00    -0.004 A 
ATOM      5  C5  I4B d   1       3.434   4.868   1.473  0.00  0.00     0.002 A 
ATOM      6  C6  I4B d   1       3.553   3.968   0.405  0.00  0.00     0.003 A 
ENDROOT
BRANCH   1   7
ATOM      7  C1' I4B d   1       4.701   3.216  -1.696  0.00  0.00     0.060 C 
BRANCH   7   8
ATOM      8  C2' I4B d   1       3.418   2.417  -1.798  0.00  0.00    -0.013 C 
ATOM      9  C4' I4B d   1       2.612   2.831  -3.000  0.00  0.00     0.013 C 
ATOM     10  C3' I4B d   1       3.783   0.963  -1.864  0.00  0.00     0.013 C 
ENDBRANCH   7   8
ENDBRANCH   1   7
TORSDOF 2
ENDMDL
