MODEL 1
REMARK minimizedAffinity -0.90308392
REMARK minimizedRMSD -1
REMARK  2 active torsions:
REMARK  status: ('A' for Active; 'I' for Inactive)
REMARK    1  A    between atoms: C2'_3  and  C1'_4 
REMARK    2  A    between atoms: C1'_4  and  C1_5 
ROOT
ATOM      1  C1  I4B d   1       1.811  -2.559   0.171  0.00  0.00    -0.075 A 
ATOM      2  C2  I4B d   1       1.444  -3.871   0.337  0.00  0.00     0.003 A 
ATOM      3  C3  I4B d   1       2.430  -4.884   0.408  0.00  0.00     0.002 A 
ATOM      4  C4  I4B d   1       3.761  -4.549   0.259  0.00  0.00    -0.004 A 
ATOM      5  C5  I4B d   1       4.133  -3.215   0.114  0.00  0.00     0.002 A 
ATOM      6  C6  I4B d   1       3.153  -2.212   0.082  0.00  0.00     0.003 A 
ENDROOT
BRANCH   1   7
ATOM      7  C1' I4B d   1       0.742  -1.518   0.067  0.00  0.00     0.060 C 
BRANCH   7   8
ATOM      8  C2' I4B d   1       0.214  -1.251   1.462  0.00  0.00    -0.013 C 
ATOM      9  C4' I4B d   1       1.241  -0.545   2.308  0.00  0.00     0.013 C 
ATOM     10  C3' I4B d   1      -1.037  -0.433   1.334  0.00  0.00     0.013 C 
ENDBRANCH   7   8
ENDBRANCH   1   7
TORSDOF 2
ENDMDL
