MODEL 1
REMARK minimizedAffinity -2.50186968
REMARK minimizedRMSD -1
REMARK  2 active torsions:
REMARK  status: ('A' for Active; 'I' for Inactive)
REMARK    1  A    between atoms: C2'_3  and  C1'_4 
REMARK    2  A    between atoms: C1'_4  and  C1_5 
ROOT
ATOM      1  C1  I4B d   1       1.875   4.518  -4.648  0.00  0.00    -0.075 A 
ATOM      2  C2  I4B d   1       1.561   5.245  -5.769  0.00  0.00     0.003 A 
ATOM      3  C3  I4B d   1       0.364   6.000  -5.817  0.00  0.00     0.002 A 
ATOM      4  C4  I4B d   1      -0.509   5.958  -4.749  0.00  0.00    -0.004 A 
ATOM      5  C5  I4B d   1      -0.178   5.238  -3.604  0.00  0.00     0.002 A 
ATOM      6  C6  I4B d   1       1.027   4.523  -3.548  0.00  0.00     0.003 A 
ENDROOT
BRANCH   1   7
ATOM      7  C1' I4B d   1       3.132   3.706  -4.645  0.00  0.00     0.060 C 
BRANCH   7   8
ATOM      8  C2' I4B d   1       3.344   3.181  -3.239  0.00  0.00    -0.013 C 
ATOM      9  C4' I4B d   1       3.443   1.679  -3.227  0.00  0.00     0.013 C 
ATOM     10  C3' I4B d   1       4.592   3.810  -2.694  0.00  0.00     0.013 C 
ENDBRANCH   7   8
ENDBRANCH   1   7
TORSDOF 2
ENDMDL
