MODEL 1
REMARK minimizedAffinity 0.873766065
REMARK minimizedRMSD -1
REMARK  2 active torsions:
REMARK  status: ('A' for Active; 'I' for Inactive)
REMARK    1  A    between atoms: C2'_3  and  C1'_4 
REMARK    2  A    between atoms: C1'_4  and  C1_5 
ROOT
ATOM      1  C1  I4B d   1       0.822  -2.332   0.634  0.00  0.00    -0.075 A 
ATOM      2  C2  I4B d   1       1.985  -1.610   0.534  0.00  0.00     0.003 A 
ATOM      3  C3  I4B d   1       3.188  -2.245   0.142  0.00  0.00     0.002 A 
ATOM      4  C4  I4B d   1       3.193  -3.606  -0.090  0.00  0.00    -0.004 A 
ATOM      5  C5  I4B d   1       2.008  -4.332  -0.011  0.00  0.00     0.002 A 
ATOM      6  C6  I4B d   1       0.813  -3.690   0.342  0.00  0.00     0.003 A 
ENDROOT
BRANCH   1   7
ATOM      7  C1' I4B d   1      -0.423  -1.635   1.083  0.00  0.00     0.060 C 
BRANCH   7   8
ATOM      8  C2' I4B d   1      -0.017  -0.334   1.744  0.00  0.00    -0.013 C 
ATOM      9  C4' I4B d   1      -1.134   0.675   1.694  0.00  0.00     0.013 C 
ATOM     10  C3' I4B d   1       0.376  -0.636   3.159  0.00  0.00     0.013 C 
ENDBRANCH   7   8
ENDBRANCH   1   7
TORSDOF 2
ENDMDL
