MODEL 1
REMARK minimizedAffinity 5.80946016
REMARK minimizedRMSD -1
REMARK  2 active torsions:
REMARK  status: ('A' for Active; 'I' for Inactive)
REMARK    1  A    between atoms: C2'_3  and  C1'_4 
REMARK    2  A    between atoms: C1'_4  and  C1_5 
ROOT
ATOM      1  C1  I4B d   1       0.720  -2.583   1.381  0.00  0.00    -0.075 A 
ATOM      2  C2  I4B d   1       0.910  -1.761   2.464  0.00  0.00     0.003 A 
ATOM      3  C3  I4B d   1       0.240  -0.516   2.540  0.00  0.00     0.002 A 
ATOM      4  C4  I4B d   1      -0.565  -0.112   1.495  0.00  0.00    -0.004 A 
ATOM      5  C5  I4B d   1      -0.774  -0.957   0.408  0.00  0.00     0.002 A 
ATOM      6  C6  I4B d   1      -0.138  -2.205   0.356  0.00  0.00     0.003 A 
ENDROOT
BRANCH   1   7
ATOM      7  C1' I4B d   1       1.469  -3.876   1.317  0.00  0.00     0.060 C 
BRANCH   7   8
ATOM      8  C2' I4B d   1       2.141  -3.960  -0.038  0.00  0.00    -0.013 C 
ATOM      9  C4' I4B d   1       3.338  -4.873   0.002  0.00  0.00     0.013 C 
ATOM     10  C3' I4B d   1       1.124  -4.444  -1.029  0.00  0.00     0.013 C 
ENDBRANCH   7   8
ENDBRANCH   1   7
TORSDOF 2
ENDMDL
