MODEL 1
REMARK minimizedAffinity -1.47805476
REMARK minimizedRMSD -1
REMARK  2 active torsions:
REMARK  status: ('A' for Active; 'I' for Inactive)
REMARK    1  A    between atoms: C2'_3  and  C1'_4 
REMARK    2  A    between atoms: C1'_4  and  C1_5 
ROOT
ATOM      1  C1  I4B d   1       1.254  -2.695  -0.159  0.00  0.00    -0.075 A 
ATOM      2  C2  I4B d   1       1.756  -1.421  -0.249  0.00  0.00     0.003 A 
ATOM      3  C3  I4B d   1       1.075  -0.341   0.364  0.00  0.00     0.002 A 
ATOM      4  C4  I4B d   1      -0.123  -0.571   1.009  0.00  0.00    -0.004 A 
ATOM      5  C5  I4B d   1      -0.619  -1.867   1.119  0.00  0.00     0.002 A 
ATOM      6  C6  I4B d   1       0.080  -2.937   0.542  0.00  0.00     0.003 A 
ENDROOT
BRANCH   1   7
ATOM      7  C1' I4B d   1       1.981  -3.807  -0.846  0.00  0.00     0.060 C 
BRANCH   7   8
ATOM      8  C2' I4B d   1       3.238  -4.102  -0.053  0.00  0.00    -0.013 C 
ATOM      9  C4' I4B d   1       3.813  -5.444  -0.422  0.00  0.00     0.013 C 
ATOM     10  C3' I4B d   1       4.221  -3.000  -0.317  0.00  0.00     0.013 C 
ENDBRANCH   7   8
ENDBRANCH   1   7
TORSDOF 2
ENDMDL
