MODEL 1
REMARK minimizedAffinity 3.39136529
REMARK minimizedRMSD -1
REMARK  0 active torsions:
REMARK  status: ('A' for Active; 'I' for Inactive)
ROOT
ATOM      1  C   UNL d   1       2.598  -2.554   1.699  0.00  0.00     0.023 A 
ATOM      2  C1  UNL d   1       2.266  -2.949   0.403  0.00  0.00     0.003 A 
ATOM      3  C2  UNL d   1       3.157  -3.725  -0.342  0.00  0.00     0.048 A 
ATOM      4  C3  UNL d   1       4.378  -4.103   0.216  0.00  0.00     0.023 A 
ATOM      5  C4  UNL d   1       4.714  -3.712   1.513  0.00  0.00     0.048 A 
ATOM      6  C5  UNL d   1       3.820  -2.935   2.253  0.00  0.00     0.003 A 
ATOM      7  I   UNL d   1       5.705  -5.258  -0.890  0.00  0.00    -0.146 I 
ENDROOT
TORSDOF 0
ENDMDL
