MODEL 1
REMARK minimizedAffinity 10.9716396
REMARK minimizedRMSD -1
REMARK  0 active torsions:
REMARK  status: ('A' for Active; 'I' for Inactive)
ROOT
ATOM      1  C   UNL d   1       4.190   2.566   1.225  0.00  0.00     0.023 A 
ATOM      2  C1  UNL d   1       2.991   2.340   1.902  0.00  0.00     0.003 A 
ATOM      3  C2  UNL d   1       2.278   1.159   1.686  0.00  0.00     0.048 A 
ATOM      4  C3  UNL d   1       2.769   0.209   0.792  0.00  0.00     0.023 A 
ATOM      5  C4  UNL d   1       3.969   0.431   0.113  0.00  0.00     0.048 A 
ATOM      6  C5  UNL d   1       4.678   1.613   0.332  0.00  0.00     0.003 A 
ATOM      7  I   UNL d   1       1.710  -1.550   0.468  0.00  0.00    -0.146 I 
ENDROOT
TORSDOF 0
ENDMDL
