MODEL 1
REMARK minimizedAffinity 8.84608364
REMARK minimizedRMSD -1
REMARK  0 active torsions:
REMARK  status: ('A' for Active; 'I' for Inactive)
ROOT
ATOM      1  C   UNL d   1      -2.732   1.260  -2.338  0.00  0.00     0.023 A 
ATOM      2  C1  UNL d   1      -2.580   2.573  -2.783  0.00  0.00     0.003 A 
ATOM      3  C2  UNL d   1      -3.487   3.111  -3.699  0.00  0.00     0.048 A 
ATOM      4  C3  UNL d   1      -4.543   2.330  -4.166  0.00  0.00     0.023 A 
ATOM      5  C4  UNL d   1      -4.699   1.015  -3.724  0.00  0.00     0.048 A 
ATOM      6  C5  UNL d   1      -3.790   0.482  -2.808  0.00  0.00     0.003 A 
ATOM      7  I   UNL d   1      -5.893   3.127  -5.530  0.00  0.00    -0.146 I 
ENDROOT
TORSDOF 0
ENDMDL
