MODEL 1
REMARK minimizedAffinity 9.68003273
REMARK minimizedRMSD -1
REMARK  0 active torsions:
REMARK  status: ('A' for Active; 'I' for Inactive)
ROOT
ATOM      1  C   UNL d   1      -2.757   3.232  -3.811  0.00  0.00     0.023 A 
ATOM      2  C1  UNL d   1      -1.948   3.138  -2.678  0.00  0.00     0.003 A 
ATOM      3  C2  UNL d   1      -1.899   1.947  -1.951  0.00  0.00     0.048 A 
ATOM      4  C3  UNL d   1      -2.660   0.853  -2.364  0.00  0.00     0.023 A 
ATOM      5  C4  UNL d   1      -3.470   0.943  -3.497  0.00  0.00     0.048 A 
ATOM      6  C5  UNL d   1      -3.517   2.136  -4.220  0.00  0.00     0.003 A 
ATOM      7  I   UNL d   1      -2.588  -0.921  -1.283  0.00  0.00    -0.146 I 
ENDROOT
TORSDOF 0
ENDMDL
