MODEL 1
REMARK minimizedAffinity 3.89404607
REMARK minimizedRMSD -1
REMARK  0 active torsions:
REMARK  status: ('A' for Active; 'I' for Inactive)
ROOT
ATOM      1  C   UNL d   1       3.034   5.872  -5.946  0.00  0.00     0.023 A 
ATOM      2  C1  UNL d   1       2.413   4.632  -5.800  0.00  0.00     0.003 A 
ATOM      3  C2  UNL d   1       3.180   3.488  -5.567  0.00  0.00     0.048 A 
ATOM      4  C3  UNL d   1       4.568   3.592  -5.481  0.00  0.00     0.023 A 
ATOM      5  C4  UNL d   1       5.194   4.832  -5.626  0.00  0.00     0.048 A 
ATOM      6  C5  UNL d   1       4.423   5.972  -5.859  0.00  0.00     0.003 A 
ATOM      7  I   UNL d   1       5.711   1.892  -5.136  0.00  0.00    -0.146 I 
ENDROOT
TORSDOF 0
ENDMDL
