MODEL 1
REMARK minimizedAffinity 11.1836557
REMARK minimizedRMSD -1
REMARK  0 active torsions:
REMARK  status: ('A' for Active; 'I' for Inactive)
ROOT
ATOM      1  C   UNL d   1       4.292  -4.570   2.577  0.00  0.00     0.023 A 
ATOM      2  C1  UNL d   1       3.726  -3.964   1.456  0.00  0.00     0.003 A 
ATOM      3  C2  UNL d   1       4.103  -4.373   0.175  0.00  0.00     0.048 A 
ATOM      4  C3  UNL d   1       5.045  -5.389   0.023  0.00  0.00     0.023 A 
ATOM      5  C4  UNL d   1       5.614  -5.999   1.142  0.00  0.00     0.048 A 
ATOM      6  C5  UNL d   1       5.235  -5.586   2.421  0.00  0.00     0.003 A 
ATOM      7  I   UNL d   1       5.608  -6.000  -1.883  0.00  0.00    -0.146 I 
ENDROOT
TORSDOF 0
ENDMDL
