MODEL 1
REMARK minimizedAffinity 9.49385357
REMARK minimizedRMSD -1
REMARK  0 active torsions:
REMARK  status: ('A' for Active; 'I' for Inactive)
ROOT
ATOM      1  C   UNL d   1       5.410  -4.840   6.000  0.00  0.00     0.023 A 
ATOM      2  C1  UNL d   1       5.867  -3.682   5.370  0.00  0.00     0.003 A 
ATOM      3  C2  UNL d   1       5.958  -3.632   3.978  0.00  0.00     0.048 A 
ATOM      4  C3  UNL d   1       5.590  -4.744   3.221  0.00  0.00     0.023 A 
ATOM      5  C4  UNL d   1       5.132  -5.905   3.846  0.00  0.00     0.048 A 
ATOM      6  C5  UNL d   1       5.043  -5.950   5.239  0.00  0.00     0.003 A 
ATOM      7  I   UNL d   1       5.725  -4.673   1.148  0.00  0.00    -0.146 I 
ENDROOT
TORSDOF 0
ENDMDL
