MODEL 1
REMARK minimizedAffinity 8.6368885
REMARK minimizedRMSD -1
REMARK  0 active torsions:
REMARK  status: ('A' for Active; 'I' for Inactive)
ROOT
ATOM      1  C   UNL d   1       4.747  -5.574   1.085  0.00  0.00     0.023 A 
ATOM      2  C1  UNL d   1       4.546  -4.977  -0.159  0.00  0.00     0.003 A 
ATOM      3  C2  UNL d   1       3.713  -3.861  -0.273  0.00  0.00     0.048 A 
ATOM      4  C3  UNL d   1       3.086  -3.348   0.861  0.00  0.00     0.023 A 
ATOM      5  C4  UNL d   1       3.285  -3.942   2.109  0.00  0.00     0.048 A 
ATOM      6  C5  UNL d   1       4.117  -5.057   2.218  0.00  0.00     0.003 A 
ATOM      7  I   UNL d   1       1.846  -1.688   0.694  0.00  0.00    -0.146 I 
ENDROOT
TORSDOF 0
ENDMDL
