MODEL 1
REMARK minimizedAffinity 9.68997765
REMARK minimizedRMSD -1
REMARK  0 active torsions:
REMARK  status: ('A' for Active; 'I' for Inactive)
ROOT
ATOM      1  C   UNL d   1       5.440   1.624  -5.202  0.00  0.00     0.023 A 
ATOM      2  C1  UNL d   1       5.999   2.652  -5.961  0.00  0.00     0.003 A 
ATOM      3  C2  UNL d   1       5.387   3.907  -5.998  0.00  0.00     0.048 A 
ATOM      4  C3  UNL d   1       4.216   4.127  -5.272  0.00  0.00     0.023 A 
ATOM      5  C4  UNL d   1       3.654   3.101  -4.510  0.00  0.00     0.048 A 
ATOM      6  C5  UNL d   1       4.269   1.848  -4.478  0.00  0.00     0.003 A 
ATOM      7  I   UNL d   1       3.304   5.993  -5.324  0.00  0.00    -0.146 I 
ENDROOT
TORSDOF 0
ENDMDL
