MODEL 1
REMARK minimizedAffinity 6.31221867
REMARK minimizedRMSD -1
REMARK  0 active torsions:
REMARK  status: ('A' for Active; 'I' for Inactive)
ROOT
ATOM      1  C   UNL d   1       1.585   0.032   3.240  0.00  0.00     0.023 A 
ATOM      2  C1  UNL d   1       0.573  -0.894   2.988  0.00  0.00     0.003 A 
ATOM      3  C2  UNL d   1      -0.767  -0.512   3.088  0.00  0.00     0.048 A 
ATOM      4  C3  UNL d   1      -1.087   0.799   3.439  0.00  0.00     0.023 A 
ATOM      5  C4  UNL d   1      -0.078   1.730   3.691  0.00  0.00     0.048 A 
ATOM      6  C5  UNL d   1       1.260   1.343   3.591  0.00  0.00     0.003 A 
ATOM      7  I   UNL d   1      -3.080   1.371   3.588  0.00  0.00    -0.146 I 
ENDROOT
TORSDOF 0
ENDMDL
