MODEL 1
REMARK minimizedAffinity 15.9910307
REMARK minimizedRMSD -1
REMARK  0 active torsions:
REMARK  status: ('A' for Active; 'I' for Inactive)
ROOT
ATOM      1  C   UNL d   1      -2.512   2.627  -2.999  0.00  0.00     0.023 A 
ATOM      2  C1  UNL d   1      -2.995   2.707  -4.305  0.00  0.00     0.003 A 
ATOM      3  C2  UNL d   1      -3.996   1.834  -4.736  0.00  0.00     0.048 A 
ATOM      4  C3  UNL d   1      -4.510   0.883  -3.855  0.00  0.00     0.023 A 
ATOM      5  C4  UNL d   1      -4.031   0.799  -2.547  0.00  0.00     0.048 A 
ATOM      6  C5  UNL d   1      -3.030   1.674  -2.121  0.00  0.00     0.003 A 
ATOM      7  I   UNL d   1      -6.000  -0.418  -4.494  0.00  0.00    -0.146 I 
ENDROOT
TORSDOF 0
ENDMDL
