MODEL 1
REMARK minimizedAffinity 9.02112961
REMARK minimizedRMSD -1
REMARK  0 active torsions:
REMARK  status: ('A' for Active; 'I' for Inactive)
ROOT
ATOM      1  C   UNL d   1       4.862   5.998  -5.678  0.00  0.00     0.023 A 
ATOM      2  C1  UNL d   1       6.000   5.238  -5.950  0.00  0.00     0.003 A 
ATOM      3  C2  UNL d   1       5.976   3.853  -5.767  0.00  0.00     0.048 A 
ATOM      4  C3  UNL d   1       4.810   3.236  -5.313  0.00  0.00     0.023 A 
ATOM      5  C4  UNL d   1       3.670   3.993  -5.041  0.00  0.00     0.048 A 
ATOM      6  C5  UNL d   1       3.699   5.377  -5.224  0.00  0.00     0.003 A 
ATOM      7  I   UNL d   1       4.772   1.176  -5.040  0.00  0.00    -0.146 I 
ENDROOT
TORSDOF 0
ENDMDL
