MODEL 1
REMARK minimizedAffinity 9.46733665
REMARK minimizedRMSD -1
REMARK  0 active torsions:
REMARK  status: ('A' for Active; 'I' for Inactive)
ROOT
ATOM      1  C   UNL d   1       3.498   5.596  -5.652  0.00  0.00     0.023 A 
ATOM      2  C1  UNL d   1       2.185   5.999  -5.899  0.00  0.00     0.003 A 
ATOM      3  C2  UNL d   1       1.164   5.050  -5.971  0.00  0.00     0.048 A 
ATOM      4  C3  UNL d   1       1.462   3.699  -5.795  0.00  0.00     0.023 A 
ATOM      5  C4  UNL d   1       2.774   3.291  -5.546  0.00  0.00     0.048 A 
ATOM      6  C5  UNL d   1       3.792   4.244  -5.476  0.00  0.00     0.003 A 
ATOM      7  I   UNL d   1      -0.056   2.284  -5.902  0.00  0.00    -0.146 I 
ENDROOT
TORSDOF 0
ENDMDL
