MODEL 1
REMARK minimizedAffinity 1.62850273
REMARK minimizedRMSD -1
REMARK  0 active torsions:
REMARK  status: ('A' for Active; 'I' for Inactive)
ROOT
ATOM      1  C   UNL d   1      -2.776   1.003  -0.862  0.00  0.00     0.023 A 
ATOM      2  C1  UNL d   1      -2.697   0.933  -2.253  0.00  0.00     0.003 A 
ATOM      3  C2  UNL d   1      -1.725   1.668  -2.935  0.00  0.00     0.048 A 
ATOM      4  C3  UNL d   1      -0.836   2.469  -2.221  0.00  0.00     0.023 A 
ATOM      5  C4  UNL d   1      -0.911   2.542  -0.829  0.00  0.00     0.048 A 
ATOM      6  C5  UNL d   1      -1.885   1.806  -0.151  0.00  0.00     0.003 A 
ATOM      7  I   UNL d   1       0.611   3.564  -3.235  0.00  0.00    -0.146 I 
ENDROOT
TORSDOF 0
ENDMDL
