MODEL 1
REMARK minimizedAffinity 3.72187638
REMARK minimizedRMSD -1
REMARK  0 active torsions:
REMARK  status: ('A' for Active; 'I' for Inactive)
ROOT
ATOM      1  C   UNL d   1      -0.097   0.281   1.693  0.00  0.00     0.023 A 
ATOM      2  C1  UNL d   1       1.239   0.076   1.349  0.00  0.00     0.003 A 
ATOM      3  C2  UNL d   1       1.604  -1.042   0.596  0.00  0.00     0.048 A 
ATOM      4  C3  UNL d   1       0.627  -1.950   0.189  0.00  0.00     0.023 A 
ATOM      5  C4  UNL d   1      -0.711  -1.749   0.530  0.00  0.00     0.048 A 
ATOM      6  C5  UNL d   1      -1.071  -0.630   1.284  0.00  0.00     0.003 A 
ATOM      7  I   UNL d   1       1.168  -3.615  -0.932  0.00  0.00    -0.146 I 
ENDROOT
TORSDOF 0
ENDMDL
