MODEL 1
REMARK minimizedAffinity 1.58265984
REMARK minimizedRMSD -1
REMARK  0 active torsions:
REMARK  status: ('A' for Active; 'I' for Inactive)
ROOT
ATOM      1  C   UNL d   1      -1.298  -1.849   0.661  0.00  0.00     0.023 A 
ATOM      2  C1  UNL d   1      -0.687  -0.807   1.358  0.00  0.00     0.003 A 
ATOM      3  C2  UNL d   1       0.680  -0.570   1.206  0.00  0.00     0.048 A 
ATOM      4  C3  UNL d   1       1.431  -1.379   0.354  0.00  0.00     0.023 A 
ATOM      5  C4  UNL d   1       0.825  -2.423  -0.347  0.00  0.00     0.048 A 
ATOM      6  C5  UNL d   1      -0.543  -2.656  -0.191  0.00  0.00     0.003 A 
ATOM      7  I   UNL d   1       3.467  -1.028   0.125  0.00  0.00    -0.146 I 
ENDROOT
TORSDOF 0
ENDMDL
