MODEL 1
REMARK minimizedAffinity -2.49743581
REMARK minimizedRMSD -1
REMARK  0 active torsions:
REMARK  status: ('A' for Active; 'I' for Inactive)
ROOT
ATOM      1  C   UNL d   1      -5.231  -5.729   3.061  0.00  0.00     0.023 A 
ATOM      2  C1  UNL d   1      -5.222  -5.902   4.445  0.00  0.00     0.003 A 
ATOM      3  C2  UNL d   1      -5.197  -4.791   5.290  0.00  0.00     0.048 A 
ATOM      4  C3  UNL d   1      -5.182  -3.508   4.743  0.00  0.00     0.023 A 
ATOM      5  C4  UNL d   1      -5.191  -3.329   3.359  0.00  0.00     0.048 A 
ATOM      6  C5  UNL d   1      -5.216  -4.444   2.519  0.00  0.00     0.003 A 
ATOM      7  I   UNL d   1      -5.144  -1.851   5.998  0.00  0.00    -0.146 I 
ENDROOT
TORSDOF 0
ENDMDL
