MODEL 1
REMARK minimizedAffinity 1.32973099
REMARK minimizedRMSD -1
REMARK  0 active torsions:
REMARK  status: ('A' for Active; 'I' for Inactive)
ROOT
ATOM      1  C   UNL d   1       1.523  -0.696   1.816  0.00  0.00     0.023 A 
ATOM      2  C1  UNL d   1       2.512  -1.233   0.993  0.00  0.00     0.003 A 
ATOM      3  C2  UNL d   1       2.185  -2.213   0.053  0.00  0.00     0.048 A 
ATOM      4  C3  UNL d   1       0.866  -2.650  -0.060  0.00  0.00     0.023 A 
ATOM      5  C4  UNL d   1      -0.128  -2.114   0.762  0.00  0.00     0.048 A 
ATOM      6  C5  UNL d   1       0.204  -1.136   1.701  0.00  0.00     0.003 A 
ATOM      7  I   UNL d   1       0.376  -4.107  -1.458  0.00  0.00    -0.146 I 
ENDROOT
TORSDOF 0
ENDMDL
