MODEL 1
REMARK minimizedAffinity 1.17216158
REMARK minimizedRMSD -1
REMARK  0 active torsions:
REMARK  status: ('A' for Active; 'I' for Inactive)
ROOT
ATOM      1  C   UNL d   1      -0.101   0.228   1.921  0.00  0.00     0.023 A 
ATOM      2  C1  UNL d   1       1.188  -0.294   1.821  0.00  0.00     0.003 A 
ATOM      3  C2  UNL d   1       1.437  -1.390   0.992  0.00  0.00     0.048 A 
ATOM      4  C3  UNL d   1       0.391  -1.959   0.266  0.00  0.00     0.023 A 
ATOM      5  C4  UNL d   1      -0.901  -1.439   0.362  0.00  0.00     0.048 A 
ATOM      6  C5  UNL d   1      -1.144  -0.344   1.192  0.00  0.00     0.003 A 
ATOM      7  I   UNL d   1       0.759  -3.590  -0.968  0.00  0.00    -0.146 I 
ENDROOT
TORSDOF 0
ENDMDL
