MODEL 1
REMARK minimizedAffinity 7.17078304
REMARK minimizedRMSD -1
REMARK  0 active torsions:
REMARK  status: ('A' for Active; 'I' for Inactive)
ROOT
ATOM      1  C   UNL d   1       3.015  -0.198   2.732  0.00  0.00     0.023 A 
ATOM      2  C1  UNL d   1       1.828  -0.561   3.367  0.00  0.00     0.003 A 
ATOM      3  C2  UNL d   1       0.687  -0.840   2.611  0.00  0.00     0.048 A 
ATOM      4  C3  UNL d   1       0.741  -0.754   1.220  0.00  0.00     0.023 A 
ATOM      5  C4  UNL d   1       1.928  -0.392   0.580  0.00  0.00     0.048 A 
ATOM      6  C5  UNL d   1       3.065  -0.113   1.340  0.00  0.00     0.003 A 
ATOM      7  I   UNL d   1      -0.955  -1.169   0.093  0.00  0.00    -0.146 I 
ENDROOT
TORSDOF 0
ENDMDL
