MODEL 1
REMARK minimizedAffinity 2.96047878
REMARK minimizedRMSD -1
REMARK  0 active torsions:
REMARK  status: ('A' for Active; 'I' for Inactive)
ROOT
ATOM      1  C   UNL d   1      -1.367  -1.481   0.548  0.00  0.00     0.023 A 
ATOM      2  C1  UNL d   1      -1.252  -0.274   1.239  0.00  0.00     0.003 A 
ATOM      3  C2  UNL d   1       0.008   0.211   1.595  0.00  0.00     0.048 A 
ATOM      4  C3  UNL d   1       1.150  -0.515   1.257  0.00  0.00     0.023 A 
ATOM      5  C4  UNL d   1       1.040  -1.723   0.565  0.00  0.00     0.048 A 
ATOM      6  C5  UNL d   1      -0.222  -2.204   0.212  0.00  0.00     0.003 A 
ATOM      7  I   UNL d   1       3.026   0.204   1.785  0.00  0.00    -0.146 I 
ENDROOT
TORSDOF 0
ENDMDL
