MODEL 1
REMARK minimizedAffinity 3.85480618
REMARK minimizedRMSD -1
REMARK  0 active torsions:
REMARK  status: ('A' for Active; 'I' for Inactive)
ROOT
ATOM      1  C   UNL d   1      -0.805  -1.166   0.248  0.00  0.00     0.023 A 
ATOM      2  C1  UNL d   1       0.396  -1.534  -0.357  0.00  0.00     0.003 A 
ATOM      3  C2  UNL d   1       1.609  -1.076   0.162  0.00  0.00     0.048 A 
ATOM      4  C3  UNL d   1       1.613  -0.251   1.286  0.00  0.00     0.023 A 
ATOM      5  C4  UNL d   1       0.413   0.119   1.894  0.00  0.00     0.048 A 
ATOM      6  C5  UNL d   1      -0.797  -0.340   1.372  0.00  0.00     0.003 A 
ATOM      7  I   UNL d   1       3.418   0.432   2.059  0.00  0.00    -0.146 I 
ENDROOT
TORSDOF 0
ENDMDL
