MODEL 1
REMARK minimizedAffinity -1.27535224
REMARK minimizedRMSD -1
REMARK  0 active torsions:
REMARK  status: ('A' for Active; 'I' for Inactive)
ROOT
ATOM      1  C   UNL d   1       1.763  -2.718  -0.180  0.00  0.00     0.023 A 
ATOM      2  C1  UNL d   1       2.157  -1.446   0.237  0.00  0.00     0.003 A 
ATOM      3  C2  UNL d   1       1.214  -0.560   0.764  0.00  0.00     0.048 A 
ATOM      4  C3  UNL d   1      -0.119  -0.953   0.873  0.00  0.00     0.023 A 
ATOM      5  C4  UNL d   1      -0.517  -2.226   0.458  0.00  0.00     0.048 A 
ATOM      6  C5  UNL d   1       0.428  -3.107  -0.069  0.00  0.00     0.003 A 
ATOM      7  I   UNL d   1      -1.523   0.363   1.658  0.00  0.00    -0.146 I 
ENDROOT
TORSDOF 0
ENDMDL
