MODEL 1
REMARK minimizedAffinity 10.2102394
REMARK minimizedRMSD -1
REMARK  0 active torsions:
REMARK  status: ('A' for Active; 'I' for Inactive)
ROOT
ATOM      1  C   UNL d   1       0.649  -0.105   1.495  0.00  0.00     0.023 A 
ATOM      2  C1  UNL d   1       1.754  -0.924   1.265  0.00  0.00     0.003 A 
ATOM      3  C2  UNL d   1       1.630  -2.055   0.455  0.00  0.00     0.048 A 
ATOM      4  C3  UNL d   1       0.398  -2.360  -0.123  0.00  0.00     0.023 A 
ATOM      5  C4  UNL d   1      -0.711  -1.543   0.104  0.00  0.00     0.048 A 
ATOM      6  C5  UNL d   1      -0.582  -0.414   0.916  0.00  0.00     0.003 A 
ATOM      7  I   UNL d   1       0.211  -4.042  -1.329  0.00  0.00    -0.146 I 
ENDROOT
TORSDOF 0
ENDMDL
