MODEL 1
REMARK minimizedAffinity -1.88199532
REMARK minimizedRMSD -1
REMARK  0 active torsions:
REMARK  status: ('A' for Active; 'I' for Inactive)
ROOT
ATOM      1  C   UNL d   1       3.118  -3.154  -0.684  0.00  0.00     0.023 A 
ATOM      2  C1  UNL d   1       1.859  -3.738  -0.550  0.00  0.00     0.003 A 
ATOM      3  C2  UNL d   1       0.793  -2.994  -0.040  0.00  0.00     0.048 A 
ATOM      4  C3  UNL d   1       0.993  -1.666   0.333  0.00  0.00     0.023 A 
ATOM      5  C4  UNL d   1       2.251  -1.076   0.200  0.00  0.00     0.048 A 
ATOM      6  C5  UNL d   1       3.314  -1.824  -0.310  0.00  0.00     0.003 A 
ATOM      7  I   UNL d   1      -0.592  -0.556   1.092  0.00  0.00    -0.146 I 
ENDROOT
TORSDOF 0
ENDMDL
