MODEL 1
REMARK minimizedAffinity 2.68283343
REMARK minimizedRMSD -1
REMARK  0 active torsions:
REMARK  status: ('A' for Active; 'I' for Inactive)
ROOT
ATOM      1  C   UNL d   1       1.692  -2.578   0.295  0.00  0.00     0.023 A 
ATOM      2  C1  UNL d   1       0.391  -2.909   0.675  0.00  0.00     0.003 A 
ATOM      3  C2  UNL d   1      -0.535  -1.901   0.949  0.00  0.00     0.048 A 
ATOM      4  C3  UNL d   1      -0.155  -0.564   0.840  0.00  0.00     0.023 A 
ATOM      5  C4  UNL d   1       1.146  -0.228   0.459  0.00  0.00     0.048 A 
ATOM      6  C5  UNL d   1       2.069  -1.240   0.187  0.00  0.00     0.003 A 
ATOM      7  I   UNL d   1      -1.532   0.939   1.246  0.00  0.00    -0.146 I 
ENDROOT
TORSDOF 0
ENDMDL
