MODEL 1
REMARK minimizedAffinity 7.40666676
REMARK minimizedRMSD -1
REMARK  1 active torsions:
REMARK  status: ('A' for Active; 'I' for Inactive)
REMARK    1  A    between atoms: C1_2  and  C2_3 
ROOT
ATOM      1  C2  UNL d   1      -0.481   0.586   0.329  0.00  0.00    -0.073 A 
ATOM      2  C3  UNL d   1      -0.065   0.282  -0.972  0.00  0.00    -0.002 A 
ATOM      3  C4  UNL d   1       1.068  -0.506  -1.183  0.00  0.00     0.004 A 
ATOM      4  C5  UNL d   1       1.790  -1.002  -0.098  0.00  0.00    -0.004 A 
ATOM      5  C6  UNL d   1       1.383  -0.719   1.209  0.00  0.00    -0.075 A 
ATOM      6  C7  UNL d   1       2.150  -1.244   2.387  0.00  0.00     0.076 C 
ATOM      7  C8  UNL d   1       0.246   0.074   1.414  0.00  0.00     0.001 A 
ENDROOT
BRANCH   1   8
ATOM      8  C1  UNL d   1      -1.707   1.430   0.563  0.00  0.00     0.053 C 
ATOM      9  C   UNL d   1      -2.832   1.081  -0.400  0.00  0.00     0.018 C 
ENDBRANCH   1   8
TORSDOF 1
ENDMDL
