MODEL 1
REMARK minimizedAffinity -4.02386427
REMARK minimizedRMSD -1
REMARK  1 active torsions:
REMARK  status: ('A' for Active; 'I' for Inactive)
REMARK    1  A    between atoms: C1_2  and  C2_3 
ROOT
ATOM      1  C2  UNL d   1       0.335  -1.261  -0.263  0.00  0.00    -0.073 A 
ATOM      2  C3  UNL d   1       0.054  -0.399  -1.329  0.00  0.00    -0.002 A 
ATOM      3  C4  UNL d   1      -0.182   0.956  -1.097  0.00  0.00     0.004 A 
ATOM      4  C5  UNL d   1      -0.132   1.465   0.201  0.00  0.00    -0.004 A 
ATOM      5  C6  UNL d   1       0.159   0.623   1.278  0.00  0.00    -0.075 A 
ATOM      6  C7  UNL d   1       0.215   1.154   2.680  0.00  0.00     0.076 C 
ATOM      7  C8  UNL d   1       0.393  -0.738   1.037  0.00  0.00     0.001 A 
ENDROOT
BRANCH   1   8
ATOM      8  C1  UNL d   1       0.597  -2.724  -0.510  0.00  0.00     0.053 C 
ATOM      9  C   UNL d   1      -0.638  -3.445  -1.025  0.00  0.00     0.018 C 
ENDBRANCH   1   8
TORSDOF 1
ENDMDL
