MODEL 1
REMARK minimizedAffinity 6.48912287
REMARK minimizedRMSD -1
REMARK  1 active torsions:
REMARK  status: ('A' for Active; 'I' for Inactive)
REMARK    1  A    between atoms: C1_2  and  C2_3 
ROOT
ATOM      1  C2  UNL d   1       0.553   1.711   2.552  0.00  0.00    -0.073 A 
ATOM      2  C3  UNL d   1       1.622   2.002   3.407  0.00  0.00    -0.002 A 
ATOM      3  C4  UNL d   1       2.287   3.225   3.315  0.00  0.00     0.004 A 
ATOM      4  C5  UNL d   1       1.885   4.173   2.373  0.00  0.00    -0.004 A 
ATOM      5  C6  UNL d   1       0.811   3.905   1.517  0.00  0.00    -0.075 A 
ATOM      6  C7  UNL d   1       0.368   4.913   0.497  0.00  0.00     0.076 C 
ATOM      7  C8  UNL d   1       0.151   2.673   1.615  0.00  0.00     0.001 A 
ENDROOT
BRANCH   1   8
ATOM      8  C1  UNL d   1      -0.171   0.394   2.653  0.00  0.00     0.053 C 
ATOM      9  C   UNL d   1       0.737  -0.782   2.330  0.00  0.00     0.018 C 
ENDBRANCH   1   8
TORSDOF 1
ENDMDL
