MODEL 1
REMARK minimizedAffinity 5.32027578
REMARK minimizedRMSD -1
REMARK  1 active torsions:
REMARK  status: ('A' for Active; 'I' for Inactive)
REMARK    1  A    between atoms: C1_2  and  C2_3 
ROOT
ATOM      1  C2  UNL d   1       0.729  -4.674  -0.224  0.00  0.00    -0.073 A 
ATOM      2  C3  UNL d   1      -0.388  -4.833  -1.052  0.00  0.00    -0.002 A 
ATOM      3  C4  UNL d   1      -1.172  -3.731  -1.398  0.00  0.00     0.004 A 
ATOM      4  C5  UNL d   1      -0.842  -2.460  -0.927  0.00  0.00    -0.004 A 
ATOM      5  C6  UNL d   1       0.277  -2.279  -0.109  0.00  0.00    -0.075 A 
ATOM      6  C7  UNL d   1       0.644  -0.918   0.407  0.00  0.00     0.076 C 
ATOM      7  C8  UNL d   1       1.057  -3.391   0.236  0.00  0.00     0.001 A 
ENDROOT
BRANCH   1   8
ATOM      8  C1  UNL d   1       1.582  -5.859   0.147  0.00  0.00     0.053 C 
ATOM      9  C   UNL d   1       3.023  -5.461   0.423  0.00  0.00     0.018 C 
ENDBRANCH   1   8
TORSDOF 1
ENDMDL
