MODEL 1
REMARK minimizedAffinity -1.94836843
REMARK minimizedRMSD -1
REMARK  1 active torsions:
REMARK  status: ('A' for Active; 'I' for Inactive)
REMARK    1  A    between atoms: C1_2  and  C2_3 
ROOT
ATOM      1  C2  UNL d   1       0.282   2.804   0.017  0.00  0.00    -0.073 A 
ATOM      2  C3  UNL d   1       0.242   3.297   1.326  0.00  0.00    -0.002 A 
ATOM      3  C4  UNL d   1       0.319   2.424   2.412  0.00  0.00     0.004 A 
ATOM      4  C5  UNL d   1       0.443   1.051   2.200  0.00  0.00    -0.004 A 
ATOM      5  C6  UNL d   1       0.497   0.539   0.900  0.00  0.00    -0.075 A 
ATOM      6  C7  UNL d   1       0.628  -0.935   0.655  0.00  0.00     0.076 C 
ATOM      7  C8  UNL d   1       0.416   1.423  -0.185  0.00  0.00     0.001 A 
ENDROOT
BRANCH   1   8
ATOM      8  C1  UNL d   1       0.205   3.744  -1.158  0.00  0.00     0.053 C 
ATOM      9  C   UNL d   1       0.003   5.186  -0.722  0.00  0.00     0.018 C 
ENDBRANCH   1   8
TORSDOF 1
ENDMDL
