MODEL 1
REMARK minimizedAffinity -2.5898962
REMARK minimizedRMSD -1
REMARK  0 active torsions:
REMARK  status: ('A' for Active; 'I' for Inactive)
ROOT
ATOM      1  C   UNL d   1      -0.025  -0.548  -0.044  0.00  0.00     0.172 C 
ATOM      2  N   UNL d   1       0.201   0.876   0.034  0.00  0.00    -0.070 N 
ATOM      3  C1  UNL d   1       0.819   1.640  -0.919  0.00  0.00    -0.004 A 
ATOM      4  C2  UNL d   1       0.836   2.943  -0.471  0.00  0.00    -0.047 A 
ATOM      5  C3  UNL d   1       0.206   2.963   0.797  0.00  0.00    -0.047 A 
ATOM      6  C4  UNL d   1      -0.177   1.670   1.085  0.00  0.00    -0.004 A 
ENDROOT
TORSDOF 0
ENDMDL
