MODEL 1
REMARK minimizedAffinity -4.05444717
REMARK minimizedRMSD -1
REMARK  0 active torsions:
REMARK  status: ('A' for Active; 'I' for Inactive)
ROOT
ATOM      1  C   UNL d   1       0.118  -0.147   0.637  0.00  0.00     0.172 C 
ATOM      2  N   UNL d   1       0.897   1.060   0.497  0.00  0.00    -0.070 N 
ATOM      3  C1  UNL d   1       2.205   1.215   0.870  0.00  0.00    -0.004 A 
ATOM      4  C2  UNL d   1       2.580   2.507   0.571  0.00  0.00    -0.047 A 
ATOM      5  C3  UNL d   1       1.458   3.151  -0.002  0.00  0.00    -0.047 A 
ATOM      6  C4  UNL d   1       0.430   2.233  -0.036  0.00  0.00    -0.004 A 
ENDROOT
TORSDOF 0
ENDMDL
