MODEL 1
REMARK minimizedAffinity -3.94943762
REMARK minimizedRMSD -1
REMARK  0 active torsions:
REMARK  status: ('A' for Active; 'I' for Inactive)
ROOT
ATOM      1  C   UNL d   1       0.551  -0.672   0.135  0.00  0.00     0.172 C 
ATOM      2  N   UNL d   1       0.331   0.750   0.023  0.00  0.00    -0.070 N 
ATOM      3  C1  UNL d   1       1.132   1.630  -0.656  0.00  0.00    -0.004 A 
ATOM      4  C2  UNL d   1       0.583   2.887  -0.525  0.00  0.00    -0.047 A 
ATOM      5  C3  UNL d   1      -0.587   2.759   0.260  0.00  0.00    -0.047 A 
ATOM      6  C4  UNL d   1      -0.719   1.426   0.586  0.00  0.00    -0.004 A 
ENDROOT
TORSDOF 0
ENDMDL
