MODEL 1
REMARK minimizedAffinity -3.82866478
REMARK minimizedRMSD -1
REMARK  0 active torsions:
REMARK  status: ('A' for Active; 'I' for Inactive)
ROOT
ATOM      1  C   UNL d   1      -0.968   0.440  -0.104  0.00  0.00     0.172 C 
ATOM      2  N   UNL d   1       0.025   1.473   0.072  0.00  0.00    -0.070 N 
ATOM      3  C1  UNL d   1      -0.233   2.801   0.283  0.00  0.00    -0.004 A 
ATOM      4  C2  UNL d   1       0.976   3.453   0.401  0.00  0.00    -0.047 A 
ATOM      5  C3  UNL d   1       1.996   2.483   0.254  0.00  0.00    -0.047 A 
ATOM      6  C4  UNL d   1       1.379   1.266   0.052  0.00  0.00    -0.004 A 
ENDROOT
TORSDOF 0
ENDMDL
