MODEL 1
REMARK minimizedAffinity -4.29376936
REMARK minimizedRMSD -1
REMARK  0 active torsions:
REMARK  status: ('A' for Active; 'I' for Inactive)
ROOT
ATOM      1  C   UNL d   1       0.099  -0.935   0.211  0.00  0.00     0.172 C 
ATOM      2  N   UNL d   1       0.065   0.508   0.170  0.00  0.00    -0.070 N 
ATOM      3  C1  UNL d   1      -0.861   1.302   0.792  0.00  0.00    -0.004 A 
ATOM      4  C2  UNL d   1      -0.548   2.614   0.511  0.00  0.00    -0.047 A 
ATOM      5  C3  UNL d   1       0.605   2.608  -0.310  0.00  0.00    -0.047 A 
ATOM      6  C4  UNL d   1       0.963   1.291  -0.506  0.00  0.00    -0.004 A 
ENDROOT
TORSDOF 0
ENDMDL
