MODEL 1
REMARK minimizedAffinity -4.18845987
REMARK minimizedRMSD -1
REMARK  0 active torsions:
REMARK  status: ('A' for Active; 'I' for Inactive)
ROOT
ATOM      1  C   UNL d   1       2.931   1.541   0.274  0.00  0.00     0.172 C 
ATOM      2  N   UNL d   1       1.493   1.663   0.226  0.00  0.00    -0.070 N 
ATOM      3  C1  UNL d   1       0.605   0.623   0.160  0.00  0.00    -0.004 A 
ATOM      4  C2  UNL d   1      -0.667   1.155   0.131  0.00  0.00    -0.047 A 
ATOM      5  C3  UNL d   1      -0.538   2.563   0.180  0.00  0.00    -0.047 A 
ATOM      6  C4  UNL d   1       0.809   2.851   0.238  0.00  0.00    -0.004 A 
ENDROOT
TORSDOF 0
ENDMDL
