MODEL 1
REMARK minimizedAffinity -1.53069568
REMARK minimizedRMSD -1
REMARK  0 active torsions:
REMARK  status: ('A' for Active; 'I' for Inactive)
ROOT
ATOM      1  C   UNL d   1       0.383   3.206  -0.726  0.00  0.00     0.172 C 
ATOM      2  N   UNL d   1      -0.174   2.028  -0.102  0.00  0.00    -0.070 N 
ATOM      3  C1  UNL d   1       0.386   0.779  -0.113  0.00  0.00    -0.004 A 
ATOM      4  C2  UNL d   1      -0.449  -0.064   0.589  0.00  0.00    -0.047 A 
ATOM      5  C3  UNL d   1      -1.549   0.706   1.036  0.00  0.00    -0.047 A 
ATOM      6  C4  UNL d   1      -1.353   1.997   0.594  0.00  0.00    -0.004 A 
ENDROOT
TORSDOF 0
ENDMDL
