MODEL 1
REMARK minimizedAffinity -3.89064932
REMARK minimizedRMSD -1
REMARK  0 active torsions:
REMARK  status: ('A' for Active; 'I' for Inactive)
ROOT
ATOM      1  C   UNL d   1       0.539   3.581   0.048  0.00  0.00     0.172 C 
ATOM      2  N   UNL d   1       0.250   2.181   0.251  0.00  0.00    -0.070 N 
ATOM      3  C1  UNL d   1       1.164   1.163   0.209  0.00  0.00    -0.004 A 
ATOM      4  C2  UNL d   1       0.494  -0.017   0.453  0.00  0.00    -0.047 A 
ATOM      5  C3  UNL d   1      -0.871   0.304   0.647  0.00  0.00    -0.047 A 
ATOM      6  C4  UNL d   1      -0.994   1.671   0.517  0.00  0.00    -0.004 A 
ENDROOT
TORSDOF 0
ENDMDL
