MODEL 1
REMARK minimizedAffinity -4.18001175
REMARK minimizedRMSD -1
REMARK  0 active torsions:
REMARK  status: ('A' for Active; 'I' for Inactive)
ROOT
ATOM      1  C   UNL d   1      -0.046   0.126   0.389  0.00  0.00     0.172 C 
ATOM      2  N   UNL d   1       0.892   1.220   0.481  0.00  0.00    -0.070 N 
ATOM      3  C1  UNL d   1       2.248   1.099   0.630  0.00  0.00    -0.004 A 
ATOM      4  C2  UNL d   1       2.783   2.369   0.677  0.00  0.00    -0.047 A 
ATOM      5  C3  UNL d   1       1.711   3.284   0.552  0.00  0.00    -0.047 A 
ATOM      6  C4  UNL d   1       0.552   2.547   0.433  0.00  0.00    -0.004 A 
ENDROOT
TORSDOF 0
ENDMDL
