MODEL 1
REMARK minimizedAffinity -3.59719682
REMARK minimizedRMSD -1
REMARK  0 active torsions:
REMARK  status: ('A' for Active; 'I' for Inactive)
ROOT
ATOM      1  C   UNL d   1       2.766   1.597   0.454  0.00  0.00     0.172 C 
ATOM      2  N   UNL d   1       1.396   1.874   0.090  0.00  0.00    -0.070 N 
ATOM      3  C1  UNL d   1       0.350   0.995   0.191  0.00  0.00    -0.004 A 
ATOM      4  C2  UNL d   1      -0.785   1.638  -0.254  0.00  0.00    -0.047 A 
ATOM      5  C3  UNL d   1      -0.408   2.948  -0.635  0.00  0.00    -0.047 A 
ATOM      6  C4  UNL d   1       0.947   3.067  -0.412  0.00  0.00    -0.004 A 
ENDROOT
TORSDOF 0
ENDMDL
