MODEL 1
REMARK minimizedAffinity -3.83156466
REMARK minimizedRMSD -1
REMARK  0 active torsions:
REMARK  status: ('A' for Active; 'I' for Inactive)
ROOT
ATOM      1  C   UNL d   1      -0.015  -0.595   0.054  0.00  0.00     0.172 C 
ATOM      2  N   UNL d   1       0.019   0.849   0.070  0.00  0.00    -0.070 N 
ATOM      3  C1  UNL d   1       1.134   1.623  -0.114  0.00  0.00    -0.004 A 
ATOM      4  C2  UNL d   1       0.750   2.944  -0.028  0.00  0.00    -0.047 A 
ATOM      5  C3  UNL d   1      -0.644   2.964   0.216  0.00  0.00    -0.047 A 
ATOM      6  C4  UNL d   1      -1.070   1.654   0.272  0.00  0.00    -0.004 A 
ENDROOT
TORSDOF 0
ENDMDL
