MODEL 1
REMARK minimizedAffinity -1.90377665
REMARK minimizedRMSD -1
REMARK  0 active torsions:
REMARK  status: ('A' for Active; 'I' for Inactive)
ROOT
ATOM      1  C   UNL d   1      -0.250  -1.050   0.058  0.00  0.00     0.172 C 
ATOM      2  N   UNL d   1      -0.305  -2.144  -0.883  0.00  0.00    -0.070 N 
ATOM      3  C1  UNL d   1      -1.003  -3.309  -0.713  0.00  0.00    -0.004 A 
ATOM      4  C2  UNL d   1      -0.800  -4.090  -1.830  0.00  0.00    -0.047 A 
ATOM      5  C3  UNL d   1       0.052  -3.369  -2.701  0.00  0.00    -0.047 A 
ATOM      6  C4  UNL d   1       0.343  -2.168  -2.090  0.00  0.00    -0.004 A 
ENDROOT
TORSDOF 0
ENDMDL
