MODEL 1
REMARK minimizedAffinity -3.23727155
REMARK minimizedRMSD -1
REMARK  0 active torsions:
REMARK  status: ('A' for Active; 'I' for Inactive)
ROOT
ATOM      1  C   UNL d   1      -0.157  -0.677  -0.194  0.00  0.00     0.172 C 
ATOM      2  N   UNL d   1      -0.322   0.684   0.259  0.00  0.00    -0.070 N 
ATOM      3  C1  UNL d   1      -1.278   1.123   1.136  0.00  0.00    -0.004 A 
ATOM      4  C2  UNL d   1      -1.101   2.478   1.310  0.00  0.00    -0.047 A 
ATOM      5  C3  UNL d   1      -0.001   2.868   0.510  0.00  0.00    -0.047 A 
ATOM      6  C4  UNL d   1       0.462   1.737  -0.130  0.00  0.00    -0.004 A 
ENDROOT
TORSDOF 0
ENDMDL
