MODEL 1
REMARK minimizedAffinity -2.79303837
REMARK minimizedRMSD -1
REMARK  0 active torsions:
REMARK  status: ('A' for Active; 'I' for Inactive)
ROOT
ATOM      1  C   UNL d   1       0.178  -0.501  -1.152  0.00  0.00     0.172 C 
ATOM      2  N   UNL d   1      -0.059   0.777  -0.523  0.00  0.00    -0.070 N 
ATOM      3  C1  UNL d   1       0.341   1.993  -1.009  0.00  0.00    -0.004 A 
ATOM      4  C2  UNL d   1      -0.077   2.960  -0.121  0.00  0.00    -0.047 A 
ATOM      5  C3  UNL d   1      -0.751   2.303   0.935  0.00  0.00    -0.047 A 
ATOM      6  C4  UNL d   1      -0.726   0.952   0.661  0.00  0.00    -0.004 A 
ENDROOT
TORSDOF 0
ENDMDL
