MODEL 1
REMARK minimizedAffinity -2.20550323
REMARK minimizedRMSD -1
REMARK  0 active torsions:
REMARK  status: ('A' for Active; 'I' for Inactive)
ROOT
ATOM      1  C   UNL d   1      -0.011  -0.769   0.197  0.00  0.00     0.172 C 
ATOM      2  N   UNL d   1      -0.270  -1.949  -0.594  0.00  0.00    -0.070 N 
ATOM      3  C1  UNL d   1      -1.241  -2.881  -0.343  0.00  0.00    -0.004 A 
ATOM      4  C2  UNL d   1      -1.162  -3.847  -1.323  0.00  0.00    -0.047 A 
ATOM      5  C3  UNL d   1      -0.105  -3.484  -2.191  0.00  0.00    -0.047 A 
ATOM      6  C4  UNL d   1       0.430  -2.306  -1.717  0.00  0.00    -0.004 A 
ENDROOT
TORSDOF 0
ENDMDL
