MODEL 1
REMARK minimizedAffinity -3.5556283
REMARK minimizedRMSD -1
REMARK  0 active torsions:
REMARK  status: ('A' for Active; 'I' for Inactive)
ROOT
ATOM      1  C   UNL d   1       0.186  -0.378  -0.125  0.00  0.00     0.172 C 
ATOM      2  N   UNL d   1      -0.095   1.025   0.071  0.00  0.00    -0.070 N 
ATOM      3  C1  UNL d   1      -0.983   1.542   0.976  0.00  0.00    -0.004 A 
ATOM      4  C2  UNL d   1      -0.961   2.915   0.852  0.00  0.00    -0.047 A 
ATOM      5  C3  UNL d   1      -0.028   3.233  -0.164  0.00  0.00    -0.047 A 
ATOM      6  C4  UNL d   1       0.493   2.044  -0.631  0.00  0.00    -0.004 A 
ENDROOT
TORSDOF 0
ENDMDL
