MODEL 1
REMARK minimizedAffinity -1.75163281
REMARK minimizedRMSD -1
REMARK  0 active torsions:
REMARK  status: ('A' for Active; 'I' for Inactive)
ROOT
ATOM      1  C   UNL d   1      -0.348  -1.873  -0.083  0.00  0.00     0.172 C 
ATOM      2  N   UNL d   1      -0.405  -0.451   0.165  0.00  0.00    -0.070 N 
ATOM      3  C1  UNL d   1      -1.463   0.221   0.716  0.00  0.00    -0.004 A 
ATOM      4  C2  UNL d   1      -1.126   1.555   0.784  0.00  0.00    -0.047 A 
ATOM      5  C3  UNL d   1       0.180   1.690   0.255  0.00  0.00    -0.047 A 
ATOM      6  C4  UNL d   1       0.602   0.432  -0.121  0.00  0.00    -0.004 A 
ENDROOT
TORSDOF 0
ENDMDL
