MODEL 1
REMARK minimizedAffinity 12.778101
REMARK minimizedRMSD -1
REMARK  1 active torsions:
REMARK  status: ('A' for Active; 'I' for Inactive)
REMARK    1  A    between atoms: C1_2  and  C2_3 
ROOT
ATOM      1  C2  UNL d   1      -3.138  -1.863   1.546  0.00  0.00    -0.073 A 
ATOM      2  C3  UNL d   1      -2.211  -2.608   0.807  0.00  0.00    -0.002 A 
ATOM      3  C4  UNL d   1      -1.066  -3.116   1.421  0.00  0.00     0.004 A 
ATOM      4  C5  UNL d   1      -0.838  -2.892   2.778  0.00  0.00    -0.004 A 
ATOM      5  C6  UNL d   1      -1.758  -2.161   3.537  0.00  0.00    -0.075 A 
ATOM      6  C7  UNL d   1      -1.527  -1.909   4.998  0.00  0.00     0.076 C 
ATOM      7  C8  UNL d   1      -2.905  -1.651   2.913  0.00  0.00     0.001 A 
ENDROOT
BRANCH   1   8
ATOM      8  C1  UNL d   1      -4.379  -1.317   0.890  0.00  0.00     0.053 C 
ATOM      9  C   UNL d   1      -5.636  -2.026   1.370  0.00  0.00     0.018 C 
ENDBRANCH   1   8
TORSDOF 1
ENDMDL
