MODEL 1
REMARK minimizedAffinity 15.3255587
REMARK minimizedRMSD -1
REMARK  1 active torsions:
REMARK  status: ('A' for Active; 'I' for Inactive)
REMARK    1  A    between atoms: C1_2  and  C2_3 
ROOT
ATOM      1  C2  UNL d   1      -0.718  -0.826  -0.857  0.00  0.00    -0.073 A 
ATOM      2  C3  UNL d   1      -1.200  -1.520  -1.973  0.00  0.00    -0.002 A 
ATOM      3  C4  UNL d   1      -0.514  -1.465  -3.187  0.00  0.00     0.004 A 
ATOM      4  C5  UNL d   1       0.661  -0.723  -3.297  0.00  0.00    -0.004 A 
ATOM      5  C6  UNL d   1       1.165  -0.032  -2.190  0.00  0.00    -0.075 A 
ATOM      6  C7  UNL d   1       2.427   0.773  -2.292  0.00  0.00     0.076 C 
ATOM      7  C8  UNL d   1       0.469  -0.090  -0.975  0.00  0.00     0.001 A 
ENDROOT
BRANCH   1   8
ATOM      8  C1  UNL d   1      -1.451  -0.888   0.458  0.00  0.00     0.053 C 
ATOM      9  C   UNL d   1      -1.066  -2.116   1.268  0.00  0.00     0.018 C 
ENDBRANCH   1   8
TORSDOF 1
ENDMDL
