MODEL 1
REMARK minimizedAffinity 4.36997366
REMARK minimizedRMSD -1
REMARK  1 active torsions:
REMARK  status: ('A' for Active; 'I' for Inactive)
REMARK    1  A    between atoms: C1_2  and  C2_3 
ROOT
ATOM      1  C2  UNL d   1      -1.117  -4.104   1.637  0.00  0.00    -0.073 A 
ATOM      2  C3  UNL d   1      -1.355  -3.286   2.747  0.00  0.00    -0.002 A 
ATOM      3  C4  UNL d   1      -1.509  -1.908   2.587  0.00  0.00     0.004 A 
ATOM      4  C5  UNL d   1      -1.433  -1.336   1.317  0.00  0.00    -0.004 A 
ATOM      5  C6  UNL d   1      -1.207  -2.139   0.194  0.00  0.00    -0.075 A 
ATOM      6  C7  UNL d   1      -1.120  -1.539  -1.178  0.00  0.00     0.076 C 
ATOM      7  C8  UNL d   1      -1.051  -3.521   0.364  0.00  0.00     0.001 A 
ENDROOT
BRANCH   1   8
ATOM      8  C1  UNL d   1      -0.956  -5.593   1.805  0.00  0.00     0.053 C 
ATOM      9  C   UNL d   1      -0.871  -5.996   3.268  0.00  0.00     0.018 C 
ENDBRANCH   1   8
TORSDOF 1
ENDMDL
