MODEL 1
REMARK minimizedAffinity 5.35845089
REMARK minimizedRMSD -1
REMARK  1 active torsions:
REMARK  status: ('A' for Active; 'I' for Inactive)
REMARK    1  A    between atoms: C1_2  and  C2_3 
ROOT
ATOM      1  C2  UNL d   1      -1.793  -2.049   0.499  0.00  0.00    -0.073 A 
ATOM      2  C3  UNL d   1      -1.223  -3.307   0.270  0.00  0.00    -0.002 A 
ATOM      3  C4  UNL d   1      -0.548  -3.972   1.294  0.00  0.00     0.004 A 
ATOM      4  C5  UNL d   1      -0.443  -3.391   2.558  0.00  0.00    -0.004 A 
ATOM      5  C6  UNL d   1      -1.016  -2.140   2.810  0.00  0.00    -0.075 A 
ATOM      6  C7  UNL d   1      -0.909  -1.500   4.163  0.00  0.00     0.076 C 
ATOM      7  C8  UNL d   1      -1.689  -1.477   1.775  0.00  0.00     0.001 A 
ENDROOT
BRANCH   1   8
ATOM      8  C1  UNL d   1      -2.528  -1.330  -0.603  0.00  0.00     0.053 C 
ATOM      9  C   UNL d   1      -1.989  -1.690  -1.978  0.00  0.00     0.018 C 
ENDBRANCH   1   8
TORSDOF 1
ENDMDL
