MODEL 1
REMARK minimizedAffinity -0.476228505
REMARK minimizedRMSD -1
REMARK  1 active torsions:
REMARK  status: ('A' for Active; 'I' for Inactive)
REMARK    1  A    between atoms: C1_2  and  C2_3 
ROOT
ATOM      1  C2  UNL d   1      -1.836  -2.513  -0.290  0.00  0.00    -0.073 A 
ATOM      2  C3  UNL d   1      -1.544  -3.879  -0.387  0.00  0.00    -0.002 A 
ATOM      3  C4  UNL d   1      -0.957  -4.551   0.685  0.00  0.00     0.004 A 
ATOM      4  C5  UNL d   1      -0.662  -3.869   1.866  0.00  0.00    -0.004 A 
ATOM      5  C6  UNL d   1      -0.957  -2.507   1.985  0.00  0.00    -0.075 A 
ATOM      6  C7  UNL d   1      -0.643  -1.758   3.247  0.00  0.00     0.076 C 
ATOM      7  C8  UNL d   1      -1.544  -1.838   0.903  0.00  0.00     0.001 A 
ENDROOT
BRANCH   1   8
ATOM      8  C1  UNL d   1      -2.476  -1.784  -1.443  0.00  0.00     0.053 C 
ATOM      9  C   UNL d   1      -1.963  -2.278  -2.786  0.00  0.00     0.018 C 
ENDBRANCH   1   8
TORSDOF 1
ENDMDL
