MODEL 1
REMARK minimizedAffinity 3.74580646
REMARK minimizedRMSD -1
REMARK  1 active torsions:
REMARK  status: ('A' for Active; 'I' for Inactive)
REMARK    1  A    between atoms: C1_2  and  C2_3 
ROOT
ATOM      1  C2  UNL d   1      -1.718  -2.264   2.921  0.00  0.00    -0.073 A 
ATOM      2  C3  UNL d   1      -1.761  -1.269   1.938  0.00  0.00    -0.002 A 
ATOM      3  C4  UNL d   1      -1.389  -1.560   0.624  0.00  0.00     0.004 A 
ATOM      4  C5  UNL d   1      -0.979  -2.847   0.280  0.00  0.00    -0.004 A 
ATOM      5  C6  UNL d   1      -0.941  -3.858   1.246  0.00  0.00    -0.075 A 
ATOM      6  C7  UNL d   1      -0.499  -5.248   0.892  0.00  0.00     0.076 C 
ATOM      7  C8  UNL d   1      -1.313  -3.558   2.563  0.00  0.00     0.001 A 
ENDROOT
BRANCH   1   8
ATOM      8  C1  UNL d   1      -2.125  -1.956   4.339  0.00  0.00     0.053 C 
ATOM      9  C   UNL d   1      -1.343  -0.786   4.915  0.00  0.00     0.018 C 
ENDBRANCH   1   8
TORSDOF 1
ENDMDL
