MODEL 1
REMARK minimizedAffinity 5.51327133
REMARK minimizedRMSD -1
REMARK  1 active torsions:
REMARK  status: ('A' for Active; 'I' for Inactive)
REMARK    1  A    between atoms: C1_2  and  C2_3 
ROOT
ATOM      1  C2  UNL d   1      -1.766  -2.076  -0.457  0.00  0.00    -0.073 A 
ATOM      2  C3  UNL d   1      -1.161  -3.333  -0.566  0.00  0.00    -0.002 A 
ATOM      3  C4  UNL d   1      -0.512  -3.900   0.531  0.00  0.00     0.004 A 
ATOM      4  C5  UNL d   1      -0.468  -3.222   1.749  0.00  0.00    -0.004 A 
ATOM      5  C6  UNL d   1      -1.078  -1.970   1.881  0.00  0.00    -0.075 A 
ATOM      6  C7  UNL d   1      -1.038  -1.226   3.184  0.00  0.00     0.076 C 
ATOM      7  C8  UNL d   1      -1.725  -1.405   0.774  0.00  0.00     0.001 A 
ENDROOT
BRANCH   1   8
ATOM      8  C1  UNL d   1      -2.474  -1.462  -1.638  0.00  0.00     0.053 C 
ATOM      9  C   UNL d   1      -2.207  -2.228  -2.923  0.00  0.00     0.018 C 
ENDBRANCH   1   8
TORSDOF 1
ENDMDL
