MODEL 1
REMARK minimizedAffinity 13.8693056
REMARK minimizedRMSD -1
REMARK  1 active torsions:
REMARK  status: ('A' for Active; 'I' for Inactive)
REMARK    1  A    between atoms: C1_2  and  C2_3 
ROOT
ATOM      1  C2  UNL d   1      -0.925  -1.182  -1.138  0.00  0.00    -0.073 A 
ATOM      2  C3  UNL d   1      -1.394  -1.567  -2.399  0.00  0.00    -0.002 A 
ATOM      3  C4  UNL d   1      -0.545  -1.541  -3.506  0.00  0.00     0.004 A 
ATOM      4  C5  UNL d   1       0.782  -1.136  -3.362  0.00  0.00    -0.004 A 
ATOM      5  C6  UNL d   1       1.273  -0.759  -2.108  0.00  0.00    -0.075 A 
ATOM      6  C7  UNL d   1       2.698  -0.320  -1.937  0.00  0.00     0.076 C 
ATOM      7  C8  UNL d   1       0.413  -0.786  -1.002  0.00  0.00     0.001 A 
ENDROOT
BRANCH   1   8
ATOM      8  C1  UNL d   1      -1.837  -1.216   0.061  0.00  0.00     0.053 C 
ATOM      9  C   UNL d   1      -1.566  -2.418   0.950  0.00  0.00     0.018 C 
ENDBRANCH   1   8
TORSDOF 1
ENDMDL
