MODEL 1
REMARK minimizedAffinity 12.3584766
REMARK minimizedRMSD -1
REMARK  1 active torsions:
REMARK  status: ('A' for Active; 'I' for Inactive)
REMARK    1  A    between atoms: C1_2  and  C2_3 
ROOT
ATOM      1  C2  UNL d   1      -1.543   0.428   2.008  0.00  0.00    -0.073 A 
ATOM      2  C3  UNL d   1      -1.597   0.249   3.395  0.00  0.00    -0.002 A 
ATOM      3  C4  UNL d   1      -1.431  -1.021   3.949  0.00  0.00     0.004 A 
ATOM      4  C5  UNL d   1      -1.203  -2.122   3.124  0.00  0.00    -0.004 A 
ATOM      5  C6  UNL d   1      -1.134  -1.962   1.737  0.00  0.00    -0.075 A 
ATOM      6  C7  UNL d   1      -0.891  -3.137   0.836  0.00  0.00     0.076 C 
ATOM      7  C8  UNL d   1      -1.304  -0.684   1.188  0.00  0.00     0.001 A 
ENDROOT
BRANCH   1   8
ATOM      8  C1  UNL d   1      -1.715   1.798   1.405  0.00  0.00     0.053 C 
ATOM      9  C   UNL d   1      -3.169   2.098   1.076  0.00  0.00     0.018 C 
ENDBRANCH   1   8
TORSDOF 1
ENDMDL
