MODEL 1
REMARK minimizedAffinity 3.6416297
REMARK minimizedRMSD -1
REMARK  1 active torsions:
REMARK  status: ('A' for Active; 'I' for Inactive)
REMARK    1  A    between atoms: C1_2  and  C2_3 
ROOT
ATOM      1  C2  UNL d   1      -2.127  -1.994  -0.775  0.00  0.00    -0.073 A 
ATOM      2  C3  UNL d   1      -2.966  -1.254   0.065  0.00  0.00    -0.002 A 
ATOM      3  C4  UNL d   1      -2.943  -1.462   1.445  0.00  0.00     0.004 A 
ATOM      4  C5  UNL d   1      -2.077  -2.405   1.998  0.00  0.00    -0.004 A 
ATOM      5  C6  UNL d   1      -1.223  -3.146   1.176  0.00  0.00    -0.075 A 
ATOM      6  C7  UNL d   1      -0.287  -4.166   1.756  0.00  0.00     0.076 C 
ATOM      7  C8  UNL d   1      -1.253  -2.934  -0.209  0.00  0.00     0.001 A 
ENDROOT
BRANCH   1   8
ATOM      8  C1  UNL d   1      -2.144  -1.769  -2.265  0.00  0.00     0.053 C 
ATOM      9  C   UNL d   1      -1.796  -3.032  -3.037  0.00  0.00     0.018 C 
ENDBRANCH   1   8
TORSDOF 1
ENDMDL
