MODEL 1
REMARK minimizedAffinity 11.0553713
REMARK minimizedRMSD -1
REMARK  1 active torsions:
REMARK  status: ('A' for Active; 'I' for Inactive)
REMARK    1  A    between atoms: C1_2  and  C2_3 
ROOT
ATOM      1  C2  UNL d   1      -0.742  -3.333   2.345  0.00  0.00    -0.073 A 
ATOM      2  C3  UNL d   1      -0.064  -3.607   1.151  0.00  0.00    -0.002 A 
ATOM      3  C4  UNL d   1      -0.299  -2.834   0.014  0.00  0.00     0.004 A 
ATOM      4  C5  UNL d   1      -1.206  -1.775   0.059  0.00  0.00    -0.004 A 
ATOM      5  C6  UNL d   1      -1.885  -1.478   1.245  0.00  0.00    -0.075 A 
ATOM      6  C7  UNL d   1      -2.866  -0.345   1.310  0.00  0.00     0.076 C 
ATOM      7  C8  UNL d   1      -1.646  -2.261   2.383  0.00  0.00     0.001 A 
ENDROOT
BRANCH   1   8
ATOM      8  C1  UNL d   1      -0.488  -4.161   3.577  0.00  0.00     0.053 C 
ATOM      9  C   UNL d   1      -0.859  -5.621   3.370  0.00  0.00     0.018 C 
ENDBRANCH   1   8
TORSDOF 1
ENDMDL
