MODEL 1
REMARK minimizedAffinity 4.03326702
REMARK minimizedRMSD -1
REMARK  1 active torsions:
REMARK  status: ('A' for Active; 'I' for Inactive)
REMARK    1  A    between atoms: C1_2  and  C2_3 
ROOT
ATOM      1  C2  UNL d   1      -1.359  -3.120   0.209  0.00  0.00    -0.073 A 
ATOM      2  C3  UNL d   1      -2.172  -2.108   0.732  0.00  0.00    -0.002 A 
ATOM      3  C4  UNL d   1      -2.812  -1.208  -0.120  0.00  0.00     0.004 A 
ATOM      4  C5  UNL d   1      -2.653  -1.313  -1.502  0.00  0.00    -0.004 A 
ATOM      5  C6  UNL d   1      -1.854  -2.325  -2.044  0.00  0.00    -0.075 A 
ATOM      6  C7  UNL d   1      -1.671  -2.451  -3.528  0.00  0.00     0.076 C 
ATOM      7  C8  UNL d   1      -1.212  -3.224  -1.182  0.00  0.00     0.001 A 
ENDROOT
BRANCH   1   8
ATOM      8  C1  UNL d   1      -0.670  -4.099   1.124  0.00  0.00     0.053 C 
ATOM      9  C   UNL d   1      -0.230  -3.449   2.426  0.00  0.00     0.018 C 
ENDBRANCH   1   8
TORSDOF 1
ENDMDL
