MODEL 1
REMARK minimizedAffinity 5.68312025
REMARK minimizedRMSD -1
REMARK  1 active torsions:
REMARK  status: ('A' for Active; 'I' for Inactive)
REMARK    1  A    between atoms: C1_2  and  C2_3 
ROOT
ATOM      1  C2  UNL d   1      -1.924  -3.261   0.383  0.00  0.00    -0.073 A 
ATOM      2  C3  UNL d   1      -0.761  -3.977   0.077  0.00  0.00    -0.002 A 
ATOM      3  C4  UNL d   1      -0.675  -5.339   0.368  0.00  0.00     0.004 A 
ATOM      4  C5  UNL d   1      -1.752  -6.000   0.960  0.00  0.00    -0.004 A 
ATOM      5  C6  UNL d   1      -2.926  -5.304   1.263  0.00  0.00    -0.075 A 
ATOM      6  C7  UNL d   1      -4.092  -6.000   1.902  0.00  0.00     0.076 C 
ATOM      7  C8  UNL d   1      -3.004  -3.936   0.970  0.00  0.00     0.001 A 
ENDROOT
BRANCH   1   8
ATOM      8  C1  UNL d   1      -2.024  -1.791   0.065  0.00  0.00     0.053 C 
ATOM      9  C   UNL d   1      -1.878  -1.519  -1.423  0.00  0.00     0.018 C 
ENDBRANCH   1   8
TORSDOF 1
ENDMDL
