MODEL 1
REMARK minimizedAffinity 9.63105011
REMARK minimizedRMSD -1
REMARK  1 active torsions:
REMARK  status: ('A' for Active; 'I' for Inactive)
REMARK    1  A    between atoms: C1_2  and  C2_3 
ROOT
ATOM      1  C2  UNL d   1       4.809   2.340   2.761  0.00  0.00    -0.073 A 
ATOM      2  C3  UNL d   1       5.535   3.432   3.250  0.00  0.00    -0.002 A 
ATOM      3  C4  UNL d   1       5.588   3.686   4.621  0.00  0.00     0.004 A 
ATOM      4  C5  UNL d   1       4.924   2.848   5.517  0.00  0.00    -0.004 A 
ATOM      5  C6  UNL d   1       4.203   1.745   5.048  0.00  0.00    -0.075 A 
ATOM      6  C7  UNL d   1       3.481   0.835   5.998  0.00  0.00     0.076 C 
ATOM      7  C8  UNL d   1       4.152   1.498   3.669  0.00  0.00     0.001 A 
ENDROOT
BRANCH   1   8
ATOM      8  C1  UNL d   1       4.754   2.059   1.282  0.00  0.00     0.053 C 
ATOM      9  C   UNL d   1       3.324   1.951   0.775  0.00  0.00     0.018 C 
ENDBRANCH   1   8
TORSDOF 1
ENDMDL
