MODEL 1
REMARK minimizedAffinity 9.66492081
REMARK minimizedRMSD -1
REMARK  1 active torsions:
REMARK  status: ('A' for Active; 'I' for Inactive)
REMARK    1  A    between atoms: C1_2  and  C2_3 
ROOT
ATOM      1  C2  UNL d   1      -0.838  -3.248   1.150  0.00  0.00    -0.073 A 
ATOM      2  C3  UNL d   1      -0.950  -2.429   0.020  0.00  0.00    -0.002 A 
ATOM      3  C4  UNL d   1      -1.136  -1.054   0.162  0.00  0.00     0.004 A 
ATOM      4  C5  UNL d   1      -1.204  -0.482   1.432  0.00  0.00    -0.004 A 
ATOM      5  C6  UNL d   1      -1.082  -1.281   2.573  0.00  0.00    -0.075 A 
ATOM      6  C7  UNL d   1      -1.155  -0.682   3.947  0.00  0.00     0.076 C 
ATOM      7  C8  UNL d   1      -0.899  -2.662   2.423  0.00  0.00     0.001 A 
ENDROOT
BRANCH   1   8
ATOM      8  C1  UNL d   1      -0.632  -4.733   1.002  0.00  0.00     0.053 C 
ATOM      9  C   UNL d   1      -1.003  -5.224  -0.388  0.00  0.00     0.018 C 
ENDBRANCH   1   8
TORSDOF 1
ENDMDL
