MODEL 1
REMARK minimizedAffinity 9.92077065
REMARK minimizedRMSD -1
REMARK  1 active torsions:
REMARK  status: ('A' for Active; 'I' for Inactive)
REMARK    1  A    between atoms: C1_2  and  C2_3 
ROOT
ATOM      1  C2  UNL d   1      -1.169  -1.877   2.850  0.00  0.00    -0.073 A 
ATOM      2  C3  UNL d   1      -0.364  -2.983   2.555  0.00  0.00    -0.002 A 
ATOM      3  C4  UNL d   1      -0.508  -3.655   1.340  0.00  0.00     0.004 A 
ATOM      4  C5  UNL d   1      -1.451  -3.225   0.407  0.00  0.00    -0.004 A 
ATOM      5  C6  UNL d   1      -2.257  -2.115   0.679  0.00  0.00    -0.075 A 
ATOM      6  C7  UNL d   1      -3.278  -1.641  -0.313  0.00  0.00     0.076 C 
ATOM      7  C8  UNL d   1      -2.108  -1.447   1.902  0.00  0.00     0.001 A 
ENDROOT
BRANCH   1   8
ATOM      8  C1  UNL d   1      -1.013  -1.144   4.157  0.00  0.00     0.053 C 
ATOM      9  C   UNL d   1      -1.633   0.243   4.110  0.00  0.00     0.018 C 
ENDBRANCH   1   8
TORSDOF 1
ENDMDL
