MODEL 1
REMARK minimizedAffinity 3.03495049
REMARK minimizedRMSD -1
REMARK  1 active torsions:
REMARK  status: ('A' for Active; 'I' for Inactive)
REMARK    1  A    between atoms: C1_2  and  C2_3 
ROOT
ATOM      1  C2  UNL d   1      -3.448   0.372   5.787  0.00  0.00    -0.073 A 
ATOM      2  C3  UNL d   1      -4.493  -0.534   5.999  0.00  0.00    -0.002 A 
ATOM      3  C4  UNL d   1      -4.252  -1.908   5.968  0.00  0.00     0.004 A 
ATOM      4  C5  UNL d   1      -2.964  -2.389   5.734  0.00  0.00    -0.004 A 
ATOM      5  C6  UNL d   1      -1.904  -1.499   5.532  0.00  0.00    -0.075 A 
ATOM      6  C7  UNL d   1      -0.513  -2.001   5.277  0.00  0.00     0.076 C 
ATOM      7  C8  UNL d   1      -2.155  -0.121   5.562  0.00  0.00     0.001 A 
ENDROOT
BRANCH   1   8
ATOM      8  C1  UNL d   1      -3.703   1.857   5.826  0.00  0.00     0.053 C 
ATOM      9  C   UNL d   1      -5.181   2.177   5.983  0.00  0.00     0.018 C 
ENDBRANCH   1   8
TORSDOF 1
ENDMDL
