MODEL 1
REMARK minimizedAffinity 8.4597702
REMARK minimizedRMSD -1
REMARK  3 active torsions:
REMARK  status: ('A' for Active; 'I' for Inactive)
REMARK    1  A    between atoms: C3'_2  and  C2'_3 
REMARK    2  A    between atoms: C2'_3  and  C1'_4 
REMARK    3  A    between atoms: C1'_4  and  C1_5 
ROOT
ATOM      1  C1  N4B d   1       1.995   3.420  -5.922  0.00  0.00    -0.075 A 
ATOM      2  C2  N4B d   1       2.937   2.369  -5.878  0.00  0.00     0.002 A 
ATOM      3  C3  N4B d   1       4.281   2.650  -5.898  0.00  0.00     0.002 A 
ATOM      4  C4  N4B d   1       4.704   3.968  -5.982  0.00  0.00    -0.004 A 
ATOM      5  C5  N4B d   1       3.788   4.978  -5.999  0.00  0.00     0.002 A 
ATOM      6  C6  N4B d   1       2.435   4.711  -5.975  0.00  0.00     0.002 A 
ENDROOT
BRANCH   1   7
ATOM      7  C1' N4B d   1       0.515   3.158  -5.989  0.00  0.00     0.057 C 
BRANCH   7   8
ATOM      8  C2' N4B d   1      -0.234   4.483  -5.880  0.00  0.00     0.009 C 
BRANCH   8   9
ATOM      9  C3' N4B d   1      -1.739   4.293  -5.959  0.00  0.00     0.004 C 
ATOM     10  C4' N4B d   1      -2.142   2.849  -5.986  0.00  0.00     0.003 C 
ENDBRANCH   8   9
ENDBRANCH   7   8
ENDBRANCH   1   7
TORSDOF 3
ENDMDL
