MODEL 1
REMARK minimizedAffinity 0.419736236
REMARK minimizedRMSD -1
REMARK  3 active torsions:
REMARK  status: ('A' for Active; 'I' for Inactive)
REMARK    1  A    between atoms: C3'_2  and  C2'_3 
REMARK    2  A    between atoms: C2'_3  and  C1'_4 
REMARK    3  A    between atoms: C1'_4  and  C1_5 
ROOT
ATOM      1  C1  N4B d   1      -1.805   3.454  -5.925  0.00  0.00    -0.075 A 
ATOM      2  C2  N4B d   1      -1.295   2.137  -5.932  0.00  0.00     0.002 A 
ATOM      3  C3  N4B d   1       0.062   1.926  -5.958  0.00  0.00     0.002 A 
ATOM      4  C4  N4B d   1       0.924   3.012  -5.995  0.00  0.00    -0.004 A 
ATOM      5  C5  N4B d   1       0.424   4.281  -5.962  0.00  0.00     0.002 A 
ATOM      6  C6  N4B d   1      -0.937   4.508  -5.932  0.00  0.00     0.002 A 
ENDROOT
BRANCH   1   7
ATOM      7  C1' N4B d   1      -3.282   3.734  -5.984  0.00  0.00     0.057 C 
BRANCH   7   8
ATOM      8  C2' N4B d   1      -3.544   5.149  -5.476  0.00  0.00     0.009 C 
BRANCH   8   9
ATOM      9  C3' N4B d   1      -4.997   5.556  -5.651  0.00  0.00     0.004 C 
ATOM     10  C4' N4B d   1      -5.894   4.391  -5.947  0.00  0.00     0.003 C 
ENDBRANCH   8   9
ENDBRANCH   7   8
ENDBRANCH   1   7
TORSDOF 3
ENDMDL
