MODEL 1
REMARK minimizedAffinity -0.759181976
REMARK minimizedRMSD -1
REMARK  3 active torsions:
REMARK  status: ('A' for Active; 'I' for Inactive)
REMARK    1  A    between atoms: C3'_2  and  C2'_3 
REMARK    2  A    between atoms: C2'_3  and  C1'_4 
REMARK    3  A    between atoms: C1'_4  and  C1_5 
ROOT
ATOM      1  C1  N4B d   1      -1.585   3.420  -5.877  0.00  0.00    -0.075 A 
ATOM      2  C2  N4B d   1      -1.678   4.827  -5.949  0.00  0.00     0.002 A 
ATOM      3  C3  N4B d   1      -2.910   5.432  -6.000  0.00  0.00     0.002 A 
ATOM      4  C4  N4B d   1      -4.057   4.653  -5.999  0.00  0.00    -0.004 A 
ATOM      5  C5  N4B d   1      -3.959   3.296  -5.903  0.00  0.00     0.002 A 
ATOM      6  C6  N4B d   1      -2.728   2.674  -5.848  0.00  0.00     0.002 A 
ENDROOT
BRANCH   1   7
ATOM      7  C1' N4B d   1      -0.260   2.709  -5.907  0.00  0.00     0.057 C 
BRANCH   7   8
ATOM      8  C2' N4B d   1       0.862   3.742  -5.967  0.00  0.00     0.009 C 
BRANCH   8   9
ATOM      9  C3' N4B d   1       2.231   3.106  -5.802  0.00  0.00     0.004 C 
ATOM     10  C4' N4B d   1       3.351   4.091  -5.948  0.00  0.00     0.003 C 
ENDBRANCH   8   9
ENDBRANCH   7   8
ENDBRANCH   1   7
TORSDOF 3
ENDMDL
