MODEL 1
REMARK minimizedAffinity 4.08447266
REMARK minimizedRMSD -1
REMARK  3 active torsions:
REMARK  status: ('A' for Active; 'I' for Inactive)
REMARK    1  A    between atoms: C3'_2  and  C2'_3 
REMARK    2  A    between atoms: C2'_3  and  C1'_4 
REMARK    3  A    between atoms: C1'_4  and  C1_5 
ROOT
ATOM      1  C1  N4B d   1       0.515   2.585   1.460  0.00  0.00    -0.075 A 
ATOM      2  C2  N4B d   1       0.596   3.054   0.130  0.00  0.00     0.002 A 
ATOM      3  C3  N4B d   1       1.787   3.537  -0.355  0.00  0.00     0.002 A 
ATOM      4  C4  N4B d   1       2.899   3.579   0.472  0.00  0.00    -0.004 A 
ATOM      5  C5  N4B d   1       2.819   3.100   1.747  0.00  0.00     0.002 A 
ATOM      6  C6  N4B d   1       1.630   2.608   2.247  0.00  0.00     0.002 A 
ENDROOT
BRANCH   1   7
ATOM      7  C1' N4B d   1      -0.785   2.127   2.062  0.00  0.00     0.057 C 
BRANCH   7   8
ATOM      8  C2' N4B d   1      -1.358   0.994   1.216  0.00  0.00     0.009 C 
BRANCH   8   9
ATOM      9  C3' N4B d   1      -0.268   0.097   0.654  0.00  0.00     0.004 C 
ATOM     10  C4' N4B d   1      -0.198   0.135  -0.843  0.00  0.00     0.003 C 
ENDBRANCH   8   9
ENDBRANCH   7   8
ENDBRANCH   1   7
TORSDOF 3
ENDMDL
