MODEL 1
REMARK minimizedAffinity 12.8966026
REMARK minimizedRMSD -1
REMARK  3 active torsions:
REMARK  status: ('A' for Active; 'I' for Inactive)
REMARK    1  A    between atoms: C3'_2  and  C2'_3 
REMARK    2  A    between atoms: C2'_3  and  C1'_4 
REMARK    3  A    between atoms: C1'_4  and  C1_5 
ROOT
ATOM      1  C1  N4B d   1      -1.180   3.160  -5.988  0.00  0.00    -0.075 A 
ATOM      2  C2  N4B d   1      -2.492   2.637  -5.973  0.00  0.00     0.002 A 
ATOM      3  C3  N4B d   1      -3.569   3.488  -5.914  0.00  0.00     0.002 A 
ATOM      4  C4  N4B d   1      -3.359   4.857  -5.850  0.00  0.00    -0.004 A 
ATOM      5  C5  N4B d   1      -2.089   5.354  -5.891  0.00  0.00     0.002 A 
ATOM      6  C6  N4B d   1      -0.998   4.512  -5.954  0.00  0.00     0.002 A 
ENDROOT
BRANCH   1   7
ATOM      7  C1' N4B d   1       0.030   2.267  -5.965  0.00  0.00     0.057 C 
BRANCH   7   8
ATOM      8  C2' N4B d   1       1.281   3.124  -5.798  0.00  0.00     0.009 C 
BRANCH   8   9
ATOM      9  C3' N4B d   1       2.529   2.277  -5.608  0.00  0.00     0.004 C 
ATOM     10  C4' N4B d   1       3.785   2.999  -5.996  0.00  0.00     0.003 C 
ENDBRANCH   8   9
ENDBRANCH   7   8
ENDBRANCH   1   7
TORSDOF 3
ENDMDL
