MODEL 1
REMARK minimizedAffinity -1.97857988
REMARK minimizedRMSD -1
REMARK  3 active torsions:
REMARK  status: ('A' for Active; 'I' for Inactive)
REMARK    1  A    between atoms: C3'_2  and  C2'_3 
REMARK    2  A    between atoms: C2'_3  and  C1'_4 
REMARK    3  A    between atoms: C1'_4  and  C1_5 
ROOT
ATOM      1  C1  N4B d   1      -0.110   4.041  -5.897  0.00  0.00    -0.075 A 
ATOM      2  C2  N4B d   1      -0.785   2.803  -5.977  0.00  0.00     0.002 A 
ATOM      3  C3  N4B d   1      -2.157   2.765  -5.943  0.00  0.00     0.002 A 
ATOM      4  C4  N4B d   1      -2.872   3.946  -5.811  0.00  0.00    -0.004 A 
ATOM      5  C5  N4B d   1      -2.214   5.140  -5.760  0.00  0.00     0.002 A 
ATOM      6  C6  N4B d   1      -0.835   5.193  -5.797  0.00  0.00     0.002 A 
ENDROOT
BRANCH   1   7
ATOM      7  C1' N4B d   1       1.391   4.125  -5.844  0.00  0.00     0.057 C 
BRANCH   7   8
ATOM      8  C2' N4B d   1       1.962   2.731  -5.602  0.00  0.00     0.009 C 
BRANCH   8   9
ATOM      9  C3' N4B d   1       3.430   2.645  -5.985  0.00  0.00     0.004 C 
ATOM     10  C4' N4B d   1       4.126   3.971  -5.920  0.00  0.00     0.003 C 
ENDBRANCH   8   9
ENDBRANCH   7   8
ENDBRANCH   1   7
TORSDOF 3
ENDMDL
