MODEL 1
REMARK minimizedAffinity 3.19583416
REMARK minimizedRMSD -1
REMARK  3 active torsions:
REMARK  status: ('A' for Active; 'I' for Inactive)
REMARK    1  A    between atoms: C3'_2  and  C2'_3 
REMARK    2  A    between atoms: C2'_3  and  C1'_4 
REMARK    3  A    between atoms: C1'_4  and  C1_5 
ROOT
ATOM      1  C1  N4B d   1       0.611   3.015  -5.277  0.00  0.00    -0.075 A 
ATOM      2  C2  N4B d   1       0.418   2.711  -3.912  0.00  0.00     0.002 A 
ATOM      3  C3  N4B d   1       1.175   1.735  -3.312  0.00  0.00     0.002 A 
ATOM      4  C4  N4B d   1       2.113   1.038  -4.060  0.00  0.00    -0.004 A 
ATOM      5  C5  N4B d   1       2.311   1.355  -5.372  0.00  0.00     0.002 A 
ATOM      6  C6  N4B d   1       1.560   2.337  -5.986  0.00  0.00     0.002 A 
ENDROOT
BRANCH   1   7
ATOM      7  C1' N4B d   1      -0.251   4.015  -5.998  0.00  0.00     0.057 C 
BRANCH   7   8
ATOM      8  C2' N4B d   1      -1.715   3.605  -5.861  0.00  0.00     0.009 C 
BRANCH   8   9
ATOM      9  C3' N4B d   1      -2.653   4.792  -5.999  0.00  0.00     0.004 C 
ATOM     10  C4' N4B d   1      -2.411   5.847  -4.961  0.00  0.00     0.003 C 
ENDBRANCH   8   9
ENDBRANCH   7   8
ENDBRANCH   1   7
TORSDOF 3
ENDMDL
