MODEL 1
REMARK minimizedAffinity 1.54305792
REMARK minimizedRMSD -1
REMARK  0 active torsions:
REMARK  status: ('A' for Active; 'I' for Inactive)
ROOT
ATOM      1  C   UNL d   1      -1.280  -0.113   1.748  0.00  0.00    -0.002 A 
ATOM      2  C1  UNL d   1       0.025  -0.145   2.218  0.00  0.00     0.010 A 
ATOM      3  C2  UNL d   1       1.075  -0.512   1.374  0.00  0.00     0.041 A 
ATOM      4  C3  UNL d   1       0.789  -0.848   0.036  0.00  0.00    -0.075 A 
ATOM      5  S   UNL d   1       1.914  -1.327  -1.180  0.00  0.00     0.015 SA
ATOM      6  C4  UNL d   1       0.688  -1.500  -2.352  0.00  0.00     0.022 A 
ATOM      7  C5  UNL d   1      -0.555  -1.203  -1.845  0.00  0.00     0.026 A 
ATOM      8  C6  UNL d   1      -0.518  -0.822  -0.461  0.00  0.00    -0.082 A 
ATOM      9  C7  UNL d   1      -1.560  -0.447   0.420  0.00  0.00     0.045 A 
ENDROOT
TORSDOF 0
ENDMDL
