MODEL 1
REMARK minimizedAffinity -3.84605622
REMARK minimizedRMSD -1
REMARK  0 active torsions:
REMARK  status: ('A' for Active; 'I' for Inactive)
ROOT
ATOM      1  C   UNL d   1      -1.199  -0.770   1.551  0.00  0.00    -0.002 A 
ATOM      2  C1  UNL d   1       0.008  -0.094   1.439  0.00  0.00     0.010 A 
ATOM      3  C2  UNL d   1       0.898  -0.396   0.407  0.00  0.00     0.041 A 
ATOM      4  C3  UNL d   1       0.550  -1.397  -0.522  0.00  0.00    -0.075 A 
ATOM      5  S   UNL d   1       1.483  -1.935  -1.868  0.00  0.00     0.015 SA
ATOM      6  C4  UNL d   1       0.300  -3.073  -2.328  0.00  0.00     0.022 A 
ATOM      7  C5  UNL d   1      -0.786  -3.057  -1.485  0.00  0.00     0.026 A 
ATOM      8  C6  UNL d   1      -0.660  -2.091  -0.431  0.00  0.00    -0.082 A 
ATOM      9  C7  UNL d   1      -1.541  -1.762   0.628  0.00  0.00     0.045 A 
ENDROOT
TORSDOF 0
ENDMDL
