MODEL 1
REMARK minimizedAffinity -1.00357258
REMARK minimizedRMSD -1
REMARK  0 active torsions:
REMARK  status: ('A' for Active; 'I' for Inactive)
ROOT
ATOM      1  C   UNL d   1       0.293   0.111   1.083  0.00  0.00    -0.002 A 
ATOM      2  C1  UNL d   1      -1.035  -0.238   0.886  0.00  0.00     0.010 A 
ATOM      3  C2  UNL d   1      -1.380  -1.232  -0.032  0.00  0.00     0.041 A 
ATOM      4  C3  UNL d   1      -0.356  -1.878  -0.754  0.00  0.00    -0.075 A 
ATOM      5  S   UNL d   1      -0.541  -3.125  -1.930  0.00  0.00     0.015 SA
ATOM      6  C4  UNL d   1       1.139  -3.225  -2.197  0.00  0.00     0.022 A 
ATOM      7  C5  UNL d   1       1.839  -2.335  -1.416  0.00  0.00     0.026 A 
ATOM      8  C6  UNL d   1       0.989  -1.544  -0.572  0.00  0.00    -0.082 A 
ATOM      9  C7  UNL d   1       1.306  -0.532   0.365  0.00  0.00     0.045 A 
ENDROOT
TORSDOF 0
ENDMDL
