MODEL 1
REMARK minimizedAffinity -3.34546423
REMARK minimizedRMSD -1
REMARK  0 active torsions:
REMARK  status: ('A' for Active; 'I' for Inactive)
ROOT
ATOM      1  C   UNL d   1      -0.589   0.420   1.123  0.00  0.00    -0.002 A 
ATOM      2  C1  UNL d   1      -1.279  -0.757   1.381  0.00  0.00     0.010 A 
ATOM      3  C2  UNL d   1      -0.968  -1.929   0.689  0.00  0.00     0.041 A 
ATOM      4  C3  UNL d   1       0.058  -1.899  -0.276  0.00  0.00    -0.075 A 
ATOM      5  S   UNL d   1       0.612  -3.212  -1.246  0.00  0.00     0.015 SA
ATOM      6  C4  UNL d   1       1.777  -2.243  -2.025  0.00  0.00     0.022 A 
ATOM      7  C5  UNL d   1       1.758  -0.947  -1.569  0.00  0.00     0.026 A 
ATOM      8  C6  UNL d   1       0.768  -0.727  -0.553  0.00  0.00    -0.082 A 
ATOM      9  C7  UNL d   1       0.429   0.445   0.166  0.00  0.00     0.045 A 
ENDROOT
TORSDOF 0
ENDMDL
