MODEL 1
REMARK minimizedAffinity -0.781309247
REMARK minimizedRMSD -1
REMARK  0 active torsions:
REMARK  status: ('A' for Active; 'I' for Inactive)
ROOT
ATOM      1  C   UNL d   1       0.472  -3.236  -2.212  0.00  0.00    -0.002 A 
ATOM      2  C1  UNL d   1       1.277  -2.182  -2.619  0.00  0.00     0.010 A 
ATOM      3  C2  UNL d   1       1.318  -0.995  -1.884  0.00  0.00     0.041 A 
ATOM      4  C3  UNL d   1       0.531  -0.886  -0.721  0.00  0.00    -0.075 A 
ATOM      5  S   UNL d   1       0.422   0.471   0.337  0.00  0.00     0.015 SA
ATOM      6  C4  UNL d   1      -0.696  -0.317   1.354  0.00  0.00     0.022 A 
ATOM      7  C5  UNL d   1      -0.990  -1.585   0.912  0.00  0.00     0.026 A 
ATOM      8  C6  UNL d   1      -0.287  -1.934  -0.291  0.00  0.00    -0.082 A 
ATOM      9  C7  UNL d   1      -0.308  -3.124  -1.058  0.00  0.00     0.045 A 
ENDROOT
TORSDOF 0
ENDMDL
