MODEL 1
REMARK minimizedAffinity -1.59175301
REMARK minimizedRMSD -1
REMARK  0 active torsions:
REMARK  status: ('A' for Active; 'I' for Inactive)
ROOT
ATOM      1  C   UNL d   1       0.406   0.071   0.962  0.00  0.00    -0.002 A 
ATOM      2  C1  UNL d   1      -0.763  -0.615   1.261  0.00  0.00     0.010 A 
ATOM      3  C2  UNL d   1      -1.198  -1.663   0.448  0.00  0.00     0.041 A 
ATOM      4  C3  UNL d   1      -0.431  -2.016  -0.679  0.00  0.00    -0.075 A 
ATOM      5  S   UNL d   1      -0.769  -3.267  -1.817  0.00  0.00     0.015 SA
ATOM      6  C4  UNL d   1       0.631  -2.921  -2.726  0.00  0.00     0.022 A 
ATOM      7  C5  UNL d   1       1.350  -1.879  -2.189  0.00  0.00     0.026 A 
ATOM      8  C6  UNL d   1       0.750  -1.341  -1.001  0.00  0.00    -0.082 A 
ATOM      9  C7  UNL d   1       1.164  -0.281  -0.158  0.00  0.00     0.045 A 
ENDROOT
TORSDOF 0
ENDMDL
