MODEL 1
REMARK minimizedAffinity 1.03717828
REMARK minimizedRMSD -1
REMARK  0 active torsions:
REMARK  status: ('A' for Active; 'I' for Inactive)
ROOT
ATOM      1  C   UNL d   1      -2.162   0.350   1.769  0.00  0.00    -0.002 A 
ATOM      2  C1  UNL d   1      -1.008   1.020   2.151  0.00  0.00     0.010 A 
ATOM      3  C2  UNL d   1       0.206   0.765   1.511  0.00  0.00     0.041 A 
ATOM      4  C3  UNL d   1       0.242  -0.182   0.469  0.00  0.00    -0.075 A 
ATOM      5  S   UNL d   1       1.617  -0.656  -0.458  0.00  0.00     0.015 SA
ATOM      6  C4  UNL d   1       0.705  -1.759  -1.383  0.00  0.00     0.022 A 
ATOM      7  C5  UNL d   1      -0.617  -1.779  -1.007  0.00  0.00     0.026 A 
ATOM      8  C6  UNL d   1      -0.906  -0.870   0.066  0.00  0.00    -0.082 A 
ATOM      9  C7  UNL d   1      -2.122  -0.590   0.735  0.00  0.00     0.045 A 
ENDROOT
TORSDOF 0
ENDMDL
