MODEL 1
REMARK minimizedAffinity -2.89923716
REMARK minimizedRMSD -1
REMARK  0 active torsions:
REMARK  status: ('A' for Active; 'I' for Inactive)
ROOT
ATOM      1  C   UNL d   1      -0.780  -0.155   0.919  0.00  0.00    -0.002 A 
ATOM      2  C1  UNL d   1       0.451   0.392   0.586  0.00  0.00     0.010 A 
ATOM      3  C2  UNL d   1       1.304  -0.266  -0.302  0.00  0.00     0.041 A 
ATOM      4  C3  UNL d   1       0.894  -1.494  -0.857  0.00  0.00    -0.075 A 
ATOM      5  S   UNL d   1       1.772  -2.478  -1.968  0.00  0.00     0.015 SA
ATOM      6  C4  UNL d   1       0.533  -3.647  -2.028  0.00  0.00     0.022 A 
ATOM      7  C5  UNL d   1      -0.532  -3.311  -1.226  0.00  0.00     0.026 A 
ATOM      8  C6  UNL d   1      -0.342  -2.064  -0.539  0.00  0.00    -0.082 A 
ATOM      9  C7  UNL d   1      -1.184  -1.373   0.366  0.00  0.00     0.045 A 
ENDROOT
TORSDOF 0
ENDMDL
