MODEL 1
REMARK minimizedAffinity -0.368255407
REMARK minimizedRMSD -1
REMARK  0 active torsions:
REMARK  status: ('A' for Active; 'I' for Inactive)
ROOT
ATOM      1  C   UNL d   1       0.471  -1.489   0.338  0.00  0.00    -0.002 A 
ATOM      2  C1  UNL d   1       1.008  -0.701  -0.670  0.00  0.00     0.010 A 
ATOM      3  C2  UNL d   1       0.852   0.687  -0.645  0.00  0.00     0.041 A 
ATOM      4  C3  UNL d   1       0.142   1.274   0.420  0.00  0.00    -0.075 A 
ATOM      5  S   UNL d   1      -0.174   2.952   0.659  0.00  0.00     0.015 SA
ATOM      6  C4  UNL d   1      -1.028   2.662   2.105  0.00  0.00     0.022 A 
ATOM      7  C5  UNL d   1      -1.082   1.323   2.412  0.00  0.00     0.026 A 
ATOM      8  C6  UNL d   1      -0.408   0.501   1.447  0.00  0.00    -0.082 A 
ATOM      9  C7  UNL d   1      -0.233  -0.903   1.393  0.00  0.00     0.045 A 
ENDROOT
TORSDOF 0
ENDMDL
