MODEL 1
REMARK minimizedAffinity -0.0598238744
REMARK minimizedRMSD -1
REMARK  0 active torsions:
REMARK  status: ('A' for Active; 'I' for Inactive)
ROOT
ATOM      1  C   UNL d   1      -0.569   0.715   1.286  0.00  0.00    -0.002 A 
ATOM      2  C1  UNL d   1       0.315   1.184   0.324  0.00  0.00     0.010 A 
ATOM      3  C2  UNL d   1       0.714   0.365  -0.734  0.00  0.00     0.041 A 
ATOM      4  C3  UNL d   1       0.204  -0.946  -0.810  0.00  0.00    -0.075 A 
ATOM      5  S   UNL d   1       0.551  -2.128  -2.016  0.00  0.00     0.015 SA
ATOM      6  C4  UNL d   1      -0.465  -3.283  -1.284  0.00  0.00     0.022 A 
ATOM      7  C5  UNL d   1      -1.063  -2.796  -0.145  0.00  0.00     0.026 A 
ATOM      8  C6  UNL d   1      -0.687  -1.441   0.146  0.00  0.00    -0.082 A 
ATOM      9  C7  UNL d   1      -1.072  -0.586   1.207  0.00  0.00     0.045 A 
ENDROOT
TORSDOF 0
ENDMDL
