MODEL 1
REMARK minimizedAffinity -1.2803539
REMARK minimizedRMSD -1
REMARK  0 active torsions:
REMARK  status: ('A' for Active; 'I' for Inactive)
ROOT
ATOM      1  C   UNL d   1       0.007   3.628  -0.224  0.00  0.00    -0.002 A 
ATOM      2  C1  UNL d   1      -0.486   3.384   1.050  0.00  0.00     0.010 A 
ATOM      3  C2  UNL d   1      -0.660   2.076   1.506  0.00  0.00     0.041 A 
ATOM      4  C3  UNL d   1      -0.327   1.006   0.652  0.00  0.00    -0.075 A 
ATOM      5  S   UNL d   1      -0.456  -0.678   0.996  0.00  0.00     0.015 SA
ATOM      6  C4  UNL d   1       0.140  -1.114  -0.540  0.00  0.00     0.022 A 
ATOM      7  C5  UNL d   1       0.435  -0.014  -1.309  0.00  0.00     0.026 A 
ATOM      8  C6  UNL d   1       0.172   1.226  -0.635  0.00  0.00    -0.082 A 
ATOM      9  C7  UNL d   1       0.336   2.564  -1.068  0.00  0.00     0.045 A 
ENDROOT
TORSDOF 0
ENDMDL
