MODEL 1
REMARK minimizedAffinity 5.33439112
REMARK minimizedRMSD -1
REMARK  2 active torsions:
REMARK  status: ('A' for Active; 'I' for Inactive)
REMARK    1  A    between atoms: C1_2  and  C2_3 
REMARK    2  A    between atoms: C2_3  and  C3_4 
ROOT
ATOM      1  C3  UNL d   1       0.084  -4.392  -2.993  0.00  0.00    -0.075 A 
ATOM      2  C4  UNL d   1       1.181  -3.981  -3.764  0.00  0.00     0.002 A 
ATOM      3  C5  UNL d   1       1.783  -2.743  -3.535  0.00  0.00     0.002 A 
ATOM      4  C6  UNL d   1       1.291  -1.898  -2.543  0.00  0.00    -0.004 A 
ATOM      5  C7  UNL d   1       0.191  -2.289  -1.782  0.00  0.00     0.002 A 
ATOM      6  C8  UNL d   1      -0.410  -3.529  -2.006  0.00  0.00     0.002 A 
ENDROOT
BRANCH   1   7
ATOM      7  C2  UNL d   1      -0.554  -5.742  -3.215  0.00  0.00     0.056 C 
BRANCH   7   8
ATOM      8  C1  UNL d   1      -0.987  -5.997  -4.663  0.00  0.00     0.007 C 
ATOM      9  C   UNL d   1      -2.499  -5.992  -4.847  0.00  0.00     0.009 C 
ENDBRANCH   7   8
ENDBRANCH   1   7
TORSDOF 2
ENDMDL
