MODEL 1
REMARK minimizedAffinity 7.47353983
REMARK minimizedRMSD -1
REMARK  2 active torsions:
REMARK  status: ('A' for Active; 'I' for Inactive)
REMARK    1  A    between atoms: C1_2  and  C2_3 
REMARK    2  A    between atoms: C2_3  and  C3_4 
ROOT
ATOM      1  C3  UNL d   1       3.784   4.624  -1.772  0.00  0.00    -0.075 A 
ATOM      2  C4  UNL d   1       5.032   5.230  -1.983  0.00  0.00     0.002 A 
ATOM      3  C5  UNL d   1       5.574   5.308  -3.266  0.00  0.00     0.002 A 
ATOM      4  C6  UNL d   1       4.883   4.774  -4.351  0.00  0.00    -0.004 A 
ATOM      5  C7  UNL d   1       3.650   4.156  -4.152  0.00  0.00     0.002 A 
ATOM      6  C8  UNL d   1       3.103   4.080  -2.869  0.00  0.00     0.002 A 
ENDROOT
BRANCH   1   7
ATOM      7  C2  UNL d   1       3.179   4.563  -0.391  0.00  0.00     0.056 C 
BRANCH   7   8
ATOM      8  C1  UNL d   1       2.026   3.562  -0.259  0.00  0.00     0.007 C 
ATOM      9  C   UNL d   1       0.745   4.189   0.275  0.00  0.00     0.009 C 
ENDBRANCH   7   8
ENDBRANCH   1   7
TORSDOF 2
ENDMDL
