MODEL 1
REMARK minimizedAffinity 3.19370747
REMARK minimizedRMSD -1
REMARK  2 active torsions:
REMARK  status: ('A' for Active; 'I' for Inactive)
REMARK    1  A    between atoms: C1_2  and  C2_3 
REMARK    2  A    between atoms: C2_3  and  C3_4 
ROOT
ATOM      1  C3  UNL d   1       3.798  -2.590   3.702  0.00  0.00    -0.075 A 
ATOM      2  C4  UNL d   1       3.478  -1.836   4.840  0.00  0.00     0.002 A 
ATOM      3  C5  UNL d   1       4.280  -1.899   5.980  0.00  0.00     0.002 A 
ATOM      4  C6  UNL d   1       5.403  -2.723   6.000  0.00  0.00    -0.004 A 
ATOM      5  C7  UNL d   1       5.721  -3.490   4.880  0.00  0.00     0.002 A 
ATOM      6  C8  UNL d   1       4.922  -3.424   3.737  0.00  0.00     0.002 A 
ENDROOT
BRANCH   1   7
ATOM      7  C2  UNL d   1       2.950  -2.503   2.455  0.00  0.00     0.056 C 
BRANCH   7   8
ATOM      8  C1  UNL d   1       3.365  -1.382   1.496  0.00  0.00     0.007 C 
ATOM      9  C   UNL d   1       4.066  -1.892   0.244  0.00  0.00     0.009 C 
ENDBRANCH   7   8
ENDBRANCH   1   7
TORSDOF 2
ENDMDL
