MODEL 1
REMARK minimizedAffinity -1.20838475
REMARK minimizedRMSD -1
REMARK  2 active torsions:
REMARK  status: ('A' for Active; 'I' for Inactive)
REMARK    1  A    between atoms: C1_2  and  C2_3 
REMARK    2  A    between atoms: C2_3  and  C3_4 
ROOT
ATOM      1  C3  UNL d   1       4.176  -3.265   3.441  0.00  0.00    -0.075 A 
ATOM      2  C4  UNL d   1       5.220  -4.139   3.777  0.00  0.00     0.002 A 
ATOM      3  C5  UNL d   1       5.809  -4.087   5.040  0.00  0.00     0.002 A 
ATOM      4  C6  UNL d   1       5.371  -3.155   5.978  0.00  0.00    -0.004 A 
ATOM      5  C7  UNL d   1       4.346  -2.270   5.650  0.00  0.00     0.002 A 
ATOM      6  C8  UNL d   1       3.751  -2.323   4.388  0.00  0.00     0.002 A 
ENDROOT
BRANCH   1   7
ATOM      7  C2  UNL d   1       3.514  -3.336   2.085  0.00  0.00     0.056 C 
BRANCH   7   8
ATOM      8  C1  UNL d   1       3.913  -2.201   1.136  0.00  0.00     0.007 C 
ATOM      9  C   UNL d   1       4.775  -2.668  -0.029  0.00  0.00     0.009 C 
ENDBRANCH   7   8
ENDBRANCH   1   7
TORSDOF 2
ENDMDL
