MODEL 1
REMARK minimizedAffinity 19.5128937
REMARK minimizedRMSD -1
REMARK  2 active torsions:
REMARK  status: ('A' for Active; 'I' for Inactive)
REMARK    1  A    between atoms: C1_2  and  C2_3 
REMARK    2  A    between atoms: C2_3  and  C3_4 
ROOT
ATOM      1  C3  UNL d   1       4.508  -3.072   4.366  0.00  0.00    -0.075 A 
ATOM      2  C4  UNL d   1       3.731  -2.437   3.386  0.00  0.00     0.002 A 
ATOM      3  C5  UNL d   1       2.956  -1.323   3.709  0.00  0.00     0.002 A 
ATOM      4  C6  UNL d   1       2.938  -0.838   5.015  0.00  0.00    -0.004 A 
ATOM      5  C7  UNL d   1       3.693  -1.471   6.000  0.00  0.00     0.002 A 
ATOM      6  C8  UNL d   1       4.474  -2.583   5.678  0.00  0.00     0.002 A 
ENDROOT
BRANCH   1   7
ATOM      7  C2  UNL d   1       5.373  -4.259   4.016  0.00  0.00     0.056 C 
BRANCH   7   8
ATOM      8  C1  UNL d   1       5.997  -4.956   5.230  0.00  0.00     0.007 C 
ATOM      9  C   UNL d   1       5.009  -5.823   5.998  0.00  0.00     0.009 C 
ENDBRANCH   7   8
ENDBRANCH   1   7
TORSDOF 2
ENDMDL
