MODEL 1
REMARK minimizedAffinity 3.03256917
REMARK minimizedRMSD -1
REMARK  2 active torsions:
REMARK  status: ('A' for Active; 'I' for Inactive)
REMARK    1  A    between atoms: C1_2  and  C2_3 
REMARK    2  A    between atoms: C2_3  and  C3_4 
ROOT
ATOM      1  C3  UNL d   1       4.384   4.978  -3.606  0.00  0.00    -0.075 A 
ATOM      2  C4  UNL d   1       4.494   3.654  -4.053  0.00  0.00     0.002 A 
ATOM      3  C5  UNL d   1       5.299   3.341  -5.149  0.00  0.00     0.002 A 
ATOM      4  C6  UNL d   1       5.993   4.348  -5.817  0.00  0.00    -0.004 A 
ATOM      5  C7  UNL d   1       5.877   5.669  -5.391  0.00  0.00     0.002 A 
ATOM      6  C8  UNL d   1       5.077   5.984  -4.292  0.00  0.00     0.002 A 
ENDROOT
BRANCH   1   7
ATOM      7  C2  UNL d   1       3.538   5.319  -2.402  0.00  0.00     0.056 C 
BRANCH   7   8
ATOM      8  C1  UNL d   1       4.348   5.631  -1.139  0.00  0.00     0.007 C 
ATOM      9  C   UNL d   1       5.796   6.000  -1.431  0.00  0.00     0.009 C 
ENDBRANCH   7   8
ENDBRANCH   1   7
TORSDOF 2
ENDMDL
