MODEL 1
REMARK minimizedAffinity 5.16486788
REMARK minimizedRMSD -1
REMARK  2 active torsions:
REMARK  status: ('A' for Active; 'I' for Inactive)
REMARK    1  A    between atoms: C1_2  and  C2_3 
REMARK    2  A    between atoms: C2_3  and  C3_4 
ROOT
ATOM      1  C3  UNL d   1      -0.825  -1.983   0.219  0.00  0.00    -0.075 A 
ATOM      2  C4  UNL d   1      -1.272  -2.798   1.269  0.00  0.00     0.002 A 
ATOM      3  C5  UNL d   1      -2.030  -2.260   2.310  0.00  0.00     0.002 A 
ATOM      4  C6  UNL d   1      -2.342  -0.902   2.319  0.00  0.00    -0.004 A 
ATOM      5  C7  UNL d   1      -1.889  -0.080   1.289  0.00  0.00     0.002 A 
ATOM      6  C8  UNL d   1      -1.134  -0.617   0.244  0.00  0.00     0.002 A 
ENDROOT
BRANCH   1   7
ATOM      7  C2  UNL d   1      -0.030  -2.565  -0.925  0.00  0.00     0.056 C 
BRANCH   7   8
ATOM      8  C1  UNL d   1      -0.626  -2.281  -2.308  0.00  0.00     0.007 C 
ATOM      9  C   UNL d   1       0.423  -1.930  -3.354  0.00  0.00     0.009 C 
ENDBRANCH   7   8
ENDBRANCH   1   7
TORSDOF 2
ENDMDL
