MODEL 1
REMARK minimizedAffinity 1.45170546
REMARK minimizedRMSD -1
REMARK  2 active torsions:
REMARK  status: ('A' for Active; 'I' for Inactive)
REMARK    1  A    between atoms: C1_2  and  C2_3 
REMARK    2  A    between atoms: C2_3  and  C3_4 
ROOT
ATOM      1  C3  UNL d   1      -1.453  -2.822  -0.797  0.00  0.00    -0.075 A 
ATOM      2  C4  UNL d   1      -1.521  -3.655  -1.924  0.00  0.00     0.002 A 
ATOM      3  C5  UNL d   1      -0.687  -3.432  -3.020  0.00  0.00     0.002 A 
ATOM      4  C6  UNL d   1       0.215  -2.370  -3.009  0.00  0.00    -0.004 A 
ATOM      5  C7  UNL d   1       0.279  -1.527  -1.902  0.00  0.00     0.002 A 
ATOM      6  C8  UNL d   1      -0.550  -1.750  -0.802  0.00  0.00     0.002 A 
ENDROOT
BRANCH   1   7
ATOM      7  C2  UNL d   1      -2.331  -3.076   0.405  0.00  0.00     0.056 C 
BRANCH   7   8
ATOM      8  C1  UNL d   1      -1.669  -2.733   1.744  0.00  0.00     0.007 C 
ATOM      9  C   UNL d   1      -2.175  -1.429   2.347  0.00  0.00     0.009 C 
ENDBRANCH   7   8
ENDBRANCH   1   7
TORSDOF 2
ENDMDL
