MODEL 1
REMARK minimizedAffinity 4.09028578
REMARK minimizedRMSD -1
REMARK  2 active torsions:
REMARK  status: ('A' for Active; 'I' for Inactive)
REMARK    1  A    between atoms: C1_2  and  C2_3 
REMARK    2  A    between atoms: C2_3  and  C3_4 
ROOT
ATOM      1  C3  UNL d   1      -0.111  -3.089  -3.303  0.00  0.00    -0.075 A 
ATOM      2  C4  UNL d   1      -0.007  -4.435  -3.680  0.00  0.00     0.002 A 
ATOM      3  C5  UNL d   1      -0.127  -4.807  -5.020  0.00  0.00     0.002 A 
ATOM      4  C6  UNL d   1      -0.363  -3.841  -5.995  0.00  0.00    -0.004 A 
ATOM      5  C7  UNL d   1      -0.485  -2.502  -5.630  0.00  0.00     0.002 A 
ATOM      6  C8  UNL d   1      -0.360  -2.127  -4.291  0.00  0.00     0.002 A 
ENDROOT
BRANCH   1   7
ATOM      7  C2  UNL d   1       0.048  -2.677  -1.859  0.00  0.00     0.056 C 
BRANCH   7   8
ATOM      8  C1  UNL d   1      -0.933  -1.588  -1.409  0.00  0.00     0.007 C 
ATOM      9  C   UNL d   1      -0.804  -1.237   0.067  0.00  0.00     0.009 C 
ENDBRANCH   7   8
ENDBRANCH   1   7
TORSDOF 2
ENDMDL
