MODEL 1
REMARK minimizedAffinity 5.63589334
REMARK minimizedRMSD -1
REMARK  2 active torsions:
REMARK  status: ('A' for Active; 'I' for Inactive)
REMARK    1  A    between atoms: C1_2  and  C2_3 
REMARK    2  A    between atoms: C2_3  and  C3_4 
ROOT
ATOM      1  C3  UNL d   1       5.300   4.418  -3.800  0.00  0.00    -0.075 A 
ATOM      2  C4  UNL d   1       5.999   4.918  -2.692  0.00  0.00     0.002 A 
ATOM      3  C5  UNL d   1       5.347   5.699  -1.737  0.00  0.00     0.002 A 
ATOM      4  C6  UNL d   1       3.994   5.997  -1.882  0.00  0.00    -0.004 A 
ATOM      5  C7  UNL d   1       3.294   5.519  -2.988  0.00  0.00     0.002 A 
ATOM      6  C8  UNL d   1       3.942   4.735  -3.943  0.00  0.00     0.002 A 
ENDROOT
BRANCH   1   7
ATOM      7  C2  UNL d   1       5.992   3.548  -4.822  0.00  0.00     0.056 C 
BRANCH   7   8
ATOM      8  C1  UNL d   1       5.973   2.054  -4.485  0.00  0.00     0.007 C 
ATOM      9  C   UNL d   1       5.889   1.162  -5.716  0.00  0.00     0.009 C 
ENDBRANCH   7   8
ENDBRANCH   1   7
TORSDOF 2
ENDMDL
