MODEL 1
REMARK minimizedAffinity 4.07074642
REMARK minimizedRMSD -1
REMARK  2 active torsions:
REMARK  status: ('A' for Active; 'I' for Inactive)
REMARK    1  A    between atoms: C1_2  and  C2_3 
REMARK    2  A    between atoms: C2_3  and  C3_4 
ROOT
ATOM      1  C3  UNL d   1       1.193  -1.926  -1.935  0.00  0.00    -0.075 A 
ATOM      2  C4  UNL d   1       1.936  -2.008  -3.121  0.00  0.00     0.002 A 
ATOM      3  C5  UNL d   1       3.330  -2.054  -3.082  0.00  0.00     0.002 A 
ATOM      4  C6  UNL d   1       3.997  -2.009  -1.860  0.00  0.00    -0.004 A 
ATOM      5  C7  UNL d   1       3.269  -1.912  -0.676  0.00  0.00     0.002 A 
ATOM      6  C8  UNL d   1       1.874  -1.870  -0.712  0.00  0.00     0.002 A 
ENDROOT
BRANCH   1   7
ATOM      7  C2  UNL d   1      -0.317  -1.906  -1.969  0.00  0.00     0.056 C 
BRANCH   7   8
ATOM      8  C1  UNL d   1      -0.973  -3.105  -1.277  0.00  0.00     0.007 C 
ATOM      9  C   UNL d   1      -1.860  -2.710  -0.103  0.00  0.00     0.009 C 
ENDBRANCH   7   8
ENDBRANCH   1   7
TORSDOF 2
ENDMDL
