MODEL 1
REMARK minimizedAffinity 6.168293
REMARK minimizedRMSD -1
REMARK  2 active torsions:
REMARK  status: ('A' for Active; 'I' for Inactive)
REMARK    1  A    between atoms: C1_2  and  C2_3 
REMARK    2  A    between atoms: C2_3  and  C3_4 
ROOT
ATOM      1  C3  UNL d   1       1.116  -2.090  -2.774  0.00  0.00    -0.075 A 
ATOM      2  C4  UNL d   1       0.556  -1.495  -1.634  0.00  0.00     0.002 A 
ATOM      3  C5  UNL d   1      -0.593  -2.027  -1.049  0.00  0.00     0.002 A 
ATOM      4  C6  UNL d   1      -1.202  -3.153  -1.600  0.00  0.00    -0.004 A 
ATOM      5  C7  UNL d   1      -0.664  -3.743  -2.742  0.00  0.00     0.002 A 
ATOM      6  C8  UNL d   1       0.489  -3.215  -3.327  0.00  0.00     0.002 A 
ENDROOT
BRANCH   1   7
ATOM      7  C2  UNL d   1       2.376  -1.537  -3.395  0.00  0.00     0.056 C 
BRANCH   7   8
ATOM      8  C1  UNL d   1       3.666  -2.163  -2.854  0.00  0.00     0.007 C 
ATOM      9  C   UNL d   1       4.213  -1.446  -1.627  0.00  0.00     0.009 C 
ENDBRANCH   7   8
ENDBRANCH   1   7
TORSDOF 2
ENDMDL
