MODEL 1
REMARK minimizedAffinity 4.21708536
REMARK minimizedRMSD -1
REMARK  2 active torsions:
REMARK  status: ('A' for Active; 'I' for Inactive)
REMARK    1  A    between atoms: C1_2  and  C2_3 
REMARK    2  A    between atoms: C2_3  and  C3_4 
ROOT
ATOM      1  C3  UNL d   1      -1.141  -2.318  -0.970  0.00  0.00    -0.075 A 
ATOM      2  C4  UNL d   1      -2.541  -2.313  -1.060  0.00  0.00     0.002 A 
ATOM      3  C5  UNL d   1      -3.323  -2.643   0.048  0.00  0.00     0.002 A 
ATOM      4  C6  UNL d   1      -2.717  -2.991   1.253  0.00  0.00    -0.004 A 
ATOM      5  C7  UNL d   1      -1.327  -3.016   1.349  0.00  0.00     0.002 A 
ATOM      6  C8  UNL d   1      -0.543  -2.682   0.243  0.00  0.00     0.002 A 
ENDROOT
BRANCH   1   7
ATOM      7  C2  UNL d   1      -0.290  -1.934  -2.157  0.00  0.00     0.056 C 
BRANCH   7   8
ATOM      8  C1  UNL d   1       0.547  -3.085  -2.723  0.00  0.00     0.007 C 
ATOM      9  C   UNL d   1       1.668  -2.618  -3.642  0.00  0.00     0.009 C 
ENDBRANCH   7   8
ENDBRANCH   1   7
TORSDOF 2
ENDMDL
