MODEL 1
REMARK minimizedAffinity 4.70554399
REMARK minimizedRMSD -1
REMARK  2 active torsions:
REMARK  status: ('A' for Active; 'I' for Inactive)
REMARK    1  A    between atoms: C1_2  and  C2_3 
REMARK    2  A    between atoms: C2_3  and  C3_4 
ROOT
ATOM      1  C3  UNL d   1      -1.051  -2.910  -1.516  0.00  0.00    -0.075 A 
ATOM      2  C4  UNL d   1      -0.063  -1.918  -1.606  0.00  0.00     0.002 A 
ATOM      3  C5  UNL d   1       0.715  -1.797  -2.758  0.00  0.00     0.002 A 
ATOM      4  C6  UNL d   1       0.525  -2.670  -3.826  0.00  0.00    -0.004 A 
ATOM      5  C7  UNL d   1      -0.442  -3.670  -3.741  0.00  0.00     0.002 A 
ATOM      6  C8  UNL d   1      -1.225  -3.791  -2.592  0.00  0.00     0.002 A 
ENDROOT
BRANCH   1   7
ATOM      7  C2  UNL d   1      -1.916  -3.028  -0.284  0.00  0.00     0.056 C 
BRANCH   7   8
ATOM      8  C1  UNL d   1      -1.129  -3.074   1.030  0.00  0.00     0.007 C 
ATOM      9  C   UNL d   1      -1.965  -2.688   2.243  0.00  0.00     0.009 C 
ENDBRANCH   7   8
ENDBRANCH   1   7
TORSDOF 2
ENDMDL
