MODEL 1
REMARK minimizedAffinity 13.382719
REMARK minimizedRMSD -1
REMARK  2 active torsions:
REMARK  status: ('A' for Active; 'I' for Inactive)
REMARK    1  A    between atoms: C2'_3  and  C1'_4 
REMARK    2  A    between atoms: C1'_4  and  C1_5 
ROOT
ATOM      1  C1  I4B d   1       0.606   2.612   0.476  0.00  0.00    -0.075 A 
ATOM      2  C2  I4B d   1       1.514   3.110  -0.425  0.00  0.00     0.003 A 
ATOM      3  C3  I4B d   1       1.084   3.952  -1.479  0.00  0.00     0.002 A 
ATOM      4  C4  I4B d   1      -0.261   4.228  -1.622  0.00  0.00    -0.004 A 
ATOM      5  C5  I4B d   1      -1.177   3.742  -0.694  0.00  0.00     0.002 A 
ATOM      6  C6  I4B d   1      -0.740   2.939   0.369  0.00  0.00     0.003 A 
ENDROOT
BRANCH   1   7
ATOM      7  C1' I4B d   1       1.090   1.699   1.558  0.00  0.00     0.060 C 
BRANCH   7   8
ATOM      8  C2' I4B d   1       2.515   2.089   1.895  0.00  0.00    -0.013 C 
ATOM      9  C4' I4B d   1       2.635   2.525   3.332  0.00  0.00     0.013 C 
ATOM     10  C3' I4B d   1       3.398   0.911   1.611  0.00  0.00     0.013 C 
ENDBRANCH   7   8
ENDBRANCH   1   7
TORSDOF 2
ENDMDL
