MODEL 1
REMARK minimizedAffinity 10.8472843
REMARK minimizedRMSD -1
REMARK  2 active torsions:
REMARK  status: ('A' for Active; 'I' for Inactive)
REMARK    1  A    between atoms: C2'_3  and  C1'_4 
REMARK    2  A    between atoms: C1'_4  and  C1_5 
ROOT
ATOM      1  C1  I4B d   1      -3.556  -5.273  -5.645  0.00  0.00    -0.075 A 
ATOM      2  C2  I4B d   1      -4.723  -5.994  -5.668  0.00  0.00     0.003 A 
ATOM      3  C3  I4B d   1      -5.962  -5.339  -5.872  0.00  0.00     0.002 A 
ATOM      4  C4  I4B d   1      -5.991  -3.965  -5.998  0.00  0.00    -0.004 A 
ATOM      5  C5  I4B d   1      -4.804  -3.238  -5.998  0.00  0.00     0.002 A 
ATOM      6  C6  I4B d   1      -3.577  -3.897  -5.832  0.00  0.00     0.003 A 
ENDROOT
BRANCH   1   7
ATOM      7  C1' I4B d   1      -2.269  -5.993  -5.394  0.00  0.00     0.060 C 
BRANCH   7   8
ATOM      8  C2' I4B d   1      -1.832  -5.686  -3.975  0.00  0.00    -0.013 C 
ATOM      9  C4' I4B d   1      -0.674  -4.723  -3.958  0.00  0.00     0.013 C 
ATOM     10  C3' I4B d   1      -3.012  -5.129  -3.237  0.00  0.00     0.013 C 
ENDBRANCH   7   8
ENDBRANCH   1   7
TORSDOF 2
ENDMDL
