MODEL 1
REMARK minimizedAffinity 7.65435362
REMARK minimizedRMSD -1
REMARK  2 active torsions:
REMARK  status: ('A' for Active; 'I' for Inactive)
REMARK    1  A    between atoms: C2'_3  and  C1'_4 
REMARK    2  A    between atoms: C1'_4  and  C1_5 
ROOT
ATOM      1  C1  I4B d   1      -0.538   2.480   1.159  0.00  0.00    -0.075 A 
ATOM      2  C2  I4B d   1       0.556   2.171   0.389  0.00  0.00     0.003 A 
ATOM      3  C3  I4B d   1       0.774   2.838  -0.841  0.00  0.00     0.002 A 
ATOM      4  C4  I4B d   1      -0.148   3.765  -1.283  0.00  0.00    -0.004 A 
ATOM      5  C5  I4B d   1      -1.244   4.094  -0.491  0.00  0.00     0.002 A 
ATOM      6  C6  I4B d   1      -1.434   3.456   0.744  0.00  0.00     0.003 A 
ENDROOT
BRANCH   1   7
ATOM      7  C1' I4B d   1      -0.754   1.732   2.436  0.00  0.00     0.060 C 
BRANCH   7   8
ATOM      8  C2' I4B d   1       0.579   1.160   2.874  0.00  0.00    -0.013 C 
ATOM      9  C4' I4B d   1       1.577   2.253   3.151  0.00  0.00     0.013 C 
ATOM     10  C3' I4B d   1       0.343   0.319   4.093  0.00  0.00     0.013 C 
ENDBRANCH   7   8
ENDBRANCH   1   7
TORSDOF 2
ENDMDL
