MODEL 1
REMARK minimizedAffinity 12.1767912
REMARK minimizedRMSD -1
REMARK  2 active torsions:
REMARK  status: ('A' for Active; 'I' for Inactive)
REMARK    1  A    between atoms: C2'_3  and  C1'_4 
REMARK    2  A    between atoms: C1'_4  and  C1_5 
ROOT
ATOM      1  C1  I4B d   1       2.862  -5.344  -2.162  0.00  0.00    -0.075 A 
ATOM      2  C2  I4B d   1       2.023  -5.392  -1.076  0.00  0.00     0.003 A 
ATOM      3  C3  I4B d   1       0.745  -4.787  -1.135  0.00  0.00     0.002 A 
ATOM      4  C4  I4B d   1       0.368  -4.104  -2.273  0.00  0.00    -0.004 A 
ATOM      5  C5  I4B d   1       1.210  -4.075  -3.381  0.00  0.00     0.002 A 
ATOM      6  C6  I4B d   1       2.460  -4.710  -3.330  0.00  0.00     0.003 A 
ENDROOT
BRANCH   1   7
ATOM      7  C1' I4B d   1       4.218  -5.966  -2.053  0.00  0.00     0.060 C 
BRANCH   7   8
ATOM      8  C2' I4B d   1       5.039  -5.131  -1.092  0.00  0.00    -0.013 C 
ATOM      9  C4' I4B d   1       5.766  -6.000  -0.100  0.00  0.00     0.013 C 
ATOM     10  C3' I4B d   1       5.999  -4.308  -1.897  0.00  0.00     0.013 C 
ENDBRANCH   7   8
ENDBRANCH   1   7
TORSDOF 2
ENDMDL
