MODEL 1
REMARK minimizedAffinity 16.4614296
REMARK minimizedRMSD -1
REMARK  2 active torsions:
REMARK  status: ('A' for Active; 'I' for Inactive)
REMARK    1  A    between atoms: C2'_3  and  C1'_4 
REMARK    2  A    between atoms: C1'_4  and  C1_5 
ROOT
ATOM      1  C1  I4B d   1      -1.440   4.767  -1.785  0.00  0.00    -0.075 A 
ATOM      2  C2  I4B d   1      -1.736   3.511  -1.315  0.00  0.00     0.003 A 
ATOM      3  C3  I4B d   1      -0.694   2.617  -0.967  0.00  0.00     0.002 A 
ATOM      4  C4  I4B d   1       0.619   2.999  -1.150  0.00  0.00    -0.004 A 
ATOM      5  C5  I4B d   1       0.917   4.281  -1.604  0.00  0.00     0.002 A 
ATOM      6  C6  I4B d   1      -0.119   5.175  -1.912  0.00  0.00     0.003 A 
ENDROOT
BRANCH   1   7
ATOM      7  C1' I4B d   1      -2.564   5.674  -2.174  0.00  0.00     0.060 C 
BRANCH   7   8
ATOM      8  C2' I4B d   1      -3.866   4.954  -1.884  0.00  0.00    -0.013 C 
ATOM      9  C4' I4B d   1      -4.689   5.704  -0.869  0.00  0.00     0.013 C 
ATOM     10  C3' I4B d   1      -4.609   4.802  -3.178  0.00  0.00     0.013 C 
ENDBRANCH   7   8
ENDBRANCH   1   7
TORSDOF 2
ENDMDL
