MODEL 1
REMARK minimizedAffinity 9.35894299
REMARK minimizedRMSD -1
REMARK  2 active torsions:
REMARK  status: ('A' for Active; 'I' for Inactive)
REMARK    1  A    between atoms: C2'_3  and  C1'_4 
REMARK    2  A    between atoms: C1'_4  and  C1_5 
ROOT
ATOM      1  C1  I4B d   1      -0.867  -4.125  -3.174  0.00  0.00    -0.075 A 
ATOM      2  C2  I4B d   1      -0.601  -4.173  -1.828  0.00  0.00     0.003 A 
ATOM      3  C3  I4B d   1       0.704  -3.903  -1.349  0.00  0.00     0.002 A 
ATOM      4  C4  I4B d   1       1.717  -3.639  -2.248  0.00  0.00    -0.004 A 
ATOM      5  C5  I4B d   1       1.441  -3.568  -3.610  0.00  0.00     0.002 A 
ATOM      6  C6  I4B d   1       0.138  -3.800  -4.076  0.00  0.00     0.003 A 
ENDROOT
BRANCH   1   7
ATOM      7  C1' I4B d   1      -2.248  -4.448  -3.648  0.00  0.00     0.060 C 
BRANCH   7   8
ATOM      8  C2' I4B d   1      -2.188  -4.667  -5.146  0.00  0.00    -0.013 C 
ATOM      9  C4' I4B d   1      -1.566  -5.998  -5.478  0.00  0.00     0.013 C 
ATOM     10  C3' I4B d   1      -3.585  -4.573  -5.684  0.00  0.00     0.013 C 
ENDBRANCH   7   8
ENDBRANCH   1   7
TORSDOF 2
ENDMDL
