MODEL 1
REMARK minimizedAffinity 9.29237556
REMARK minimizedRMSD -1
REMARK  2 active torsions:
REMARK  status: ('A' for Active; 'I' for Inactive)
REMARK    1  A    between atoms: C2'_3  and  C1'_4 
REMARK    2  A    between atoms: C1'_4  and  C1_5 
ROOT
ATOM      1  C1  I4B d   1       2.540  -4.816  -1.042  0.00  0.00    -0.075 A 
ATOM      2  C2  I4B d   1       2.685  -3.686  -0.276  0.00  0.00     0.003 A 
ATOM      3  C3  I4B d   1       1.605  -2.784  -0.124  0.00  0.00     0.002 A 
ATOM      4  C4  I4B d   1       0.421  -3.022  -0.793  0.00  0.00    -0.004 A 
ATOM      5  C5  I4B d   1       0.269  -4.180  -1.552  0.00  0.00     0.002 A 
ATOM      6  C6  I4B d   1       1.330  -5.089  -1.667  0.00  0.00     0.003 A 
ENDROOT
BRANCH   1   7
ATOM      7  C1' I4B d   1       3.712  -5.731  -1.207  0.00  0.00     0.060 C 
BRANCH   7   8
ATOM      8  C2' I4B d   1       4.966  -4.946  -0.879  0.00  0.00    -0.013 C 
ATOM      9  C4' I4B d   1       5.928  -5.771  -0.065  0.00  0.00     0.013 C 
ATOM     10  C3' I4B d   1       5.588  -4.506  -2.171  0.00  0.00     0.013 C 
ENDBRANCH   7   8
ENDBRANCH   1   7
TORSDOF 2
ENDMDL
