MODEL 1
REMARK minimizedAffinity 8.38152313
REMARK minimizedRMSD -1
REMARK  1 active torsions:
REMARK  status: ('A' for Active; 'I' for Inactive)
REMARK    1  A    between atoms: C1_2  and  C2_3 
ROOT
ATOM      1  C2  UNL d   1       1.050  -1.925  -1.679  0.00  0.00    -0.076 A 
ATOM      2  C3  UNL d   1       2.114  -1.083  -1.313  0.00  0.00     0.004 A 
ATOM      3  C4  UNL d   1       2.767  -1.241  -0.092  0.00  0.00    -0.003 A 
ATOM      4  C5  UNL d   1       2.367  -2.245   0.783  0.00  0.00     0.000 A 
ATOM      5  C6  UNL d   1       1.324  -3.101   0.429  0.00  0.00     0.000 A 
ATOM      6  C7  UNL d   1       0.666  -2.965  -0.805  0.00  0.00    -0.073 A 
ATOM      7  C8  UNL d   1      -0.455  -3.912  -1.133  0.00  0.00     0.078 C 
ENDROOT
BRANCH   1   8
ATOM      8  C1  UNL d   1       0.361  -1.688  -3.004  0.00  0.00     0.053 C 
ATOM      9  C   UNL d   1      -0.705  -0.607  -2.922  0.00  0.00     0.018 C 
ENDBRANCH   1   8
TORSDOF 1
ENDMDL
