MODEL 1
REMARK minimizedAffinity 14.3871841
REMARK minimizedRMSD -1
REMARK  1 active torsions:
REMARK  status: ('A' for Active; 'I' for Inactive)
REMARK    1  A    between atoms: C1_2  and  C2_3 
ROOT
ATOM      1  C2  UNL d   1      -3.470   0.715  -5.276  0.00  0.00    -0.076 A 
ATOM      2  C3  UNL d   1      -4.629  -0.080  -5.318  0.00  0.00     0.004 A 
ATOM      3  C4  UNL d   1      -5.881   0.488  -5.548  0.00  0.00    -0.003 A 
ATOM      4  C5  UNL d   1      -5.994   1.861  -5.740  0.00  0.00     0.000 A 
ATOM      5  C6  UNL d   1      -4.853   2.662  -5.719  0.00  0.00     0.000 A 
ATOM      6  C7  UNL d   1      -3.581   2.103  -5.505  0.00  0.00    -0.073 A 
ATOM      7  C8  UNL d   1      -2.385   3.015  -5.487  0.00  0.00     0.078 C 
ENDROOT
BRANCH   1   8
ATOM      8  C1  UNL d   1      -2.143   0.046  -4.997  0.00  0.00     0.053 C 
ATOM      9  C   UNL d   1      -2.131  -0.691  -3.666  0.00  0.00     0.018 C 
ENDBRANCH   1   8
TORSDOF 1
ENDMDL
