MODEL 1
REMARK minimizedAffinity 9.13090611
REMARK minimizedRMSD -1
REMARK  1 active torsions:
REMARK  status: ('A' for Active; 'I' for Inactive)
REMARK    1  A    between atoms: C1_2  and  C2_3 
ROOT
ATOM      1  C2  UNL d   1       2.725   0.846   0.792  0.00  0.00    -0.076 A 
ATOM      2  C3  UNL d   1       1.406   0.389   0.957  0.00  0.00     0.004 A 
ATOM      3  C4  UNL d   1       0.337   1.282   0.992  0.00  0.00    -0.003 A 
ATOM      4  C5  UNL d   1       0.569   2.647   0.861  0.00  0.00     0.000 A 
ATOM      5  C6  UNL d   1       1.869   3.116   0.679  0.00  0.00     0.000 A 
ATOM      6  C7  UNL d   1       2.957   2.228   0.625  0.00  0.00    -0.073 A 
ATOM      7  C8  UNL d   1       4.339   2.790   0.433  0.00  0.00     0.078 C 
ENDROOT
BRANCH   1   8
ATOM      8  C1  UNL d   1       3.848  -0.167   0.790  0.00  0.00     0.053 C 
ATOM      9  C   UNL d   1       3.385  -1.550   1.223  0.00  0.00     0.018 C 
ENDBRANCH   1   8
TORSDOF 1
ENDMDL
