MODEL 1
REMARK minimizedAffinity 2.68143153
REMARK minimizedRMSD -1
REMARK  1 active torsions:
REMARK  status: ('A' for Active; 'I' for Inactive)
REMARK    1  A    between atoms: C1_2  and  C2_3 
ROOT
ATOM      1  C2  UNL d   1      -2.626   0.626  -2.935  0.00  0.00    -0.076 A 
ATOM      2  C3  UNL d   1      -2.912   0.070  -1.676  0.00  0.00     0.004 A 
ATOM      3  C4  UNL d   1      -4.083   0.398  -0.996  0.00  0.00    -0.003 A 
ATOM      4  C5  UNL d   1      -4.988   1.288  -1.564  0.00  0.00     0.000 A 
ATOM      5  C6  UNL d   1      -4.729   1.836  -2.820  0.00  0.00     0.000 A 
ATOM      6  C7  UNL d   1      -3.561   1.502  -3.527  0.00  0.00    -0.073 A 
ATOM      7  C8  UNL d   1      -3.329   2.127  -4.875  0.00  0.00     0.078 C 
ENDROOT
BRANCH   1   8
ATOM      8  C1  UNL d   1      -1.327   0.253  -3.613  0.00  0.00     0.053 C 
ATOM      9  C   UNL d   1      -0.504  -0.731  -2.796  0.00  0.00     0.018 C 
ENDBRANCH   1   8
TORSDOF 1
ENDMDL
