MODEL 1
REMARK minimizedAffinity 6.717206
REMARK minimizedRMSD -1
REMARK  1 active torsions:
REMARK  status: ('A' for Active; 'I' for Inactive)
REMARK    1  A    between atoms: C1_2  and  C2_3 
ROOT
ATOM      1  C2  UNL d   1       1.549   0.263  -0.575  0.00  0.00    -0.076 A 
ATOM      2  C3  UNL d   1       2.346  -0.311   0.430  0.00  0.00     0.004 A 
ATOM      3  C4  UNL d   1       2.599  -1.681   0.451  0.00  0.00    -0.003 A 
ATOM      4  C5  UNL d   1       2.058  -2.500  -0.535  0.00  0.00     0.000 A 
ATOM      5  C6  UNL d   1       1.280  -1.946  -1.550  0.00  0.00     0.000 A 
ATOM      6  C7  UNL d   1       1.029  -0.563  -1.594  0.00  0.00    -0.073 A 
ATOM      7  C8  UNL d   1       0.177  -0.020  -2.708  0.00  0.00     0.078 C 
ENDROOT
BRANCH   1   8
ATOM      8  C1  UNL d   1       1.287   1.752  -0.530  0.00  0.00     0.053 C 
ATOM      9  C   UNL d   1       2.167   2.468   0.483  0.00  0.00     0.018 C 
ENDBRANCH   1   8
TORSDOF 1
ENDMDL
