MODEL 1
REMARK minimizedAffinity 7.18151808
REMARK minimizedRMSD -1
REMARK  1 active torsions:
REMARK  status: ('A' for Active; 'I' for Inactive)
REMARK    1  A    between atoms: C1_2  and  C2_3 
ROOT
ATOM      1  C2  UNL d   1       1.874  -0.503  -0.044  0.00  0.00    -0.076 A 
ATOM      2  C3  UNL d   1       0.794   0.283  -0.482  0.00  0.00     0.004 A 
ATOM      3  C4  UNL d   1       0.722   1.640  -0.173  0.00  0.00    -0.003 A 
ATOM      4  C5  UNL d   1       1.731   2.234   0.578  0.00  0.00     0.000 A 
ATOM      5  C6  UNL d   1       2.818   1.474   1.006  0.00  0.00     0.000 A 
ATOM      6  C7  UNL d   1       2.914   0.108   0.689  0.00  0.00    -0.073 A 
ATOM      7  C8  UNL d   1       4.106  -0.665   1.182  0.00  0.00     0.078 C 
ENDROOT
BRANCH   1   8
ATOM      8  C1  UNL d   1       1.884  -1.976  -0.385  0.00  0.00     0.053 C 
ATOM      9  C   UNL d   1       2.548  -2.259  -1.724  0.00  0.00     0.018 C 
ENDBRANCH   1   8
TORSDOF 1
ENDMDL
