MODEL 1
REMARK minimizedAffinity 19.0534248
REMARK minimizedRMSD -1
REMARK  0 active torsions:
REMARK  status: ('A' for Active; 'I' for Inactive)
ROOT
ATOM      1  C   UNL d   1       1.818   3.475   1.027  0.00  0.00     0.124 A 
ATOM      2  C1  UNL d   1       2.045   4.539   0.165  0.00  0.00     0.062 A 
ATOM      3  C2  UNL d   1       1.040   4.969  -0.696  0.00  0.00     0.162 A 
ATOM      4  C3  UNL d   1      -0.203   4.336  -0.699  0.00  0.00    -0.034 A 
ATOM      5  C4  UNL d   1      -0.424   3.266   0.170  0.00  0.00     0.162 A 
ATOM      6  C5  UNL d   1       0.584   2.840   1.029  0.00  0.00     0.062 A 
ATOM      7  F   UNL d   1       0.362   1.811   1.861  0.00  0.00    -0.097 F 
ATOM      8  F1  UNL d   1      -1.608   2.635   0.193  0.00  0.00    -0.096 F 
ATOM      9  I   UNL d   1      -1.709   4.977  -1.985  0.00  0.00    -0.060 I 
ATOM     10  F2  UNL d   1       1.288   6.000  -1.518  0.00  0.00    -0.096 F 
ATOM     11  F3  UNL d   1       3.237   5.153   0.161  0.00  0.00    -0.097 F 
ATOM     12  F4  UNL d   1       2.787   3.062   1.854  0.00  0.00    -0.092 F 
ENDROOT
TORSDOF 0
ENDMDL
