MODEL 1
REMARK minimizedAffinity 23.6384144
REMARK minimizedRMSD -1
REMARK  0 active torsions:
REMARK  status: ('A' for Active; 'I' for Inactive)
ROOT
ATOM      1  C   UNL d   1       1.437   3.775   0.645  0.00  0.00     0.124 A 
ATOM      2  C1  UNL d   1       1.538   3.296   1.943  0.00  0.00     0.062 A 
ATOM      3  C2  UNL d   1       0.439   2.704   2.559  0.00  0.00     0.162 A 
ATOM      4  C3  UNL d   1      -0.771   2.586   1.876  0.00  0.00    -0.034 A 
ATOM      5  C4  UNL d   1      -0.866   3.071   0.570  0.00  0.00     0.162 A 
ATOM      6  C5  UNL d   1       0.235   3.662  -0.040  0.00  0.00     0.062 A 
ATOM      7  F   UNL d   1       0.135   4.125  -1.295  0.00  0.00    -0.097 F 
ATOM      8  F1  UNL d   1      -2.015   2.974  -0.116  0.00  0.00    -0.096 F 
ATOM      9  I   UNL d   1      -2.417   1.701   2.792  0.00  0.00    -0.060 I 
ATOM     10  F2  UNL d   1       0.566   2.250   3.815  0.00  0.00    -0.096 F 
ATOM     11  F3  UNL d   1       2.698   3.405   2.608  0.00  0.00    -0.097 F 
ATOM     12  F4  UNL d   1       2.495   4.346   0.055  0.00  0.00    -0.092 F 
ENDROOT
TORSDOF 0
ENDMDL
