MODEL 1
REMARK minimizedAffinity 20.8121223
REMARK minimizedRMSD -1
REMARK  0 active torsions:
REMARK  status: ('A' for Active; 'I' for Inactive)
ROOT
ATOM      1  C   UNL d   1       1.454  -0.394   4.882  0.00  0.00     0.124 A 
ATOM      2  C1  UNL d   1       1.888   0.310   3.767  0.00  0.00     0.062 A 
ATOM      3  C2  UNL d   1       2.241  -0.368   2.604  0.00  0.00     0.162 A 
ATOM      4  C3  UNL d   1       2.161  -1.760   2.549  0.00  0.00    -0.034 A 
ATOM      5  C4  UNL d   1       1.725  -2.461   3.675  0.00  0.00     0.162 A 
ATOM      6  C5  UNL d   1       1.373  -1.779   4.835  0.00  0.00     0.062 A 
ATOM      7  F   UNL d   1       0.955  -2.461   5.911  0.00  0.00    -0.097 F 
ATOM      8  F1  UNL d   1       1.637  -3.800   3.656  0.00  0.00    -0.096 F 
ATOM      9  I   UNL d   1       2.688  -2.778   0.812  0.00  0.00    -0.060 I 
ATOM     10  F2  UNL d   1       2.656   0.338   1.542  0.00  0.00    -0.096 F 
ATOM     11  F3  UNL d   1       1.968   1.648   3.811  0.00  0.00    -0.097 F 
ATOM     12  F4  UNL d   1       1.116   0.261   6.000  0.00  0.00    -0.092 F 
ENDROOT
TORSDOF 0
ENDMDL
