MODEL 1
REMARK minimizedAffinity 11.7793417
REMARK minimizedRMSD -1
REMARK  0 active torsions:
REMARK  status: ('A' for Active; 'I' for Inactive)
ROOT
ATOM      1  C   UNL d   1      -0.232  -3.553  -3.406  0.00  0.00     0.124 A 
ATOM      2  C1  UNL d   1       0.865  -3.999  -4.130  0.00  0.00     0.062 A 
ATOM      3  C2  UNL d   1       1.989  -4.484  -3.469  0.00  0.00     0.162 A 
ATOM      4  C3  UNL d   1       2.023  -4.526  -2.075  0.00  0.00    -0.034 A 
ATOM      5  C4  UNL d   1       0.916  -4.074  -1.354  0.00  0.00     0.162 A 
ATOM      6  C5  UNL d   1      -0.206  -3.590  -2.019  0.00  0.00     0.062 A 
ATOM      7  F   UNL d   1      -1.265  -3.160  -1.318  0.00  0.00    -0.097 F 
ATOM      8  F1  UNL d   1       0.915  -4.100  -0.013  0.00  0.00    -0.096 F 
ATOM      9  I   UNL d   1       3.703  -5.249  -1.082  0.00  0.00    -0.060 I 
ATOM     10  F2  UNL d   1       3.035  -4.909  -4.194  0.00  0.00    -0.096 F 
ATOM     11  F3  UNL d   1       0.842  -3.963  -5.470  0.00  0.00    -0.097 F 
ATOM     12  F4  UNL d   1      -1.313  -3.086  -4.045  0.00  0.00    -0.092 F 
ENDROOT
TORSDOF 0
ENDMDL
