MODEL 1
REMARK minimizedAffinity 22.1696014
REMARK minimizedRMSD -1
REMARK  0 active torsions:
REMARK  status: ('A' for Active; 'I' for Inactive)
ROOT
ATOM      1  C   UNL d   1      -2.433   3.390  -1.131  0.00  0.00     0.124 A 
ATOM      2  C1  UNL d   1      -3.726   2.928  -0.925  0.00  0.00     0.062 A 
ATOM      3  C2  UNL d   1      -4.745   3.284  -1.803  0.00  0.00     0.162 A 
ATOM      4  C3  UNL d   1      -4.476   4.107  -2.898  0.00  0.00    -0.034 A 
ATOM      5  C4  UNL d   1      -3.174   4.568  -3.098  0.00  0.00     0.162 A 
ATOM      6  C5  UNL d   1      -2.159   4.209  -2.217  0.00  0.00     0.062 A 
ATOM      7  F   UNL d   1      -0.910   4.657  -2.418  0.00  0.00    -0.097 F 
ATOM      8  F1  UNL d   1      -2.880   5.360  -4.140  0.00  0.00    -0.096 F 
ATOM      9  I   UNL d   1      -5.997   4.641  -4.213  0.00  0.00    -0.060 I 
ATOM     10  F2  UNL d   1      -5.985   2.823  -1.579  0.00  0.00    -0.096 F 
ATOM     11  F3  UNL d   1      -3.994   2.138   0.124  0.00  0.00    -0.097 F 
ATOM     12  F4  UNL d   1      -1.455   3.047  -0.284  0.00  0.00    -0.092 F 
ENDROOT
TORSDOF 0
ENDMDL
