MODEL 1
REMARK minimizedAffinity 7.13352251
REMARK minimizedRMSD -1
REMARK  0 active torsions:
REMARK  status: ('A' for Active; 'I' for Inactive)
ROOT
ATOM      1  C   UNL d   1       1.744   3.620   1.942  0.00  0.00     0.124 A 
ATOM      2  C1  UNL d   1       0.608   2.841   1.776  0.00  0.00     0.062 A 
ATOM      3  C2  UNL d   1      -0.290   3.122   0.751  0.00  0.00     0.162 A 
ATOM      4  C3  UNL d   1      -0.055   4.187  -0.119  0.00  0.00    -0.034 A 
ATOM      5  C4  UNL d   1       1.091   4.966   0.054  0.00  0.00     0.162 A 
ATOM      6  C5  UNL d   1       1.985   4.681   1.081  0.00  0.00     0.062 A 
ATOM      7  F   UNL d   1       3.083   5.435   1.239  0.00  0.00    -0.097 F 
ATOM      8  F1  UNL d   1       1.348   5.998  -0.764  0.00  0.00    -0.096 F 
ATOM      9  I   UNL d   1      -1.395   4.610  -1.654  0.00  0.00    -0.060 I 
ATOM     10  F2  UNL d   1      -1.380   2.352   0.614  0.00  0.00    -0.096 F 
ATOM     11  F3  UNL d   1       0.373   1.815   2.607  0.00  0.00    -0.097 F 
ATOM     12  F4  UNL d   1       2.606   3.348   2.930  0.00  0.00    -0.092 F 
ENDROOT
TORSDOF 0
ENDMDL
