MODEL 1
REMARK minimizedAffinity 19.5138836
REMARK minimizedRMSD -1
REMARK  0 active torsions:
REMARK  status: ('A' for Active; 'I' for Inactive)
ROOT
ATOM      1  C   UNL d   1      -0.674  -3.824  -3.751  0.00  0.00     0.124 A 
ATOM      2  C1  UNL d   1      -0.569  -4.192  -2.416  0.00  0.00     0.062 A 
ATOM      3  C2  UNL d   1       0.635  -4.682  -1.918  0.00  0.00     0.162 A 
ATOM      4  C3  UNL d   1       1.744  -4.807  -2.755  0.00  0.00    -0.034 A 
ATOM      5  C4  UNL d   1       1.630  -4.436  -4.096  0.00  0.00     0.162 A 
ATOM      6  C5  UNL d   1       0.425  -3.946  -4.589  0.00  0.00     0.062 A 
ATOM      7  F   UNL d   1       0.325  -3.592  -5.878  0.00  0.00    -0.097 F 
ATOM      8  F1  UNL d   1       2.677  -4.543  -4.928  0.00  0.00    -0.096 F 
ATOM      9  I   UNL d   1       3.546  -5.540  -2.015  0.00  0.00    -0.060 I 
ATOM     10  F2  UNL d   1       0.708  -5.030  -0.625  0.00  0.00    -0.096 F 
ATOM     11  F3  UNL d   1      -1.629  -4.076  -1.604  0.00  0.00    -0.097 F 
ATOM     12  F4  UNL d   1      -1.834  -3.354  -4.227  0.00  0.00    -0.092 F 
ENDROOT
TORSDOF 0
ENDMDL
