MODEL 1
REMARK minimizedAffinity 13.710597
REMARK minimizedRMSD -1
REMARK  0 active torsions:
REMARK  status: ('A' for Active; 'I' for Inactive)
ROOT
ATOM      1  C   UNL d   1      -4.769   3.098  -5.997  0.00  0.00     0.172 C 
ATOM      2  N   UNL d   1      -3.658   2.506  -5.290  0.00  0.00    -0.070 N 
ATOM      3  C1  UNL d   1      -3.147   1.255  -5.511  0.00  0.00    -0.004 A 
ATOM      4  C2  UNL d   1      -2.098   1.068  -4.637  0.00  0.00    -0.047 A 
ATOM      5  C3  UNL d   1      -1.974   2.247  -3.865  0.00  0.00    -0.047 A 
ATOM      6  C4  UNL d   1      -2.952   3.121  -4.290  0.00  0.00    -0.004 A 
ENDROOT
TORSDOF 0
ENDMDL
