MODEL 1
REMARK minimizedAffinity 0.780325353
REMARK minimizedRMSD -1
REMARK  0 active torsions:
REMARK  status: ('A' for Active; 'I' for Inactive)
ROOT
ATOM      1  C   UNL d   1       1.882  -2.853  -0.277  0.00  0.00     0.172 C 
ATOM      2  N   UNL d   1       2.088  -3.218  -1.659  0.00  0.00    -0.070 N 
ATOM      3  C1  UNL d   1       1.442  -2.670  -2.735  0.00  0.00    -0.004 A 
ATOM      4  C2  UNL d   1       1.917  -3.286  -3.872  0.00  0.00    -0.047 A 
ATOM      5  C3  UNL d   1       2.882  -4.238  -3.466  0.00  0.00    -0.047 A 
ATOM      6  C4  UNL d   1       2.968  -4.176  -2.091  0.00  0.00    -0.004 A 
ENDROOT
TORSDOF 0
ENDMDL
