MODEL 1
REMARK minimizedAffinity 3.66664314
REMARK minimizedRMSD -1
REMARK  0 active torsions:
REMARK  status: ('A' for Active; 'I' for Inactive)
ROOT
ATOM      1  C   UNL d   1       3.694  -3.091  -0.327  0.00  0.00     0.172 C 
ATOM      2  N   UNL d   1       2.968  -2.003  -0.938  0.00  0.00    -0.070 N 
ATOM      3  C1  UNL d   1       2.267  -2.071  -2.112  0.00  0.00    -0.004 A 
ATOM      4  C2  UNL d   1       1.720  -0.829  -2.350  0.00  0.00    -0.047 A 
ATOM      5  C3  UNL d   1       2.107   0.016  -1.283  0.00  0.00    -0.047 A 
ATOM      6  C4  UNL d   1       2.878  -0.737  -0.423  0.00  0.00    -0.004 A 
ENDROOT
TORSDOF 0
ENDMDL
