MODEL 1
REMARK minimizedAffinity -1.57678246
REMARK minimizedRMSD -1
REMARK  0 active torsions:
REMARK  status: ('A' for Active; 'I' for Inactive)
ROOT
ATOM      1  C   UNL d   1      -6.000  -4.918   1.527  0.00  0.00     0.172 C 
ATOM      2  N   UNL d   1      -5.293  -4.296   2.622  0.00  0.00    -0.070 N 
ATOM      3  C1  UNL d   1      -5.450  -3.002   3.041  0.00  0.00    -0.004 A 
ATOM      4  C2  UNL d   1      -4.600  -2.798   4.107  0.00  0.00    -0.047 A 
ATOM      5  C3  UNL d   1      -3.908  -4.011   4.335  0.00  0.00    -0.047 A 
ATOM      6  C4  UNL d   1      -4.356  -4.922   3.402  0.00  0.00    -0.004 A 
ENDROOT
TORSDOF 0
ENDMDL
