MODEL 1
REMARK minimizedAffinity -0.420480698
REMARK minimizedRMSD -1
REMARK  0 active torsions:
REMARK  status: ('A' for Active; 'I' for Inactive)
ROOT
ATOM      1  C   UNL d   1       3.011  -3.715  -0.405  0.00  0.00     0.172 C 
ATOM      2  N   UNL d   1       2.948  -4.040  -1.810  0.00  0.00    -0.070 N 
ATOM      3  C1  UNL d   1       3.256  -5.254  -2.363  0.00  0.00    -0.004 A 
ATOM      4  C2  UNL d   1       3.068  -5.158  -3.725  0.00  0.00    -0.047 A 
ATOM      5  C3  UNL d   1       2.633  -3.840  -4.000  0.00  0.00    -0.047 A 
ATOM      6  C4  UNL d   1       2.567  -3.169  -2.797  0.00  0.00    -0.004 A 
ENDROOT
TORSDOF 0
ENDMDL
