MODEL 1
REMARK minimizedAffinity -1.34129834
REMARK minimizedRMSD -1
REMARK  0 active torsions:
REMARK  status: ('A' for Active; 'I' for Inactive)
ROOT
ATOM      1  C   UNL d   1       3.472  -4.285  -0.393  0.00  0.00     0.172 C 
ATOM      2  N   UNL d   1       3.081  -3.837  -1.710  0.00  0.00    -0.070 N 
ATOM      3  C1  UNL d   1       3.732  -4.129  -2.878  0.00  0.00    -0.004 A 
ATOM      4  C2  UNL d   1       3.048  -3.519  -3.907  0.00  0.00    -0.047 A 
ATOM      5  C3  UNL d   1       1.947  -2.836  -3.337  0.00  0.00    -0.047 A 
ATOM      6  C4  UNL d   1       1.992  -3.050  -1.975  0.00  0.00    -0.004 A 
ENDROOT
TORSDOF 0
ENDMDL
