MODEL 1
REMARK minimizedAffinity -1.83465314
REMARK minimizedRMSD -1
REMARK  0 active torsions:
REMARK  status: ('A' for Active; 'I' for Inactive)
ROOT
ATOM      1  C   UNL d   1      -5.102  -2.388   2.873  0.00  0.00     0.172 C 
ATOM      2  N   UNL d   1      -4.994  -3.822   3.004  0.00  0.00    -0.070 N 
ATOM      3  C1  UNL d   1      -6.000  -4.723   2.771  0.00  0.00    -0.004 A 
ATOM      4  C2  UNL d   1      -5.499  -5.985   3.005  0.00  0.00    -0.047 A 
ATOM      5  C3  UNL d   1      -4.145  -5.838   3.392  0.00  0.00    -0.047 A 
ATOM      6  C4  UNL d   1      -3.859  -4.489   3.383  0.00  0.00    -0.004 A 
ENDROOT
TORSDOF 0
ENDMDL
