MODEL 1
REMARK minimizedAffinity 7.03230906
REMARK minimizedRMSD -1
REMARK  0 active torsions:
REMARK  status: ('A' for Active; 'I' for Inactive)
ROOT
ATOM      1  C   UNL d   1       5.505  -4.514  -4.037  0.00  0.00     0.172 C 
ATOM      2  N   UNL d   1       4.224  -4.220  -3.439  0.00  0.00    -0.070 N 
ATOM      3  C1  UNL d   1       3.181  -3.584  -4.058  0.00  0.00    -0.004 A 
ATOM      4  C2  UNL d   1       2.144  -3.498  -3.154  0.00  0.00    -0.047 A 
ATOM      5  C3  UNL d   1       2.579  -4.102  -1.951  0.00  0.00    -0.047 A 
ATOM      6  C4  UNL d   1       3.870  -4.540  -2.155  0.00  0.00    -0.004 A 
ENDROOT
TORSDOF 0
ENDMDL
