MODEL 1
REMARK minimizedAffinity 2.75940442
REMARK minimizedRMSD -1
REMARK  0 active torsions:
REMARK  status: ('A' for Active; 'I' for Inactive)
ROOT
ATOM      1  C   UNL d   1       0.000  -0.791   3.282  0.00  0.00     0.172 C 
ATOM      2  N   UNL d   1       0.483   0.222   4.190  0.00  0.00    -0.070 N 
ATOM      3  C1  UNL d   1       0.035   0.428   5.468  0.00  0.00    -0.004 A 
ATOM      4  C2  UNL d   1       0.745   1.483   5.999  0.00  0.00    -0.047 A 
ATOM      5  C3  UNL d   1       1.650   1.927   5.006  0.00  0.00    -0.047 A 
ATOM      6  C4  UNL d   1       1.467   1.129   3.897  0.00  0.00    -0.004 A 
ENDROOT
TORSDOF 0
ENDMDL
