MODEL 1
REMARK minimizedAffinity 8.80389214
REMARK minimizedRMSD -1
REMARK  0 active torsions:
REMARK  status: ('A' for Active; 'I' for Inactive)
ROOT
ATOM      1  C   UNL d   1      -3.408   0.631   2.860  0.00  0.00     0.172 C 
ATOM      2  N   UNL d   1      -3.571  -0.472   3.778  0.00  0.00    -0.070 N 
ATOM      3  C1  UNL d   1      -3.940  -1.746   3.438  0.00  0.00    -0.004 A 
ATOM      4  C2  UNL d   1      -3.982  -2.496   4.593  0.00  0.00    -0.047 A 
ATOM      5  C3  UNL d   1      -3.626  -1.643   5.665  0.00  0.00    -0.047 A 
ATOM      6  C4  UNL d   1      -3.377  -0.396   5.132  0.00  0.00    -0.004 A 
ENDROOT
TORSDOF 0
ENDMDL
