MODEL 1
REMARK minimizedAffinity 6.72949266
REMARK minimizedRMSD -1
REMARK  0 active torsions:
REMARK  status: ('A' for Active; 'I' for Inactive)
ROOT
ATOM      1  C   UNL d   1      -4.354   5.004  -6.000  0.00  0.00     0.172 C 
ATOM      2  N   UNL d   1      -3.584   3.903  -5.471  0.00  0.00    -0.070 N 
ATOM      3  C1  UNL d   1      -3.529   2.641  -6.000  0.00  0.00    -0.004 A 
ATOM      4  C2  UNL d   1      -2.689   1.888  -5.208  0.00  0.00    -0.047 A 
ATOM      5  C3  UNL d   1      -2.224   2.726  -4.167  0.00  0.00    -0.047 A 
ATOM      6  C4  UNL d   1      -2.794   3.967  -4.354  0.00  0.00    -0.004 A 
ENDROOT
TORSDOF 0
ENDMDL
