MODEL 1
REMARK minimizedAffinity 10.6542149
REMARK minimizedRMSD -1
REMARK  0 active torsions:
REMARK  status: ('A' for Active; 'I' for Inactive)
ROOT
ATOM      1  C   UNL d   1      -2.710   5.745  -5.946  0.00  0.00     0.172 C 
ATOM      2  N   UNL d   1      -3.860   4.872  -5.962  0.00  0.00    -0.070 N 
ATOM      3  C1  UNL d   1      -3.824   3.503  -5.956  0.00  0.00    -0.004 A 
ATOM      4  C2  UNL d   1      -5.124   3.047  -5.976  0.00  0.00    -0.047 A 
ATOM      5  C3  UNL d   1      -5.971   4.180  -5.996  0.00  0.00    -0.047 A 
ATOM      6  C4  UNL d   1      -5.162   5.297  -5.987  0.00  0.00    -0.004 A 
ENDROOT
TORSDOF 0
ENDMDL
