MODEL 1
REMARK minimizedAffinity 6.91791439
REMARK minimizedRMSD -1
REMARK  0 active torsions:
REMARK  status: ('A' for Active; 'I' for Inactive)
ROOT
ATOM      1  C   UNL d   1      -3.266   1.117   3.374  0.00  0.00     0.172 C 
ATOM      2  N   UNL d   1      -4.148   1.869   4.236  0.00  0.00    -0.070 N 
ATOM      3  C1  UNL d   1      -3.873   2.249   5.523  0.00  0.00    -0.004 A 
ATOM      4  C2  UNL d   1      -4.963   2.945   5.999  0.00  0.00    -0.047 A 
ATOM      5  C3  UNL d   1      -5.927   2.984   4.963  0.00  0.00    -0.047 A 
ATOM      6  C4  UNL d   1      -5.396   2.310   3.884  0.00  0.00    -0.004 A 
ENDROOT
TORSDOF 0
ENDMDL
