MODEL 1
REMARK minimizedAffinity 7.87811041
REMARK minimizedRMSD -1
REMARK  0 active torsions:
REMARK  status: ('A' for Active; 'I' for Inactive)
ROOT
ATOM      1  C   UNL d   1      -3.317  -5.713  -1.308  0.00  0.00     0.172 C 
ATOM      2  N   UNL d   1      -4.178  -5.782  -0.150  0.00  0.00    -0.070 N 
ATOM      3  C1  UNL d   1      -3.777  -5.644   1.152  0.00  0.00    -0.004 A 
ATOM      4  C2  UNL d   1      -4.891  -5.773   1.952  0.00  0.00    -0.047 A 
ATOM      5  C3  UNL d   1      -6.000  -5.997   1.102  0.00  0.00    -0.047 A 
ATOM      6  C4  UNL d   1      -5.530  -5.998  -0.194  0.00  0.00    -0.004 A 
ENDROOT
TORSDOF 0
ENDMDL
