MODEL 1
REMARK minimizedAffinity 10.490737
REMARK minimizedRMSD -1
REMARK  0 active torsions:
REMARK  status: ('A' for Active; 'I' for Inactive)
ROOT
ATOM      1  C   UNL d   1      -3.864   0.030   4.130  0.00  0.00     0.172 C 
ATOM      2  N   UNL d   1      -4.377   1.268   4.670  0.00  0.00    -0.070 N 
ATOM      3  C1  UNL d   1      -5.392   2.013   4.133  0.00  0.00    -0.004 A 
ATOM      4  C2  UNL d   1      -5.581   3.113   4.941  0.00  0.00    -0.047 A 
ATOM      5  C3  UNL d   1      -4.646   3.027   6.000  0.00  0.00    -0.047 A 
ATOM      6  C4  UNL d   1      -3.913   1.875   5.807  0.00  0.00    -0.004 A 
ENDROOT
TORSDOF 0
ENDMDL
