MODEL 1
REMARK minimizedAffinity 6.92772675
REMARK minimizedRMSD -1
REMARK  0 active torsions:
REMARK  status: ('A' for Active; 'I' for Inactive)
ROOT
ATOM      1  C   UNL d   1      -0.057  -4.041  -2.733  0.00  0.00     0.172 C 
ATOM      2  N   UNL d   1       0.787  -3.143  -1.982  0.00  0.00    -0.070 N 
ATOM      3  C1  UNL d   1       1.585  -3.493  -0.925  0.00  0.00    -0.004 A 
ATOM      4  C2  UNL d   1       2.227  -2.356  -0.486  0.00  0.00    -0.047 A 
ATOM      5  C3  UNL d   1       1.801  -1.285  -1.306  0.00  0.00    -0.047 A 
ATOM      6  C4  UNL d   1       0.910  -1.800  -2.224  0.00  0.00    -0.004 A 
ENDROOT
TORSDOF 0
ENDMDL
