MODEL 1
REMARK minimizedAffinity 12.2818022
REMARK minimizedRMSD -1
REMARK  0 active torsions:
REMARK  status: ('A' for Active; 'I' for Inactive)
ROOT
ATOM      1  C   UNL d   1      -3.822  -1.518   5.242  0.00  0.00     0.172 C 
ATOM      2  N   UNL d   1      -3.898  -0.093   5.023  0.00  0.00    -0.070 N 
ATOM      3  C1  UNL d   1      -4.126   0.518   3.819  0.00  0.00    -0.004 A 
ATOM      4  C2  UNL d   1      -4.125   1.880   4.030  0.00  0.00    -0.047 A 
ATOM      5  C3  UNL d   1      -3.887   2.095   5.408  0.00  0.00    -0.047 A 
ATOM      6  C4  UNL d   1      -3.750   0.856   5.999  0.00  0.00    -0.004 A 
ENDROOT
TORSDOF 0
ENDMDL
