MODEL 1
REMARK minimizedAffinity -2.32565665
REMARK minimizedRMSD -1
REMARK  0 active torsions:
REMARK  status: ('A' for Active; 'I' for Inactive)
ROOT
ATOM      1  C   UNL d   1       1.538  -4.034   1.800  0.00  0.00     0.023 A 
ATOM      2  C1  UNL d   1       0.552  -3.757   2.747  0.00  0.00     0.003 A 
ATOM      3  C2  UNL d   1      -0.234  -2.609   2.622  0.00  0.00     0.048 A 
ATOM      4  C3  UNL d   1      -0.028  -1.743   1.549  0.00  0.00     0.023 A 
ATOM      5  C4  UNL d   1       0.957  -2.017   0.599  0.00  0.00     0.048 A 
ATOM      6  C5  UNL d   1       1.741  -3.166   0.728  0.00  0.00     0.003 A 
ATOM      7  I   UNL d   1      -1.196  -0.035   1.361  0.00  0.00    -0.146 I 
ENDROOT
TORSDOF 0
ENDMDL
