MODEL 1
REMARK minimizedAffinity 3.2877636
REMARK minimizedRMSD -1
REMARK  0 active torsions:
REMARK  status: ('A' for Active; 'I' for Inactive)
ROOT
ATOM      1  C   UNL d   1       0.004  -0.748   0.499  0.00  0.00     0.023 A 
ATOM      2  C1  UNL d   1      -0.510  -1.461   1.582  0.00  0.00     0.003 A 
ATOM      3  C2  UNL d   1      -1.884  -1.458   1.833  0.00  0.00     0.048 A 
ATOM      4  C3  UNL d   1      -2.738  -0.741   0.995  0.00  0.00     0.023 A 
ATOM      5  C4  UNL d   1      -2.228  -0.027  -0.090  0.00  0.00     0.048 A 
ATOM      6  C5  UNL d   1      -0.854  -0.032  -0.336  0.00  0.00     0.003 A 
ATOM      7  I   UNL d   1      -4.783  -0.736   1.366  0.00  0.00    -0.146 I 
ENDROOT
TORSDOF 0
ENDMDL
