MODEL 1
REMARK minimizedAffinity 1.4162128
REMARK minimizedRMSD -1
REMARK  0 active torsions:
REMARK  status: ('A' for Active; 'I' for Inactive)
ROOT
ATOM      1  C   UNL d   1       0.422  -1.382   1.790  0.00  0.00     0.023 A 
ATOM      2  C1  UNL d   1      -0.041  -0.661   0.690  0.00  0.00     0.003 A 
ATOM      3  C2  UNL d   1      -1.412  -0.574   0.437  0.00  0.00     0.048 A 
ATOM      4  C3  UNL d   1      -2.314  -1.210   1.289  0.00  0.00     0.023 A 
ATOM      5  C4  UNL d   1      -1.855  -1.932   2.392  0.00  0.00     0.048 A 
ATOM      6  C5  UNL d   1      -0.483  -2.017   2.640  0.00  0.00     0.003 A 
ATOM      7  I   UNL d   1      -4.354  -1.082   0.916  0.00  0.00    -0.146 I 
ENDROOT
TORSDOF 0
ENDMDL
