MODEL 1
REMARK minimizedAffinity 5.98405647
REMARK minimizedRMSD -1
REMARK  0 active torsions:
REMARK  status: ('A' for Active; 'I' for Inactive)
ROOT
ATOM      1  C   UNL d   1       4.029   1.639  -1.981  0.00  0.00     0.023 A 
ATOM      2  C1  UNL d   1       3.897   2.902  -2.558  0.00  0.00     0.003 A 
ATOM      3  C2  UNL d   1       2.632   3.393  -2.888  0.00  0.00     0.048 A 
ATOM      4  C3  UNL d   1       1.502   2.615  -2.638  0.00  0.00     0.023 A 
ATOM      5  C4  UNL d   1       1.629   1.350  -2.060  0.00  0.00     0.048 A 
ATOM      6  C5  UNL d   1       2.896   0.864  -1.733  0.00  0.00     0.003 A 
ATOM      7  I   UNL d   1      -0.382   3.342  -3.128  0.00  0.00    -0.146 I 
ENDROOT
TORSDOF 0
ENDMDL
