MODEL 1
REMARK minimizedAffinity -3.50290608
REMARK minimizedRMSD -1
REMARK  0 active torsions:
REMARK  status: ('A' for Active; 'I' for Inactive)
ROOT
ATOM      1  C   UNL d   1      -1.122  -1.381   2.888  0.00  0.00     0.023 A 
ATOM      2  C1  UNL d   1       0.124  -1.919   2.568  0.00  0.00     0.003 A 
ATOM      3  C2  UNL d   1       0.696  -1.666   1.319  0.00  0.00     0.048 A 
ATOM      4  C3  UNL d   1       0.016  -0.872   0.396  0.00  0.00     0.023 A 
ATOM      5  C4  UNL d   1      -1.231  -0.330   0.712  0.00  0.00     0.048 A 
ATOM      6  C5  UNL d   1      -1.799  -0.587   1.961  0.00  0.00     0.003 A 
ATOM      7  I   UNL d   1       0.865  -0.493  -1.463  0.00  0.00    -0.146 I 
ENDROOT
TORSDOF 0
ENDMDL
