MODEL 1
REMARK minimizedAffinity -1.29419649
REMARK minimizedRMSD -1
REMARK  0 active torsions:
REMARK  status: ('A' for Active; 'I' for Inactive)
ROOT
ATOM      1  C   UNL d   1       0.648  -1.537   1.670  0.00  0.00     0.023 A 
ATOM      2  C1  UNL d   1       0.051  -0.872   0.599  0.00  0.00     0.003 A 
ATOM      3  C2  UNL d   1      -1.306  -0.549   0.645  0.00  0.00     0.048 A 
ATOM      4  C3  UNL d   1      -2.061  -0.892   1.767  0.00  0.00     0.023 A 
ATOM      5  C4  UNL d   1      -1.467  -1.556   2.841  0.00  0.00     0.048 A 
ATOM      6  C5  UNL d   1      -0.110  -1.879   2.790  0.00  0.00     0.003 A 
ATOM      7  I   UNL d   1      -4.081  -0.411   1.839  0.00  0.00    -0.146 I 
ENDROOT
TORSDOF 0
ENDMDL
