MODEL 1
REMARK minimizedAffinity -2.5218482
REMARK minimizedRMSD -1
REMARK  0 active torsions:
REMARK  status: ('A' for Active; 'I' for Inactive)
ROOT
ATOM      1  C   UNL d   1       2.887  -0.445  -1.887  0.00  0.00     0.023 A 
ATOM      2  C1  UNL d   1       2.778   0.320  -0.726  0.00  0.00     0.003 A 
ATOM      3  C2  UNL d   1       1.588   0.318   0.005  0.00  0.00     0.048 A 
ATOM      4  C3  UNL d   1       0.511  -0.453  -0.430  0.00  0.00     0.023 A 
ATOM      5  C4  UNL d   1       0.615  -1.221  -1.591  0.00  0.00     0.048 A 
ATOM      6  C5  UNL d   1       1.807  -1.215  -2.319  0.00  0.00     0.003 A 
ATOM      7  I   UNL d   1      -1.261  -0.458   0.656  0.00  0.00    -0.146 I 
ENDROOT
TORSDOF 0
ENDMDL
