MODEL 1
REMARK minimizedAffinity -2.22783494
REMARK minimizedRMSD -1
REMARK  0 active torsions:
REMARK  status: ('A' for Active; 'I' for Inactive)
ROOT
ATOM      1  C4' PXY d   1      -1.774   1.704  -1.834  0.00  0.00     0.077 C 
ATOM      2  C1' PXY d   1       2.300  -1.288   0.971  0.00  0.00     0.077 C 
ATOM      3  C1  PXY d   1       1.224  -0.504   0.246  0.00  0.00    -0.082 A 
ATOM      4  C2  PXY d   1       1.201  -0.494  -1.077  0.00  0.00     0.003 A 
ATOM      5  C3  PXY d   1       0.254   0.235  -1.749  0.00  0.00     0.003 A 
ATOM      6  C4  PXY d   1      -0.711   0.919  -1.059  0.00  0.00    -0.082 A 
ATOM      7  C5  PXY d   1      -0.701   0.905   0.290  0.00  0.00     0.003 A 
ATOM      8  C6  PXY d   1       0.293   0.192   0.954  0.00  0.00     0.003 A 
ENDROOT
TORSDOF 0
ENDMDL
