MODEL 1
REMARK minimizedAffinity -3.48765779
REMARK minimizedRMSD -1
REMARK  0 active torsions:
REMARK  status: ('A' for Active; 'I' for Inactive)
ROOT
ATOM      1  C4' PXY d   1      -2.470   1.112  -1.894  0.00  0.00     0.077 C 
ATOM      2  C1' PXY d   1       2.503  -0.473   0.589  0.00  0.00     0.077 C 
ATOM      3  C1  PXY d   1       1.196  -0.050  -0.052  0.00  0.00    -0.082 A 
ATOM      4  C2  PXY d   1       0.637  -0.824  -0.968  0.00  0.00     0.003 A 
ATOM      5  C3  PXY d   1      -0.529  -0.441  -1.581  0.00  0.00     0.003 A 
ATOM      6  C4  PXY d   1      -1.156   0.720  -1.214  0.00  0.00    -0.082 A 
ATOM      7  C5  PXY d   1      -0.596   1.509  -0.272  0.00  0.00     0.003 A 
ATOM      8  C6  PXY d   1       0.608   1.123   0.308  0.00  0.00     0.003 A 
ENDROOT
TORSDOF 0
ENDMDL
