MODEL 1
REMARK minimizedAffinity -3.50292373
REMARK minimizedRMSD -1
REMARK  0 active torsions:
REMARK  status: ('A' for Active; 'I' for Inactive)
ROOT
ATOM      1  C4' PXY d   1      -2.274   1.480  -2.128  0.00  0.00     0.077 C 
ATOM      2  C1' PXY d   1       2.151  -1.157   0.495  0.00  0.00     0.077 C 
ATOM      3  C1  PXY d   1       0.986  -0.460  -0.181  0.00  0.00    -0.082 A 
ATOM      4  C2  PXY d   1       0.524  -0.926  -1.331  0.00  0.00     0.003 A 
ATOM      5  C3  PXY d   1      -0.507  -0.289  -1.972  0.00  0.00     0.003 A 
ATOM      6  C4  PXY d   1      -1.107   0.803  -1.405  0.00  0.00    -0.082 A 
ATOM      7  C5  PXY d   1      -0.648   1.277  -0.227  0.00  0.00     0.003 A 
ATOM      8  C6  PXY d   1       0.427   0.642   0.387  0.00  0.00     0.003 A 
ENDROOT
TORSDOF 0
ENDMDL
