MODEL 1
REMARK minimizedAffinity -3.609653
REMARK minimizedRMSD -1
REMARK  0 active torsions:
REMARK  status: ('A' for Active; 'I' for Inactive)
ROOT
ATOM      1  C4' PXY d   1       3.806   0.116  -2.043  0.00  0.00     0.077 C 
ATOM      2  C1' PXY d   1      -0.077  -1.619   1.871  0.00  0.00     0.077 C 
ATOM      3  C1  PXY d   1       0.932  -1.157   0.839  0.00  0.00    -0.082 A 
ATOM      4  C2  PXY d   1       2.004  -1.894   0.596  0.00  0.00     0.003 A 
ATOM      5  C3  PXY d   1       2.943  -1.475  -0.312  0.00  0.00     0.003 A 
ATOM      6  C4  PXY d   1       2.756  -0.316  -1.016  0.00  0.00    -0.082 A 
ATOM      7  C5  PXY d   1       1.661   0.436  -0.781  0.00  0.00     0.003 A 
ATOM      8  C6  PXY d   1       0.740   0.014   0.174  0.00  0.00     0.003 A 
ENDROOT
TORSDOF 0
ENDMDL
