MODEL 1
REMARK minimizedAffinity -2.1487143
REMARK minimizedRMSD -1
REMARK  0 active torsions:
REMARK  status: ('A' for Active; 'I' for Inactive)
ROOT
ATOM      1  C4' PXY d   1       1.353  -0.232   0.303  0.00  0.00     0.077 C 
ATOM      2  C1' PXY d   1      -2.911   1.720  -3.076  0.00  0.00     0.077 C 
ATOM      3  C1  PXY d   1      -1.790   1.220  -2.187  0.00  0.00    -0.082 A 
ATOM      4  C2  PXY d   1      -1.273   0.021  -2.397  0.00  0.00     0.003 A 
ATOM      5  C3  PXY d   1      -0.280  -0.460  -1.583  0.00  0.00     0.003 A 
ATOM      6  C4  PXY d   1       0.226   0.317  -0.575  0.00  0.00    -0.082 A 
ATOM      7  C5  PXY d   1      -0.289   1.547  -0.361  0.00  0.00     0.003 A 
ATOM      8  C6  PXY d   1      -1.324   1.999  -1.173  0.00  0.00     0.003 A 
ENDROOT
TORSDOF 0
ENDMDL
