MODEL 1
REMARK minimizedAffinity -2.66297054
REMARK minimizedRMSD -1
REMARK  0 active torsions:
REMARK  status: ('A' for Active; 'I' for Inactive)
ROOT
ATOM      1  C4' PXY d   1       2.610  -1.129   1.194  0.00  0.00     0.077 C 
ATOM      2  C1' PXY d   1      -1.543   1.421  -1.916  0.00  0.00     0.077 C 
ATOM      3  C1  PXY d   1      -0.462   0.751  -1.090  0.00  0.00    -0.082 A 
ATOM      4  C2  PXY d   1       0.810   1.001  -1.352  0.00  0.00     0.003 A 
ATOM      5  C3  PXY d   1       1.801   0.379  -0.637  0.00  0.00     0.003 A 
ATOM      6  C4  PXY d   1       1.485  -0.467   0.392  0.00  0.00    -0.082 A 
ATOM      7  C5  PXY d   1       0.189  -0.719   0.673  0.00  0.00     0.003 A 
ATOM      8  C6  PXY d   1      -0.801  -0.109  -0.092  0.00  0.00     0.003 A 
ENDROOT
TORSDOF 0
ENDMDL
