MODEL 1
REMARK minimizedAffinity -5.18678474
REMARK minimizedRMSD -1
REMARK  0 active torsions:
REMARK  status: ('A' for Active; 'I' for Inactive)
ROOT
ATOM      1  C4' PXY d   1      -1.104  -1.089   1.930  0.00  0.00     0.077 C 
ATOM      2  C1' PXY d   1       3.778   0.499  -0.728  0.00  0.00     0.077 C 
ATOM      3  C1  PXY d   1       2.492   0.094  -0.034  0.00  0.00    -0.082 A 
ATOM      4  C2  PXY d   1       2.528  -0.803   0.937  0.00  0.00     0.003 A 
ATOM      5  C3  PXY d   1       1.371  -1.205   1.554  0.00  0.00     0.003 A 
ATOM      6  C4  PXY d   1       0.171  -0.643   1.208  0.00  0.00    -0.082 A 
ATOM      7  C5  PXY d   1       0.127   0.281   0.225  0.00  0.00     0.003 A 
ATOM      8  C6  PXY d   1       1.308   0.645  -0.416  0.00  0.00     0.003 A 
ENDROOT
TORSDOF 0
ENDMDL
