MODEL 1
REMARK minimizedAffinity -4.61687183
REMARK minimizedRMSD -1
REMARK  0 active torsions:
REMARK  status: ('A' for Active; 'I' for Inactive)
ROOT
ATOM      1  C4' PXY d   1       3.839  -0.225  -0.876  0.00  0.00     0.077 C 
ATOM      2  C1' PXY d   1      -1.208  -1.069   1.813  0.00  0.00     0.077 C 
ATOM      3  C1  PXY d   1       0.122  -0.855   1.117  0.00  0.00    -0.082 A 
ATOM      4  C2  PXY d   1       0.299   0.215   0.360  0.00  0.00     0.003 A 
ATOM      5  C3  PXY d   1       1.484   0.408  -0.303  0.00  0.00     0.003 A 
ATOM      6  C4  PXY d   1       2.516  -0.477  -0.147  0.00  0.00    -0.082 A 
ATOM      7  C5  PXY d   1       2.347  -1.566   0.633  0.00  0.00     0.003 A 
ATOM      8  C6  PXY d   1       1.123  -1.765   1.264  0.00  0.00     0.003 A 
ENDROOT
TORSDOF 0
ENDMDL
