MODEL 1
REMARK minimizedAffinity -5.26312828
REMARK minimizedRMSD -1
REMARK  0 active torsions:
REMARK  status: ('A' for Active; 'I' for Inactive)
ROOT
ATOM      1  C4' PXY d   1       0.335   2.454  -0.814  0.00  0.00     0.077 C 
ATOM      2  C1' PXY d   1       2.345  -2.613   1.111  0.00  0.00     0.077 C 
ATOM      3  C1  PXY d   1       1.806  -1.289   0.604  0.00  0.00    -0.082 A 
ATOM      4  C2  PXY d   1       2.641  -0.388   0.113  0.00  0.00     0.003 A 
ATOM      5  C3  PXY d   1       2.175   0.826  -0.320  0.00  0.00     0.003 A 
ATOM      6  C4  PXY d   1       0.833   1.101  -0.299  0.00  0.00    -0.082 A 
ATOM      7  C5  PXY d   1      -0.026   0.182   0.190  0.00  0.00     0.003 A 
ATOM      8  C6  PXY d   1       0.472  -1.028   0.663  0.00  0.00     0.003 A 
ENDROOT
TORSDOF 0
ENDMDL
