MODEL 1
REMARK minimizedAffinity -4.22484207
REMARK minimizedRMSD -1
REMARK  0 active torsions:
REMARK  status: ('A' for Active; 'I' for Inactive)
ROOT
ATOM      1  C4' PXY d   1       2.087  -3.586   1.488  0.00  0.00     0.077 C 
ATOM      2  C1' PXY d   1      -2.335   0.115   1.087  0.00  0.00     0.077 C 
ATOM      3  C1  PXY d   1      -1.171  -0.851   1.181  0.00  0.00    -0.082 A 
ATOM      4  C2  PXY d   1      -1.288  -1.948   1.911  0.00  0.00     0.003 A 
ATOM      5  C3  PXY d   1      -0.234  -2.817   2.033  0.00  0.00     0.003 A 
ATOM      6  C4  PXY d   1       0.934  -2.587   1.357  0.00  0.00    -0.082 A 
ATOM      7  C5  PXY d   1       1.058  -1.476   0.601  0.00  0.00     0.003 A 
ATOM      8  C6  PXY d   1      -0.009  -0.586   0.523  0.00  0.00     0.003 A 
ENDROOT
TORSDOF 0
ENDMDL
