MODEL 1
REMARK minimizedAffinity -5.04506159
REMARK minimizedRMSD -1
REMARK  0 active torsions:
REMARK  status: ('A' for Active; 'I' for Inactive)
ROOT
ATOM      1  C4' PXY d   1      -1.602   1.908  -1.129  0.00  0.00     0.077 C 
ATOM      2  C1' PXY d   1       1.275  -2.818   0.545  0.00  0.00     0.077 C 
ATOM      3  C1  PXY d   1       0.513  -1.579   0.117  0.00  0.00    -0.082 A 
ATOM      4  C2  PXY d   1       0.472  -1.247  -1.163  0.00  0.00     0.003 A 
ATOM      5  C3  PXY d   1      -0.186  -0.112  -1.564  0.00  0.00     0.003 A 
ATOM      6  C4  PXY d   1      -0.853   0.661  -0.652  0.00  0.00    -0.082 A 
ATOM      7  C5  PXY d   1      -0.824   0.323   0.655  0.00  0.00     0.003 A 
ATOM      8  C6  PXY d   1      -0.116  -0.810   1.046  0.00  0.00     0.003 A 
ENDROOT
TORSDOF 0
ENDMDL
