MODEL 1
REMARK minimizedAffinity -4.49569941
REMARK minimizedRMSD -1
REMARK  0 active torsions:
REMARK  status: ('A' for Active; 'I' for Inactive)
ROOT
ATOM      1  C4' PXY d   1      -0.089  -0.314   1.010  0.00  0.00     0.077 C 
ATOM      2  C1' PXY d   1      -1.986   1.984  -3.943  0.00  0.00     0.077 C 
ATOM      3  C1  PXY d   1      -1.477   1.389  -2.645  0.00  0.00    -0.082 A 
ATOM      4  C2  PXY d   1      -1.921   0.206  -2.250  0.00  0.00     0.003 A 
ATOM      5  C3  PXY d   1      -1.496  -0.332  -1.062  0.00  0.00     0.003 A 
ATOM      6  C4  PXY d   1      -0.567   0.322  -0.298  0.00  0.00    -0.082 A 
ATOM      7  C5  PXY d   1      -0.102   1.523  -0.700  0.00  0.00     0.003 A 
ATOM      8  C6  PXY d   1      -0.577   2.072  -1.888  0.00  0.00     0.003 A 
ENDROOT
TORSDOF 0
ENDMDL
