MODEL 1
REMARK minimizedAffinity -4.26268578
REMARK minimizedRMSD -1
REMARK  0 active torsions:
REMARK  status: ('A' for Active; 'I' for Inactive)
ROOT
ATOM      1  C4' PXY d   1      -0.768   1.710  -0.581  0.00  0.00     0.077 C 
ATOM      2  C1' PXY d   1       1.525  -3.268   1.256  0.00  0.00     0.077 C 
ATOM      3  C1  PXY d   1       0.935  -1.957   0.775  0.00  0.00    -0.082 A 
ATOM      4  C2  PXY d   1      -0.356  -1.719   0.943  0.00  0.00     0.003 A 
ATOM      5  C3  PXY d   1      -0.911  -0.552   0.485  0.00  0.00     0.003 A 
ATOM      6  C4  PXY d   1      -0.128   0.404  -0.103  0.00  0.00    -0.082 A 
ATOM      7  C5  PXY d   1       1.192   0.174  -0.269  0.00  0.00     0.003 A 
ATOM      8  C6  PXY d   1       1.729  -1.035   0.166  0.00  0.00     0.003 A 
ENDROOT
TORSDOF 0
ENDMDL
