MODEL 1
REMARK minimizedAffinity -0.57668221
REMARK minimizedRMSD -1
REMARK  0 active torsions:
REMARK  status: ('A' for Active; 'I' for Inactive)
ROOT
ATOM      1  C4' PXY d   1       4.703  -1.381   1.844  0.00  0.00     0.077 C 
ATOM      2  C1' PXY d   1      -0.961  -1.777   0.759  0.00  0.00     0.077 C 
ATOM      3  C1  PXY d   1       0.523  -1.682   1.054  0.00  0.00    -0.082 A 
ATOM      4  C2  PXY d   1       1.196  -0.605   0.681  0.00  0.00     0.003 A 
ATOM      5  C3  PXY d   1       2.545  -0.516   0.910  0.00  0.00     0.003 A 
ATOM      6  C4  PXY d   1       3.202  -1.516   1.576  0.00  0.00    -0.082 A 
ATOM      7  C5  PXY d   1       2.520  -2.613   1.969  0.00  0.00     0.003 A 
ATOM      8  C6  PXY d   1       1.159  -2.702   1.690  0.00  0.00     0.003 A 
ENDROOT
TORSDOF 0
ENDMDL
