MODEL 1
REMARK minimizedAffinity -4.35753584
REMARK minimizedRMSD -1
REMARK  0 active torsions:
REMARK  status: ('A' for Active; 'I' for Inactive)
ROOT
ATOM      1  C4' PXY d   1      -0.885   1.955  -0.822  0.00  0.00     0.077 C 
ATOM      2  C1' PXY d   1       1.344  -2.788   1.617  0.00  0.00     0.077 C 
ATOM      3  C1  PXY d   1       0.772  -1.539   0.976  0.00  0.00    -0.082 A 
ATOM      4  C2  PXY d   1      -0.470  -1.173   1.251  0.00  0.00     0.003 A 
ATOM      5  C3  PXY d   1      -1.014  -0.065   0.655  0.00  0.00     0.003 A 
ATOM      6  C4  PXY d   1      -0.262   0.707  -0.190  0.00  0.00    -0.082 A 
ATOM      7  C5  PXY d   1       1.008   0.346  -0.468  0.00  0.00     0.003 A 
ATOM      8  C6  PXY d   1       1.529  -0.806   0.116  0.00  0.00     0.003 A 
ENDROOT
TORSDOF 0
ENDMDL
