MODEL 1
REMARK minimizedAffinity -4.63681698
REMARK minimizedRMSD -1
REMARK  0 active torsions:
REMARK  status: ('A' for Active; 'I' for Inactive)
ROOT
ATOM      1  C4' PXY d   1      -2.514   1.824  -2.190  0.00  0.00     0.077 C 
ATOM      2  C1' PXY d   1       1.778  -0.809   0.650  0.00  0.00     0.077 C 
ATOM      3  C1  PXY d   1       0.649  -0.112  -0.084  0.00  0.00    -0.082 A 
ATOM      4  C2  PXY d   1       0.100  -0.690  -1.140  0.00  0.00     0.003 A 
ATOM      5  C3  PXY d   1      -0.900  -0.059  -1.834  0.00  0.00     0.003 A 
ATOM      6  C4  PXY d   1      -1.378   1.153  -1.412  0.00  0.00    -0.082 A 
ATOM      7  C5  PXY d   1      -0.830   1.744  -0.330  0.00  0.00     0.003 A 
ATOM      8  C6  PXY d   1       0.212   1.106   0.337  0.00  0.00     0.003 A 
ENDROOT
TORSDOF 0
ENDMDL
