MODEL 1
REMARK minimizedAffinity -1.25719988
REMARK minimizedRMSD -1
REMARK  0 active torsions:
REMARK  status: ('A' for Active; 'I' for Inactive)
ROOT
ATOM      1  C4' PXY d   1       1.774   1.696  -1.152  0.00  0.00     0.077 C 
ATOM      2  C1' PXY d   1      -2.034  -1.125   2.158  0.00  0.00     0.077 C 
ATOM      3  C1  PXY d   1      -1.044  -0.377   1.286  0.00  0.00    -0.082 A 
ATOM      4  C2  PXY d   1       0.033  -1.000   0.838  0.00  0.00     0.003 A 
ATOM      5  C3  PXY d   1       0.955  -0.329   0.075  0.00  0.00     0.003 A 
ATOM      6  C4  PXY d   1       0.744   0.977  -0.277  0.00  0.00    -0.082 A 
ATOM      7  C5  PXY d   1      -0.359   1.616   0.168  0.00  0.00     0.003 A 
ATOM      8  C6  PXY d   1      -1.261   0.930   0.975  0.00  0.00     0.003 A 
ENDROOT
TORSDOF 0
ENDMDL
