MODEL 1
REMARK minimizedAffinity -4.31400585
REMARK minimizedRMSD -1
REMARK  0 active torsions:
REMARK  status: ('A' for Active; 'I' for Inactive)
ROOT
ATOM      1  C4' PXY d   1       1.626  -3.333   1.585  0.00  0.00     0.077 C 
ATOM      2  C1' PXY d   1      -0.904   1.666   0.160  0.00  0.00     0.077 C 
ATOM      3  C1  PXY d   1      -0.248   0.354   0.544  0.00  0.00    -0.082 A 
ATOM      4  C2  PXY d   1       0.970   0.080   0.108  0.00  0.00     0.003 A 
ATOM      5  C3  PXY d   1       1.566  -1.116   0.419  0.00  0.00     0.003 A 
ATOM      6  C4  PXY d   1       0.928  -2.017   1.230  0.00  0.00    -0.082 A 
ATOM      7  C5  PXY d   1      -0.311  -1.740   1.688  0.00  0.00     0.003 A 
ATOM      8  C6  PXY d   1      -0.914  -0.538   1.326  0.00  0.00     0.003 A 
ENDROOT
TORSDOF 0
ENDMDL
