MODEL 1
REMARK minimizedAffinity -3.45860386
REMARK minimizedRMSD -1
REMARK  0 active torsions:
REMARK  status: ('A' for Active; 'I' for Inactive)
ROOT
ATOM      1  C4' PXY d   1      -1.218   2.162  -0.680  0.00  0.00     0.077 C 
ATOM      2  C1' PXY d   1       1.392  -2.646   1.186  0.00  0.00     0.077 C 
ATOM      3  C1  PXY d   1       0.719  -1.380   0.694  0.00  0.00    -0.082 A 
ATOM      4  C2  PXY d   1      -0.500  -1.082   1.114  0.00  0.00     0.003 A 
ATOM      5  C3  PXY d   1      -1.136   0.043   0.655  0.00  0.00     0.003 A 
ATOM      6  C4  PXY d   1      -0.497   0.899  -0.202  0.00  0.00    -0.082 A 
ATOM      7  C5  PXY d   1       0.751   0.606  -0.627  0.00  0.00     0.003 A 
ATOM      8  C6  PXY d   1       1.363  -0.561  -0.181  0.00  0.00     0.003 A 
ENDROOT
TORSDOF 0
ENDMDL
