MODEL 1
REMARK minimizedAffinity 11.940011
REMARK minimizedRMSD -1
REMARK  3 active torsions:
REMARK  status: ('A' for Active; 'I' for Inactive)
REMARK    1  A    between atoms: C3'_2  and  C2'_3 
REMARK    2  A    between atoms: C2'_3  and  C1'_4 
REMARK    3  A    between atoms: C1'_4  and  C1_5 
ROOT
ATOM      1  C1  N4B d   1      -2.128   0.236  -2.590  0.00  0.00    -0.075 A 
ATOM      2  C2  N4B d   1      -1.874  -0.948  -1.863  0.00  0.00     0.002 A 
ATOM      3  C3  N4B d   1      -2.297  -2.159  -2.354  0.00  0.00     0.002 A 
ATOM      4  C4  N4B d   1      -2.990  -2.209  -3.554  0.00  0.00    -0.004 A 
ATOM      5  C5  N4B d   1      -3.209  -1.064  -4.263  0.00  0.00     0.002 A 
ATOM      6  C6  N4B d   1      -2.786   0.160  -3.784  0.00  0.00     0.002 A 
ENDROOT
BRANCH   1   7
ATOM      7  C1' N4B d   1      -1.761   1.592  -2.053  0.00  0.00     0.057 C 
BRANCH   7   8
ATOM      8  C2' N4B d   1      -2.519   1.837  -0.752  0.00  0.00     0.009 C 
BRANCH   8   9
ATOM      9  C3' N4B d   1      -1.644   1.603   0.468  0.00  0.00     0.004 C 
ATOM     10  C4' N4B d   1      -0.923   2.841   0.911  0.00  0.00     0.003 C 
ENDBRANCH   8   9
ENDBRANCH   7   8
ENDBRANCH   1   7
TORSDOF 3
ENDMDL
