MODEL 1
REMARK minimizedAffinity 4.33721781
REMARK minimizedRMSD -1
REMARK  3 active torsions:
REMARK  status: ('A' for Active; 'I' for Inactive)
REMARK    1  A    between atoms: C3'_2  and  C2'_3 
REMARK    2  A    between atoms: C2'_3  and  C1'_4 
REMARK    3  A    between atoms: C1'_4  and  C1_5 
ROOT
ATOM      1  C1  N4B d   1      -2.958   1.842  -3.679  0.00  0.00    -0.075 A 
ATOM      2  C2  N4B d   1      -2.714   1.489  -2.334  0.00  0.00     0.002 A 
ATOM      3  C3  N4B d   1      -2.419   0.188  -2.008  0.00  0.00     0.002 A 
ATOM      4  C4  N4B d   1      -2.381  -0.777  -3.004  0.00  0.00    -0.004 A 
ATOM      5  C5  N4B d   1      -2.593  -0.423  -4.304  0.00  0.00     0.002 A 
ATOM      6  C6  N4B d   1      -2.886   0.882  -4.647  0.00  0.00     0.002 A 
ENDROOT
BRANCH   1   7
ATOM      7  C1' N4B d   1      -3.369   3.235  -4.073  0.00  0.00     0.057 C 
BRANCH   7   8
ATOM      8  C2' N4B d   1      -4.327   3.790  -3.023  0.00  0.00     0.009 C 
BRANCH   8   9
ATOM      9  C3' N4B d   1      -3.958   5.204  -2.609  0.00  0.00     0.004 C 
ATOM     10  C4' N4B d   1      -5.139   5.996  -2.133  0.00  0.00     0.003 C 
ENDBRANCH   8   9
ENDBRANCH   7   8
ENDBRANCH   1   7
TORSDOF 3
ENDMDL
