MODEL 1
REMARK minimizedAffinity 6.85651875
REMARK minimizedRMSD -1
REMARK  3 active torsions:
REMARK  status: ('A' for Active; 'I' for Inactive)
REMARK    1  A    between atoms: C3'_2  and  C2'_3 
REMARK    2  A    between atoms: C2'_3  and  C1'_4 
REMARK    3  A    between atoms: C1'_4  and  C1_5 
ROOT
ATOM      1  C1  N4B d   1      -2.743   0.233  -3.395  0.00  0.00    -0.075 A 
ATOM      2  C2  N4B d   1      -1.671  -0.507  -2.851  0.00  0.00     0.002 A 
ATOM      3  C3  N4B d   1      -1.780  -1.869  -2.709  0.00  0.00     0.002 A 
ATOM      4  C4  N4B d   1      -2.952  -2.507  -3.087  0.00  0.00    -0.004 A 
ATOM      5  C5  N4B d   1      -3.973  -1.788  -3.635  0.00  0.00     0.002 A 
ATOM      6  C6  N4B d   1      -3.877  -0.419  -3.787  0.00  0.00     0.002 A 
ENDROOT
BRANCH   1   7
ATOM      7  C1' N4B d   1      -2.705   1.734  -3.490  0.00  0.00     0.057 C 
BRANCH   7   8
ATOM      8  C2' N4B d   1      -3.812   2.319  -2.619  0.00  0.00     0.009 C 
BRANCH   8   9
ATOM      9  C3' N4B d   1      -4.233   3.702  -3.087  0.00  0.00     0.004 C 
ATOM     10  C4' N4B d   1      -5.618   4.069  -2.645  0.00  0.00     0.003 C 
ENDBRANCH   8   9
ENDBRANCH   7   8
ENDBRANCH   1   7
TORSDOF 3
ENDMDL
