MODEL 1
REMARK minimizedAffinity 6.54777288
REMARK minimizedRMSD -1
REMARK  3 active torsions:
REMARK  status: ('A' for Active; 'I' for Inactive)
REMARK    1  A    between atoms: C3'_2  and  C2'_3 
REMARK    2  A    between atoms: C2'_3  and  C1'_4 
REMARK    3  A    between atoms: C1'_4  and  C1_5 
ROOT
ATOM      1  C1  N4B d   1      -2.725   0.257  -2.493  0.00  0.00    -0.075 A 
ATOM      2  C2  N4B d   1      -2.555  -1.016  -3.080  0.00  0.00     0.002 A 
ATOM      3  C3  N4B d   1      -2.250  -2.099  -2.293  0.00  0.00     0.002 A 
ATOM      4  C4  N4B d   1      -2.092  -1.931  -0.925  0.00  0.00    -0.004 A 
ATOM      5  C5  N4B d   1      -2.282  -0.703  -0.363  0.00  0.00     0.002 A 
ATOM      6  C6  N4B d   1      -2.593   0.394  -1.141  0.00  0.00     0.002 A 
ENDROOT
BRANCH   1   7
ATOM      7  C1' N4B d   1      -2.974   1.487  -3.323  0.00  0.00     0.057 C 
BRANCH   7   8
ATOM      8  C2' N4B d   1      -3.438   2.620  -2.412  0.00  0.00     0.009 C 
BRANCH   8   9
ATOM      9  C3' N4B d   1      -3.700   3.900  -3.186  0.00  0.00     0.004 C 
ATOM     10  C4' N4B d   1      -4.298   4.981  -2.336  0.00  0.00     0.003 C 
ENDBRANCH   8   9
ENDBRANCH   7   8
ENDBRANCH   1   7
TORSDOF 3
ENDMDL
