MODEL 1
REMARK minimizedAffinity 13.3608894
REMARK minimizedRMSD -1
REMARK  3 active torsions:
REMARK  status: ('A' for Active; 'I' for Inactive)
REMARK    1  A    between atoms: C3'_2  and  C2'_3 
REMARK    2  A    between atoms: C2'_3  and  C1'_4 
REMARK    3  A    between atoms: C1'_4  and  C1_5 
ROOT
ATOM      1  C1  N4B d   1      -3.109   2.058  -3.305  0.00  0.00    -0.075 A 
ATOM      2  C2  N4B d   1      -2.643   1.716  -2.017  0.00  0.00     0.002 A 
ATOM      3  C3  N4B d   1      -2.262   0.425  -1.744  0.00  0.00     0.002 A 
ATOM      4  C4  N4B d   1      -2.356  -0.541  -2.734  0.00  0.00    -0.004 A 
ATOM      5  C5  N4B d   1      -2.783  -0.198  -3.983  0.00  0.00     0.002 A 
ATOM      6  C6  N4B d   1      -3.166   1.097  -4.273  0.00  0.00     0.002 A 
ENDROOT
BRANCH   1   7
ATOM      7  C1' N4B d   1      -3.618   3.436  -3.626  0.00  0.00     0.057 C 
BRANCH   7   8
ATOM      8  C2' N4B d   1      -4.575   3.886  -2.526  0.00  0.00     0.009 C 
BRANCH   8   9
ATOM      9  C3' N4B d   1      -4.660   5.399  -2.430  0.00  0.00     0.004 C 
ATOM     10  C4' N4B d   1      -5.889   5.868  -1.711  0.00  0.00     0.003 C 
ENDBRANCH   8   9
ENDBRANCH   7   8
ENDBRANCH   1   7
TORSDOF 3
ENDMDL
