MODEL 1
REMARK minimizedAffinity 3.92696047
REMARK minimizedRMSD -1
REMARK  3 active torsions:
REMARK  status: ('A' for Active; 'I' for Inactive)
REMARK    1  A    between atoms: C3'_2  and  C2'_3 
REMARK    2  A    between atoms: C2'_3  and  C1'_4 
REMARK    3  A    between atoms: C1'_4  and  C1_5 
ROOT
ATOM      1  C1  N4B d   1      -1.773  -0.568  -3.543  0.00  0.00    -0.075 A 
ATOM      2  C2  N4B d   1      -1.639  -1.588  -4.511  0.00  0.00     0.002 A 
ATOM      3  C3  N4B d   1      -2.698  -2.420  -4.783  0.00  0.00     0.002 A 
ATOM      4  C4  N4B d   1      -3.889  -2.263  -4.090  0.00  0.00    -0.004 A 
ATOM      5  C5  N4B d   1      -4.018  -1.259  -3.175  0.00  0.00     0.002 A 
ATOM      6  C6  N4B d   1      -2.963  -0.413  -2.895  0.00  0.00     0.002 A 
ENDROOT
BRANCH   1   7
ATOM      7  C1' N4B d   1      -0.616   0.310  -3.150  0.00  0.00     0.057 C 
BRANCH   7   8
ATOM      8  C2' N4B d   1      -0.308   0.099  -1.671  0.00  0.00     0.009 C 
BRANCH   8   9
ATOM      9  C3' N4B d   1       0.374  -1.234  -1.417  0.00  0.00     0.004 C 
ATOM     10  C4' N4B d   1       1.399  -1.570  -2.460  0.00  0.00     0.003 C 
ENDBRANCH   8   9
ENDBRANCH   7   8
ENDBRANCH   1   7
TORSDOF 3
ENDMDL
