MODEL 1
REMARK minimizedAffinity 9.13536739
REMARK minimizedRMSD -1
REMARK  0 active torsions:
REMARK  status: ('A' for Active; 'I' for Inactive)
ROOT
ATOM      1  C   UNL d   1      -0.833  -5.594   0.138  0.00  0.00     0.020 A 
ATOM      2  C1  UNL d   1      -1.125  -4.240  -0.022  0.00  0.00     0.020 A 
ATOM      3  C2  UNL d   1      -0.104  -3.291   0.054  0.00  0.00     0.034 A 
ATOM      4  C3  UNL d   1       1.215  -3.695   0.292  0.00  0.00     0.017 A 
ATOM      5  C4  UNL d   1       1.508  -5.054   0.453  0.00  0.00     0.017 A 
ATOM      6  C5  UNL d   1       0.481  -6.000   0.375  0.00  0.00     0.034 A 
ATOM      7 Cl   UNL d   1       3.111  -5.628   0.749  0.00  0.00    -0.070 Cl
ATOM      8 Cl1  UNL d   1       2.428  -2.467   0.375  0.00  0.00    -0.070 Cl
ENDROOT
TORSDOF 0
ENDMDL
