MODEL 1
REMARK minimizedAffinity -3.96908426
REMARK minimizedRMSD -1
REMARK  0 active torsions:
REMARK  status: ('A' for Active; 'I' for Inactive)
ROOT
ATOM      1  C   UNL d   1      -0.705  -3.105   0.905  0.00  0.00     0.020 A 
ATOM      2  C1  UNL d   1       0.456  -2.377   1.160  0.00  0.00     0.020 A 
ATOM      3  C2  UNL d   1       0.741  -1.233   0.412  0.00  0.00     0.034 A 
ATOM      4  C3  UNL d   1      -0.136  -0.814  -0.596  0.00  0.00     0.017 A 
ATOM      5  C4  UNL d   1      -1.301  -1.546  -0.851  0.00  0.00     0.017 A 
ATOM      6  C5  UNL d   1      -1.582  -2.690  -0.098  0.00  0.00     0.034 A 
ATOM      7 Cl   UNL d   1      -2.432  -1.091  -2.077  0.00  0.00    -0.070 Cl
ATOM      8 Cl1  UNL d   1       0.279   0.610  -1.482  0.00  0.00    -0.070 Cl
ENDROOT
TORSDOF 0
ENDMDL
