MODEL 1
REMARK minimizedAffinity 4.90748262
REMARK minimizedRMSD -1
REMARK  0 active torsions:
REMARK  status: ('A' for Active; 'I' for Inactive)
ROOT
ATOM      1  C   UNL d   1       0.247  -2.010   5.119  0.00  0.00     0.020 A 
ATOM      2  C1  UNL d   1       1.249  -2.415   6.000  0.00  0.00     0.020 A 
ATOM      3  C2  UNL d   1       2.533  -2.683   5.521  0.00  0.00     0.034 A 
ATOM      4  C3  UNL d   1       2.818  -2.546   4.157  0.00  0.00     0.017 A 
ATOM      5  C4  UNL d   1       1.812  -2.140   3.274  0.00  0.00     0.017 A 
ATOM      6  C5  UNL d   1       0.528  -1.873   3.759  0.00  0.00     0.034 A 
ATOM      7 Cl   UNL d   1       2.087  -1.949   1.578  0.00  0.00    -0.070 Cl
ATOM      8 Cl1  UNL d   1       4.428  -2.894   3.634  0.00  0.00    -0.070 Cl
ENDROOT
TORSDOF 0
ENDMDL
