MODEL 1
REMARK minimizedAffinity 9.60448837
REMARK minimizedRMSD -1
REMARK  0 active torsions:
REMARK  status: ('A' for Active; 'I' for Inactive)
ROOT
ATOM      1  C   UNL d   1       2.041  -2.342   6.000  0.00  0.00     0.020 A 
ATOM      2  C1  UNL d   1       1.020  -1.873   5.175  0.00  0.00     0.020 A 
ATOM      3  C2  UNL d   1       1.270  -1.630   3.823  0.00  0.00     0.034 A 
ATOM      4  C3  UNL d   1       2.545  -1.856   3.292  0.00  0.00     0.017 A 
ATOM      5  C4  UNL d   1       3.570  -2.327   4.120  0.00  0.00     0.017 A 
ATOM      6  C5  UNL d   1       3.313  -2.569   5.474  0.00  0.00     0.034 A 
ATOM      7 Cl   UNL d   1       5.168  -2.630   3.537  0.00  0.00    -0.070 Cl
ATOM      8 Cl1  UNL d   1       2.784  -1.535   1.611  0.00  0.00    -0.070 Cl
ENDROOT
TORSDOF 0
ENDMDL
