MODEL 1
REMARK minimizedAffinity 5.5272584
REMARK minimizedRMSD -1
REMARK  0 active torsions:
REMARK  status: ('A' for Active; 'I' for Inactive)
ROOT
ATOM      1  C   UNL d   1      -4.925  -0.165  -2.111  0.00  0.00     0.020 A 
ATOM      2  C1  UNL d   1      -5.358  -1.331  -1.481  0.00  0.00     0.020 A 
ATOM      3  C2  UNL d   1      -4.442  -2.144  -0.810  0.00  0.00     0.034 A 
ATOM      4  C3  UNL d   1      -3.088  -1.793  -0.768  0.00  0.00     0.017 A 
ATOM      5  C4  UNL d   1      -2.654  -0.622  -1.401  0.00  0.00     0.017 A 
ATOM      6  C5  UNL d   1      -3.575   0.188  -2.071  0.00  0.00     0.034 A 
ATOM      7 Cl   UNL d   1      -0.999  -0.123  -1.392  0.00  0.00    -0.070 Cl
ATOM      8 Cl1  UNL d   1      -2.011  -2.845   0.080  0.00  0.00    -0.070 Cl
ENDROOT
TORSDOF 0
ENDMDL
