MODEL 1
REMARK minimizedAffinity 19.8113747
REMARK minimizedRMSD -1
REMARK  0 active torsions:
REMARK  status: ('A' for Active; 'I' for Inactive)
ROOT
ATOM      1  C   UNL d   1      -2.651   0.266  -3.038  0.00  0.00     0.020 A 
ATOM      2  C1  UNL d   1      -1.347  -0.228  -3.002  0.00  0.00     0.020 A 
ATOM      3  C2  UNL d   1      -1.041  -1.333  -2.205  0.00  0.00     0.034 A 
ATOM      4  C3  UNL d   1      -2.040  -1.949  -1.442  0.00  0.00     0.017 A 
ATOM      5  C4  UNL d   1      -3.348  -1.452  -1.479  0.00  0.00     0.017 A 
ATOM      6  C5  UNL d   1      -3.649  -0.345  -2.279  0.00  0.00     0.034 A 
ATOM      7 Cl   UNL d   1      -4.634  -2.159  -0.565  0.00  0.00    -0.070 Cl
ATOM      8 Cl1  UNL d   1      -1.591  -3.312  -0.480  0.00  0.00    -0.070 Cl
ENDROOT
TORSDOF 0
ENDMDL
