MODEL 1
REMARK minimizedAffinity 9.50903702
REMARK minimizedRMSD -1
REMARK  0 active torsions:
REMARK  status: ('A' for Active; 'I' for Inactive)
ROOT
ATOM      1  C   UNL d   1       0.315  -4.721   0.171  0.00  0.00     0.020 A 
ATOM      2  C1  UNL d   1      -0.800  -5.293   0.784  0.00  0.00     0.020 A 
ATOM      3  C2  UNL d   1      -2.028  -4.629   0.758  0.00  0.00     0.034 A 
ATOM      4  C3  UNL d   1      -2.145  -3.390   0.117  0.00  0.00     0.017 A 
ATOM      5  C4  UNL d   1      -1.026  -2.817  -0.498  0.00  0.00     0.017 A 
ATOM      6  C5  UNL d   1       0.201  -3.486  -0.468  0.00  0.00     0.034 A 
ATOM      7 Cl   UNL d   1      -1.093  -1.292  -1.307  0.00  0.00    -0.070 Cl
ATOM      8 Cl1  UNL d   1      -3.695  -2.626   0.123  0.00  0.00    -0.070 Cl
ENDROOT
TORSDOF 0
ENDMDL
