MODEL 1
REMARK minimizedAffinity 7.88175154
REMARK minimizedRMSD -1
REMARK  0 active torsions:
REMARK  status: ('A' for Active; 'I' for Inactive)
ROOT
ATOM      1  C   UNL d   1       0.074  -5.153   0.730  0.00  0.00     0.020 A 
ATOM      2  C1  UNL d   1      -0.534  -4.835  -0.484  0.00  0.00     0.020 A 
ATOM      3  C2  UNL d   1      -1.484  -3.813  -0.541  0.00  0.00     0.034 A 
ATOM      4  C3  UNL d   1      -1.827  -3.105   0.616  0.00  0.00     0.017 A 
ATOM      5  C4  UNL d   1      -1.216  -3.425   1.833  0.00  0.00     0.017 A 
ATOM      6  C5  UNL d   1      -0.266  -4.449   1.886  0.00  0.00     0.034 A 
ATOM      7 Cl   UNL d   1      -1.588  -2.596   3.304  0.00  0.00    -0.070 Cl
ATOM      8 Cl1  UNL d   1      -3.009  -1.853   0.471  0.00  0.00    -0.070 Cl
ENDROOT
TORSDOF 0
ENDMDL
