MODEL 1
REMARK minimizedAffinity 11.5977211
REMARK minimizedRMSD -1
REMARK  0 active torsions:
REMARK  status: ('A' for Active; 'I' for Inactive)
ROOT
ATOM      1  C   UNL d   1      -0.548  -1.924   4.858  0.00  0.00     0.020 A 
ATOM      2  C1  UNL d   1       0.687  -1.310   5.059  0.00  0.00     0.020 A 
ATOM      3  C2  UNL d   1       1.578  -1.168   3.993  0.00  0.00     0.034 A 
ATOM      4  C3  UNL d   1       1.235  -1.642   2.721  0.00  0.00     0.017 A 
ATOM      5  C4  UNL d   1      -0.005  -2.258   2.520  0.00  0.00     0.017 A 
ATOM      6  C5  UNL d   1      -0.894  -2.397   3.591  0.00  0.00     0.034 A 
ATOM      7 Cl   UNL d   1      -0.499  -2.868   0.980  0.00  0.00    -0.070 Cl
ATOM      8 Cl1  UNL d   1       2.385  -1.433   1.449  0.00  0.00    -0.070 Cl
ENDROOT
TORSDOF 0
ENDMDL
