MODEL 1
REMARK minimizedAffinity 2.41408682
REMARK minimizedRMSD -1
REMARK  0 active torsions:
REMARK  status: ('A' for Active; 'I' for Inactive)
ROOT
ATOM      1  C   UNL d   1      -5.999  -0.287   4.390  0.00  0.00     0.020 A 
ATOM      2  C1  UNL d   1      -5.995   1.089   4.163  0.00  0.00     0.020 A 
ATOM      3  C2  UNL d   1      -5.994   1.581   2.857  0.00  0.00     0.034 A 
ATOM      4  C3  UNL d   1      -5.995   0.698   1.771  0.00  0.00     0.017 A 
ATOM      5  C4  UNL d   1      -5.998  -0.683   1.999  0.00  0.00     0.017 A 
ATOM      6  C5  UNL d   1      -6.000  -1.171   3.310  0.00  0.00     0.034 A 
ATOM      7 Cl   UNL d   1      -6.000  -1.835   0.711  0.00  0.00    -0.070 Cl
ATOM      8 Cl1  UNL d   1      -5.993   1.377   0.182  0.00  0.00    -0.070 Cl
ENDROOT
TORSDOF 0
ENDMDL
