MODEL 1
REMARK minimizedAffinity 10.4624634
REMARK minimizedRMSD -1
REMARK  0 active torsions:
REMARK  status: ('A' for Active; 'I' for Inactive)
ROOT
ATOM      1  C   UNL d   1       0.661  -4.902   0.058  0.00  0.00     0.020 A 
ATOM      2  C1  UNL d   1      -0.465  -5.457   0.665  0.00  0.00     0.020 A 
ATOM      3  C2  UNL d   1      -1.673  -4.756   0.668  0.00  0.00     0.034 A 
ATOM      4  C3  UNL d   1      -1.758  -3.496   0.064  0.00  0.00     0.017 A 
ATOM      5  C4  UNL d   1      -0.627  -2.940  -0.545  0.00  0.00     0.017 A 
ATOM      6  C5  UNL d   1       0.580  -3.646  -0.545  0.00  0.00     0.034 A 
ATOM      7 Cl   UNL d   1      -0.654  -1.391  -1.311  0.00  0.00    -0.070 Cl
ATOM      8 Cl1  UNL d   1      -3.284  -2.687   0.105  0.00  0.00    -0.070 Cl
ENDROOT
TORSDOF 0
ENDMDL
