MODEL 1
REMARK minimizedAffinity 6.75578499
REMARK minimizedRMSD -1
REMARK  0 active torsions:
REMARK  status: ('A' for Active; 'I' for Inactive)
ROOT
ATOM      1  C   UNL d   1      -0.912   1.443  -1.117  0.00  0.00     0.020 A 
ATOM      2  C1  UNL d   1       0.292   2.106  -0.884  0.00  0.00     0.020 A 
ATOM      3  C2  UNL d   1       0.334   3.502  -0.898  0.00  0.00     0.034 A 
ATOM      4  C3  UNL d   1      -0.829   4.239  -1.145  0.00  0.00     0.017 A 
ATOM      5  C4  UNL d   1      -2.038   3.572  -1.379  0.00  0.00     0.017 A 
ATOM      6  C5  UNL d   1      -2.075   2.174  -1.364  0.00  0.00     0.034 A 
ATOM      7 Cl   UNL d   1      -3.515   4.413  -1.691  0.00  0.00    -0.070 Cl
ATOM      8 Cl1  UNL d   1      -0.704   5.962  -1.147  0.00  0.00    -0.070 Cl
ENDROOT
TORSDOF 0
ENDMDL
