MODEL 1
REMARK minimizedAffinity 2.31226707
REMARK minimizedRMSD -1
REMARK  0 active torsions:
REMARK  status: ('A' for Active; 'I' for Inactive)
ROOT
ATOM      1  O1  BZF d   1       0.988  -1.064   3.719  0.00  0.00    -0.204 OA
ATOM      2  C2  BZF d   1       1.736  -0.439   2.740  0.00  0.00     0.174 A 
ATOM      3  C3  BZF d   1       2.701  -1.260   2.278  0.00  0.00    -0.012 A 
ATOM      4  C3A BZF d   1       2.488  -2.506   2.949  0.00  0.00    -0.107 A 
ATOM      5  C4  BZF d   1       3.115  -3.718   2.900  0.00  0.00     0.055 A 
ATOM      6  C5  BZF d   1       2.706  -4.707   3.736  0.00  0.00    -0.016 A 
ATOM      7  C6  BZF d   1       1.678  -4.518   4.637  0.00  0.00     0.022 A 
ATOM      8  C7  BZF d   1       1.023  -3.335   4.719  0.00  0.00     0.029 A 
ATOM      9  C7A BZF d   1       1.412  -2.343   3.852  0.00  0.00     0.058 A 
ENDROOT
TORSDOF 0
ENDMDL
