MODEL 1
REMARK minimizedAffinity 1.98924792
REMARK minimizedRMSD -1
REMARK  0 active torsions:
REMARK  status: ('A' for Active; 'I' for Inactive)
ROOT
ATOM      1  O1  BZF d   1       2.414  -5.912  -2.767  0.00  0.00    -0.204 OA
ATOM      2  C2  BZF d   1       3.151  -5.935  -1.598  0.00  0.00     0.174 A 
ATOM      3  C3  BZF d   1       4.471  -5.999  -1.867  0.00  0.00    -0.012 A 
ATOM      4  C3A BZF d   1       4.569  -5.924  -3.292  0.00  0.00    -0.107 A 
ATOM      5  C4  BZF d   1       5.622  -5.924  -4.162  0.00  0.00     0.055 A 
ATOM      6  C5  BZF d   1       5.375  -5.913  -5.498  0.00  0.00    -0.016 A 
ATOM      7  C6  BZF d   1       4.089  -5.909  -5.999  0.00  0.00     0.022 A 
ATOM      8  C7  BZF d   1       3.013  -5.904  -5.175  0.00  0.00     0.029 A 
ATOM      9  C7A BZF d   1       3.260  -5.881  -3.824  0.00  0.00     0.058 A 
ENDROOT
TORSDOF 0
ENDMDL
