MODEL 1
REMARK minimizedAffinity 9.23733425
REMARK minimizedRMSD -1
REMARK  0 active torsions:
REMARK  status: ('A' for Active; 'I' for Inactive)
ROOT
ATOM      1  O1  BZF d   1       1.292  -1.948   1.660  0.00  0.00    -0.204 OA
ATOM      2  C2  BZF d   1       1.855  -0.752   2.063  0.00  0.00     0.174 A 
ATOM      3  C3  BZF d   1       2.378  -0.862   3.301  0.00  0.00    -0.012 A 
ATOM      4  C3A BZF d   1       2.207  -2.236   3.661  0.00  0.00    -0.107 A 
ATOM      5  C4  BZF d   1       2.538  -2.966   4.767  0.00  0.00     0.055 A 
ATOM      6  C5  BZF d   1       2.166  -4.271   4.834  0.00  0.00    -0.016 A 
ATOM      7  C6  BZF d   1       1.457  -4.876   3.817  0.00  0.00     0.022 A 
ATOM      8  C7  BZF d   1       1.110  -4.195   2.698  0.00  0.00     0.029 A 
ATOM      9  C7A BZF d   1       1.514  -2.885   2.613  0.00  0.00     0.058 A 
ENDROOT
TORSDOF 0
ENDMDL
