MODEL 1
REMARK minimizedAffinity -0.30678618
REMARK minimizedRMSD -1
REMARK  0 active torsions:
REMARK  status: ('A' for Active; 'I' for Inactive)
ROOT
ATOM      1  O1  BZF d   1       4.358  -5.976  -1.834  0.00  0.00    -0.204 OA
ATOM      2  C2  BZF d   1       3.140  -5.999  -1.182  0.00  0.00     0.174 A 
ATOM      3  C3  BZF d   1       2.123  -5.957  -2.067  0.00  0.00    -0.012 A 
ATOM      4  C3A BZF d   1       2.743  -5.997  -3.356  0.00  0.00    -0.107 A 
ATOM      5  C4  BZF d   1       2.258  -5.998  -4.632  0.00  0.00     0.055 A 
ATOM      6  C5  BZF d   1       3.132  -5.969  -5.672  0.00  0.00    -0.016 A 
ATOM      7  C6  BZF d   1       4.497  -5.934  -5.472  0.00  0.00     0.022 A 
ATOM      8  C7  BZF d   1       5.026  -5.936  -4.224  0.00  0.00     0.029 A 
ATOM      9  C7A BZF d   1       4.145  -5.999  -3.172  0.00  0.00     0.058 A 
ENDROOT
TORSDOF 0
ENDMDL
