MODEL 1
REMARK minimizedAffinity 11.7561703
REMARK minimizedRMSD -1
REMARK  0 active torsions:
REMARK  status: ('A' for Active; 'I' for Inactive)
ROOT
ATOM      1  O1  BZF d   1       4.062  -5.973  -5.595  0.00  0.00    -0.204 OA
ATOM      2  C2  BZF d   1       2.724  -5.957  -5.936  0.00  0.00     0.174 A 
ATOM      3  C3  BZF d   1       1.948  -5.994  -4.834  0.00  0.00    -0.012 A 
ATOM      4  C3A BZF d   1       2.859  -5.942  -3.731  0.00  0.00    -0.107 A 
ATOM      5  C4  BZF d   1       2.693  -5.931  -2.376  0.00  0.00     0.055 A 
ATOM      6  C5  BZF d   1       3.791  -5.950  -1.575  0.00  0.00    -0.016 A 
ATOM      7  C6  BZF d   1       5.068  -5.985  -2.096  0.00  0.00     0.022 A 
ATOM      8  C7  BZF d   1       5.283  -5.992  -3.434  0.00  0.00     0.029 A 
ATOM      9  C7A BZF d   1       4.176  -5.940  -4.245  0.00  0.00     0.058 A 
ENDROOT
TORSDOF 0
ENDMDL
