MODEL 1
REMARK minimizedAffinity 4.20520496
REMARK minimizedRMSD -1
REMARK  0 active torsions:
REMARK  status: ('A' for Active; 'I' for Inactive)
ROOT
ATOM      1  O1  BZF d   1       1.013  -2.945   3.599  0.00  0.00    -0.204 OA
ATOM      2  C2  BZF d   1       2.240  -2.355   3.366  0.00  0.00     0.174 A 
ATOM      3  C3  BZF d   1       3.215  -2.992   4.048  0.00  0.00    -0.012 A 
ATOM      4  C3A BZF d   1       2.569  -4.103   4.677  0.00  0.00    -0.107 A 
ATOM      5  C4  BZF d   1       3.012  -5.116   5.478  0.00  0.00     0.055 A 
ATOM      6  C5  BZF d   1       2.113  -5.999   5.985  0.00  0.00    -0.016 A 
ATOM      7  C6  BZF d   1       0.764  -5.897   5.716  0.00  0.00     0.022 A 
ATOM      8  C7  BZF d   1       0.277  -4.912   4.922  0.00  0.00     0.029 A 
ATOM      9  C7A BZF d   1       1.188  -4.037   4.382  0.00  0.00     0.058 A 
ENDROOT
TORSDOF 0
ENDMDL
