MODEL 1
REMARK minimizedAffinity 12.0502939
REMARK minimizedRMSD -1
REMARK  0 active torsions:
REMARK  status: ('A' for Active; 'I' for Inactive)
ROOT
ATOM      1  O1  BZF d   1      -3.887   1.239  -3.457  0.00  0.00    -0.204 OA
ATOM      2  C2  BZF d   1      -3.345   2.187  -2.611  0.00  0.00     0.174 A 
ATOM      3  C3  BZF d   1      -2.702   1.598  -1.582  0.00  0.00    -0.012 A 
ATOM      4  C3A BZF d   1      -2.772   0.194  -1.849  0.00  0.00    -0.107 A 
ATOM      5  C4  BZF d   1      -2.302  -0.911  -1.197  0.00  0.00     0.055 A 
ATOM      6  C5  BZF d   1      -2.604  -2.143  -1.683  0.00  0.00    -0.016 A 
ATOM      7  C6  BZF d   1      -3.378  -2.308  -2.813  0.00  0.00     0.022 A 
ATOM      8  C7  BZF d   1      -3.863  -1.243  -3.497  0.00  0.00     0.029 A 
ATOM      9  C7A BZF d   1      -3.531   0.005  -3.027  0.00  0.00     0.058 A 
ENDROOT
TORSDOF 0
ENDMDL
