MODEL 1
REMARK minimizedAffinity 16.9777088
REMARK minimizedRMSD -1
REMARK  0 active torsions:
REMARK  status: ('A' for Active; 'I' for Inactive)
ROOT
ATOM      1  O1  BZF d   1       4.081  -4.555   4.943  0.00  0.00    -0.204 OA
ATOM      2  C2  BZF d   1       4.929  -3.559   5.390  0.00  0.00     0.174 A 
ATOM      3  C3  BZF d   1       4.526  -2.352   4.943  0.00  0.00    -0.012 A 
ATOM      4  C3A BZF d   1       3.301  -2.598   4.246  0.00  0.00    -0.107 A 
ATOM      5  C4  BZF d   1       2.414  -1.791   3.593  0.00  0.00     0.055 A 
ATOM      6  C5  BZF d   1       1.355  -2.355   2.955  0.00  0.00    -0.016 A 
ATOM      7  C6  BZF d   1       1.155  -3.719   2.945  0.00  0.00     0.022 A 
ATOM      8  C7  BZF d   1       2.005  -4.560   3.584  0.00  0.00     0.029 A 
ATOM      9  C7A BZF d   1       3.058  -3.991   4.257  0.00  0.00     0.058 A 
ENDROOT
TORSDOF 0
ENDMDL
