MODEL 1
REMARK minimizedAffinity -1.98971629
REMARK minimizedRMSD -1
REMARK  0 active torsions:
REMARK  status: ('A' for Active; 'I' for Inactive)
ROOT
ATOM      1  C   UNL d   1      -1.719   0.258   1.309  0.00  0.00     0.020 A 
ATOM      2  C1  UNL d   1      -0.939   0.385   2.457  0.00  0.00     0.020 A 
ATOM      3  C2  UNL d   1       0.447   0.519   2.348  0.00  0.00     0.034 A 
ATOM      4  C3  UNL d   1       1.056   0.528   1.088  0.00  0.00     0.017 A 
ATOM      5  C4  UNL d   1       0.271   0.401  -0.064  0.00  0.00     0.017 A 
ATOM      6  C5  UNL d   1      -1.116   0.267   0.051  0.00  0.00     0.034 A 
ATOM      7 Cl   UNL d   1       0.951   0.403  -1.653  0.00  0.00    -0.070 Cl
ATOM      8 Cl1  UNL d   1       2.775   0.698   1.027  0.00  0.00    -0.070 Cl
ENDROOT
TORSDOF 0
ENDMDL
