MODEL 1
REMARK minimizedAffinity -2.53691864
REMARK minimizedRMSD -1
REMARK  0 active torsions:
REMARK  status: ('A' for Active; 'I' for Inactive)
ROOT
ATOM      1  C   UNL d   1      -0.037   0.385   2.529  0.00  0.00     0.020 A 
ATOM      2  C1  UNL d   1       1.251   0.128   2.061  0.00  0.00     0.020 A 
ATOM      3  C2  UNL d   1       1.496   0.073   0.687  0.00  0.00     0.034 A 
ATOM      4  C3  UNL d   1       0.452   0.275  -0.223  0.00  0.00     0.017 A 
ATOM      5  C4  UNL d   1      -0.840   0.533   0.248  0.00  0.00     0.017 A 
ATOM      6  C5  UNL d   1      -1.080   0.587   1.625  0.00  0.00     0.034 A 
ATOM      7 Cl   UNL d   1      -2.179   0.793  -0.813  0.00  0.00    -0.070 Cl
ATOM      8 Cl1  UNL d   1       0.827   0.193  -1.908  0.00  0.00    -0.070 Cl
ENDROOT
TORSDOF 0
ENDMDL
