MODEL 1
REMARK minimizedAffinity 0.0136181144
REMARK minimizedRMSD -1
REMARK  0 active torsions:
REMARK  status: ('A' for Active; 'I' for Inactive)
ROOT
ATOM      1  C   UNL d   1       1.555   0.398   2.117  0.00  0.00     0.020 A 
ATOM      2  C1  UNL d   1       0.324   0.562   2.751  0.00  0.00     0.020 A 
ATOM      3  C2  UNL d   1      -0.849   0.607   1.996  0.00  0.00     0.034 A 
ATOM      4  C3  UNL d   1      -0.795   0.488   0.603  0.00  0.00     0.017 A 
ATOM      5  C4  UNL d   1       0.441   0.323  -0.033  0.00  0.00     0.017 A 
ATOM      6  C5  UNL d   1       1.613   0.279   0.728  0.00  0.00     0.034 A 
ATOM      7 Cl   UNL d   1       0.588   0.169  -1.748  0.00  0.00    -0.070 Cl
ATOM      8 Cl1  UNL d   1      -2.286   0.552  -0.268  0.00  0.00    -0.070 Cl
ENDROOT
TORSDOF 0
ENDMDL
