MODEL 1
REMARK minimizedAffinity -0.120259441
REMARK minimizedRMSD -1
REMARK  0 active torsions:
REMARK  status: ('A' for Active; 'I' for Inactive)
ROOT
ATOM      1  C   UNL d   1       0.375   0.279   2.320  0.00  0.00     0.020 A 
ATOM      2  C1  UNL d   1       1.532   0.135   1.554  0.00  0.00     0.020 A 
ATOM      3  C2  UNL d   1       1.452   0.150   0.160  0.00  0.00     0.034 A 
ATOM      4  C3  UNL d   1       0.214   0.310  -0.472  0.00  0.00     0.017 A 
ATOM      5  C4  UNL d   1      -0.946   0.454   0.297  0.00  0.00     0.017 A 
ATOM      6  C5  UNL d   1      -0.861   0.438   1.693  0.00  0.00     0.034 A 
ATOM      7 Cl   UNL d   1      -2.509   0.655  -0.412  0.00  0.00    -0.070 Cl
ATOM      8 Cl1  UNL d   1       0.190   0.320  -2.200  0.00  0.00    -0.070 Cl
ENDROOT
TORSDOF 0
ENDMDL
