MODEL 1
REMARK minimizedAffinity -3.45126152
REMARK minimizedRMSD -1
REMARK  0 active torsions:
REMARK  status: ('A' for Active; 'I' for Inactive)
ROOT
ATOM      1  C   UNL d   1       0.991   0.122   2.064  0.00  0.00     0.020 A 
ATOM      2  C1  UNL d   1       2.119  -0.296   1.361  0.00  0.00     0.020 A 
ATOM      3  C2  UNL d   1       2.076  -0.398  -0.031  0.00  0.00     0.034 A 
ATOM      4  C3  UNL d   1       0.902  -0.080  -0.724  0.00  0.00     0.017 A 
ATOM      5  C4  UNL d   1      -0.230   0.340  -0.017  0.00  0.00     0.017 A 
ATOM      6  C5  UNL d   1      -0.181   0.440   1.377  0.00  0.00     0.034 A 
ATOM      7 Cl   UNL d   1      -1.714   0.750  -0.802  0.00  0.00    -0.070 Cl
ATOM      8 Cl1  UNL d   1       0.920  -0.227  -2.446  0.00  0.00    -0.070 Cl
ENDROOT
TORSDOF 0
ENDMDL
