MODEL 1
REMARK minimizedAffinity -2.28209233
REMARK minimizedRMSD -1
REMARK  0 active torsions:
REMARK  status: ('A' for Active; 'I' for Inactive)
ROOT
ATOM      1  C   UNL d   1       0.623   0.565  -1.115  0.00  0.00     0.020 A 
ATOM      2  C1  UNL d   1       1.467   0.513  -0.006  0.00  0.00     0.020 A 
ATOM      3  C2  UNL d   1       0.934   0.326   1.270  0.00  0.00     0.034 A 
ATOM      4  C3  UNL d   1      -0.449   0.190   1.442  0.00  0.00     0.017 A 
ATOM      5  C4  UNL d   1      -1.296   0.242   0.329  0.00  0.00     0.017 A 
ATOM      6  C5  UNL d   1      -0.756   0.430  -0.947  0.00  0.00     0.034 A 
ATOM      7 Cl   UNL d   1      -3.012   0.082   0.462  0.00  0.00    -0.070 Cl
ATOM      8 Cl1  UNL d   1      -1.040  -0.039   3.050  0.00  0.00    -0.070 Cl
ENDROOT
TORSDOF 0
ENDMDL
