MODEL 1
REMARK minimizedAffinity -0.204009354
REMARK minimizedRMSD -1
REMARK  0 active torsions:
REMARK  status: ('A' for Active; 'I' for Inactive)
ROOT
ATOM      1  C   UNL d   1       1.649   0.429   2.161  0.00  0.00     0.020 A 
ATOM      2  C1  UNL d   1       0.361   0.503   2.690  0.00  0.00     0.020 A 
ATOM      3  C2  UNL d   1      -0.743   0.536   1.836  0.00  0.00     0.034 A 
ATOM      4  C3  UNL d   1      -0.563   0.495   0.449  0.00  0.00     0.017 A 
ATOM      5  C4  UNL d   1       0.731   0.420  -0.081  0.00  0.00     0.017 A 
ATOM      6  C5  UNL d   1       1.833   0.387   0.778  0.00  0.00     0.034 A 
ATOM      7 Cl   UNL d   1       1.033   0.365  -1.782  0.00  0.00    -0.070 Cl
ATOM      8 Cl1  UNL d   1      -1.974   0.538  -0.547  0.00  0.00    -0.070 Cl
ENDROOT
TORSDOF 0
ENDMDL
