MODEL 1
REMARK minimizedAffinity -2.90619016
REMARK minimizedRMSD -1
REMARK  0 active torsions:
REMARK  status: ('A' for Active; 'I' for Inactive)
ROOT
ATOM      1  C   UNL d   1      -2.320   0.514   1.613  0.00  0.00     0.020 A 
ATOM      2  C1  UNL d   1      -1.501   0.463   2.740  0.00  0.00     0.020 A 
ATOM      3  C2  UNL d   1      -0.116   0.366   2.593  0.00  0.00     0.034 A 
ATOM      4  C3  UNL d   1       0.454   0.321   1.316  0.00  0.00     0.017 A 
ATOM      5  C4  UNL d   1      -0.369   0.372   0.185  0.00  0.00     0.017 A 
ATOM      6  C5  UNL d   1      -1.755   0.469   0.338  0.00  0.00     0.034 A 
ATOM      7 Cl   UNL d   1       0.262   0.321  -1.424  0.00  0.00    -0.070 Cl
ATOM      8 Cl1  UNL d   1       2.175   0.201   1.208  0.00  0.00    -0.070 Cl
ENDROOT
TORSDOF 0
ENDMDL
