MODEL 1
REMARK minimizedAffinity -3.97255516
REMARK minimizedRMSD -1
REMARK  0 active torsions:
REMARK  status: ('A' for Active; 'I' for Inactive)
ROOT
ATOM      1  C   UNL d   1       0.384  -0.282   2.528  0.00  0.00     0.020 A 
ATOM      2  C1  UNL d   1       1.302  -0.166   1.485  0.00  0.00     0.020 A 
ATOM      3  C2  UNL d   1       0.870   0.226   0.216  0.00  0.00     0.034 A 
ATOM      4  C3  UNL d   1      -0.483   0.504  -0.012  0.00  0.00     0.017 A 
ATOM      5  C4  UNL d   1      -1.403   0.388   1.036  0.00  0.00     0.017 A 
ATOM      6  C5  UNL d   1      -0.965  -0.005   2.305  0.00  0.00     0.034 A 
ATOM      7 Cl   UNL d   1      -3.088   0.714   0.831  0.00  0.00    -0.070 Cl
ATOM      8 Cl1  UNL d   1      -0.947   0.985  -1.606  0.00  0.00    -0.070 Cl
ENDROOT
TORSDOF 0
ENDMDL
