MODEL 1
REMARK minimizedAffinity -1.41006458
REMARK minimizedRMSD -1
REMARK  0 active torsions:
REMARK  status: ('A' for Active; 'I' for Inactive)
ROOT
ATOM      1  C   UNL d   1       1.043  -0.081  -0.708  0.00  0.00     0.020 A 
ATOM      2  C1  UNL d   1      -0.162   0.007  -1.404  0.00  0.00     0.020 A 
ATOM      3  C2  UNL d   1      -1.350   0.257  -0.714  0.00  0.00     0.034 A 
ATOM      4  C3  UNL d   1      -1.336   0.420   0.676  0.00  0.00     0.017 A 
ATOM      5  C4  UNL d   1      -0.126   0.332   1.374  0.00  0.00     0.017 A 
ATOM      6  C5  UNL d   1       1.061   0.082   0.678  0.00  0.00     0.034 A 
ATOM      7 Cl   UNL d   1      -0.029   0.523   3.089  0.00  0.00    -0.070 Cl
ATOM      8 Cl1  UNL d   1      -2.842   0.727   1.464  0.00  0.00    -0.070 Cl
ENDROOT
TORSDOF 0
ENDMDL
