MODEL 1
REMARK minimizedAffinity -0.353596777
REMARK minimizedRMSD -1
REMARK  0 active torsions:
REMARK  status: ('A' for Active; 'I' for Inactive)
ROOT
ATOM      1  C   UNL d   1       1.412  -0.023   0.548  0.00  0.00     0.020 A 
ATOM      2  C1  UNL d   1       0.705   0.099  -0.648  0.00  0.00     0.020 A 
ATOM      3  C2  UNL d   1      -0.689   0.187  -0.628  0.00  0.00     0.034 A 
ATOM      4  C3  UNL d   1      -1.380   0.154   0.588  0.00  0.00     0.017 A 
ATOM      5  C4  UNL d   1      -0.669   0.031   1.788  0.00  0.00     0.017 A 
ATOM      6  C5  UNL d   1       0.727  -0.056   1.763  0.00  0.00     0.034 A 
ATOM      7 Cl   UNL d   1      -1.451  -0.017   3.328  0.00  0.00    -0.070 Cl
ATOM      8 Cl1  UNL d   1      -3.103   0.268   0.537  0.00  0.00    -0.070 Cl
ENDROOT
TORSDOF 0
ENDMDL
