MODEL 1
REMARK minimizedAffinity -1.88000405
REMARK minimizedRMSD -1
REMARK  0 active torsions:
REMARK  status: ('A' for Active; 'I' for Inactive)
ROOT
ATOM      1  C   UNL d   1       1.111   0.449   2.106  0.00  0.00     0.020 A 
ATOM      2  C1  UNL d   1      -0.079   0.492   2.831  0.00  0.00     0.020 A 
ATOM      3  C2  UNL d   1      -1.305   0.495   2.163  0.00  0.00     0.034 A 
ATOM      4  C3  UNL d   1      -1.344   0.454   0.764  0.00  0.00     0.017 A 
ATOM      5  C4  UNL d   1      -0.149   0.411   0.037  0.00  0.00     0.017 A 
ATOM      6  C5  UNL d   1       1.076   0.408   0.711  0.00  0.00     0.034 A 
ATOM      7 Cl   UNL d   1      -0.117   0.359  -1.691  0.00  0.00    -0.070 Cl
ATOM      8 Cl1  UNL d   1      -2.895   0.460   0.003  0.00  0.00    -0.070 Cl
ENDROOT
TORSDOF 0
ENDMDL
