MODEL 1
REMARK minimizedAffinity -3.99927282
REMARK minimizedRMSD -1
REMARK  0 active torsions:
REMARK  status: ('A' for Active; 'I' for Inactive)
ROOT
ATOM      1  C   UNL d   1       1.865   0.054  -0.778  0.00  0.00     0.020 A 
ATOM      2  C1  UNL d   1       0.871   0.135  -1.751  0.00  0.00     0.020 A 
ATOM      3  C2  UNL d   1      -0.456   0.359  -1.377  0.00  0.00     0.034 A 
ATOM      4  C3  UNL d   1      -0.791   0.504  -0.026  0.00  0.00     0.017 A 
ATOM      5  C4  UNL d   1       0.208   0.422   0.950  0.00  0.00     0.017 A 
ATOM      6  C5  UNL d   1       1.535   0.197   0.570  0.00  0.00     0.034 A 
ATOM      7 Cl   UNL d   1      -0.129   0.590   2.637  0.00  0.00    -0.070 Cl
ATOM      8 Cl1  UNL d   1      -2.452   0.780   0.365  0.00  0.00    -0.070 Cl
ENDROOT
TORSDOF 0
ENDMDL
