MODEL 1
REMARK minimizedAffinity -2.51023102
REMARK minimizedRMSD -1
REMARK  0 active torsions:
REMARK  status: ('A' for Active; 'I' for Inactive)
ROOT
ATOM      1  C   UNL d   1       1.293  -0.271   1.777  0.00  0.00     0.020 A 
ATOM      2  C1  UNL d   1       0.201   0.499   2.176  0.00  0.00     0.020 A 
ATOM      3  C2  UNL d   1      -0.744   0.911   1.235  0.00  0.00     0.034 A 
ATOM      4  C3  UNL d   1      -0.600   0.553  -0.111  0.00  0.00     0.017 A 
ATOM      5  C4  UNL d   1       0.496  -0.220  -0.511  0.00  0.00     0.017 A 
ATOM      6  C5  UNL d   1       1.440  -0.629   0.436  0.00  0.00     0.034 A 
ATOM      7 Cl   UNL d   1       0.742  -0.700  -2.153  0.00  0.00    -0.070 Cl
ATOM      8 Cl1  UNL d   1      -1.807   1.097  -1.221  0.00  0.00    -0.070 Cl
ENDROOT
TORSDOF 0
ENDMDL
