MODEL 1
REMARK minimizedAffinity -3.45910954
REMARK minimizedRMSD -1
REMARK  0 active torsions:
REMARK  status: ('A' for Active; 'I' for Inactive)
ROOT
ATOM      1  C   UNL d   1       0.982  -0.134   2.318  0.00  0.00     0.020 A 
ATOM      2  C1  UNL d   1      -0.205  -0.037   3.042  0.00  0.00     0.020 A 
ATOM      3  C2  UNL d   1      -1.419   0.138   2.374  0.00  0.00     0.034 A 
ATOM      4  C3  UNL d   1      -1.448   0.216   0.977  0.00  0.00     0.017 A 
ATOM      5  C4  UNL d   1      -0.255   0.118   0.250  0.00  0.00     0.017 A 
ATOM      6  C5  UNL d   1       0.957  -0.058   0.925  0.00  0.00     0.034 A 
ATOM      7 Cl   UNL d   1      -0.211   0.204  -1.475  0.00  0.00    -0.070 Cl
ATOM      8 Cl1  UNL d   1      -2.984   0.432   0.215  0.00  0.00    -0.070 Cl
ENDROOT
TORSDOF 0
ENDMDL
