MODEL 1
REMARK minimizedAffinity 12.0288115
REMARK minimizedRMSD -1
REMARK  0 active torsions:
REMARK  status: ('A' for Active; 'I' for Inactive)
ROOT
ATOM      1  C1  DEN d   1       4.046  -3.082   1.467  0.00  0.00     0.130 A 
ATOM      2  C2  DEN d   1       4.880  -4.105   2.092  0.00  0.00    -0.031 A 
ATOM      3  C3  DEN d   1       4.466  -4.230   3.504  0.00  0.00     0.027 A 
ATOM      4  C4  DEN d   1       2.622  -2.950   4.774  0.00  0.00     0.027 A 
ATOM      5  C5  DEN d   1       1.655  -1.975   4.667  0.00  0.00    -0.003 A 
ATOM      6  C6  DEN d   1       1.442  -1.283   3.505  0.00  0.00     0.001 A 
ATOM      7  C7  DEN d   1       2.176  -1.587   2.389  0.00  0.00     0.017 A 
ATOM      8  C8  DEN d   1       3.158  -2.563   2.492  0.00  0.00    -0.094 A 
ATOM      9  C9  DEN d   1       3.350  -3.261   3.672  0.00  0.00    -0.072 A 
ENDROOT
TORSDOF 0
ENDMDL
