MODEL 1
REMARK minimizedAffinity 2.96271825
REMARK minimizedRMSD -1
REMARK  0 active torsions:
REMARK  status: ('A' for Active; 'I' for Inactive)
ROOT
ATOM      1  C1  DEN d   1       3.621  -4.946   1.548  0.00  0.00     0.130 A 
ATOM      2  C2  DEN d   1       4.125  -3.582   1.681  0.00  0.00    -0.031 A 
ATOM      3  C3  DEN d   1       3.440  -2.742   0.678  0.00  0.00     0.027 A 
ATOM      4  C4  DEN d   1       1.651  -3.416  -1.054  0.00  0.00     0.027 A 
ATOM      5  C5  DEN d   1       0.912  -4.466  -1.553  0.00  0.00    -0.003 A 
ATOM      6  C6  DEN d   1       1.047  -5.744  -1.081  0.00  0.00     0.001 A 
ATOM      7  C7  DEN d   1       1.910  -5.999  -0.048  0.00  0.00     0.017 A 
ATOM      8  C8  DEN d   1       2.664  -4.947   0.456  0.00  0.00    -0.094 A 
ATOM      9  C9  DEN d   1       2.504  -3.659  -0.026  0.00  0.00    -0.072 A 
ENDROOT
TORSDOF 0
ENDMDL
