MODEL 1
REMARK minimizedAffinity 6.94088507
REMARK minimizedRMSD -1
REMARK  0 active torsions:
REMARK  status: ('A' for Active; 'I' for Inactive)
ROOT
ATOM      1  C1  DEN d   1       2.957  -2.281  -4.492  0.00  0.00     0.130 A 
ATOM      2  C2  DEN d   1       3.873  -1.421  -5.237  0.00  0.00    -0.031 A 
ATOM      3  C3  DEN d   1       4.907  -2.279  -5.849  0.00  0.00     0.027 A 
ATOM      4  C4  DEN d   1       5.176  -4.841  -5.723  0.00  0.00     0.027 A 
ATOM      5  C5  DEN d   1       4.648  -6.000  -5.198  0.00  0.00    -0.003 A 
ATOM      6  C6  DEN d   1       3.549  -5.998  -4.380  0.00  0.00     0.001 A 
ATOM      7  C7  DEN d   1       2.915  -4.817  -4.100  0.00  0.00     0.017 A 
ATOM      8  C8  DEN d   1       3.445  -3.643  -4.619  0.00  0.00    -0.094 A 
ATOM      9  C9  DEN d   1       4.549  -3.667  -5.454  0.00  0.00    -0.072 A 
ENDROOT
TORSDOF 0
ENDMDL
