MODEL 1
REMARK minimizedAffinity 10.1144314
REMARK minimizedRMSD -1
REMARK  0 active torsions:
REMARK  status: ('A' for Active; 'I' for Inactive)
ROOT
ATOM      1  C1  DEN d   1       3.374  -5.264   2.251  0.00  0.00     0.130 A 
ATOM      2  C2  DEN d   1       3.946  -3.956   2.557  0.00  0.00    -0.031 A 
ATOM      3  C3  DEN d   1       3.254  -2.950   1.727  0.00  0.00     0.027 A 
ATOM      4  C4  DEN d   1       1.358  -3.288   0.011  0.00  0.00     0.027 A 
ATOM      5  C5  DEN d   1       0.550  -4.221  -0.599  0.00  0.00    -0.003 A 
ATOM      6  C6  DEN d   1       0.648  -5.561  -0.329  0.00  0.00     0.001 A 
ATOM      7  C7  DEN d   1       1.545  -6.000   0.608  0.00  0.00     0.017 A 
ATOM      8  C8  DEN d   1       2.369  -5.065   1.222  0.00  0.00    -0.094 A 
ATOM      9  C9  DEN d   1       2.246  -3.715   0.945  0.00  0.00    -0.072 A 
ENDROOT
TORSDOF 0
ENDMDL
