MODEL 1
REMARK minimizedAffinity 9.81386089
REMARK minimizedRMSD -1
REMARK  0 active torsions:
REMARK  status: ('A' for Active; 'I' for Inactive)
ROOT
ATOM      1  C1  DEN d   1       3.868  -2.086  -4.930  0.00  0.00     0.130 A 
ATOM      2  C2  DEN d   1       2.606  -2.325  -4.235  0.00  0.00    -0.031 A 
ATOM      3  C3  DEN d   1       2.440  -3.783  -4.075  0.00  0.00     0.027 A 
ATOM      4  C4  DEN d   1       4.011  -5.686  -4.828  0.00  0.00     0.027 A 
ATOM      5  C5  DEN d   1       5.195  -5.977  -5.468  0.00  0.00    -0.003 A 
ATOM      6  C6  DEN d   1       5.997  -5.002  -5.999  0.00  0.00     0.001 A 
ATOM      7  C7  DEN d   1       5.646  -3.685  -5.860  0.00  0.00     0.017 A 
ATOM      8  C8  DEN d   1       4.450  -3.384  -5.223  0.00  0.00    -0.094 A 
ATOM      9  C9  DEN d   1       3.659  -4.383  -4.682  0.00  0.00    -0.072 A 
ENDROOT
TORSDOF 0
ENDMDL
