MODEL 1
REMARK minimizedAffinity 7.46541643
REMARK minimizedRMSD -1
REMARK  0 active torsions:
REMARK  status: ('A' for Active; 'I' for Inactive)
ROOT
ATOM      1  C1  DEN d   1       2.975  -2.855  -4.369  0.00  0.00     0.130 A 
ATOM      2  C2  DEN d   1       3.370  -1.668  -5.122  0.00  0.00    -0.031 A 
ATOM      3  C3  DEN d   1       4.584  -2.000  -5.894  0.00  0.00     0.027 A 
ATOM      4  C4  DEN d   1       5.881  -4.227  -6.000  0.00  0.00     0.027 A 
ATOM      5  C5  DEN d   1       5.934  -5.519  -5.524  0.00  0.00    -0.003 A 
ATOM      6  C6  DEN d   1       5.032  -5.999  -4.612  0.00  0.00     0.001 A 
ATOM      7  C7  DEN d   1       4.010  -5.195  -4.180  0.00  0.00     0.017 A 
ATOM      8  C8  DEN d   1       3.955  -3.889  -4.649  0.00  0.00    -0.094 A 
ATOM      9  C9  DEN d   1       4.868  -3.426  -5.581  0.00  0.00    -0.072 A 
ENDROOT
TORSDOF 0
ENDMDL
