MODEL 1
REMARK minimizedAffinity 7.63768387
REMARK minimizedRMSD -1
REMARK  0 active torsions:
REMARK  status: ('A' for Active; 'I' for Inactive)
ROOT
ATOM      1  C1  DEN d   1       5.979  -4.753  -6.000  0.00  0.00     0.130 A 
ATOM      2  C2  DEN d   1       5.825  -5.995  -5.246  0.00  0.00    -0.031 A 
ATOM      3  C3  DEN d   1       4.672  -5.837  -4.337  0.00  0.00     0.027 A 
ATOM      4  C4  DEN d   1       3.114  -3.805  -4.029  0.00  0.00     0.027 A 
ATOM      5  C5  DEN d   1       2.857  -2.515  -4.440  0.00  0.00    -0.003 A 
ATOM      6  C6  DEN d   1       3.636  -1.875  -5.367  0.00  0.00     0.001 A 
ATOM      7  C7  DEN d   1       4.684  -2.539  -5.947  0.00  0.00     0.017 A 
ATOM      8  C8  DEN d   1       4.954  -3.836  -5.533  0.00  0.00    -0.094 A 
ATOM      9  C9  DEN d   1       4.148  -4.471  -4.604  0.00  0.00    -0.072 A 
ENDROOT
TORSDOF 0
ENDMDL
