MODEL 1
REMARK minimizedAffinity 14.622261
REMARK minimizedRMSD -1
REMARK  0 active torsions:
REMARK  status: ('A' for Active; 'I' for Inactive)
ROOT
ATOM      1  C1  DEN d   1      -1.141  -0.930   1.237  0.00  0.00     0.130 A 
ATOM      2  C2  DEN d   1      -1.455   0.412   0.755  0.00  0.00    -0.031 A 
ATOM      3  C3  DEN d   1      -0.995   0.514  -0.644  0.00  0.00     0.027 A 
ATOM      4  C4  DEN d   1       0.165  -1.268  -2.104  0.00  0.00     0.027 A 
ATOM      5  C5  DEN d   1       0.653  -2.556  -2.128  0.00  0.00    -0.003 A 
ATOM      6  C6  DEN d   1       0.608  -3.374  -1.031  0.00  0.00     0.001 A 
ATOM      7  C7  DEN d   1       0.022  -2.928   0.125  0.00  0.00     0.017 A 
ATOM      8  C8  DEN d   1      -0.465  -1.628   0.159  0.00  0.00    -0.094 A 
ATOM      9  C9  DEN d   1      -0.421  -0.821  -0.965  0.00  0.00    -0.072 A 
ENDROOT
TORSDOF 0
ENDMDL
