MODEL 1
REMARK minimizedAffinity 14.0570803
REMARK minimizedRMSD -1
REMARK  0 active torsions:
REMARK  status: ('A' for Active; 'I' for Inactive)
ROOT
ATOM      1  C1  DEN d   1       1.575  -5.990   0.766  0.00  0.00     0.130 A 
ATOM      2  C2  DEN d   1       0.602  -5.174   0.045  0.00  0.00    -0.031 A 
ATOM      3  C3  DEN d   1       1.038  -3.765   0.126  0.00  0.00     0.027 A 
ATOM      4  C4  DEN d   1       3.118  -2.775   1.288  0.00  0.00     0.027 A 
ATOM      5  C5  DEN d   1       4.232  -3.074   2.039  0.00  0.00    -0.003 A 
ATOM      6  C6  DEN d   1       4.519  -4.350   2.445  0.00  0.00     0.001 A 
ATOM      7  C7  DEN d   1       3.704  -5.383   2.062  0.00  0.00     0.017 A 
ATOM      8  C8  DEN d   1       2.575  -5.089   1.310  0.00  0.00    -0.094 A 
ATOM      9  C9  DEN d   1       2.309  -3.794   0.900  0.00  0.00    -0.072 A 
ENDROOT
TORSDOF 0
ENDMDL
