MODEL 1
REMARK minimizedAffinity 3.17040348
REMARK minimizedRMSD -1
REMARK  0 active torsions:
REMARK  status: ('A' for Active; 'I' for Inactive)
ROOT
ATOM      1  C1  DEN d   1      -2.112  -3.174   0.615  0.00  0.00     0.130 A 
ATOM      2  C2  DEN d   1      -2.565  -4.495   1.042  0.00  0.00    -0.031 A 
ATOM      3  C3  DEN d   1      -1.794  -5.506   0.290  0.00  0.00     0.027 A 
ATOM      4  C4  DEN d   1       0.049  -5.155  -1.480  0.00  0.00     0.027 A 
ATOM      5  C5  DEN d   1       0.767  -4.212  -2.181  0.00  0.00    -0.003 A 
ATOM      6  C6  DEN d   1       0.554  -2.868  -2.025  0.00  0.00     0.001 A 
ATOM      7  C7  DEN d   1      -0.370  -2.428  -1.114  0.00  0.00     0.017 A 
ATOM      8  C8  DEN d   1      -1.103  -3.373  -0.409  0.00  0.00    -0.094 A 
ATOM      9  C9  DEN d   1      -0.864  -4.727  -0.572  0.00  0.00    -0.072 A 
ENDROOT
TORSDOF 0
ENDMDL
