MODEL 1
REMARK minimizedAffinity 2.92993021
REMARK minimizedRMSD -1
REMARK  0 active torsions:
REMARK  status: ('A' for Active; 'I' for Inactive)
ROOT
ATOM      1  C1  DEN d   1       6.000   4.812  -3.385  0.00  0.00     0.130 A 
ATOM      2  C2  DEN d   1       5.871   3.600  -4.189  0.00  0.00    -0.031 A 
ATOM      3  C3  DEN d   1       4.561   2.989  -3.887  0.00  0.00     0.027 A 
ATOM      4  C4  DEN d   1       2.728   3.800  -2.264  0.00  0.00     0.027 A 
ATOM      5  C5  DEN d   1       2.388   4.774  -1.351  0.00  0.00    -0.003 A 
ATOM      6  C6  DEN d   1       3.234   5.801  -1.029  0.00  0.00     0.001 A 
ATOM      7  C7  DEN d   1       4.446   5.904  -1.659  0.00  0.00     0.017 A 
ATOM      8  C8  DEN d   1       4.800   4.922  -2.575  0.00  0.00    -0.094 A 
ATOM      9  C9  DEN d   1       3.925   3.898  -2.896  0.00  0.00    -0.072 A 
ENDROOT
TORSDOF 0
ENDMDL
