MODEL 1
REMARK minimizedAffinity 12.9759293
REMARK minimizedRMSD -1
REMARK  0 active torsions:
REMARK  status: ('A' for Active; 'I' for Inactive)
ROOT
ATOM      1  C1  DEN d   1      -4.548   3.051  -4.319  0.00  0.00     0.130 A 
ATOM      2  C2  DEN d   1      -4.475   4.163  -3.375  0.00  0.00    -0.031 A 
ATOM      3  C3  DEN d   1      -3.692   3.719  -2.205  0.00  0.00     0.027 A 
ATOM      4  C4  DEN d   1      -2.584   1.431  -1.768  0.00  0.00     0.027 A 
ATOM      5  C5  DEN d   1      -2.382   0.166  -2.275  0.00  0.00    -0.003 A 
ATOM      6  C6  DEN d   1      -2.912  -0.233  -3.473  0.00  0.00     0.001 A 
ATOM      7  C7  DEN d   1      -3.633   0.655  -4.227  0.00  0.00     0.017 A 
ATOM      8  C8  DEN d   1      -3.847   1.930  -3.718  0.00  0.00    -0.094 A 
ATOM      9  C9  DEN d   1      -3.293   2.318  -2.511  0.00  0.00    -0.072 A 
ENDROOT
TORSDOF 0
ENDMDL
