MODEL 1
REMARK minimizedAffinity -0.472646296
REMARK minimizedRMSD -1
REMARK  0 active torsions:
REMARK  status: ('A' for Active; 'I' for Inactive)
ROOT
ATOM      1  C1  DEN d   1       5.960  -4.561  -3.616  0.00  0.00     0.130 A 
ATOM      2  C2  DEN d   1       5.927  -5.360  -4.838  0.00  0.00    -0.031 A 
ATOM      3  C3  DEN d   1       5.888  -4.434  -5.988  0.00  0.00     0.027 A 
ATOM      4  C4  DEN d   1       5.882  -1.855  -5.996  0.00  0.00     0.027 A 
ATOM      5  C5  DEN d   1       5.891  -0.730  -5.201  0.00  0.00    -0.003 A 
ATOM      6  C6  DEN d   1       5.888  -0.803  -3.833  0.00  0.00     0.001 A 
ATOM      7  C7  DEN d   1       5.923  -2.026  -3.218  0.00  0.00     0.017 A 
ATOM      8  C8  DEN d   1       5.907  -3.165  -4.012  0.00  0.00    -0.094 A 
ATOM      9  C9  DEN d   1       5.922  -3.071  -5.394  0.00  0.00    -0.072 A 
ENDROOT
TORSDOF 0
ENDMDL
