MODEL 1
REMARK minimizedAffinity -4.31331587
REMARK minimizedRMSD -1
REMARK  0 active torsions:
REMARK  status: ('A' for Active; 'I' for Inactive)
ROOT
ATOM      1  C1  DEN d   1       0.802  -1.592   0.412  0.00  0.00     0.130 A 
ATOM      2  C2  DEN d   1       0.023  -2.607   1.117  0.00  0.00    -0.031 A 
ATOM      3  C3  DEN d   1      -1.117  -1.934   1.772  0.00  0.00     0.027 A 
ATOM      4  C4  DEN d   1      -1.752   0.565   1.759  0.00  0.00     0.027 A 
ATOM      5  C5  DEN d   1      -1.386   1.814   1.306  0.00  0.00    -0.003 A 
ATOM      6  C6  DEN d   1      -0.257   2.018   0.558  0.00  0.00     0.001 A 
ATOM      7  C7  DEN d   1       0.524   0.950   0.202  0.00  0.00     0.017 A 
ATOM      8  C8  DEN d   1       0.166  -0.311   0.661  0.00  0.00    -0.094 A 
ATOM      9  C9  DEN d   1      -0.986  -0.498   1.406  0.00  0.00    -0.072 A 
ENDROOT
TORSDOF 0
ENDMDL
