MODEL 1
REMARK minimizedAffinity -1.06545889
REMARK minimizedRMSD -1
REMARK  0 active torsions:
REMARK  status: ('A' for Active; 'I' for Inactive)
ROOT
ATOM      1  C1  DEN d   1      -0.064   1.162  -0.902  0.00  0.00     0.130 A 
ATOM      2  C2  DEN d   1       1.307   1.618  -1.116  0.00  0.00    -0.031 A 
ATOM      3  C3  DEN d   1       2.216   0.652  -0.468  0.00  0.00     0.027 A 
ATOM      4  C4  DEN d   1       1.638  -1.498   0.835  0.00  0.00     0.027 A 
ATOM      5  C5  DEN d   1       0.609  -2.292   1.290  0.00  0.00    -0.003 A 
ATOM      6  C6  DEN d   1      -0.707  -1.976   1.077  0.00  0.00     0.001 A 
ATOM      7  C7  DEN d   1      -1.027  -0.859   0.352  0.00  0.00     0.017 A 
ATOM      8  C8  DEN d   1       0.005  -0.049  -0.103  0.00  0.00    -0.094 A 
ATOM      9  C9  DEN d   1       1.328  -0.392   0.112  0.00  0.00    -0.072 A 
ENDROOT
TORSDOF 0
ENDMDL
