MODEL 1
REMARK minimizedAffinity -4.98950672
REMARK minimizedRMSD -1
REMARK  0 active torsions:
REMARK  status: ('A' for Active; 'I' for Inactive)
ROOT
ATOM      1  C1  DEN d   1       1.049   0.126  -0.400  0.00  0.00     0.130 A 
ATOM      2  C2  DEN d   1       0.572   1.499  -0.261  0.00  0.00    -0.031 A 
ATOM      3  C3  DEN d   1      -0.778   1.455   0.338  0.00  0.00     0.027 A 
ATOM      4  C4  DEN d   1      -2.165  -0.594   1.063  0.00  0.00     0.027 A 
ATOM      5  C5  DEN d   1      -2.183  -1.970   1.132  0.00  0.00    -0.003 A 
ATOM      6  C6  DEN d   1      -1.149  -2.738   0.667  0.00  0.00     0.001 A 
ATOM      7  C7  DEN d   1      -0.032  -2.134   0.154  0.00  0.00     0.017 A 
ATOM      8  C8  DEN d   1      -0.009  -0.748   0.075  0.00  0.00    -0.094 A 
ATOM      9  C9  DEN d   1      -1.059   0.012   0.561  0.00  0.00    -0.072 A 
ENDROOT
TORSDOF 0
ENDMDL
