MODEL 1
REMARK minimizedAffinity -1.0980804
REMARK minimizedRMSD -1
REMARK  0 active torsions:
REMARK  status: ('A' for Active; 'I' for Inactive)
ROOT
ATOM      1  C1  DEN d   1      -2.036  -1.427   2.347  0.00  0.00     0.130 A 
ATOM      2  C2  DEN d   1      -2.626  -0.099   2.488  0.00  0.00    -0.031 A 
ATOM      3  C3  DEN d   1      -1.817   0.847   1.693  0.00  0.00     0.027 A 
ATOM      4  C4  DEN d   1       0.278   0.385   0.261  0.00  0.00     0.027 A 
ATOM      5  C5  DEN d   1       1.160  -0.587  -0.156  0.00  0.00    -0.003 A 
ATOM      6  C6  DEN d   1       1.060  -1.889   0.255  0.00  0.00     0.001 A 
ATOM      7  C7  DEN d   1       0.028  -2.265   1.074  0.00  0.00     0.017 A 
ATOM      8  C8  DEN d   1      -0.861  -1.290   1.505  0.00  0.00    -0.094 A 
ATOM      9  C9  DEN d   1      -0.750   0.019   1.068  0.00  0.00    -0.072 A 
ENDROOT
TORSDOF 0
ENDMDL
