MODEL 1
REMARK minimizedAffinity -2.20017052
REMARK minimizedRMSD -1
REMARK  0 active torsions:
REMARK  status: ('A' for Active; 'I' for Inactive)
ROOT
ATOM      1  C1  DEN d   1       0.229   1.140  -0.006  0.00  0.00     0.130 A 
ATOM      2  C2  DEN d   1       1.002  -0.066   0.280  0.00  0.00    -0.031 A 
ATOM      3  C3  DEN d   1       1.696  -0.468  -0.960  0.00  0.00     0.027 A 
ATOM      4  C4  DEN d   1       1.653   0.656  -3.281  0.00  0.00     0.027 A 
ATOM      5  C5  DEN d   1       1.130   1.698  -4.014  0.00  0.00    -0.003 A 
ATOM      6  C6  DEN d   1       0.251   2.600  -3.476  0.00  0.00     0.001 A 
ATOM      7  C7  DEN d   1      -0.097   2.504  -2.155  0.00  0.00     0.017 A 
ATOM      8  C8  DEN d   1       0.420   1.451  -1.411  0.00  0.00    -0.094 A 
ATOM      9  C9  DEN d   1       1.317   0.557  -1.970  0.00  0.00    -0.072 A 
ENDROOT
TORSDOF 0
ENDMDL
