MODEL 1
REMARK minimizedAffinity 17.2136154
REMARK minimizedRMSD -1
REMARK  0 active torsions:
REMARK  status: ('A' for Active; 'I' for Inactive)
ROOT
ATOM      1  C1  DEN d   1      -4.263  -2.336  -5.841  0.00  0.00     0.130 A 
ATOM      2  C2  DEN d   1      -3.248  -1.294  -5.715  0.00  0.00    -0.031 A 
ATOM      3  C3  DEN d   1      -1.925  -1.948  -5.679  0.00  0.00     0.027 A 
ATOM      4  C4  DEN d   1      -1.352  -4.459  -5.811  0.00  0.00     0.027 A 
ATOM      5  C5  DEN d   1      -1.880  -5.727  -5.912  0.00  0.00    -0.003 A 
ATOM      6  C6  DEN d   1      -3.230  -5.954  -5.962  0.00  0.00     0.001 A 
ATOM      7  C7  DEN d   1      -4.097  -4.894  -5.957  0.00  0.00     0.017 A 
ATOM      8  C8  DEN d   1      -3.572  -3.613  -5.847  0.00  0.00    -0.094 A 
ATOM      9  C9  DEN d   1      -2.204  -3.403  -5.810  0.00  0.00    -0.072 A 
ENDROOT
TORSDOF 0
ENDMDL
