MODEL 1
REMARK minimizedAffinity -1.70572948
REMARK minimizedRMSD -1
REMARK  0 active torsions:
REMARK  status: ('A' for Active; 'I' for Inactive)
ROOT
ATOM      1  C1  DEN d   1       0.762   1.133   0.135  0.00  0.00     0.130 A 
ATOM      2  C2  DEN d   1       0.200  -0.214   0.116  0.00  0.00    -0.031 A 
ATOM      3  C3  DEN d   1      -0.112  -0.559  -1.285  0.00  0.00     0.027 A 
ATOM      4  C4  DEN d   1       0.223   0.854  -3.417  0.00  0.00     0.027 A 
ATOM      5  C5  DEN d   1       0.657   2.067  -3.903  0.00  0.00    -0.003 A 
ATOM      6  C6  DEN d   1       1.121   3.059  -3.080  0.00  0.00     0.001 A 
ATOM      7  C7  DEN d   1       1.204   2.838  -1.731  0.00  0.00     0.017 A 
ATOM      8  C8  DEN d   1       0.761   1.620  -1.233  0.00  0.00    -0.094 A 
ATOM      9  C9  DEN d   1       0.307   0.625  -2.082  0.00  0.00    -0.072 A 
ENDROOT
TORSDOF 0
ENDMDL
