MODEL 1
REMARK minimizedAffinity -1.71331406
REMARK minimizedRMSD -1
REMARK  0 active torsions:
REMARK  status: ('A' for Active; 'I' for Inactive)
ROOT
ATOM      1  C1  DEN d   1      -2.254  -1.431   2.629  0.00  0.00     0.130 A 
ATOM      2  C2  DEN d   1      -3.019  -0.188   2.621  0.00  0.00    -0.031 A 
ATOM      3  C3  DEN d   1      -2.320   0.773   1.744  0.00  0.00     0.027 A 
ATOM      4  C4  DEN d   1      -0.141   0.456   0.402  0.00  0.00     0.027 A 
ATOM      5  C5  DEN d   1       0.875  -0.424   0.103  0.00  0.00    -0.003 A 
ATOM      6  C6  DEN d   1       0.937  -1.680   0.647  0.00  0.00     0.001 A 
ATOM      7  C7  DEN d   1      -0.059  -2.107   1.484  0.00  0.00     0.017 A 
ATOM      8  C8  DEN d   1      -1.083  -1.222   1.797  0.00  0.00    -0.094 A 
ATOM      9  C9  DEN d   1      -1.134   0.039   1.227  0.00  0.00    -0.072 A 
ENDROOT
TORSDOF 0
ENDMDL
