MODEL 1
REMARK minimizedAffinity -4.19528246
REMARK minimizedRMSD -1
REMARK  0 active torsions:
REMARK  status: ('A' for Active; 'I' for Inactive)
ROOT
ATOM      1  C1  DEN d   1      -0.108   0.791   0.187  0.00  0.00     0.130 A 
ATOM      2  C2  DEN d   1       0.958   0.004  -0.428  0.00  0.00    -0.031 A 
ATOM      3  C3  DEN d   1       0.784  -1.403  -0.015  0.00  0.00     0.027 A 
ATOM      4  C4  DEN d   1      -1.026  -2.435   1.506  0.00  0.00     0.027 A 
ATOM      5  C5  DEN d   1      -2.137  -2.163   2.272  0.00  0.00    -0.003 A 
ATOM      6  C6  DEN d   1      -2.626  -0.892   2.423  0.00  0.00     0.001 A 
ATOM      7  C7  DEN d   1      -2.028   0.148   1.762  0.00  0.00     0.017 A 
ATOM      8  C8  DEN d   1      -0.903  -0.118   0.994  0.00  0.00    -0.094 A 
ATOM      9  C9  DEN d   1      -0.431  -1.411   0.843  0.00  0.00    -0.072 A 
ENDROOT
TORSDOF 0
ENDMDL
