MODEL 1
REMARK minimizedAffinity -4.80430412
REMARK minimizedRMSD -1
REMARK  0 active torsions:
REMARK  status: ('A' for Active; 'I' for Inactive)
ROOT
ATOM      1  C1  DEN d   1      -2.224  -1.415   2.622  0.00  0.00     0.130 A 
ATOM      2  C2  DEN d   1      -2.796  -0.082   2.787  0.00  0.00    -0.031 A 
ATOM      3  C3  DEN d   1      -2.176   0.809   1.785  0.00  0.00     0.027 A 
ATOM      4  C4  DEN d   1      -0.399   0.253   0.001  0.00  0.00     0.027 A 
ATOM      5  C5  DEN d   1       0.399  -0.743  -0.517  0.00  0.00    -0.003 A 
ATOM      6  C6  DEN d   1       0.404  -2.014  -0.006  0.00  0.00     0.001 A 
ATOM      7  C7  DEN d   1      -0.439  -2.334   1.025  0.00  0.00     0.017 A 
ATOM      8  C8  DEN d   1      -1.241  -1.333   1.557  0.00  0.00    -0.094 A 
ATOM      9  C9  DEN d   1      -1.240  -0.057   1.019  0.00  0.00    -0.072 A 
ENDROOT
TORSDOF 0
ENDMDL
