MODEL 1
REMARK minimizedAffinity -3.62142372
REMARK minimizedRMSD -1
REMARK  0 active torsions:
REMARK  status: ('A' for Active; 'I' for Inactive)
ROOT
ATOM      1  C1  DEN d   1       0.418   1.381   0.252  0.00  0.00     0.130 A 
ATOM      2  C2  DEN d   1       0.797  -0.029   0.265  0.00  0.00    -0.031 A 
ATOM      3  C3  DEN d   1       1.011  -0.458  -1.132  0.00  0.00     0.027 A 
ATOM      4  C4  DEN d   1       0.796   0.919  -3.302  0.00  0.00     0.027 A 
ATOM      5  C5  DEN d   1       0.487   2.157  -3.820  0.00  0.00    -0.003 A 
ATOM      6  C6  DEN d   1       0.103   3.205  -3.027  0.00  0.00     0.001 A 
ATOM      7  C7  DEN d   1       0.062   3.047  -1.666  0.00  0.00     0.017 A 
ATOM      8  C8  DEN d   1       0.366   1.800  -1.137  0.00  0.00    -0.094 A 
ATOM      9  C9  DEN d   1       0.763   0.756  -1.955  0.00  0.00    -0.072 A 
ENDROOT
TORSDOF 0
ENDMDL
