MODEL 1
REMARK minimizedAffinity -2.21160626
REMARK minimizedRMSD -1
REMARK  0 active torsions:
REMARK  status: ('A' for Active; 'I' for Inactive)
ROOT
ATOM      1  C1  DEN d   1       1.044   1.065  -3.699  0.00  0.00     0.130 A 
ATOM      2  C2  DEN d   1       1.460   2.458  -3.838  0.00  0.00    -0.031 A 
ATOM      3  C3  DEN d   1       1.617   3.025  -2.484  0.00  0.00     0.027 A 
ATOM      4  C4  DEN d   1       1.264   1.885  -0.197  0.00  0.00     0.027 A 
ATOM      5  C5  DEN d   1       0.899   0.714   0.429  0.00  0.00    -0.003 A 
ATOM      6  C6  DEN d   1       0.527  -0.403  -0.271  0.00  0.00     0.001 A 
ATOM      7  C7  DEN d   1       0.555  -0.386  -1.640  0.00  0.00     0.017 A 
ATOM      8  C8  DEN d   1       0.915   0.793  -2.279  0.00  0.00    -0.094 A 
ATOM      9  C9  DEN d   1       1.300   1.908  -1.553  0.00  0.00    -0.072 A 
ENDROOT
TORSDOF 0
ENDMDL
