MODEL 1
REMARK minimizedAffinity -0.187245741
REMARK minimizedRMSD -1
REMARK  0 active torsions:
REMARK  status: ('A' for Active; 'I' for Inactive)
ROOT
ATOM      1  C1  DEN d   1       1.812  -0.082  -0.331  0.00  0.00     0.130 A 
ATOM      2  C2  DEN d   1       0.666  -0.025   0.572  0.00  0.00    -0.031 A 
ATOM      3  C3  DEN d   1      -0.379   0.800  -0.067  0.00  0.00     0.027 A 
ATOM      4  C4  DEN d   1      -0.337   1.982  -2.359  0.00  0.00     0.027 A 
ATOM      5  C5  DEN d   1       0.424   2.231  -3.480  0.00  0.00    -0.003 A 
ATOM      6  C6  DEN d   1       1.703   1.759  -3.614  0.00  0.00     0.001 A 
ATOM      7  C7  DEN d   1       2.244   0.974  -2.629  0.00  0.00     0.017 A 
ATOM      8  C8  DEN d   1       1.485   0.725  -1.493  0.00  0.00    -0.094 A 
ATOM      9  C9  DEN d   1       0.190   1.201  -1.382  0.00  0.00    -0.072 A 
ENDROOT
TORSDOF 0
ENDMDL
