MODEL 1
REMARK minimizedAffinity -3.2622633
REMARK minimizedRMSD -1
REMARK  1 active torsions:
REMARK  status: ('A' for Active; 'I' for Inactive)
REMARK    1  A    between atoms: C1_2  and  C2_3 
ROOT
ATOM      1  C2  UNL d   1      -0.450   0.268   1.439  0.00  0.00    -0.076 A 
ATOM      2  C3  UNL d   1      -1.799   0.290   1.043  0.00  0.00     0.004 A 
ATOM      3  C4  UNL d   1      -2.152   0.486  -0.291  0.00  0.00    -0.003 A 
ATOM      4  C5  UNL d   1      -1.162   0.663  -1.251  0.00  0.00     0.000 A 
ATOM      5  C6  UNL d   1       0.182   0.627  -0.879  0.00  0.00     0.000 A 
ATOM      6  C7  UNL d   1       0.555   0.414   0.459  0.00  0.00    -0.073 A 
ATOM      7  C8  UNL d   1       2.018   0.390   0.806  0.00  0.00     0.078 C 
ENDROOT
BRANCH   1   8
ATOM      8  C1  UNL d   1      -0.129   0.078   2.904  0.00  0.00     0.053 C 
ATOM      9  C   UNL d   1      -1.251  -0.613   3.663  0.00  0.00     0.018 C 
ENDBRANCH   1   8
TORSDOF 1
ENDMDL
