MODEL 1
REMARK minimizedAffinity -5.42103291
REMARK minimizedRMSD -1
REMARK  1 active torsions:
REMARK  status: ('A' for Active; 'I' for Inactive)
REMARK    1  A    between atoms: C1_2  and  C2_3 
ROOT
ATOM      1  C2  UNL d   1      -1.006  -0.025   1.267  0.00  0.00    -0.076 A 
ATOM      2  C3  UNL d   1      -2.204   0.358   0.640  0.00  0.00     0.004 A 
ATOM      3  C4  UNL d   1      -2.205   0.865  -0.658  0.00  0.00    -0.003 A 
ATOM      4  C5  UNL d   1      -1.006   0.998  -1.351  0.00  0.00     0.000 A 
ATOM      5  C6  UNL d   1       0.190   0.607  -0.751  0.00  0.00     0.000 A 
ATOM      6  C7  UNL d   1       0.206   0.078   0.551  0.00  0.00    -0.073 A 
ATOM      7  C8  UNL d   1       1.526  -0.322   1.151  0.00  0.00     0.078 C 
ENDROOT
BRANCH   1   8
ATOM      8  C1  UNL d   1      -1.064  -0.543   2.686  0.00  0.00     0.053 C 
ATOM      9  C   UNL d   1      -0.886   0.560   3.717  0.00  0.00     0.018 C 
ENDBRANCH   1   8
TORSDOF 1
ENDMDL
