MODEL 1
REMARK minimizedAffinity -3.0640533
REMARK minimizedRMSD -1
REMARK  1 active torsions:
REMARK  status: ('A' for Active; 'I' for Inactive)
REMARK    1  A    between atoms: C1_2  and  C2_3 
ROOT
ATOM      1  C2  UNL d   1       0.356   0.396   2.374  0.00  0.00    -0.076 A 
ATOM      2  C3  UNL d   1       1.049   0.791   1.217  0.00  0.00     0.004 A 
ATOM      3  C4  UNL d   1       0.672   0.323  -0.040  0.00  0.00    -0.003 A 
ATOM      4  C5  UNL d   1      -0.406  -0.548  -0.161  0.00  0.00     0.000 A 
ATOM      5  C6  UNL d   1      -1.116  -0.936   0.974  0.00  0.00     0.000 A 
ATOM      6  C7  UNL d   1      -0.759  -0.461   2.248  0.00  0.00    -0.073 A 
ATOM      7  C8  UNL d   1      -1.556  -0.918   3.438  0.00  0.00     0.078 C 
ENDROOT
BRANCH   1   8
ATOM      8  C1  UNL d   1       0.828   0.914   3.714  0.00  0.00     0.053 C 
ATOM      9  C   UNL d   1       0.372   2.340   3.980  0.00  0.00     0.018 C 
ENDBRANCH   1   8
TORSDOF 1
ENDMDL
