MODEL 1
REMARK minimizedAffinity -4.15426302
REMARK minimizedRMSD -1
REMARK  1 active torsions:
REMARK  status: ('A' for Active; 'I' for Inactive)
REMARK    1  A    between atoms: C1_2  and  C2_3 
ROOT
ATOM      1  C2  UNL d   1      -0.050   0.085   0.368  0.00  0.00    -0.076 A 
ATOM      2  C3  UNL d   1      -1.206  -0.628   0.731  0.00  0.00     0.004 A 
ATOM      3  C4  UNL d   1      -1.442  -0.986   2.057  0.00  0.00    -0.003 A 
ATOM      4  C5  UNL d   1      -0.527  -0.635   3.043  0.00  0.00     0.000 A 
ATOM      5  C6  UNL d   1       0.616   0.088   2.704  0.00  0.00     0.000 A 
ATOM      6  C7  UNL d   1       0.862   0.471   1.374  0.00  0.00    -0.073 A 
ATOM      7  C8  UNL d   1       2.114   1.245   1.065  0.00  0.00     0.078 C 
ENDROOT
BRANCH   1   8
ATOM      8  C1  UNL d   1       0.166   0.422  -1.090  0.00  0.00     0.053 C 
ATOM      9  C   UNL d   1       0.720  -0.752  -1.882  0.00  0.00     0.018 C 
ENDBRANCH   1   8
TORSDOF 1
ENDMDL
