MODEL 1
REMARK minimizedAffinity -2.83860898
REMARK minimizedRMSD -1
REMARK  1 active torsions:
REMARK  status: ('A' for Active; 'I' for Inactive)
REMARK    1  A    between atoms: C1_2  and  C2_3 
ROOT
ATOM      1  C2  UNL d   1      -0.034   0.097  -0.497  0.00  0.00    -0.076 A 
ATOM      2  C3  UNL d   1      -1.262  -0.514  -0.190  0.00  0.00     0.004 A 
ATOM      3  C4  UNL d   1      -1.584  -0.860   1.121  0.00  0.00    -0.003 A 
ATOM      4  C5  UNL d   1      -0.682  -0.600   2.147  0.00  0.00     0.000 A 
ATOM      5  C6  UNL d   1       0.533   0.021   1.864  0.00  0.00     0.000 A 
ATOM      6  C7  UNL d   1       0.866   0.391   0.550  0.00  0.00    -0.073 A 
ATOM      7  C8  UNL d   1       2.194   1.054   0.300  0.00  0.00     0.078 C 
ENDROOT
BRANCH   1   8
ATOM      8  C1  UNL d   1       0.272   0.425  -1.941  0.00  0.00     0.053 C 
ATOM      9  C   UNL d   1       0.124  -0.781  -2.856  0.00  0.00     0.018 C 
ENDBRANCH   1   8
TORSDOF 1
ENDMDL
