MODEL 1
REMARK minimizedAffinity -4.15954065
REMARK minimizedRMSD -1
REMARK  1 active torsions:
REMARK  status: ('A' for Active; 'I' for Inactive)
REMARK    1  A    between atoms: C1_2  and  C2_3 
ROOT
ATOM      1  C2  UNL d   1       0.064   0.318   1.219  0.00  0.00    -0.076 A 
ATOM      2  C3  UNL d   1       1.451   0.167   1.050  0.00  0.00     0.004 A 
ATOM      3  C4  UNL d   1       2.029   0.215  -0.218  0.00  0.00    -0.003 A 
ATOM      4  C5  UNL d   1       1.228   0.415  -1.337  0.00  0.00     0.000 A 
ATOM      5  C6  UNL d   1      -0.148   0.585  -1.186  0.00  0.00     0.000 A 
ATOM      6  C7  UNL d   1      -0.744   0.556   0.086  0.00  0.00    -0.073 A 
ATOM      7  C8  UNL d   1      -2.233   0.738   0.190  0.00  0.00     0.078 C 
ENDROOT
BRANCH   1   8
ATOM      8  C1  UNL d   1      -0.510   0.230   2.615  0.00  0.00     0.053 C 
ATOM      9  C   UNL d   1      -0.659  -1.206   3.094  0.00  0.00     0.018 C 
ENDBRANCH   1   8
TORSDOF 1
ENDMDL
