MODEL 1
REMARK minimizedAffinity -2.1362505
REMARK minimizedRMSD -1
REMARK  1 active torsions:
REMARK  status: ('A' for Active; 'I' for Inactive)
REMARK    1  A    between atoms: C1_2  and  C2_3 
ROOT
ATOM      1  C2  UNL d   1       0.123  -0.033   1.470  0.00  0.00    -0.076 A 
ATOM      2  C3  UNL d   1      -0.978  -0.684   0.888  0.00  0.00     0.004 A 
ATOM      3  C4  UNL d   1      -1.933  -1.323   1.677  0.00  0.00    -0.003 A 
ATOM      4  C5  UNL d   1      -1.802  -1.321   3.061  0.00  0.00     0.000 A 
ATOM      5  C6  UNL d   1      -0.725  -0.665   3.657  0.00  0.00     0.000 A 
ATOM      6  C7  UNL d   1       0.238  -0.002   2.877  0.00  0.00    -0.073 A 
ATOM      7  C8  UNL d   1       1.382   0.685   3.571  0.00  0.00     0.078 C 
ENDROOT
BRANCH   1   8
ATOM      8  C1  UNL d   1       1.141   0.620   0.563  0.00  0.00     0.053 C 
ATOM      9  C   UNL d   1       0.800   0.455  -0.910  0.00  0.00     0.018 C 
ENDBRANCH   1   8
TORSDOF 1
ENDMDL
