MODEL 1
REMARK minimizedAffinity -4.88934278
REMARK minimizedRMSD -1
REMARK  1 active torsions:
REMARK  status: ('A' for Active; 'I' for Inactive)
REMARK    1  A    between atoms: C1_2  and  C2_3 
ROOT
ATOM      1  C2  UNL d   1      -1.069  -0.003   1.270  0.00  0.00    -0.076 A 
ATOM      2  C3  UNL d   1      -2.448  -0.004   0.998  0.00  0.00     0.004 A 
ATOM      3  C4  UNL d   1      -2.934   0.401  -0.244  0.00  0.00    -0.003 A 
ATOM      4  C5  UNL d   1      -2.049   0.814  -1.234  0.00  0.00     0.000 A 
ATOM      5  C6  UNL d   1      -0.677   0.806  -0.987  0.00  0.00     0.000 A 
ATOM      6  C7  UNL d   1      -0.169   0.384   0.254  0.00  0.00    -0.073 A 
ATOM      7  C8  UNL d   1       1.320   0.401   0.468  0.00  0.00     0.078 C 
ENDROOT
BRANCH   1   8
ATOM      8  C1  UNL d   1      -0.601  -0.427   2.644  0.00  0.00     0.053 C 
ATOM      9  C   UNL d   1      -1.747  -0.882   3.534  0.00  0.00     0.018 C 
ENDBRANCH   1   8
TORSDOF 1
ENDMDL
