MODEL 1
REMARK minimizedAffinity -0.567188501
REMARK minimizedRMSD -1
REMARK  1 active torsions:
REMARK  status: ('A' for Active; 'I' for Inactive)
REMARK    1  A    between atoms: C1_2  and  C2_3 
ROOT
ATOM      1  C2  UNL d   1       0.291   0.246   0.229  0.00  0.00    -0.076 A 
ATOM      2  C3  UNL d   1      -0.629  -0.719   0.675  0.00  0.00     0.004 A 
ATOM      3  C4  UNL d   1      -0.670  -1.106   2.013  0.00  0.00    -0.003 A 
ATOM      4  C5  UNL d   1       0.208  -0.535   2.928  0.00  0.00     0.000 A 
ATOM      5  C6  UNL d   1       1.115   0.437   2.507  0.00  0.00     0.000 A 
ATOM      6  C7  UNL d   1       1.159   0.851   1.164  0.00  0.00    -0.073 A 
ATOM      7  C8  UNL d   1       2.162   1.898   0.764  0.00  0.00     0.078 C 
ENDROOT
BRANCH   1   8
ATOM      8  C1  UNL d   1       0.308   0.607  -1.239  0.00  0.00     0.053 C 
ATOM      9  C   UNL d   1       0.547  -0.600  -2.133  0.00  0.00     0.018 C 
ENDBRANCH   1   8
TORSDOF 1
ENDMDL
