MODEL 1
REMARK minimizedAffinity -3.7915194
REMARK minimizedRMSD -1
REMARK  1 active torsions:
REMARK  status: ('A' for Active; 'I' for Inactive)
REMARK    1  A    between atoms: C1_2  and  C2_3 
ROOT
ATOM      1  C2  UNL d   1      -0.661   0.132   0.310  0.00  0.00    -0.076 A 
ATOM      2  C3  UNL d   1       0.563  -0.236   0.895  0.00  0.00     0.004 A 
ATOM      3  C4  UNL d   1       0.631  -0.622   2.233  0.00  0.00    -0.003 A 
ATOM      4  C5  UNL d   1      -0.524  -0.649   3.006  0.00  0.00     0.000 A 
ATOM      5  C6  UNL d   1      -1.750  -0.304   2.437  0.00  0.00     0.000 A 
ATOM      6  C7  UNL d   1      -1.839   0.073   1.086  0.00  0.00    -0.073 A 
ATOM      7  C8  UNL d   1      -3.185   0.440   0.526  0.00  0.00     0.078 C 
ENDROOT
BRANCH   1   8
ATOM      8  C1  UNL d   1      -0.670   0.569  -1.137  0.00  0.00     0.053 C 
ATOM      9  C   UNL d   1       0.500  -0.001  -1.925  0.00  0.00     0.018 C 
ENDBRANCH   1   8
TORSDOF 1
ENDMDL
