MODEL 1
REMARK minimizedAffinity 0.399738133
REMARK minimizedRMSD -1
REMARK  0 active torsions:
REMARK  status: ('A' for Active; 'I' for Inactive)
ROOT
ATOM      1  C   UNL d   1       0.419  -0.083   1.189  0.00  0.00     0.172 C 
ATOM      2  N   UNL d   1      -0.512  -0.934   1.892  0.00  0.00    -0.070 N 
ATOM      3  C1  UNL d   1      -0.432  -1.285   3.213  0.00  0.00    -0.004 A 
ATOM      4  C2  UNL d   1      -1.503  -2.103   3.498  0.00  0.00    -0.047 A 
ATOM      5  C3  UNL d   1      -2.253  -2.250   2.307  0.00  0.00    -0.047 A 
ATOM      6  C4  UNL d   1      -1.617  -1.516   1.328  0.00  0.00    -0.004 A 
ENDROOT
TORSDOF 0
ENDMDL
