MODEL 1
REMARK minimizedAffinity -2.80140376
REMARK minimizedRMSD -1
REMARK  0 active torsions:
REMARK  status: ('A' for Active; 'I' for Inactive)
ROOT
ATOM      1  C   UNL d   1      -1.497  -6.000  -5.955  0.00  0.00     0.172 C 
ATOM      2  N   UNL d   1      -2.576  -5.254  -5.351  0.00  0.00    -0.070 N 
ATOM      3  C1  UNL d   1      -2.802  -3.912  -5.503  0.00  0.00    -0.004 A 
ATOM      4  C2  UNL d   1      -3.924  -3.588  -4.770  0.00  0.00    -0.047 A 
ATOM      5  C3  UNL d   1      -4.387  -4.776  -4.156  0.00  0.00    -0.047 A 
ATOM      6  C4  UNL d   1      -3.534  -5.792  -4.532  0.00  0.00    -0.004 A 
ENDROOT
TORSDOF 0
ENDMDL
