MODEL 1
REMARK minimizedAffinity -3.0330255
REMARK minimizedRMSD -1
REMARK  0 active torsions:
REMARK  status: ('A' for Active; 'I' for Inactive)
ROOT
ATOM      1  C   UNL d   1      -2.792  -6.000  -4.855  0.00  0.00     0.172 C 
ATOM      2  N   UNL d   1      -3.439  -4.712  -4.767  0.00  0.00    -0.070 N 
ATOM      3  C1  UNL d   1      -3.340  -3.704  -5.689  0.00  0.00    -0.004 A 
ATOM      4  C2  UNL d   1      -4.102  -2.647  -5.241  0.00  0.00    -0.047 A 
ATOM      5  C3  UNL d   1      -4.678  -3.032  -4.007  0.00  0.00    -0.047 A 
ATOM      6  C4  UNL d   1      -4.251  -4.315  -3.737  0.00  0.00    -0.004 A 
ENDROOT
TORSDOF 0
ENDMDL
