MODEL 1
REMARK minimizedAffinity -2.83973312
REMARK minimizedRMSD -1
REMARK  0 active torsions:
REMARK  status: ('A' for Active; 'I' for Inactive)
ROOT
ATOM      1  C   UNL d   1      -2.958  -4.749  -5.807  0.00  0.00     0.172 C 
ATOM      2  N   UNL d   1      -4.037  -4.088  -5.111  0.00  0.00    -0.070 N 
ATOM      3  C1  UNL d   1      -5.012  -3.322  -5.692  0.00  0.00    -0.004 A 
ATOM      4  C2  UNL d   1      -5.849  -2.874  -4.693  0.00  0.00    -0.047 A 
ATOM      5  C3  UNL d   1      -5.360  -3.387  -3.469  0.00  0.00    -0.047 A 
ATOM      6  C4  UNL d   1      -4.237  -4.135  -3.756  0.00  0.00    -0.004 A 
ENDROOT
TORSDOF 0
ENDMDL
