MODEL 1
REMARK minimizedAffinity -3.00969863
REMARK minimizedRMSD -1
REMARK  0 active torsions:
REMARK  status: ('A' for Active; 'I' for Inactive)
ROOT
ATOM      1  C   UNL d   1      -2.022  -4.788  -5.623  0.00  0.00     0.172 C 
ATOM      2  N   UNL d   1      -3.217  -4.096  -5.201  0.00  0.00    -0.070 N 
ATOM      3  C1  UNL d   1      -3.904  -4.327  -4.039  0.00  0.00    -0.004 A 
ATOM      4  C2  UNL d   1      -4.980  -3.466  -4.006  0.00  0.00    -0.047 A 
ATOM      5  C3  UNL d   1      -4.939  -2.692  -5.190  0.00  0.00    -0.047 A 
ATOM      6  C4  UNL d   1      -3.838  -3.103  -5.911  0.00  0.00    -0.004 A 
ENDROOT
TORSDOF 0
ENDMDL
