MODEL 1
REMARK minimizedAffinity -2.74416757
REMARK minimizedRMSD -1
REMARK  0 active torsions:
REMARK  status: ('A' for Active; 'I' for Inactive)
ROOT
ATOM      1  C   UNL d   1      -1.914  -5.097  -5.643  0.00  0.00     0.172 C 
ATOM      2  N   UNL d   1      -3.247  -4.713  -5.242  0.00  0.00    -0.070 N 
ATOM      3  C1  UNL d   1      -3.884  -3.554  -5.595  0.00  0.00    -0.004 A 
ATOM      4  C2  UNL d   1      -5.133  -3.565  -5.013  0.00  0.00    -0.047 A 
ATOM      5  C3  UNL d   1      -5.251  -4.773  -4.285  0.00  0.00    -0.047 A 
ATOM      6  C4  UNL d   1      -4.069  -5.465  -4.444  0.00  0.00    -0.004 A 
ENDROOT
TORSDOF 0
ENDMDL
