MODEL 1
REMARK minimizedAffinity -2.74731922
REMARK minimizedRMSD -1
REMARK  0 active torsions:
REMARK  status: ('A' for Active; 'I' for Inactive)
ROOT
ATOM      1  C   UNL d   1      -2.530  -3.874  -5.991  0.00  0.00     0.172 C 
ATOM      2  N   UNL d   1      -3.713  -3.938  -5.166  0.00  0.00    -0.070 N 
ATOM      3  C1  UNL d   1      -3.991  -4.911  -4.244  0.00  0.00    -0.004 A 
ATOM      4  C2  UNL d   1      -5.208  -4.613  -3.670  0.00  0.00    -0.047 A 
ATOM      5  C3  UNL d   1      -5.678  -3.419  -4.268  0.00  0.00    -0.047 A 
ATOM      6  C4  UNL d   1      -4.732  -3.023  -5.191  0.00  0.00    -0.004 A 
ENDROOT
TORSDOF 0
ENDMDL
