MODEL 1
REMARK minimizedAffinity -2.77237654
REMARK minimizedRMSD -1
REMARK  0 active torsions:
REMARK  status: ('A' for Active; 'I' for Inactive)
ROOT
ATOM      1  C   UNL d   1      -1.664  -5.609  -5.576  0.00  0.00     0.172 C 
ATOM      2  N   UNL d   1      -2.999  -5.170  -5.244  0.00  0.00    -0.070 N 
ATOM      3  C1  UNL d   1      -3.345  -3.912  -4.828  0.00  0.00    -0.004 A 
ATOM      4  C2  UNL d   1      -4.707  -3.897  -4.616  0.00  0.00    -0.047 A 
ATOM      5  C3  UNL d   1      -5.196  -5.192  -4.914  0.00  0.00    -0.047 A 
ATOM      6  C4  UNL d   1      -4.118  -5.959  -5.300  0.00  0.00    -0.004 A 
ENDROOT
TORSDOF 0
ENDMDL
