MODEL 1
REMARK minimizedAffinity -2.8281734
REMARK minimizedRMSD -1
REMARK  0 active torsions:
REMARK  status: ('A' for Active; 'I' for Inactive)
ROOT
ATOM      1  C   UNL d   1      -2.376  -4.879  -5.200  0.00  0.00     0.172 C 
ATOM      2  N   UNL d   1      -3.595  -4.223  -4.790  0.00  0.00    -0.070 N 
ATOM      3  C1  UNL d   1      -4.053  -4.121  -3.504  0.00  0.00    -0.004 A 
ATOM      4  C2  UNL d   1      -5.243  -3.426  -3.533  0.00  0.00    -0.047 A 
ATOM      5  C3  UNL d   1      -5.510  -3.100  -4.884  0.00  0.00    -0.047 A 
ATOM      6  C4  UNL d   1      -4.474  -3.605  -5.641  0.00  0.00    -0.004 A 
ENDROOT
TORSDOF 0
ENDMDL
