MODEL 1
REMARK minimizedAffinity -2.28906536
REMARK minimizedRMSD -1
REMARK  0 active torsions:
REMARK  status: ('A' for Active; 'I' for Inactive)
ROOT
ATOM      1  C   UNL d   1      -2.138  -4.908  -5.291  0.00  0.00     0.172 C 
ATOM      2  N   UNL d   1      -3.570  -4.951  -5.471  0.00  0.00    -0.070 N 
ATOM      3  C1  UNL d   1      -4.277  -5.998  -6.000  0.00  0.00    -0.004 A 
ATOM      4  C2  UNL d   1      -5.610  -5.649  -6.000  0.00  0.00    -0.047 A 
ATOM      5  C3  UNL d   1      -5.708  -4.348  -5.453  0.00  0.00    -0.047 A 
ATOM      6  C4  UNL d   1      -4.430  -3.939  -5.134  0.00  0.00    -0.004 A 
ENDROOT
TORSDOF 0
ENDMDL
