MODEL 1
REMARK minimizedAffinity -2.54221463
REMARK minimizedRMSD -1
REMARK  0 active torsions:
REMARK  status: ('A' for Active; 'I' for Inactive)
ROOT
ATOM      1  C   UNL d   1      -4.391  -2.685  -5.695  0.00  0.00     0.172 C 
ATOM      2  N   UNL d   1      -4.754  -3.797  -4.848  0.00  0.00    -0.070 N 
ATOM      3  C1  UNL d   1      -6.000  -4.031  -4.329  0.00  0.00    -0.004 A 
ATOM      4  C2  UNL d   1      -5.934  -5.186  -3.580  0.00  0.00    -0.047 A 
ATOM      5  C3  UNL d   1      -4.603  -5.662  -3.650  0.00  0.00    -0.047 A 
ATOM      6  C4  UNL d   1      -3.894  -4.783  -4.441  0.00  0.00    -0.004 A 
ENDROOT
TORSDOF 0
ENDMDL
