MODEL 1
REMARK minimizedAffinity -2.69505072
REMARK minimizedRMSD -1
REMARK  0 active torsions:
REMARK  status: ('A' for Active; 'I' for Inactive)
ROOT
ATOM      1  C   UNL d   1      -2.573  -4.350  -6.000  0.00  0.00     0.172 C 
ATOM      2  N   UNL d   1      -3.882  -3.948  -5.541  0.00  0.00    -0.070 N 
ATOM      3  C1  UNL d   1      -4.628  -4.592  -4.590  0.00  0.00    -0.004 A 
ATOM      4  C2  UNL d   1      -5.808  -3.897  -4.437  0.00  0.00    -0.047 A 
ATOM      5  C3  UNL d   1      -5.771  -2.797  -5.328  0.00  0.00    -0.047 A 
ATOM      6  C4  UNL d   1      -4.567  -2.853  -5.998  0.00  0.00    -0.004 A 
ENDROOT
TORSDOF 0
ENDMDL
