MODEL 1
REMARK minimizedAffinity -3.42316866
REMARK minimizedRMSD -1
REMARK  0 active torsions:
REMARK  status: ('A' for Active; 'I' for Inactive)
ROOT
ATOM      1  C   UNL d   1      -2.285  -4.510  -5.330  0.00  0.00     0.172 C 
ATOM      2  N   UNL d   1      -3.618  -4.038  -5.035  0.00  0.00    -0.070 N 
ATOM      3  C1  UNL d   1      -4.504  -3.529  -5.947  0.00  0.00    -0.004 A 
ATOM      4  C2  UNL d   1      -5.658  -3.194  -5.272  0.00  0.00    -0.047 A 
ATOM      5  C3  UNL d   1      -5.459  -3.513  -3.908  0.00  0.00    -0.047 A 
ATOM      6  C4  UNL d   1      -4.187  -4.033  -3.789  0.00  0.00    -0.004 A 
ENDROOT
TORSDOF 0
ENDMDL
