MODEL 1
REMARK minimizedAffinity -2.4248786
REMARK minimizedRMSD -1
REMARK  0 active torsions:
REMARK  status: ('A' for Active; 'I' for Inactive)
ROOT
ATOM      1  C   UNL d   1      -5.517  -3.720  -4.848  0.00  0.00     0.172 C 
ATOM      2  N   UNL d   1      -4.237  -4.330  -5.119  0.00  0.00    -0.070 N 
ATOM      3  C1  UNL d   1      -3.962  -5.670  -5.058  0.00  0.00    -0.004 A 
ATOM      4  C2  UNL d   1      -2.635  -5.844  -5.385  0.00  0.00    -0.047 A 
ATOM      5  C3  UNL d   1      -2.092  -4.564  -5.650  0.00  0.00    -0.047 A 
ATOM      6  C4  UNL d   1      -3.106  -3.645  -5.478  0.00  0.00    -0.004 A 
ENDROOT
TORSDOF 0
ENDMDL
