MODEL 1
REMARK minimizedAffinity -2.83308387
REMARK minimizedRMSD -1
REMARK  0 active torsions:
REMARK  status: ('A' for Active; 'I' for Inactive)
ROOT
ATOM      1  C   UNL d   1      -1.976  -4.775  -5.999  0.00  0.00     0.172 C 
ATOM      2  N   UNL d   1      -3.223  -4.194  -5.560  0.00  0.00    -0.070 N 
ATOM      3  C1  UNL d   1      -4.083  -4.745  -4.648  0.00  0.00    -0.004 A 
ATOM      4  C2  UNL d   1      -5.151  -3.887  -4.502  0.00  0.00    -0.047 A 
ATOM      5  C3  UNL d   1      -4.926  -2.782  -5.357  0.00  0.00    -0.047 A 
ATOM      6  C4  UNL d   1      -3.725  -2.998  -6.000  0.00  0.00    -0.004 A 
ENDROOT
TORSDOF 0
ENDMDL
