MODEL 1
REMARK minimizedAffinity -3.21216154
REMARK minimizedRMSD -1
REMARK  0 active torsions:
REMARK  status: ('A' for Active; 'I' for Inactive)
ROOT
ATOM      1  C   UNL d   1      -1.748  -4.629  -5.272  0.00  0.00     0.172 C 
ATOM      2  N   UNL d   1      -3.031  -4.083  -4.897  0.00  0.00    -0.070 N 
ATOM      3  C1  UNL d   1      -3.582  -2.929  -5.388  0.00  0.00    -0.004 A 
ATOM      4  C2  UNL d   1      -4.808  -2.756  -4.784  0.00  0.00    -0.047 A 
ATOM      5  C3  UNL d   1      -5.001  -3.843  -3.898  0.00  0.00    -0.047 A 
ATOM      6  C4  UNL d   1      -3.885  -4.649  -3.988  0.00  0.00    -0.004 A 
ENDROOT
TORSDOF 0
ENDMDL
