MODEL 1
REMARK minimizedAffinity 19.2433147
REMARK minimizedRMSD -1
REMARK  3 active torsions:
REMARK  status: ('A' for Active; 'I' for Inactive)
REMARK    1  A    between atoms: C3'_2  and  C2'_3 
REMARK    2  A    between atoms: C2'_3  and  C1'_4 
REMARK    3  A    between atoms: C1'_4  and  C1_5 
ROOT
ATOM      1  C1  N4B d   1      -3.777  -4.214  -4.133  0.00  0.00    -0.075 A 
ATOM      2  C2  N4B d   1      -5.140  -4.249  -3.765  0.00  0.00     0.002 A 
ATOM      3  C3  N4B d   1      -5.990  -5.144  -4.367  0.00  0.00     0.002 A 
ATOM      4  C4  N4B d   1      -5.506  -5.998  -5.347  0.00  0.00    -0.004 A 
ATOM      5  C5  N4B d   1      -4.183  -5.975  -5.678  0.00  0.00     0.002 A 
ATOM      6  C6  N4B d   1      -3.316  -5.083  -5.079  0.00  0.00     0.002 A 
ENDROOT
BRANCH   1   7
ATOM      7  C1' N4B d   1      -2.828  -3.194  -3.565  0.00  0.00     0.057 C 
BRANCH   7   8
ATOM      8  C2' N4B d   1      -3.416  -2.624  -2.278  0.00  0.00     0.009 C 
BRANCH   8   9
ATOM      9  C3' N4B d   1      -2.344  -2.335  -1.241  0.00  0.00     0.004 C 
ATOM     10  C4' N4B d   1      -2.884  -2.297   0.157  0.00  0.00     0.003 C 
ENDBRANCH   8   9
ENDBRANCH   7   8
ENDBRANCH   1   7
TORSDOF 3
ENDMDL
