MODEL 1
REMARK minimizedAffinity 9.32511139
REMARK minimizedRMSD -1
REMARK  3 active torsions:
REMARK  status: ('A' for Active; 'I' for Inactive)
REMARK    1  A    between atoms: C3'_2  and  C2'_3 
REMARK    2  A    between atoms: C2'_3  and  C1'_4 
REMARK    3  A    between atoms: C1'_4  and  C1_5 
ROOT
ATOM      1  C1  N4B d   1      -2.804   3.865   0.212  0.00  0.00    -0.075 A 
ATOM      2  C2  N4B d   1      -2.850   4.965   1.097  0.00  0.00     0.002 A 
ATOM      3  C3  N4B d   1      -3.721   6.000   0.861  0.00  0.00     0.002 A 
ATOM      4  C4  N4B d   1      -4.539   5.967  -0.258  0.00  0.00    -0.004 A 
ATOM      5  C5  N4B d   1      -4.507   4.889  -1.094  0.00  0.00     0.002 A 
ATOM      6  C6  N4B d   1      -3.639   3.840  -0.867  0.00  0.00     0.002 A 
ENDROOT
BRANCH   1   7
ATOM      7  C1' N4B d   1      -1.808   2.751   0.381  0.00  0.00     0.057 C 
BRANCH   7   8
ATOM      8  C2' N4B d   1      -0.751   3.174   1.396  0.00  0.00     0.009 C 
BRANCH   8   9
ATOM      9  C3' N4B d   1       0.495   3.726   0.724  0.00  0.00     0.004 C 
ATOM     10  C4' N4B d   1       0.773   5.151   1.097  0.00  0.00     0.003 C 
ENDBRANCH   8   9
ENDBRANCH   7   8
ENDBRANCH   1   7
TORSDOF 3
ENDMDL
