MODEL 1
REMARK minimizedAffinity 13.8542471
REMARK minimizedRMSD -1
REMARK  3 active torsions:
REMARK  status: ('A' for Active; 'I' for Inactive)
REMARK    1  A    between atoms: C3'_2  and  C2'_3 
REMARK    2  A    between atoms: C2'_3  and  C1'_4 
REMARK    3  A    between atoms: C1'_4  and  C1_5 
ROOT
ATOM      1  C1  N4B d   1       3.461   5.437  -0.763  0.00  0.00    -0.075 A 
ATOM      2  C2  N4B d   1       4.546   4.880  -0.052  0.00  0.00     0.002 A 
ATOM      3  C3  N4B d   1       5.806   4.894  -0.599  0.00  0.00     0.002 A 
ATOM      4  C4  N4B d   1       6.000   5.441  -1.859  0.00  0.00    -0.004 A 
ATOM      5  C5  N4B d   1       4.951   6.000  -2.528  0.00  0.00     0.002 A 
ATOM      6  C6  N4B d   1       3.680   5.996  -1.988  0.00  0.00     0.002 A 
ENDROOT
BRANCH   1   7
ATOM      7  C1' N4B d   1       2.051   5.368  -0.242  0.00  0.00     0.057 C 
BRANCH   7   8
ATOM      8  C2' N4B d   1       2.085   5.193   1.273  0.00  0.00     0.009 C 
BRANCH   8   9
ATOM      9  C3' N4B d   1       0.702   5.313   1.890  0.00  0.00     0.004 C 
ATOM     10  C4' N4B d   1      -0.354   4.612   1.089  0.00  0.00     0.003 C 
ENDBRANCH   8   9
ENDBRANCH   7   8
ENDBRANCH   1   7
TORSDOF 3
ENDMDL
