MODEL 1
REMARK minimizedAffinity 24.1715641
REMARK minimizedRMSD -1
REMARK  3 active torsions:
REMARK  status: ('A' for Active; 'I' for Inactive)
REMARK    1  A    between atoms: C3'_2  and  C2'_3 
REMARK    2  A    between atoms: C2'_3  and  C1'_4 
REMARK    3  A    between atoms: C1'_4  and  C1_5 
ROOT
ATOM      1  C1  N4B d   1      -1.869  -1.476   0.200  0.00  0.00    -0.075 A 
ATOM      2  C2  N4B d   1      -0.859  -1.359  -0.780  0.00  0.00     0.002 A 
ATOM      3  C3  N4B d   1       0.220  -2.209  -0.760  0.00  0.00     0.002 A 
ATOM      4  C4  N4B d   1       0.319  -3.167   0.238  0.00  0.00    -0.004 A 
ATOM      5  C5  N4B d   1      -0.673  -3.290   1.166  0.00  0.00     0.002 A 
ATOM      6  C6  N4B d   1      -1.765  -2.445   1.155  0.00  0.00     0.002 A 
ENDROOT
BRANCH   1   7
ATOM      7  C1' N4B d   1      -3.024  -0.514   0.269  0.00  0.00     0.057 C 
BRANCH   7   8
ATOM      8  C2' N4B d   1      -2.586   0.740   1.020  0.00  0.00     0.009 C 
BRANCH   8   9
ATOM      9  C3' N4B d   1      -2.316   1.901   0.078  0.00  0.00     0.004 C 
ATOM     10  C4' N4B d   1      -1.866   3.139   0.795  0.00  0.00     0.003 C 
ENDBRANCH   8   9
ENDBRANCH   7   8
ENDBRANCH   1   7
TORSDOF 3
ENDMDL
