MODEL 1
REMARK minimizedAffinity 14.3384266
REMARK minimizedRMSD -1
REMARK  3 active torsions:
REMARK  status: ('A' for Active; 'I' for Inactive)
REMARK    1  A    between atoms: C3'_2  and  C2'_3 
REMARK    2  A    between atoms: C2'_3  and  C1'_4 
REMARK    3  A    between atoms: C1'_4  and  C1_5 
ROOT
ATOM      1  C1  N4B d   1       2.421  -3.784   4.032  0.00  0.00    -0.075 A 
ATOM      2  C2  N4B d   1       2.627  -2.480   4.533  0.00  0.00     0.002 A 
ATOM      3  C3  N4B d   1       3.573  -2.258   5.503  0.00  0.00     0.002 A 
ATOM      4  C4  N4B d   1       4.309  -3.324   5.999  0.00  0.00    -0.004 A 
ATOM      5  C5  N4B d   1       4.122  -4.576   5.492  0.00  0.00     0.002 A 
ATOM      6  C6  N4B d   1       3.177  -4.813   4.514  0.00  0.00     0.002 A 
ENDROOT
BRANCH   1   7
ATOM      7  C1' N4B d   1       1.339  -4.089   3.033  0.00  0.00     0.057 C 
BRANCH   7   8
ATOM      8  C2' N4B d   1       1.389  -3.058   1.910  0.00  0.00     0.009 C 
BRANCH   8   9
ATOM      9  C3' N4B d   1       0.369  -3.351   0.823  0.00  0.00     0.004 C 
ATOM     10  C4' N4B d   1       0.257  -2.244  -0.183  0.00  0.00     0.003 C 
ENDBRANCH   8   9
ENDBRANCH   7   8
ENDBRANCH   1   7
TORSDOF 3
ENDMDL
