MODEL 1
REMARK minimizedAffinity -5.13505793
REMARK minimizedRMSD -1
REMARK  1 active torsions:
REMARK  status: ('A' for Active; 'I' for Inactive)
REMARK    1  A    between atoms: C3_4  and  O_7 
ROOT
ATOM      1  C   UNL d   1      -1.719   2.925   1.055  0.00  0.00    -0.033 A 
ATOM      2  C1  UNL d   1      -0.956   3.171  -0.088  0.00  0.00     0.039 A 
ATOM      3  C2  UNL d   1      -0.307   2.118  -0.737  0.00  0.00    -0.080 A 
ATOM      4  C3  UNL d   1      -0.430   0.826  -0.233  0.00  0.00     0.150 A 
ATOM      5  C4  UNL d   1      -1.191   0.574   0.903  0.00  0.00    -0.007 A 
ATOM      6  C5  UNL d   1      -1.838   1.626   1.550  0.00  0.00     0.039 A 
ENDROOT
BRANCH   4   7
ATOM      7  O   UNL d   1       0.189  -0.232  -0.828  0.00  0.00    -0.526 OA
ATOM      8  H5  UNL d   1       0.703   0.097  -1.585  0.00  0.00     0.418 HD
ENDBRANCH   4   7
TORSDOF 1
ENDMDL
