MODEL 1
REMARK minimizedAffinity -4.10116911
REMARK minimizedRMSD -1
REMARK  1 active torsions:
REMARK  status: ('A' for Active; 'I' for Inactive)
REMARK    1  A    between atoms: C3_4  and  O_7 
ROOT
ATOM      1  C   UNL d   1      -1.379   1.906   1.708  0.00  0.00    -0.033 A 
ATOM      2  C1  UNL d   1      -1.273   2.159   0.339  0.00  0.00     0.039 A 
ATOM      3  C2  UNL d   1      -0.654   1.230  -0.499  0.00  0.00    -0.080 A 
ATOM      4  C3  UNL d   1      -0.146   0.053   0.044  0.00  0.00     0.150 A 
ATOM      5  C4  UNL d   1      -0.252  -0.208   1.406  0.00  0.00    -0.007 A 
ATOM      6  C5  UNL d   1      -0.870   0.722   2.241  0.00  0.00     0.039 A 
ENDROOT
BRANCH   4   7
ATOM      7  O   UNL d   1       0.471  -0.882  -0.733  0.00  0.00    -0.526 OA
ATOM      8  H5  UNL d   1       0.496  -0.554  -1.647  0.00  0.00     0.418 HD
ENDBRANCH   4   7
TORSDOF 1
ENDMDL
