MODEL 1
REMARK minimizedAffinity -4.82884407
REMARK minimizedRMSD -1
REMARK  1 active torsions:
REMARK  status: ('A' for Active; 'I' for Inactive)
REMARK    1  A    between atoms: C3_4  and  O_7 
ROOT
ATOM      1  C   UNL d   1      -0.415   1.450  -0.581  0.00  0.00    -0.033 A 
ATOM      2  C1  UNL d   1       0.232   0.343  -0.029  0.00  0.00     0.039 A 
ATOM      3  C2  UNL d   1       0.044   0.023   1.317  0.00  0.00    -0.080 A 
ATOM      4  C3  UNL d   1      -0.792   0.815   2.098  0.00  0.00     0.150 A 
ATOM      5  C4  UNL d   1      -1.443   1.917   1.553  0.00  0.00    -0.007 A 
ATOM      6  C5  UNL d   1      -1.253   2.237   0.209  0.00  0.00     0.039 A 
ENDROOT
BRANCH   4   7
ATOM      7  O   UNL d   1      -1.003   0.545   3.418  0.00  0.00    -0.526 OA
ATOM      8  H5  UNL d   1      -0.466  -0.228   3.663  0.00  0.00     0.418 HD
ENDBRANCH   4   7
TORSDOF 1
ENDMDL
