MODEL 1
REMARK minimizedAffinity -5.02757549
REMARK minimizedRMSD -1
REMARK  1 active torsions:
REMARK  status: ('A' for Active; 'I' for Inactive)
REMARK    1  A    between atoms: C3_4  and  O_7 
ROOT
ATOM      1  C   UNL d   1      -2.731   2.342   1.200  0.00  0.00    -0.033 A 
ATOM      2  C1  UNL d   1      -2.780   0.956   1.356  0.00  0.00     0.039 A 
ATOM      3  C2  UNL d   1      -1.626   0.191   1.176  0.00  0.00    -0.080 A 
ATOM      4  C3  UNL d   1      -0.432   0.823   0.842  0.00  0.00     0.150 A 
ATOM      5  C4  UNL d   1      -0.375   2.204   0.688  0.00  0.00    -0.007 A 
ATOM      6  C5  UNL d   1      -1.529   2.967   0.867  0.00  0.00     0.039 A 
ENDROOT
BRANCH   4   7
ATOM      7  O   UNL d   1       0.719   0.118   0.651  0.00  0.00    -0.526 OA
ATOM      8  H5  UNL d   1       0.523  -0.828   0.762  0.00  0.00     0.418 HD
ENDBRANCH   4   7
TORSDOF 1
ENDMDL
