MODEL 1
REMARK minimizedAffinity -4.28149414
REMARK minimizedRMSD -1
REMARK  1 active torsions:
REMARK  status: ('A' for Active; 'I' for Inactive)
REMARK    1  A    between atoms: C3_4  and  O_7 
ROOT
ATOM      1  C   UNL d   1      -0.679  -0.123   1.638  0.00  0.00    -0.033 A 
ATOM      2  C1  UNL d   1       0.141  -0.241   0.514  0.00  0.00     0.039 A 
ATOM      3  C2  UNL d   1       0.446   0.886  -0.252  0.00  0.00    -0.080 A 
ATOM      4  C3  UNL d   1      -0.073   2.124   0.118  0.00  0.00     0.150 A 
ATOM      5  C4  UNL d   1      -0.887   2.249   1.238  0.00  0.00    -0.007 A 
ATOM      6  C5  UNL d   1      -1.192   1.122   2.001  0.00  0.00     0.039 A 
ENDROOT
BRANCH   4   7
ATOM      7  O   UNL d   1       0.193   3.251  -0.601  0.00  0.00    -0.526 OA
ATOM      8  H5  UNL d   1       0.744   3.008  -1.363  0.00  0.00     0.418 HD
ENDBRANCH   4   7
TORSDOF 1
ENDMDL
