MODEL 1
REMARK minimizedAffinity -5.45066977
REMARK minimizedRMSD -1
REMARK  1 active torsions:
REMARK  status: ('A' for Active; 'I' for Inactive)
REMARK    1  A    between atoms: C3_4  and  O_7 
ROOT
ATOM      1  C   UNL d   1      -1.477   3.031   1.331  0.00  0.00    -0.033 A 
ATOM      2  C1  UNL d   1      -0.971   3.373   0.075  0.00  0.00     0.039 A 
ATOM      3  C2  UNL d   1      -0.379   2.398  -0.730  0.00  0.00    -0.080 A 
ATOM      4  C3  UNL d   1      -0.300   1.087  -0.269  0.00  0.00     0.150 A 
ATOM      5  C4  UNL d   1      -0.806   0.738   0.979  0.00  0.00    -0.007 A 
ATOM      6  C5  UNL d   1      -1.396   1.714   1.782  0.00  0.00     0.039 A 
ENDROOT
BRANCH   4   7
ATOM      7  O   UNL d   1       0.273   0.102  -1.017  0.00  0.00    -0.526 OA
ATOM      8  H5  UNL d   1       0.603   0.494  -1.842  0.00  0.00     0.418 HD
ENDBRANCH   4   7
TORSDOF 1
ENDMDL
