MODEL 1
REMARK minimizedAffinity -4.01884365
REMARK minimizedRMSD -1
REMARK  1 active torsions:
REMARK  status: ('A' for Active; 'I' for Inactive)
REMARK    1  A    between atoms: C3_4  and  O_7 
ROOT
ATOM      1  C   UNL d   1      -1.820   1.914   1.824  0.00  0.00    -0.033 A 
ATOM      2  C1  UNL d   1      -1.206   2.379   0.659  0.00  0.00     0.039 A 
ATOM      3  C2  UNL d   1      -0.461   1.505  -0.136  0.00  0.00    -0.080 A 
ATOM      4  C3  UNL d   1      -0.340   0.171   0.243  0.00  0.00     0.150 A 
ATOM      5  C4  UNL d   1      -0.952  -0.299   1.400  0.00  0.00    -0.007 A 
ATOM      6  C5  UNL d   1      -1.694   0.574   2.193  0.00  0.00     0.039 A 
ENDROOT
BRANCH   4   7
ATOM      7  O   UNL d   1       0.380  -0.717  -0.499  0.00  0.00    -0.526 OA
ATOM      8  H5  UNL d   1       0.769  -0.245  -1.253  0.00  0.00     0.418 HD
ENDBRANCH   4   7
TORSDOF 1
ENDMDL
