MODEL 1
REMARK minimizedAffinity -4.71124125
REMARK minimizedRMSD -1
REMARK  1 active torsions:
REMARK  status: ('A' for Active; 'I' for Inactive)
REMARK    1  A    between atoms: C3_4  and  O_7 
ROOT
ATOM      1  C   UNL d   1      -2.090   2.796   1.169  0.00  0.00    -0.033 A 
ATOM      2  C1  UNL d   1      -1.396   3.115  -0.000  0.00  0.00     0.039 A 
ATOM      3  C2  UNL d   1      -0.541   2.179  -0.585  0.00  0.00    -0.080 A 
ATOM      4  C3  UNL d   1      -0.389   0.929   0.008  0.00  0.00     0.150 A 
ATOM      5  C4  UNL d   1      -1.079   0.603   1.171  0.00  0.00    -0.007 A 
ATOM      6  C5  UNL d   1      -1.932   1.539   1.753  0.00  0.00     0.039 A 
ENDROOT
BRANCH   4   7
ATOM      7  O   UNL d   1       0.438  -0.015  -0.523  0.00  0.00    -0.526 OA
ATOM      8  H5  UNL d   1       0.870   0.360  -1.308  0.00  0.00     0.418 HD
ENDBRANCH   4   7
TORSDOF 1
ENDMDL
