MODEL 1
REMARK minimizedAffinity -5.18301582
REMARK minimizedRMSD -1
REMARK  1 active torsions:
REMARK  status: ('A' for Active; 'I' for Inactive)
REMARK    1  A    between atoms: C3_4  and  O_7 
ROOT
ATOM      1  C   UNL d   1      -1.506   3.564   0.228  0.00  0.00    -0.033 A 
ATOM      2  C1  UNL d   1      -0.897   2.746  -0.726  0.00  0.00     0.039 A 
ATOM      3  C2  UNL d   1      -0.544   1.435  -0.401  0.00  0.00    -0.080 A 
ATOM      4  C3  UNL d   1      -0.805   0.954   0.879  0.00  0.00     0.150 A 
ATOM      5  C4  UNL d   1      -1.415   1.762   1.833  0.00  0.00    -0.007 A 
ATOM      6  C5  UNL d   1      -1.766   3.071   1.507  0.00  0.00     0.039 A 
ENDROOT
BRANCH   4   7
ATOM      7  O   UNL d   1      -0.473  -0.317   1.244  0.00  0.00    -0.526 OA
ATOM      8  H5  UNL d   1      -0.034  -0.748   0.492  0.00  0.00     0.418 HD
ENDBRANCH   4   7
TORSDOF 1
ENDMDL
