MODEL 1
REMARK minimizedAffinity -5.22473478
REMARK minimizedRMSD -1
REMARK  1 active torsions:
REMARK  status: ('A' for Active; 'I' for Inactive)
REMARK    1  A    between atoms: C3_4  and  O_7 
ROOT
ATOM      1  C   UNL d   1      -1.868   2.992   0.830  0.00  0.00    -0.033 A 
ATOM      2  C1  UNL d   1      -1.887   1.750   1.468  0.00  0.00     0.039 A 
ATOM      3  C2  UNL d   1      -1.099   0.703   0.985  0.00  0.00    -0.080 A 
ATOM      4  C3  UNL d   1      -0.298   0.911  -0.134  0.00  0.00     0.150 A 
ATOM      5  C4  UNL d   1      -0.271   2.147  -0.772  0.00  0.00    -0.007 A 
ATOM      6  C5  UNL d   1      -1.059   3.191  -0.289  0.00  0.00     0.039 A 
ENDROOT
BRANCH   4   7
ATOM      7  O   UNL d   1       0.484  -0.082  -0.645  0.00  0.00    -0.526 OA
ATOM      8  H5  UNL d   1       0.341  -0.887  -0.120  0.00  0.00     0.418 HD
ENDBRANCH   4   7
TORSDOF 1
ENDMDL
