MODEL 1
REMARK minimizedAffinity -3.69572544
REMARK minimizedRMSD -1
REMARK  1 active torsions:
REMARK  status: ('A' for Active; 'I' for Inactive)
REMARK    1  A    between atoms: C3_4  and  O_7 
ROOT
ATOM      1  C   UNL d   1       0.025  -0.295  -0.048  0.00  0.00    -0.033 A 
ATOM      2  C1  UNL d   1      -0.394  -0.533   1.262  0.00  0.00     0.039 A 
ATOM      3  C2  UNL d   1      -1.319   0.320   1.867  0.00  0.00    -0.080 A 
ATOM      4  C3  UNL d   1      -1.818   1.405   1.151  0.00  0.00     0.150 A 
ATOM      5  C4  UNL d   1      -1.408   1.645  -0.156  0.00  0.00    -0.007 A 
ATOM      6  C5  UNL d   1      -0.483   0.793  -0.758  0.00  0.00     0.039 A 
ENDROOT
BRANCH   4   7
ATOM      7  O   UNL d   1      -2.720   2.267   1.701  0.00  0.00    -0.526 OA
ATOM      8  H5  UNL d   1      -2.889   1.993   2.618  0.00  0.00     0.418 HD
ENDBRANCH   4   7
TORSDOF 1
ENDMDL
