MODEL 1
REMARK minimizedAffinity -4.17763662
REMARK minimizedRMSD -1
REMARK  1 active torsions:
REMARK  status: ('A' for Active; 'I' for Inactive)
REMARK    1  A    between atoms: C3_4  and  O_7 
ROOT
ATOM      1  C   UNL d   1      -1.964   1.559   1.485  0.00  0.00    -0.033 A 
ATOM      2  C1  UNL d   1      -1.653   0.378   2.162  0.00  0.00     0.039 A 
ATOM      3  C2  UNL d   1      -0.809  -0.565   1.574  0.00  0.00    -0.080 A 
ATOM      4  C3  UNL d   1      -0.281  -0.316   0.310  0.00  0.00     0.150 A 
ATOM      5  C4  UNL d   1      -0.583   0.861  -0.369  0.00  0.00    -0.007 A 
ATOM      6  C5  UNL d   1      -1.427   1.801   0.220  0.00  0.00     0.039 A 
ENDROOT
BRANCH   4   7
ATOM      7  O   UNL d   1       0.543  -1.209  -0.307  0.00  0.00    -0.526 OA
ATOM      8  H5  UNL d   1       0.640  -1.986   0.268  0.00  0.00     0.418 HD
ENDBRANCH   4   7
TORSDOF 1
ENDMDL
