MODEL 1
REMARK minimizedAffinity -4.56448174
REMARK minimizedRMSD -1
REMARK  1 active torsions:
REMARK  status: ('A' for Active; 'I' for Inactive)
REMARK    1  A    between atoms: C3_4  and  O_7 
ROOT
ATOM      1  C   UNL d   1      -1.260   3.140   0.823  0.00  0.00    -0.033 A 
ATOM      2  C1  UNL d   1      -0.378   3.087  -0.258  0.00  0.00     0.039 A 
ATOM      3  C2  UNL d   1       0.229   1.879  -0.607  0.00  0.00    -0.080 A 
ATOM      4  C3  UNL d   1      -0.054   0.733   0.132  0.00  0.00     0.150 A 
ATOM      5  C4  UNL d   1      -0.935   0.779   1.208  0.00  0.00    -0.007 A 
ATOM      6  C5  UNL d   1      -1.540   1.986   1.555  0.00  0.00     0.039 A 
ENDROOT
BRANCH   4   7
ATOM      7  O   UNL d   1       0.518  -0.467  -0.167  0.00  0.00    -0.526 OA
ATOM      8  H5  UNL d   1       1.125  -0.341  -0.916  0.00  0.00     0.418 HD
ENDBRANCH   4   7
TORSDOF 1
ENDMDL
