MODEL 1
REMARK minimizedAffinity 9.98540211
REMARK minimizedRMSD -1
REMARK  1 active torsions:
REMARK  status: ('A' for Active; 'I' for Inactive)
REMARK    1  A    between atoms: C3_4  and  O_7 
ROOT
ATOM      1  C   UNL d   1       2.158  -4.133  -3.972  0.00  0.00    -0.033 A 
ATOM      2  C1  UNL d   1       2.410  -3.789  -5.301  0.00  0.00     0.039 A 
ATOM      3  C2  UNL d   1       3.448  -4.409  -6.000  0.00  0.00    -0.080 A 
ATOM      4  C3  UNL d   1       4.225  -5.370  -5.359  0.00  0.00     0.150 A 
ATOM      5  C4  UNL d   1       3.977  -5.720  -4.036  0.00  0.00    -0.007 A 
ATOM      6  C5  UNL d   1       2.941  -5.099  -3.339  0.00  0.00     0.039 A 
ENDROOT
BRANCH   4   7
ATOM      7  O   UNL d   1       5.252  -5.998  -5.998  0.00  0.00    -0.526 OA
ATOM      8  H5  UNL d   1       5.323  -5.635  -6.897  0.00  0.00     0.418 HD
ENDBRANCH   4   7
TORSDOF 1
ENDMDL
