MODEL 1
REMARK minimizedAffinity 8.74108696
REMARK minimizedRMSD -1
REMARK  1 active torsions:
REMARK  status: ('A' for Active; 'I' for Inactive)
REMARK    1  A    between atoms: C3_4  and  O_7 
ROOT
ATOM      1  C   UNL d   1      -2.401   1.063  -1.890  0.00  0.00    -0.033 A 
ATOM      2  C1  UNL d   1      -2.124  -0.285  -2.125  0.00  0.00     0.039 A 
ATOM      3  C2  UNL d   1      -1.751  -1.118  -1.067  0.00  0.00    -0.080 A 
ATOM      4  C3  UNL d   1      -1.661  -0.590   0.218  0.00  0.00     0.150 A 
ATOM      5  C4  UNL d   1      -1.939   0.751   0.459  0.00  0.00    -0.007 A 
ATOM      6  C5  UNL d   1      -2.310   1.581  -0.598  0.00  0.00     0.039 A 
ENDROOT
BRANCH   4   7
ATOM      7  O   UNL d   1      -1.296  -1.362   1.281  0.00  0.00    -0.526 OA
ATOM      8  H5  UNL d   1      -1.107  -2.259   0.959  0.00  0.00     0.418 HD
ENDBRANCH   4   7
TORSDOF 1
ENDMDL
