MODEL 1
REMARK minimizedAffinity 6.70423651
REMARK minimizedRMSD -1
REMARK  1 active torsions:
REMARK  status: ('A' for Active; 'I' for Inactive)
REMARK    1  A    between atoms: C3_4  and  O_7 
ROOT
ATOM      1  C   UNL d   1       2.225  -0.959   5.663  0.00  0.00    -0.033 A 
ATOM      2  C1  UNL d   1       1.730  -2.243   5.899  0.00  0.00     0.039 A 
ATOM      3  C2  UNL d   1       1.065  -2.934   4.884  0.00  0.00    -0.080 A 
ATOM      4  C3  UNL d   1       0.903  -2.332   3.640  0.00  0.00     0.150 A 
ATOM      5  C4  UNL d   1       1.396  -1.054   3.397  0.00  0.00    -0.007 A 
ATOM      6  C5  UNL d   1       2.059  -0.365   4.412  0.00  0.00     0.039 A 
ENDROOT
BRANCH   4   7
ATOM      7  O   UNL d   1       0.256  -2.965   2.620  0.00  0.00    -0.526 OA
ATOM      8  H5  UNL d   1      -0.055  -3.827   2.942  0.00  0.00     0.418 HD
ENDBRANCH   4   7
TORSDOF 1
ENDMDL
