MODEL 1
REMARK minimizedAffinity 4.90464306
REMARK minimizedRMSD -1
REMARK  1 active torsions:
REMARK  status: ('A' for Active; 'I' for Inactive)
REMARK    1  A    between atoms: C3_4  and  O_7 
ROOT
ATOM      1  C   UNL d   1      -2.040   0.489  -3.315  0.00  0.00    -0.033 A 
ATOM      2  C1  UNL d   1      -1.327  -0.512  -2.652  0.00  0.00     0.039 A 
ATOM      3  C2  UNL d   1      -1.836  -1.810  -2.590  0.00  0.00    -0.080 A 
ATOM      4  C3  UNL d   1      -3.057  -2.095  -3.194  0.00  0.00     0.150 A 
ATOM      5  C4  UNL d   1      -3.771  -1.104  -3.860  0.00  0.00    -0.007 A 
ATOM      6  C5  UNL d   1      -3.262   0.192  -3.920  0.00  0.00     0.039 A 
ENDROOT
BRANCH   4   7
ATOM      7  O   UNL d   1      -3.597  -3.347  -3.156  0.00  0.00    -0.526 OA
ATOM      8  H5  UNL d   1      -3.007  -3.920  -2.638  0.00  0.00     0.418 HD
ENDBRANCH   4   7
TORSDOF 1
ENDMDL
