MODEL 1
REMARK minimizedAffinity -3.76500463
REMARK minimizedRMSD -1
REMARK  0 active torsions:
REMARK  status: ('A' for Active; 'I' for Inactive)
ROOT
ATOM      1  C2' OXE d   1       1.898  -0.323   1.995  0.00  0.00     0.078 C 
ATOM      2  C1' OXE d   1      -0.683   0.644   1.463  0.00  0.00     0.078 C 
ATOM      3  C1  OXE d   1      -0.547  -0.499   2.438  0.00  0.00    -0.078 A 
ATOM      4  C2  OXE d   1       0.715  -0.996   2.657  0.00  0.00    -0.078 A 
ATOM      5  C3  OXE d   1       0.903  -2.014   3.588  0.00  0.00     0.003 A 
ATOM      6  C4  OXE d   1      -0.197  -2.637   4.188  0.00  0.00    -0.002 A 
ATOM      7  C5  OXE d   1      -1.495  -2.172   3.949  0.00  0.00    -0.002 A 
ATOM      8  C6  OXE d   1      -1.683  -1.078   3.111  0.00  0.00     0.003 A 
ENDROOT
TORSDOF 0
ENDMDL
