MODEL 1
REMARK minimizedAffinity 1.47904098
REMARK minimizedRMSD -1
REMARK  0 active torsions:
REMARK  status: ('A' for Active; 'I' for Inactive)
ROOT
ATOM      1  C2' OXE d   1       1.770  -0.454   3.051  0.00  0.00     0.078 C 
ATOM      2  C1' OXE d   1       1.114  -2.716   4.579  0.00  0.00     0.078 C 
ATOM      3  C1  OXE d   1       0.014  -2.063   3.781  0.00  0.00    -0.078 A 
ATOM      4  C2  OXE d   1       0.334  -0.929   3.073  0.00  0.00    -0.078 A 
ATOM      5  C3  OXE d   1      -0.631  -0.318   2.277  0.00  0.00     0.003 A 
ATOM      6  C4  OXE d   1      -1.960  -0.758   2.310  0.00  0.00    -0.002 A 
ATOM      7  C5  OXE d   1      -2.316  -1.887   3.056  0.00  0.00    -0.002 A 
ATOM      8  C6  OXE d   1      -1.334  -2.575   3.761  0.00  0.00     0.003 A 
ENDROOT
TORSDOF 0
ENDMDL
