MODEL 1
REMARK minimizedAffinity -1.57603157
REMARK minimizedRMSD -1
REMARK  0 active torsions:
REMARK  status: ('A' for Active; 'I' for Inactive)
ROOT
ATOM      1  C2' OXE d   1      -1.554  -0.046   1.164  0.00  0.00     0.078 C 
ATOM      2  C1' OXE d   1      -2.639  -2.177   2.634  0.00  0.00     0.078 C 
ATOM      3  C1  OXE d   1      -1.187  -1.835   2.858  0.00  0.00    -0.078 A 
ATOM      4  C2  OXE d   1      -0.652  -0.821   2.100  0.00  0.00    -0.078 A 
ATOM      5  C3  OXE d   1       0.667  -0.429   2.306  0.00  0.00     0.003 A 
ATOM      6  C4  OXE d   1       1.497  -1.158   3.167  0.00  0.00    -0.002 A 
ATOM      7  C5  OXE d   1       0.983  -2.219   3.919  0.00  0.00    -0.002 A 
ATOM      8  C6  OXE d   1      -0.365  -2.543   3.808  0.00  0.00     0.003 A 
ENDROOT
TORSDOF 0
ENDMDL
