MODEL 1
REMARK minimizedAffinity 3.54962182
REMARK minimizedRMSD -1
REMARK  0 active torsions:
REMARK  status: ('A' for Active; 'I' for Inactive)
ROOT
ATOM      1  C2' OXE d   1       2.732  -2.710   4.099  0.00  0.00     0.078 C 
ATOM      2  C1' OXE d   1       0.141  -3.446   4.888  0.00  0.00     0.078 C 
ATOM      3  C1  OXE d   1       0.278  -2.374   3.837  0.00  0.00    -0.078 A 
ATOM      4  C2  OXE d   1       1.550  -1.987   3.490  0.00  0.00    -0.078 A 
ATOM      5  C3  OXE d   1       1.733  -1.041   2.486  0.00  0.00     0.003 A 
ATOM      6  C4  OXE d   1       0.634  -0.370   1.935  0.00  0.00    -0.002 A 
ATOM      7  C5  OXE d   1      -0.669  -0.721   2.302  0.00  0.00    -0.002 A 
ATOM      8  C6  OXE d   1      -0.865  -1.749   3.219  0.00  0.00     0.003 A 
ENDROOT
TORSDOF 0
ENDMDL
