MODEL 1
REMARK minimizedAffinity 0.849619687
REMARK minimizedRMSD -1
REMARK  0 active torsions:
REMARK  status: ('A' for Active; 'I' for Inactive)
ROOT
ATOM      1  C2' OXE d   1       2.217  -1.502   4.121  0.00  0.00     0.078 C 
ATOM      2  C1' OXE d   1       1.255  -0.339   1.754  0.00  0.00     0.078 C 
ATOM      3  C1  OXE d   1       0.248  -0.943   2.701  0.00  0.00    -0.078 A 
ATOM      4  C2  OXE d   1       0.732  -1.552   3.834  0.00  0.00    -0.078 A 
ATOM      5  C3  OXE d   1      -0.157  -2.077   4.767  0.00  0.00     0.003 A 
ATOM      6  C4  OXE d   1      -1.529  -2.127   4.490  0.00  0.00    -0.002 A 
ATOM      7  C5  OXE d   1      -2.038  -1.549   3.323  0.00  0.00    -0.002 A 
ATOM      8  C6  OXE d   1      -1.170  -0.916   2.440  0.00  0.00     0.003 A 
ENDROOT
TORSDOF 0
ENDMDL
