MODEL 1
REMARK minimizedAffinity -0.26416409
REMARK minimizedRMSD -1
REMARK  0 active torsions:
REMARK  status: ('A' for Active; 'I' for Inactive)
ROOT
ATOM      1  C2' OXE d   1       1.293  -0.324   2.049  0.00  0.00     0.078 C 
ATOM      2  C1' OXE d   1       1.431  -1.777   4.447  0.00  0.00     0.078 C 
ATOM      3  C1  OXE d   1       0.070  -1.558   3.834  0.00  0.00    -0.078 A 
ATOM      4  C2  OXE d   1       0.007  -0.806   2.686  0.00  0.00    -0.078 A 
ATOM      5  C3  OXE d   1      -1.217  -0.620   2.050  0.00  0.00     0.003 A 
ATOM      6  C4  OXE d   1      -2.402  -1.060   2.651  0.00  0.00    -0.002 A 
ATOM      7  C5  OXE d   1      -2.364  -1.794   3.841  0.00  0.00    -0.002 A 
ATOM      8  C6  OXE d   1      -1.136  -2.087   4.422  0.00  0.00     0.003 A 
ENDROOT
TORSDOF 0
ENDMDL
