MODEL 1
REMARK minimizedAffinity 5.27579165
REMARK minimizedRMSD -1
REMARK  0 active torsions:
REMARK  status: ('A' for Active; 'I' for Inactive)
ROOT
ATOM      1  C2' OXE d   1      -4.360  -5.856  -2.249  0.00  0.00     0.078 C 
ATOM      2  C1' OXE d   1      -5.979  -4.010  -3.610  0.00  0.00     0.078 C 
ATOM      3  C1  OXE d   1      -4.946  -3.468  -2.653  0.00  0.00    -0.078 A 
ATOM      4  C2  OXE d   1      -4.190  -4.380  -1.957  0.00  0.00    -0.078 A 
ATOM      5  C3  OXE d   1      -3.186  -3.934  -1.102  0.00  0.00     0.003 A 
ATOM      6  C4  OXE d   1      -3.042  -2.568  -0.830  0.00  0.00    -0.002 A 
ATOM      7  C5  OXE d   1      -3.829  -1.624  -1.499  0.00  0.00    -0.002 A 
ATOM      8  C6  OXE d   1      -4.755  -2.055  -2.443  0.00  0.00     0.003 A 
ENDROOT
TORSDOF 0
ENDMDL
