MODEL 1
REMARK minimizedAffinity 3.23063684
REMARK minimizedRMSD -1
REMARK  0 active torsions:
REMARK  status: ('A' for Active; 'I' for Inactive)
ROOT
ATOM      1  C2' OXE d   1      -0.765  -4.496  -2.252  0.00  0.00     0.078 C 
ATOM      2  C1' OXE d   1       2.042  -4.471  -2.289  0.00  0.00     0.078 C 
ATOM      3  C1  OXE d   1       1.327  -4.999  -3.508  0.00  0.00    -0.078 A 
ATOM      4  C2  OXE d   1      -0.045  -5.051  -3.462  0.00  0.00    -0.078 A 
ATOM      5  C3  OXE d   1      -0.756  -5.478  -4.580  0.00  0.00     0.003 A 
ATOM      6  C4  OXE d   1      -0.083  -5.999  -5.692  0.00  0.00    -0.002 A 
ATOM      7  C5  OXE d   1       1.315  -5.992  -5.743  0.00  0.00    -0.002 A 
ATOM      8  C6  OXE d   1       2.033  -5.457  -4.679  0.00  0.00     0.003 A 
ENDROOT
TORSDOF 0
ENDMDL
