MODEL 1
REMARK minimizedAffinity -1.32875943
REMARK minimizedRMSD -1
REMARK  0 active torsions:
REMARK  status: ('A' for Active; 'I' for Inactive)
ROOT
ATOM      1  C2' OXE d   1       3.013  -0.385   5.107  0.00  0.00     0.078 C 
ATOM      2  C1' OXE d   1       2.024  -3.012   5.042  0.00  0.00     0.078 C 
ATOM      3  C1  OXE d   1       1.431  -2.013   4.080  0.00  0.00    -0.078 A 
ATOM      4  C2  OXE d   1       1.888  -0.719   4.151  0.00  0.00    -0.078 A 
ATOM      5  C3  OXE d   1       1.414   0.230   3.249  0.00  0.00     0.003 A 
ATOM      6  C4  OXE d   1       0.366  -0.084   2.375  0.00  0.00    -0.002 A 
ATOM      7  C5  OXE d   1      -0.142  -1.386   2.315  0.00  0.00    -0.002 A 
ATOM      8  C6  OXE d   1       0.408  -2.371   3.129  0.00  0.00     0.003 A 
ENDROOT
TORSDOF 0
ENDMDL
