MODEL 1
REMARK minimizedAffinity -2.36285567
REMARK minimizedRMSD -1
REMARK  1 active torsions:
REMARK  status: ('A' for Active; 'I' for Inactive)
REMARK    1  A    between atoms: C3_4  and  O_7 
ROOT
ATOM      1  C   UNL d   1      -4.512   5.189  -5.680  0.00  0.00    -0.033 A 
ATOM      2  C1  UNL d   1      -5.639   5.552  -4.939  0.00  0.00     0.039 A 
ATOM      3  C2  UNL d   1      -6.000   4.817  -3.809  0.00  0.00    -0.080 A 
ATOM      4  C3  UNL d   1      -5.227   3.723  -3.430  0.00  0.00     0.150 A 
ATOM      5  C4  UNL d   1      -4.102   3.357  -4.161  0.00  0.00    -0.007 A 
ATOM      6  C5  UNL d   1      -3.743   4.092  -5.290  0.00  0.00     0.039 A 
ENDROOT
BRANCH   4   7
ATOM      7  O   UNL d   1      -5.543   2.972  -2.337  0.00  0.00    -0.526 OA
ATOM      8  H5  UNL d   1      -6.361   3.324  -1.947  0.00  0.00     0.418 HD
ENDBRANCH   4   7
TORSDOF 1
ENDMDL
