MODEL 1
REMARK minimizedAffinity 3.64168191
REMARK minimizedRMSD -1
REMARK  1 active torsions:
REMARK  status: ('A' for Active; 'I' for Inactive)
REMARK    1  A    between atoms: C3_4  and  O_7 
ROOT
ATOM      1  C   UNL d   1       4.712  -1.843  -2.429  0.00  0.00    -0.033 A 
ATOM      2  C1  UNL d   1       3.392  -2.015  -2.851  0.00  0.00     0.039 A 
ATOM      3  C2  UNL d   1       3.108  -2.838  -3.943  0.00  0.00    -0.080 A 
ATOM      4  C3  UNL d   1       4.151  -3.484  -4.601  0.00  0.00     0.150 A 
ATOM      5  C4  UNL d   1       5.468  -3.320  -4.183  0.00  0.00    -0.007 A 
ATOM      6  C5  UNL d   1       5.749  -2.497  -3.093  0.00  0.00     0.039 A 
ENDROOT
BRANCH   4   7
ATOM      7  O   UNL d   1       3.924  -4.293  -5.674  0.00  0.00    -0.526 OA
ATOM      8  H5  UNL d   1       2.971  -4.289  -5.866  0.00  0.00     0.418 HD
ENDBRANCH   4   7
TORSDOF 1
ENDMDL
