MODEL 1
REMARK minimizedAffinity 13.2432766
REMARK minimizedRMSD -1
REMARK  1 active torsions:
REMARK  status: ('A' for Active; 'I' for Inactive)
REMARK    1  A    between atoms: C3_4  and  O_7 
ROOT
ATOM      1  C   UNL d   1      -0.745   3.583  -2.212  0.00  0.00    -0.033 A 
ATOM      2  C1  UNL d   1      -1.023   2.227  -2.025  0.00  0.00     0.039 A 
ATOM      3  C2  UNL d   1      -0.689   1.604  -0.822  0.00  0.00    -0.080 A 
ATOM      4  C3  UNL d   1      -0.080   2.346   0.186  0.00  0.00     0.150 A 
ATOM      5  C4  UNL d   1       0.196   3.698   0.009  0.00  0.00    -0.007 A 
ATOM      6  C5  UNL d   1      -0.137   4.319  -1.195  0.00  0.00     0.039 A 
ENDROOT
BRANCH   4   7
ATOM      7  O   UNL d   1       0.269   1.780   1.377  0.00  0.00    -0.526 OA
ATOM      8  H5  UNL d   1       0.044   0.835   1.346  0.00  0.00     0.418 HD
ENDBRANCH   4   7
TORSDOF 1
ENDMDL
