MODEL 1
REMARK minimizedAffinity 1.961393
REMARK minimizedRMSD -1
REMARK  1 active torsions:
REMARK  status: ('A' for Active; 'I' for Inactive)
REMARK    1  A    between atoms: C3_4  and  O_7 
ROOT
ATOM      1  C   UNL d   1      -2.202  -3.932  -5.157  0.00  0.00    -0.033 A 
ATOM      2  C1  UNL d   1      -2.280  -5.290  -4.839  0.00  0.00     0.039 A 
ATOM      3  C2  UNL d   1      -3.457  -6.000  -5.084  0.00  0.00    -0.080 A 
ATOM      4  C3  UNL d   1      -4.547  -5.341  -5.646  0.00  0.00     0.150 A 
ATOM      5  C4  UNL d   1      -4.475  -3.990  -5.969  0.00  0.00    -0.007 A 
ATOM      6  C5  UNL d   1      -3.299  -3.283  -5.723  0.00  0.00     0.039 A 
ENDROOT
BRANCH   4   7
ATOM      7  O   UNL d   1      -5.719  -5.991  -5.899  0.00  0.00    -0.526 OA
ATOM      8  H5  UNL d   1      -5.632  -6.911  -5.599  0.00  0.00     0.418 HD
ENDBRANCH   4   7
TORSDOF 1
ENDMDL
