MODEL 1
REMARK minimizedAffinity 1.68549478
REMARK minimizedRMSD -1
REMARK  1 active torsions:
REMARK  status: ('A' for Active; 'I' for Inactive)
REMARK    1  A    between atoms: C3_4  and  O_7 
ROOT
ATOM      1  C   UNL d   1      -0.887  -4.759  -5.911  0.00  0.00    -0.033 A 
ATOM      2  C1  UNL d   1      -1.603  -3.562  -5.877  0.00  0.00     0.039 A 
ATOM      3  C2  UNL d   1      -2.999  -3.580  -5.904  0.00  0.00    -0.080 A 
ATOM      4  C3  UNL d   1      -3.665  -4.801  -5.965  0.00  0.00     0.150 A 
ATOM      5  C4  UNL d   1      -2.958  -5.998  -5.995  0.00  0.00    -0.007 A 
ATOM      6  C5  UNL d   1      -1.564  -5.978  -5.969  0.00  0.00     0.039 A 
ENDROOT
BRANCH   4   7
ATOM      7  O   UNL d   1      -5.027  -4.869  -5.998  0.00  0.00    -0.526 OA
ATOM      8  H5  UNL d   1      -5.380  -3.964  -6.000  0.00  0.00     0.418 HD
ENDBRANCH   4   7
TORSDOF 1
ENDMDL
