MODEL 1
REMARK minimizedAffinity 7.7131114
REMARK minimizedRMSD -1
REMARK  1 active torsions:
REMARK  status: ('A' for Active; 'I' for Inactive)
REMARK    1  A    between atoms: C3_4  and  O_7 
ROOT
ATOM      1  C   UNL d   1       0.005   1.089   4.141  0.00  0.00    -0.033 A 
ATOM      2  C1  UNL d   1      -0.329   0.248   5.204  0.00  0.00     0.039 A 
ATOM      3  C2  UNL d   1       0.281  -1.002   5.326  0.00  0.00    -0.080 A 
ATOM      4  C3  UNL d   1       1.221  -1.399   4.379  0.00  0.00     0.150 A 
ATOM      5  C4  UNL d   1       1.561  -0.565   3.319  0.00  0.00    -0.007 A 
ATOM      6  C5  UNL d   1       0.951   0.683   3.199  0.00  0.00     0.039 A 
ENDROOT
BRANCH   4   7
ATOM      7  O   UNL d   1       1.838  -2.612   4.453  0.00  0.00    -0.526 OA
ATOM      8  H5  UNL d   1       1.484  -3.092   5.220  0.00  0.00     0.418 HD
ENDBRANCH   4   7
TORSDOF 1
ENDMDL
