MODEL 1
REMARK minimizedAffinity -1.27644694
REMARK minimizedRMSD -1
REMARK  1 active torsions:
REMARK  status: ('A' for Active; 'I' for Inactive)
REMARK    1  A    between atoms: C3_4  and  O_7 
ROOT
ATOM      1  C   UNL d   1       1.024   3.372  -1.130  0.00  0.00    -0.033 A 
ATOM      2  C1  UNL d   1       1.685   4.349  -1.877  0.00  0.00     0.039 A 
ATOM      3  C2  UNL d   1       0.954   5.244  -2.661  0.00  0.00    -0.080 A 
ATOM      4  C3  UNL d   1      -0.435   5.152  -2.688  0.00  0.00     0.150 A 
ATOM      5  C4  UNL d   1      -1.100   4.183  -1.944  0.00  0.00    -0.007 A 
ATOM      6  C5  UNL d   1      -0.368   3.290  -1.162  0.00  0.00     0.039 A 
ENDROOT
BRANCH   4   7
ATOM      7  O   UNL d   1      -1.190   6.000  -3.442  0.00  0.00    -0.526 OA
ATOM      8  H5  UNL d   1      -0.594   6.597  -3.924  0.00  0.00     0.418 HD
ENDBRANCH   4   7
TORSDOF 1
ENDMDL
