MODEL 1
REMARK minimizedAffinity -2.21821928
REMARK minimizedRMSD -1
REMARK  1 active torsions:
REMARK  status: ('A' for Active; 'I' for Inactive)
REMARK    1  A    between atoms: C3_4  and  O_7 
ROOT
ATOM      1  C   UNL d   1       0.157   0.656   3.282  0.00  0.00    -0.033 A 
ATOM      2  C1  UNL d   1      -1.190   0.906   3.014  0.00  0.00     0.039 A 
ATOM      3  C2  UNL d   1      -1.548   1.818   2.020  0.00  0.00    -0.080 A 
ATOM      4  C3  UNL d   1      -0.550   2.473   1.302  0.00  0.00     0.150 A 
ATOM      5  C4  UNL d   1       0.794   2.226   1.562  0.00  0.00    -0.007 A 
ATOM      6  C5  UNL d   1       1.149   1.315   2.555  0.00  0.00     0.039 A 
ENDROOT
BRANCH   4   7
ATOM      7  O   UNL d   1      -0.851   3.376   0.326  0.00  0.00    -0.526 OA
ATOM      8  H5  UNL d   1      -1.817   3.466   0.277  0.00  0.00     0.418 HD
ENDBRANCH   4   7
TORSDOF 1
ENDMDL
