MODEL 1
REMARK minimizedAffinity 0.966402709
REMARK minimizedRMSD -1
REMARK  1 active torsions:
REMARK  status: ('A' for Active; 'I' for Inactive)
REMARK    1  A    between atoms: C3_4  and  O_7 
ROOT
ATOM      1  C   UNL d   1       1.913  -5.758   0.740  0.00  0.00    -0.033 A 
ATOM      2  C1  UNL d   1       0.587  -5.684   1.173  0.00  0.00     0.039 A 
ATOM      3  C2  UNL d   1      -0.456  -5.765   0.249  0.00  0.00    -0.080 A 
ATOM      4  C3  UNL d   1      -0.162  -5.920  -1.102  0.00  0.00     0.150 A 
ATOM      5  C4  UNL d   1       1.156  -5.999  -1.540  0.00  0.00    -0.007 A 
ATOM      6  C5  UNL d   1       2.197  -5.917  -0.616  0.00  0.00     0.039 A 
ENDROOT
BRANCH   4   7
ATOM      7  O   UNL d   1      -1.146  -6.000  -2.042  0.00  0.00    -0.526 OA
ATOM      8  H5  UNL d   1      -2.005  -5.902  -1.597  0.00  0.00     0.418 HD
ENDBRANCH   4   7
TORSDOF 1
ENDMDL
