MODEL 1
REMARK minimizedAffinity 2.07047677
REMARK minimizedRMSD -1
REMARK  1 active torsions:
REMARK  status: ('A' for Active; 'I' for Inactive)
REMARK    1  A    between atoms: C3_4  and  O_7 
ROOT
ATOM      1  C   UNL d   1       1.896  -3.930  -1.750  0.00  0.00    -0.033 A 
ATOM      2  C1  UNL d   1       1.384  -3.225  -0.659  0.00  0.00     0.039 A 
ATOM      3  C2  UNL d   1       0.733  -3.907   0.372  0.00  0.00    -0.080 A 
ATOM      4  C3  UNL d   1       0.603  -5.291   0.300  0.00  0.00     0.150 A 
ATOM      5  C4  UNL d   1       1.114  -6.000  -0.782  0.00  0.00    -0.007 A 
ATOM      6  C5  UNL d   1       1.763  -5.318  -1.811  0.00  0.00     0.039 A 
ENDROOT
BRANCH   4   7
ATOM      7  O   UNL d   1      -0.028  -5.999   1.279  0.00  0.00    -0.526 OA
ATOM      8  H5  UNL d   1      -0.355  -5.375   1.948  0.00  0.00     0.418 HD
ENDBRANCH   4   7
TORSDOF 1
ENDMDL
