MODEL 1
REMARK minimizedAffinity 11.9914932
REMARK minimizedRMSD -1
REMARK  1 active torsions:
REMARK  status: ('A' for Active; 'I' for Inactive)
REMARK    1  A    between atoms: C1_2  and  C2_3 
ROOT
ATOM      1  C2  UNL d   1       3.194  -1.374   3.370  0.00  0.00    -0.076 A 
ATOM      2  C3  UNL d   1       2.050  -0.750   3.897  0.00  0.00     0.004 A 
ATOM      3  C4  UNL d   1       1.628  -1.008   5.200  0.00  0.00    -0.003 A 
ATOM      4  C5  UNL d   1       2.344  -1.893   5.998  0.00  0.00     0.000 A 
ATOM      5  C6  UNL d   1       3.491  -2.507   5.498  0.00  0.00     0.000 A 
ATOM      6  C7  UNL d   1       3.940  -2.246   4.192  0.00  0.00    -0.073 A 
ATOM      7  C8  UNL d   1       5.180  -2.941   3.702  0.00  0.00     0.078 C 
ENDROOT
BRANCH   1   8
ATOM      8  C1  UNL d   1       3.589  -1.076   1.941  0.00  0.00     0.053 C 
ATOM      9  C   UNL d   1       2.390  -1.012   1.007  0.00  0.00     0.018 C 
ENDBRANCH   1   8
TORSDOF 1
ENDMDL
