MODEL 1
REMARK minimizedAffinity 10.8738604
REMARK minimizedRMSD -1
REMARK  1 active torsions:
REMARK  status: ('A' for Active; 'I' for Inactive)
REMARK    1  A    between atoms: C1_2  and  C2_3 
ROOT
ATOM      1  C2  UNL d   1      -2.238  -3.140   0.354  0.00  0.00    -0.076 A 
ATOM      2  C3  UNL d   1      -1.837  -3.850  -0.791  0.00  0.00     0.004 A 
ATOM      3  C4  UNL d   1      -0.748  -4.718  -0.751  0.00  0.00    -0.003 A 
ATOM      4  C5  UNL d   1      -0.042  -4.891   0.434  0.00  0.00     0.000 A 
ATOM      5  C6  UNL d   1      -0.436  -4.208   1.584  0.00  0.00     0.000 A 
ATOM      6  C7  UNL d   1      -1.543  -3.341   1.566  0.00  0.00    -0.073 A 
ATOM      7  C8  UNL d   1      -1.921  -2.626   2.834  0.00  0.00     0.078 C 
ENDROOT
BRANCH   1   8
ATOM      8  C1  UNL d   1      -3.411  -2.191   0.245  0.00  0.00     0.053 C 
ATOM      9  C   UNL d   1      -4.722  -2.914  -0.024  0.00  0.00     0.018 C 
ENDBRANCH   1   8
TORSDOF 1
ENDMDL
