MODEL 1
REMARK minimizedAffinity -3.12423229
REMARK minimizedRMSD -1
REMARK  0 active torsions:
REMARK  status: ('A' for Active; 'I' for Inactive)
ROOT
ATOM      1  C1  DEN d   1      -1.048  -0.211  -2.497  0.00  0.00     0.130 A 
ATOM      2  C2  DEN d   1      -0.858   0.816  -1.477  0.00  0.00    -0.031 A 
ATOM      3  C3  DEN d   1       0.584   1.125  -1.403  0.00  0.00     0.027 A 
ATOM      4  C4  DEN d   1       2.530   0.119  -2.765  0.00  0.00     0.027 A 
ATOM      5  C5  DEN d   1       2.864  -0.795  -3.740  0.00  0.00    -0.003 A 
ATOM      6  C6  DEN d   1       1.929  -1.596  -4.341  0.00  0.00     0.001 A 
ATOM      7  C7  DEN d   1       0.607  -1.466  -4.003  0.00  0.00     0.017 A 
ATOM      8  C8  DEN d   1       0.264  -0.552  -3.016  0.00  0.00    -0.094 A 
ATOM      9  C9  DEN d   1       1.223   0.257  -2.429  0.00  0.00    -0.072 A 
ENDROOT
TORSDOF 0
ENDMDL
