MODEL 1
REMARK minimizedAffinity -3.53661561
REMARK minimizedRMSD -1
REMARK  0 active torsions:
REMARK  status: ('A' for Active; 'I' for Inactive)
ROOT
ATOM      1  C1  DEN d   1       1.320   0.896  -0.037  0.00  0.00     0.130 A 
ATOM      2  C2  DEN d   1       0.736   0.494  -1.313  0.00  0.00    -0.031 A 
ATOM      3  C3  DEN d   1      -0.473  -0.306  -1.031  0.00  0.00     0.027 A 
ATOM      4  C4  DEN d   1      -1.494  -0.954   1.247  0.00  0.00     0.027 A 
ATOM      5  C5  DEN d   1      -1.346  -0.854   2.613  0.00  0.00    -0.003 A 
ATOM      6  C6  DEN d   1      -0.290  -0.198   3.187  0.00  0.00     0.001 A 
ATOM      7  C7  DEN d   1       0.637   0.423   2.391  0.00  0.00     0.017 A 
ATOM      8  C8  DEN d   1       0.499   0.320   1.013  0.00  0.00    -0.094 A 
ATOM      9  C9  DEN d   1      -0.583  -0.337   0.452  0.00  0.00    -0.072 A 
ENDROOT
TORSDOF 0
ENDMDL
