MODEL 1
REMARK minimizedAffinity -3.82596016
REMARK minimizedRMSD -1
REMARK  0 active torsions:
REMARK  status: ('A' for Active; 'I' for Inactive)
ROOT
ATOM      1  C1  DEN d   1      -0.846   0.386  -0.857  0.00  0.00     0.130 A 
ATOM      2  C2  DEN d   1       0.338   1.183  -1.165  0.00  0.00    -0.031 A 
ATOM      3  C3  DEN d   1       1.153   1.282   0.063  0.00  0.00     0.027 A 
ATOM      4  C4  DEN d   1       0.701   0.281   2.396  0.00  0.00     0.027 A 
ATOM      5  C5  DEN d   1      -0.183  -0.462   3.147  0.00  0.00    -0.003 A 
ATOM      6  C6  DEN d   1      -1.357  -0.942   2.629  0.00  0.00     0.001 A 
ATOM      7  C7  DEN d   1      -1.657  -0.723   1.311  0.00  0.00     0.017 A 
ATOM      8  C8  DEN d   1      -0.774   0.033   0.550  0.00  0.00    -0.094 A 
ATOM      9  C9  DEN d   1       0.413   0.499   1.088  0.00  0.00    -0.072 A 
ENDROOT
TORSDOF 0
ENDMDL
