MODEL 1
REMARK minimizedAffinity -4.55941772
REMARK minimizedRMSD -1
REMARK  0 active torsions:
REMARK  status: ('A' for Active; 'I' for Inactive)
ROOT
ATOM      1  C1  DEN d   1       1.242   0.850  -0.618  0.00  0.00     0.130 A 
ATOM      2  C2  DEN d   1       0.462   0.413  -1.772  0.00  0.00    -0.031 A 
ATOM      3  C3  DEN d   1      -0.731  -0.300  -1.273  0.00  0.00     0.027 A 
ATOM      4  C4  DEN d   1      -1.444  -0.763   1.162  0.00  0.00     0.027 A 
ATOM      5  C5  DEN d   1      -1.097  -0.597   2.484  0.00  0.00    -0.003 A 
ATOM      6  C6  DEN d   1       0.062   0.028   2.862  0.00  0.00     0.001 A 
ATOM      7  C7  DEN d   1       0.894   0.550   1.907  0.00  0.00     0.017 A 
ATOM      8  C8  DEN d   1       0.554   0.380   0.571  0.00  0.00    -0.094 A 
ATOM      9  C9  DEN d   1      -0.628  -0.244   0.210  0.00  0.00    -0.072 A 
ENDROOT
TORSDOF 0
ENDMDL
