MODEL 1
REMARK minimizedAffinity -3.7798667
REMARK minimizedRMSD -1
REMARK  0 active torsions:
REMARK  status: ('A' for Active; 'I' for Inactive)
ROOT
ATOM      1  C1  DEN d   1       1.616   0.161  -0.899  0.00  0.00     0.130 A 
ATOM      2  C2  DEN d   1       0.757  -0.171  -2.033  0.00  0.00    -0.031 A 
ATOM      3  C3  DEN d   1      -0.543  -0.628  -1.503  0.00  0.00     0.027 A 
ATOM      4  C4  DEN d   1      -1.308  -0.847   0.950  0.00  0.00     0.027 A 
ATOM      5  C5  DEN d   1      -0.924  -0.693   2.264  0.00  0.00    -0.003 A 
ATOM      6  C6  DEN d   1       0.334  -0.279   2.613  0.00  0.00     0.001 A 
ATOM      7  C7  DEN d   1       1.240   0.038   1.636  0.00  0.00     0.017 A 
ATOM      8  C8  DEN d   1       0.862  -0.122   0.309  0.00  0.00    -0.094 A 
ATOM      9  C9  DEN d   1      -0.418  -0.530  -0.024  0.00  0.00    -0.072 A 
ENDROOT
TORSDOF 0
ENDMDL
