MODEL 1
REMARK minimizedAffinity -5.22023773
REMARK minimizedRMSD -1
REMARK  0 active torsions:
REMARK  status: ('A' for Active; 'I' for Inactive)
ROOT
ATOM      1  C1  DEN d   1       1.008   0.421   0.196  0.00  0.00     0.130 A 
ATOM      2  C2  DEN d   1       0.424   0.516  -1.139  0.00  0.00    -0.031 A 
ATOM      3  C3  DEN d   1      -1.016   0.210  -1.030  0.00  0.00     0.027 A 
ATOM      4  C4  DEN d   1      -2.393  -0.393   1.066  0.00  0.00     0.027 A 
ATOM      5  C5  DEN d   1      -2.333  -0.608   2.425  0.00  0.00    -0.003 A 
ATOM      6  C6  DEN d   1      -1.158  -0.529   3.125  0.00  0.00     0.001 A 
ATOM      7  C7  DEN d   1      -0.003  -0.183   2.476  0.00  0.00     0.017 A 
ATOM      8  C8  DEN d   1      -0.055   0.028   1.104  0.00  0.00    -0.094 A 
ATOM      9  C9  DEN d   1      -1.254  -0.045   0.416  0.00  0.00    -0.072 A 
ENDROOT
TORSDOF 0
ENDMDL
