MODEL 1
REMARK minimizedAffinity -4.60373497
REMARK minimizedRMSD -1
REMARK  0 active torsions:
REMARK  status: ('A' for Active; 'I' for Inactive)
ROOT
ATOM      1  C1  DEN d   1       2.965   0.176  -2.729  0.00  0.00     0.130 A 
ATOM      2  C2  DEN d   1       3.488  -0.950  -3.499  0.00  0.00    -0.031 A 
ATOM      3  C3  DEN d   1       2.391  -1.917  -3.697  0.00  0.00     0.027 A 
ATOM      4  C4  DEN d   1      -0.057  -1.781  -2.894  0.00  0.00     0.027 A 
ATOM      5  C5  DEN d   1      -0.968  -1.021  -2.194  0.00  0.00    -0.003 A 
ATOM      6  C6  DEN d   1      -0.626   0.164  -1.599  0.00  0.00     0.001 A 
ATOM      7  C7  DEN d   1       0.649   0.648  -1.732  0.00  0.00     0.017 A 
ATOM      8  C8  DEN d   1       1.575  -0.116  -2.430  0.00  0.00    -0.094 A 
ATOM      9  C9  DEN d   1       1.207  -1.306  -3.034  0.00  0.00    -0.072 A 
ENDROOT
TORSDOF 0
ENDMDL
