MODEL 1
REMARK minimizedAffinity -3.84763956
REMARK minimizedRMSD -1
REMARK  0 active torsions:
REMARK  status: ('A' for Active; 'I' for Inactive)
ROOT
ATOM      1  C1  DEN d   1      -0.746   0.768  -0.843  0.00  0.00     0.130 A 
ATOM      2  C2  DEN d   1      -0.002  -0.011  -1.829  0.00  0.00    -0.031 A 
ATOM      3  C3  DEN d   1       0.807  -1.012  -1.105  0.00  0.00     0.027 A 
ATOM      4  C4  DEN d   1       0.975  -1.432   1.434  0.00  0.00     0.027 A 
ATOM      5  C5  DEN d   1       0.539  -1.015   2.673  0.00  0.00    -0.003 A 
ATOM      6  C6  DEN d   1      -0.323   0.039   2.826  0.00  0.00     0.001 A 
ATOM      7  C7  DEN d   1      -0.811   0.683   1.720  0.00  0.00     0.017 A 
ATOM      8  C8  DEN d   1      -0.370   0.273   0.469  0.00  0.00    -0.094 A 
ATOM      9  C9  DEN d   1       0.492  -0.802   0.334  0.00  0.00    -0.072 A 
ENDROOT
TORSDOF 0
ENDMDL
