MODEL 1
REMARK minimizedAffinity -4.41122818
REMARK minimizedRMSD -1
REMARK  0 active torsions:
REMARK  status: ('A' for Active; 'I' for Inactive)
ROOT
ATOM      1  C1  DEN d   1       4.512  -0.976  -3.793  0.00  0.00     0.130 A 
ATOM      2  C2  DEN d   1       4.909   0.423  -3.658  0.00  0.00    -0.031 A 
ATOM      3  C3  DEN d   1       3.707   1.206  -3.306  0.00  0.00     0.027 A 
ATOM      4  C4  DEN d   1       1.285   0.393  -2.955  0.00  0.00     0.027 A 
ATOM      5  C5  DEN d   1       0.457  -0.708  -2.973  0.00  0.00    -0.003 A 
ATOM      6  C6  DEN d   1       0.912  -1.959  -3.296  0.00  0.00     0.001 A 
ATOM      7  C7  DEN d   1       2.240  -2.148  -3.570  0.00  0.00     0.017 A 
ATOM      8  C8  DEN d   1       3.080  -1.042  -3.562  0.00  0.00    -0.094 A 
ATOM      9  C9  DEN d   1       2.604   0.212  -3.221  0.00  0.00    -0.072 A 
ENDROOT
TORSDOF 0
ENDMDL
