MODEL 1
REMARK minimizedAffinity -5.8343997
REMARK minimizedRMSD -1
REMARK  0 active torsions:
REMARK  status: ('A' for Active; 'I' for Inactive)
ROOT
ATOM      1  C1  DEN d   1      -2.159   0.397  -0.459  0.00  0.00     0.130 A 
ATOM      2  C2  DEN d   1      -1.225   0.904  -1.460  0.00  0.00    -0.031 A 
ATOM      3  C3  DEN d   1       0.128   0.898  -0.867  0.00  0.00     0.027 A 
ATOM      4  C4  DEN d   1       0.862   0.153   1.490  0.00  0.00     0.027 A 
ATOM      5  C5  DEN d   1       0.424  -0.340   2.699  0.00  0.00    -0.003 A 
ATOM      6  C6  DEN d   1      -0.900  -0.589   2.949  0.00  0.00     0.001 A 
ATOM      7  C7  DEN d   1      -1.827  -0.386   1.961  0.00  0.00     0.017 A 
ATOM      8  C8  DEN d   1      -1.394   0.118   0.742  0.00  0.00    -0.094 A 
ATOM      9  C9  DEN d   1      -0.050   0.351   0.505  0.00  0.00    -0.072 A 
ENDROOT
TORSDOF 0
ENDMDL
