MODEL 1
REMARK minimizedAffinity -2.68651676
REMARK minimizedRMSD -1
REMARK  0 active torsions:
REMARK  status: ('A' for Active; 'I' for Inactive)
ROOT
ATOM      1  C1  DEN d   1      -2.387  -0.717   1.091  0.00  0.00     0.130 A 
ATOM      2  C2  DEN d   1      -2.741  -0.296  -0.261  0.00  0.00    -0.031 A 
ATOM      3  C3  DEN d   1      -1.621   0.502  -0.799  0.00  0.00     0.027 A 
ATOM      4  C4  DEN d   1       0.617   1.119   0.323  0.00  0.00     0.027 A 
ATOM      5  C5  DEN d   1       1.368   0.999   1.472  0.00  0.00    -0.003 A 
ATOM      6  C6  DEN d   1       0.909   0.333   2.577  0.00  0.00     0.001 A 
ATOM      7  C7  DEN d   1      -0.317  -0.278   2.542  0.00  0.00     0.017 A 
ATOM      8  C8  DEN d   1      -1.082  -0.155   1.390  0.00  0.00    -0.094 A 
ATOM      9  C9  DEN d   1      -0.596   0.512   0.278  0.00  0.00    -0.072 A 
ENDROOT
TORSDOF 0
ENDMDL
