MODEL 1
REMARK minimizedAffinity -0.406427473
REMARK minimizedRMSD -1
REMARK  0 active torsions:
REMARK  status: ('A' for Active; 'I' for Inactive)
ROOT
ATOM      1  C1  DEN d   1       1.103   1.336   0.376  0.00  0.00     0.130 A 
ATOM      2  C2  DEN d   1       0.975   0.751  -0.957  0.00  0.00    -0.031 A 
ATOM      3  C3  DEN d   1       0.049  -0.395  -0.865  0.00  0.00     0.027 A 
ATOM      4  C4  DEN d   1      -1.197  -1.315   1.198  0.00  0.00     0.027 A 
ATOM      5  C5  DEN d   1      -1.396  -1.156   2.552  0.00  0.00    -0.003 A 
ATOM      6  C6  DEN d   1      -0.755  -0.186   3.276  0.00  0.00     0.001 A 
ATOM      7  C7  DEN d   1       0.082   0.694   2.640  0.00  0.00     0.017 A 
ATOM      8  C8  DEN d   1       0.293   0.536   1.277  0.00  0.00    -0.094 A 
ATOM      9  C9  DEN d   1      -0.373  -0.444   0.561  0.00  0.00    -0.072 A 
ENDROOT
TORSDOF 0
ENDMDL
