MODEL 1
REMARK minimizedAffinity -1.71597946
REMARK minimizedRMSD -1
REMARK  1 active torsions:
REMARK  status: ('A' for Active; 'I' for Inactive)
REMARK    1  A    between atoms: N_2  and  C1_3 
ROOT
ATOM      1  C1  UNL d   1       2.081   0.944  -1.119  0.00  0.00     0.143 A 
ATOM      2  C2  UNL d   1       1.963   0.106  -2.233  0.00  0.00    -0.057 A 
ATOM      3  C3  UNL d   1       0.895  -0.790  -2.358  0.00  0.00     0.033 A 
ATOM      4  C4  UNL d   1      -0.062  -0.886  -1.352  0.00  0.00    -0.042 A 
ATOM      5  C5  UNL d   1       0.049  -0.081  -0.224  0.00  0.00     0.033 A 
ATOM      6  C6  UNL d   1       1.115   0.817  -0.108  0.00  0.00    -0.057 A 
ENDROOT
BRANCH   1   7
ATOM      7  N   UNL d   1       3.173   1.786  -0.890  0.00  0.00    -0.732 N 
ATOM      8  C   UNL d   1       4.488   1.236  -0.640  0.00  0.00     0.284 C 
ATOM      9  H3  UNL d   1       3.171   2.598  -1.503  0.00  0.00     0.395 HD
ENDBRANCH   1   7
TORSDOF 1
ENDMDL
