MODEL 1
REMARK minimizedAffinity 4.80172396
REMARK minimizedRMSD -1
REMARK  1 active torsions:
REMARK  status: ('A' for Active; 'I' for Inactive)
REMARK    1  A    between atoms: N_2  and  C1_3 
ROOT
ATOM      1  C1  UNL d   1       0.377   1.045   1.513  0.00  0.00     0.143 A 
ATOM      2  C2  UNL d   1       0.196   0.542   2.806  0.00  0.00    -0.057 A 
ATOM      3  C3  UNL d   1       0.981   0.991   3.876  0.00  0.00     0.033 A 
ATOM      4  C4  UNL d   1       1.983   1.932   3.664  0.00  0.00    -0.042 A 
ATOM      5  C5  UNL d   1       2.196   2.427   2.383  0.00  0.00     0.033 A 
ATOM      6  C6  UNL d   1       1.405   1.981   1.320  0.00  0.00    -0.057 A 
ENDROOT
BRANCH   1   7
ATOM      7  N   UNL d   1      -0.305   0.568   0.391  0.00  0.00    -0.732 N 
ATOM      8  C   UNL d   1       0.033  -0.716  -0.186  0.00  0.00     0.284 C 
ATOM      9  H3  UNL d   1      -1.304   0.753   0.435  0.00  0.00     0.395 HD
ENDBRANCH   1   7
TORSDOF 1
ENDMDL
