MODEL 1
REMARK minimizedAffinity -2.1535902
REMARK minimizedRMSD -1
REMARK  1 active torsions:
REMARK  status: ('A' for Active; 'I' for Inactive)
REMARK    1  A    between atoms: N_2  and  C1_3 
ROOT
ATOM      1  C1  UNL d   1       2.132   1.442   0.420  0.00  0.00     0.143 A 
ATOM      2  C2  UNL d   1       0.835   0.960   0.216  0.00  0.00    -0.057 A 
ATOM      3  C3  UNL d   1      -0.001   0.648   1.295  0.00  0.00     0.033 A 
ATOM      4  C4  UNL d   1       0.457   0.786   2.601  0.00  0.00    -0.042 A 
ATOM      5  C5  UNL d   1       1.752   1.240   2.827  0.00  0.00     0.033 A 
ATOM      6  C6  UNL d   1       2.580   1.556   1.745  0.00  0.00    -0.057 A 
ENDROOT
BRANCH   1   7
ATOM      7  N   UNL d   1       3.046   1.676  -0.611  0.00  0.00    -0.732 N 
ATOM      8  C   UNL d   1       4.426   1.260  -0.482  0.00  0.00     0.284 C 
ATOM      9  H3  UNL d   1       2.645   1.508  -1.531  0.00  0.00     0.395 HD
ENDBRANCH   1   7
TORSDOF 1
ENDMDL
