MODEL 1
REMARK minimizedAffinity -2.38110256
REMARK minimizedRMSD -1
REMARK  1 active torsions:
REMARK  status: ('A' for Active; 'I' for Inactive)
REMARK    1  A    between atoms: N_2  and  C1_3 
ROOT
ATOM      1  C1  UNL d   1       2.386   0.832  -1.177  0.00  0.00     0.143 A 
ATOM      2  C2  UNL d   1       2.012  -0.080  -2.170  0.00  0.00    -0.057 A 
ATOM      3  C3  UNL d   1       0.725  -0.631  -2.201  0.00  0.00     0.033 A 
ATOM      4  C4  UNL d   1      -0.204  -0.301  -1.220  0.00  0.00    -0.042 A 
ATOM      5  C5  UNL d   1       0.154   0.584  -0.209  0.00  0.00     0.033 A 
ATOM      6  C6  UNL d   1       1.439   1.136  -0.187  0.00  0.00    -0.057 A 
ENDROOT
BRANCH   1   7
ATOM      7  N   UNL d   1       3.680   1.339  -1.035  0.00  0.00    -0.732 N 
ATOM      8  C   UNL d   1       4.810   0.446  -0.895  0.00  0.00     0.284 C 
ATOM      9  H3  UNL d   1       3.853   2.137  -1.642  0.00  0.00     0.395 HD
ENDBRANCH   1   7
TORSDOF 1
ENDMDL
