MODEL 1
REMARK minimizedAffinity -3.01577759
REMARK minimizedRMSD -1
REMARK  1 active torsions:
REMARK  status: ('A' for Active; 'I' for Inactive)
REMARK    1  A    between atoms: N_2  and  C1_3 
ROOT
ATOM      1  C1  UNL d   1       1.070  -0.424  -1.391  0.00  0.00     0.143 A 
ATOM      2  C2  UNL d   1       0.804  -1.793  -1.270  0.00  0.00    -0.057 A 
ATOM      3  C3  UNL d   1      -0.034  -2.283  -0.261  0.00  0.00     0.033 A 
ATOM      4  C4  UNL d   1      -0.599  -1.413   0.666  0.00  0.00    -0.042 A 
ATOM      5  C5  UNL d   1      -0.329  -0.052   0.580  0.00  0.00     0.033 A 
ATOM      6  C6  UNL d   1       0.503   0.432  -0.434  0.00  0.00    -0.057 A 
ENDROOT
BRANCH   1   7
ATOM      7  N   UNL d   1       1.972   0.114  -2.312  0.00  0.00    -0.732 N 
ATOM      8  C   UNL d   1       3.293   0.530  -1.892  0.00  0.00     0.284 C 
ATOM      9  H3  UNL d   1       1.954  -0.374  -3.205  0.00  0.00     0.395 HD
ENDBRANCH   1   7
TORSDOF 1
ENDMDL
