MODEL 1
REMARK minimizedAffinity -4.81979084
REMARK minimizedRMSD -1
REMARK  1 active torsions:
REMARK  status: ('A' for Active; 'I' for Inactive)
REMARK    1  A    between atoms: N_2  and  C1_3 
ROOT
ATOM      1  C1  UNL d   1      -1.063   0.694   2.497  0.00  0.00     0.143 A 
ATOM      2  C2  UNL d   1      -1.985   0.031   1.681  0.00  0.00    -0.057 A 
ATOM      3  C3  UNL d   1      -3.359   0.281   1.786  0.00  0.00     0.033 A 
ATOM      4  C4  UNL d   1      -3.838   1.182   2.732  0.00  0.00    -0.042 A 
ATOM      5  C5  UNL d   1      -2.941   1.834   3.570  0.00  0.00     0.033 A 
ATOM      6  C6  UNL d   1      -1.570   1.585   3.456  0.00  0.00    -0.057 A 
ENDROOT
BRANCH   1   7
ATOM      7  N   UNL d   1       0.306   0.416   2.508  0.00  0.00    -0.732 N 
ATOM      8  C   UNL d   1       1.203   1.161   3.366  0.00  0.00     0.284 C 
ATOM      9  H3  UNL d   1       0.500  -0.582   2.472  0.00  0.00     0.395 HD
ENDBRANCH   1   7
TORSDOF 1
ENDMDL
