MODEL 1
REMARK minimizedAffinity -4.75779819
REMARK minimizedRMSD -1
REMARK  1 active torsions:
REMARK  status: ('A' for Active; 'I' for Inactive)
REMARK    1  A    between atoms: N_2  and  C1_3 
ROOT
ATOM      1  C1  UNL d   1       0.286   0.172  -0.073  0.00  0.00     0.143 A 
ATOM      2  C2  UNL d   1       1.123   1.270  -0.301  0.00  0.00    -0.057 A 
ATOM      3  C3  UNL d   1       1.926   1.345  -1.445  0.00  0.00     0.033 A 
ATOM      4  C4  UNL d   1       1.929   0.305  -2.370  0.00  0.00    -0.042 A 
ATOM      5  C5  UNL d   1       1.125  -0.807  -2.150  0.00  0.00     0.033 A 
ATOM      6  C6  UNL d   1       0.319  -0.873  -1.009  0.00  0.00    -0.057 A 
ENDROOT
BRANCH   1   7
ATOM      7  N   UNL d   1      -0.462  -0.006   1.094  0.00  0.00    -0.732 N 
ATOM      8  C   UNL d   1      -1.905  -0.101   1.036  0.00  0.00     0.284 C 
ATOM      9  H3  UNL d   1      -0.027  -0.663   1.737  0.00  0.00     0.395 HD
ENDBRANCH   1   7
TORSDOF 1
ENDMDL
