MODEL 1
REMARK minimizedAffinity 5.78448391
REMARK minimizedRMSD -1
REMARK  0 active torsions:
REMARK  status: ('A' for Active; 'I' for Inactive)
ROOT
ATOM      1  C   UNL d   1       4.007  -3.999  -0.007  0.00  0.00     0.023 A 
ATOM      2  C1  UNL d   1       5.167  -4.362   0.678  0.00  0.00     0.003 A 
ATOM      3  C2  UNL d   1       5.315  -4.030   2.026  0.00  0.00     0.048 A 
ATOM      4  C3  UNL d   1       4.300  -3.337   2.684  0.00  0.00     0.023 A 
ATOM      5  C4  UNL d   1       3.137  -2.973   2.003  0.00  0.00     0.048 A 
ATOM      6  C5  UNL d   1       2.993  -3.306   0.655  0.00  0.00     0.003 A 
ATOM      7  I   UNL d   1       4.519  -2.844   4.691  0.00  0.00    -0.146 I 
ENDROOT
TORSDOF 0
ENDMDL
