MODEL 1
REMARK minimizedAffinity -0.146099791
REMARK minimizedRMSD -1
REMARK  0 active torsions:
REMARK  status: ('A' for Active; 'I' for Inactive)
ROOT
ATOM      1  C   UNL d   1       4.038  -4.492   0.015  0.00  0.00     0.023 A 
ATOM      2  C1  UNL d   1       3.151  -3.787   0.829  0.00  0.00     0.003 A 
ATOM      3  C2  UNL d   1       3.405  -3.661   2.196  0.00  0.00     0.048 A 
ATOM      4  C3  UNL d   1       4.549  -4.241   2.743  0.00  0.00     0.023 A 
ATOM      5  C4  UNL d   1       5.441  -4.946   1.933  0.00  0.00     0.048 A 
ATOM      6  C5  UNL d   1       5.182  -5.071   0.567  0.00  0.00     0.003 A 
ATOM      7  I   UNL d   1       4.930  -4.055   4.778  0.00  0.00    -0.146 I 
ENDROOT
TORSDOF 0
ENDMDL
