MODEL 1
REMARK minimizedAffinity 7.13876867
REMARK minimizedRMSD -1
REMARK  0 active torsions:
REMARK  status: ('A' for Active; 'I' for Inactive)
ROOT
ATOM      1  C   UNL d   1      -3.430  -1.029  -5.151  0.00  0.00     0.023 A 
ATOM      2  C1  UNL d   1      -2.519  -0.025  -5.481  0.00  0.00     0.003 A 
ATOM      3  C2  UNL d   1      -2.913   1.314  -5.454  0.00  0.00     0.048 A 
ATOM      4  C3  UNL d   1      -4.220   1.643  -5.096  0.00  0.00     0.023 A 
ATOM      5  C4  UNL d   1      -5.135   0.642  -4.764  0.00  0.00     0.048 A 
ATOM      6  C5  UNL d   1      -4.736  -0.696  -4.793  0.00  0.00     0.003 A 
ATOM      7  I   UNL d   1      -4.810   3.635  -5.055  0.00  0.00    -0.146 I 
ENDROOT
TORSDOF 0
ENDMDL
