MODEL 1
REMARK minimizedAffinity 4.22610283
REMARK minimizedRMSD -1
REMARK  0 active torsions:
REMARK  status: ('A' for Active; 'I' for Inactive)
ROOT
ATOM      1  C   UNL d   1      -4.639  -1.662  -2.488  0.00  0.00     0.023 A 
ATOM      2  C1  UNL d   1      -5.533  -1.440  -3.535  0.00  0.00     0.003 A 
ATOM      3  C2  UNL d   1      -5.220  -0.523  -4.540  0.00  0.00     0.048 A 
ATOM      4  C3  UNL d   1      -4.010   0.169  -4.492  0.00  0.00     0.023 A 
ATOM      5  C4  UNL d   1      -3.112  -0.050  -3.446  0.00  0.00     0.048 A 
ATOM      6  C5  UNL d   1      -3.430  -0.968  -2.443  0.00  0.00     0.003 A 
ATOM      7  I   UNL d   1      -3.541   1.535  -5.987  0.00  0.00    -0.146 I 
ENDROOT
TORSDOF 0
ENDMDL
