MODEL 1
REMARK minimizedAffinity 3.27800798
REMARK minimizedRMSD -1
REMARK  0 active torsions:
REMARK  status: ('A' for Active; 'I' for Inactive)
ROOT
ATOM      1  C   UNL d   1      -4.488   0.487  -5.996  0.00  0.00     0.023 A 
ATOM      2  C1  UNL d   1      -5.397   0.264  -4.962  0.00  0.00     0.003 A 
ATOM      3  C2  UNL d   1      -4.937  -0.032  -3.677  0.00  0.00     0.048 A 
ATOM      4  C3  UNL d   1      -3.566  -0.101  -3.433  0.00  0.00     0.023 A 
ATOM      5  C4  UNL d   1      -2.652   0.122  -4.464  0.00  0.00     0.048 A 
ATOM      6  C5  UNL d   1      -3.117   0.416  -5.747  0.00  0.00     0.003 A 
ATOM      7  I   UNL d   1      -2.878  -0.540  -1.521  0.00  0.00    -0.146 I 
ENDROOT
TORSDOF 0
ENDMDL
