MODEL 1
REMARK minimizedAffinity -0.374257356
REMARK minimizedRMSD -1
REMARK  0 active torsions:
REMARK  status: ('A' for Active; 'I' for Inactive)
ROOT
ATOM      1  C   UNL d   1      -5.863   0.373  -3.923  0.00  0.00     0.023 A 
ATOM      2  C1  UNL d   1      -5.165  -0.398  -2.993  0.00  0.00     0.003 A 
ATOM      3  C2  UNL d   1      -3.977  -1.033  -3.362  0.00  0.00     0.048 A 
ATOM      4  C3  UNL d   1      -3.493  -0.892  -4.662  0.00  0.00     0.023 A 
ATOM      5  C4  UNL d   1      -4.188  -0.121  -5.595  0.00  0.00     0.048 A 
ATOM      6  C5  UNL d   1      -5.375   0.511  -5.223  0.00  0.00     0.003 A 
ATOM      7  I   UNL d   1      -1.725  -1.836  -5.213  0.00  0.00    -0.146 I 
ENDROOT
TORSDOF 0
ENDMDL
