MODEL 1
REMARK minimizedAffinity 8.87332153
REMARK minimizedRMSD -1
REMARK  0 active torsions:
REMARK  status: ('A' for Active; 'I' for Inactive)
ROOT
ATOM      1  C   UNL d   1      -5.492   2.286  -5.185  0.00  0.00     0.023 A 
ATOM      2  C1  UNL d   1      -5.999   1.034  -4.835  0.00  0.00     0.003 A 
ATOM      3  C2  UNL d   1      -5.161  -0.082  -4.827  0.00  0.00     0.048 A 
ATOM      4  C3  UNL d   1      -3.816   0.060  -5.167  0.00  0.00     0.023 A 
ATOM      5  C4  UNL d   1      -3.304   1.311  -5.517  0.00  0.00     0.048 A 
ATOM      6  C5  UNL d   1      -4.147   2.424  -5.525  0.00  0.00     0.003 A 
ATOM      7  I   UNL d   1      -2.566  -1.600  -5.155  0.00  0.00    -0.146 I 
ENDROOT
TORSDOF 0
ENDMDL
