MODEL 1
REMARK minimizedAffinity -4.24244022
REMARK minimizedRMSD -1
REMARK  2 active torsions:
REMARK  status: ('A' for Active; 'I' for Inactive)
REMARK    1  A    between atoms: C2'_3  and  C1'_4 
REMARK    2  A    between atoms: C1'_4  and  C1_5 
ROOT
ATOM      1  C1  I4B d   1      -2.236   0.897   1.627  0.00  0.00    -0.075 A 
ATOM      2  C2  I4B d   1      -3.039  -0.188   1.877  0.00  0.00     0.003 A 
ATOM      3  C3  I4B d   1      -3.336  -0.564   3.209  0.00  0.00     0.002 A 
ATOM      4  C4  I4B d   1      -2.773   0.138   4.255  0.00  0.00    -0.004 A 
ATOM      5  C5  I4B d   1      -1.978   1.252   4.001  0.00  0.00     0.002 A 
ATOM      6  C6  I4B d   1      -1.717   1.642   2.679  0.00  0.00     0.003 A 
ENDROOT
BRANCH   1   7
ATOM      7  C1' I4B d   1      -1.916   1.246   0.209  0.00  0.00     0.060 C 
BRANCH   7   8
ATOM      8  C2' I4B d   1      -0.459   0.911  -0.037  0.00  0.00    -0.013 C 
ATOM      9  C4' I4B d   1      -0.276  -0.559  -0.309  0.00  0.00     0.013 C 
ATOM     10  C3' I4B d   1       0.019   1.739  -1.193  0.00  0.00     0.013 C 
ENDBRANCH   7   8
ENDBRANCH   1   7
TORSDOF 2
ENDMDL
