MODEL 1
REMARK minimizedAffinity -3.10298133
REMARK minimizedRMSD -1
REMARK  2 active torsions:
REMARK  status: ('A' for Active; 'I' for Inactive)
REMARK    1  A    between atoms: C2'_3  and  C1'_4 
REMARK    2  A    between atoms: C1'_4  and  C1_5 
ROOT
ATOM      1  C1  I4B d   1      -0.057   0.203  -0.932  0.00  0.00    -0.075 A 
ATOM      2  C2  I4B d   1       0.819  -0.814  -1.221  0.00  0.00     0.003 A 
ATOM      3  C3  I4B d   1       1.826  -0.631  -2.199  0.00  0.00     0.002 A 
ATOM      4  C4  I4B d   1       1.889   0.558  -2.896  0.00  0.00    -0.004 A 
ATOM      5  C5  I4B d   1       1.015   1.596  -2.586  0.00  0.00     0.002 A 
ATOM      6  C6  I4B d   1       0.044   1.422  -1.590  0.00  0.00     0.003 A 
ENDROOT
BRANCH   1   7
ATOM      7  C1' I4B d   1      -1.129  -0.035   0.083  0.00  0.00     0.060 C 
BRANCH   7   8
ATOM      8  C2' I4B d   1      -0.607   0.423   1.430  0.00  0.00    -0.013 C 
ATOM      9  C4' I4B d   1      -1.727   0.584   2.423  0.00  0.00     0.013 C 
ATOM     10  C3' I4B d   1       0.397  -0.584   1.904  0.00  0.00     0.013 C 
ENDBRANCH   7   8
ENDBRANCH   1   7
TORSDOF 2
ENDMDL
