MODEL 1
REMARK minimizedAffinity -4.82328272
REMARK minimizedRMSD -1
REMARK  2 active torsions:
REMARK  status: ('A' for Active; 'I' for Inactive)
REMARK    1  A    between atoms: C2'_3  and  C1'_4 
REMARK    2  A    between atoms: C1'_4  and  C1_5 
ROOT
ATOM      1  C1  I4B d   1      -0.127   0.027  -0.147  0.00  0.00    -0.075 A 
ATOM      2  C2  I4B d   1       0.810   0.463  -1.050  0.00  0.00     0.003 A 
ATOM      3  C3  I4B d   1       1.837  -0.407  -1.490  0.00  0.00     0.002 A 
ATOM      4  C4  I4B d   1       1.918  -1.681  -0.965  0.00  0.00    -0.004 A 
ATOM      5  C5  I4B d   1       0.954  -2.129  -0.067  0.00  0.00     0.002 A 
ATOM      6  C6  I4B d   1      -0.082  -1.275   0.336  0.00  0.00     0.003 A 
ENDROOT
BRANCH   1   7
ATOM      7  C1' I4B d   1      -1.178   0.983   0.320  0.00  0.00     0.060 C 
BRANCH   7   8
ATOM      8  C2' I4B d   1      -1.333   0.811   1.818  0.00  0.00    -0.013 C 
ATOM      9  C4' I4B d   1      -1.054   2.100   2.546  0.00  0.00     0.013 C 
ATOM     10  C3' I4B d   1      -2.726   0.327   2.087  0.00  0.00     0.013 C 
ENDBRANCH   7   8
ENDBRANCH   1   7
TORSDOF 2
ENDMDL
