MODEL 1
REMARK minimizedAffinity -3.7693038
REMARK minimizedRMSD -1
REMARK  2 active torsions:
REMARK  status: ('A' for Active; 'I' for Inactive)
REMARK    1  A    between atoms: C2'_3  and  C1'_4 
REMARK    2  A    between atoms: C1'_4  and  C1_5 
ROOT
ATOM      1  C1  I4B d   1      -0.568   0.102   0.194  0.00  0.00    -0.075 A 
ATOM      2  C2  I4B d   1       0.311   0.811  -0.587  0.00  0.00     0.003 A 
ATOM      3  C3  I4B d   1       1.547   0.236  -0.970  0.00  0.00     0.002 A 
ATOM      4  C4  I4B d   1       1.883  -1.022  -0.512  0.00  0.00    -0.004 A 
ATOM      5  C5  I4B d   1       0.981  -1.748   0.260  0.00  0.00     0.002 A 
ATOM      6  C6  I4B d   1      -0.258  -1.188   0.606  0.00  0.00     0.003 A 
ENDROOT
BRANCH   1   7
ATOM      7  C1' I4B d   1      -1.850   0.752   0.608  0.00  0.00     0.060 C 
BRANCH   7   8
ATOM      8  C2' I4B d   1      -1.939   0.688   2.119  0.00  0.00    -0.013 C 
ATOM      9  C4' I4B d   1      -2.114   2.061   2.713  0.00  0.00     0.013 C 
ATOM     10  C3' I4B d   1      -3.087  -0.208   2.478  0.00  0.00     0.013 C 
ENDBRANCH   7   8
ENDBRANCH   1   7
TORSDOF 2
ENDMDL
