MODEL 1
REMARK minimizedAffinity -1.28093994
REMARK minimizedRMSD -1
REMARK  2 active torsions:
REMARK  status: ('A' for Active; 'I' for Inactive)
REMARK    1  A    between atoms: C2'_3  and  C1'_4 
REMARK    2  A    between atoms: C1'_4  and  C1_5 
ROOT
ATOM      1  C1  I4B d   1      -0.906   0.972   2.053  0.00  0.00    -0.075 A 
ATOM      2  C2  I4B d   1      -1.892   0.080   1.715  0.00  0.00     0.003 A 
ATOM      3  C3  I4B d   1      -2.814  -0.367   2.693  0.00  0.00     0.002 A 
ATOM      4  C4  I4B d   1      -2.683   0.063   3.997  0.00  0.00    -0.004 A 
ATOM      5  C5  I4B d   1      -1.696   0.985   4.333  0.00  0.00     0.002 A 
ATOM      6  C6  I4B d   1      -0.809   1.453   3.352  0.00  0.00     0.003 A 
ENDROOT
BRANCH   1   7
ATOM      7  C1' I4B d   1       0.071   1.398   1.003  0.00  0.00     0.060 C 
BRANCH   7   8
ATOM      8  C2' I4B d   1      -0.389   0.826  -0.322  0.00  0.00    -0.013 C 
ATOM      9  C4' I4B d   1      -0.056   1.753  -1.461  0.00  0.00     0.013 C 
ATOM     10  C3' I4B d   1       0.266  -0.511  -0.503  0.00  0.00     0.013 C 
ENDBRANCH   7   8
ENDBRANCH   1   7
TORSDOF 2
ENDMDL
