MODEL 1
REMARK minimizedAffinity -3.27338719
REMARK minimizedRMSD -1
REMARK  2 active torsions:
REMARK  status: ('A' for Active; 'I' for Inactive)
REMARK    1  A    between atoms: C2'_3  and  C1'_4 
REMARK    2  A    between atoms: C1'_4  and  C1_5 
ROOT
ATOM      1  C1  I4B d   1       0.818   0.079  -0.532  0.00  0.00    -0.075 A 
ATOM      2  C2  I4B d   1       0.908   1.097  -1.448  0.00  0.00     0.003 A 
ATOM      3  C3  I4B d   1       1.547   0.882  -2.693  0.00  0.00     0.002 A 
ATOM      4  C4  I4B d   1       2.122  -0.344  -2.959  0.00  0.00    -0.004 A 
ATOM      5  C5  I4B d   1       2.011  -1.382  -2.038  0.00  0.00     0.002 A 
ATOM      6  C6  I4B d   1       1.344  -1.173  -0.822  0.00  0.00     0.003 A 
ENDROOT
BRANCH   1   7
ATOM      7  C1' I4B d   1       0.166   0.351   0.786  0.00  0.00     0.060 C 
BRANCH   7   8
ATOM      8  C2' I4B d   1      -1.329   0.179   0.612  0.00  0.00    -0.013 C 
ATOM      9  C4' I4B d   1      -2.056   0.366   1.917  0.00  0.00     0.013 C 
ATOM     10  C3' I4B d   1      -1.793   1.171  -0.413  0.00  0.00     0.013 C 
ENDBRANCH   7   8
ENDBRANCH   1   7
TORSDOF 2
ENDMDL
