MODEL 1
REMARK minimizedAffinity -4.71922064
REMARK minimizedRMSD -1
REMARK  2 active torsions:
REMARK  status: ('A' for Active; 'I' for Inactive)
REMARK    1  A    between atoms: C2'_3  and  C1'_4 
REMARK    2  A    between atoms: C1'_4  and  C1_5 
ROOT
ATOM      1  C1  I4B d   1       0.961  -0.128  -0.091  0.00  0.00    -0.075 A 
ATOM      2  C2  I4B d   1       1.129  -1.286  -0.808  0.00  0.00     0.003 A 
ATOM      3  C3  I4B d   1       1.896  -1.282  -1.999  0.00  0.00     0.002 A 
ATOM      4  C4  I4B d   1       2.430  -0.095  -2.459  0.00  0.00    -0.004 A 
ATOM      5  C5  I4B d   1       2.277   1.073  -1.718  0.00  0.00     0.002 A 
ATOM      6  C6  I4B d   1       1.549   1.055  -0.520  0.00  0.00     0.003 A 
ENDROOT
BRANCH   1   7
ATOM      7  C1' I4B d   1       0.118  -0.162   1.145  0.00  0.00     0.060 C 
BRANCH   7   8
ATOM      8  C2' I4B d   1      -0.819   1.028   1.103  0.00  0.00    -0.013 C 
ATOM      9  C4' I4B d   1      -1.832   0.886  -0.003  0.00  0.00     0.013 C 
ATOM     10  C3' I4B d   1      -1.489   1.136   2.440  0.00  0.00     0.013 C 
ENDBRANCH   7   8
ENDBRANCH   1   7
TORSDOF 2
ENDMDL
