MODEL 1
REMARK minimizedAffinity -3.83657146
REMARK minimizedRMSD -1
REMARK  2 active torsions:
REMARK  status: ('A' for Active; 'I' for Inactive)
REMARK    1  A    between atoms: C2'_3  and  C1'_4 
REMARK    2  A    between atoms: C1'_4  and  C1_5 
ROOT
ATOM      1  C1  I4B d   1       1.139   0.561  -0.974  0.00  0.00    -0.075 A 
ATOM      2  C2  I4B d   1       1.980  -0.303  -0.320  0.00  0.00     0.003 A 
ATOM      3  C3  I4B d   1       3.251  -0.610  -0.864  0.00  0.00     0.002 A 
ATOM      4  C4  I4B d   1       3.616  -0.073  -2.081  0.00  0.00    -0.004 A 
ATOM      5  C5  I4B d   1       2.771   0.822  -2.732  0.00  0.00     0.002 A 
ATOM      6  C6  I4B d   1       1.530   1.151  -2.169  0.00  0.00     0.003 A 
ENDROOT
BRANCH   1   7
ATOM      7  C1' I4B d   1      -0.209   0.837  -0.388  0.00  0.00     0.060 C 
BRANCH   7   8
ATOM      8  C2' I4B d   1      -0.564  -0.315   0.529  0.00  0.00    -0.013 C 
ATOM      9  C4' I4B d   1      -1.742   0.026   1.404  0.00  0.00     0.013 C 
ATOM     10  C3' I4B d   1      -0.854  -1.514  -0.324  0.00  0.00     0.013 C 
ENDBRANCH   7   8
ENDBRANCH   1   7
TORSDOF 2
ENDMDL
