MODEL 1
REMARK minimizedAffinity 1.18527675
REMARK minimizedRMSD -1
REMARK  2 active torsions:
REMARK  status: ('A' for Active; 'I' for Inactive)
REMARK    1  A    between atoms: C2'_3  and  C1'_4 
REMARK    2  A    between atoms: C1'_4  and  C1_5 
ROOT
ATOM      1  C1  I4B d   1       4.929  -2.403   4.458  0.00  0.00    -0.075 A 
ATOM      2  C2  I4B d   1       5.158  -2.818   5.745  0.00  0.00     0.003 A 
ATOM      3  C3  I4B d   1       5.724  -4.092   5.993  0.00  0.00     0.002 A 
ATOM      4  C4  I4B d   1       5.997  -4.932   4.933  0.00  0.00    -0.004 A 
ATOM      5  C5  I4B d   1       5.786  -4.500   3.627  0.00  0.00     0.002 A 
ATOM      6  C6  I4B d   1       5.259  -3.222   3.387  0.00  0.00     0.003 A 
ENDROOT
BRANCH   1   7
ATOM      7  C1' I4B d   1       4.299  -1.064   4.234  0.00  0.00     0.060 C 
BRANCH   7   8
ATOM      8  C2' I4B d   1       4.692  -0.164   5.387  0.00  0.00    -0.013 C 
ATOM      9  C4' I4B d   1       5.999  -0.600   5.998  0.00  0.00     0.013 C 
ATOM     10  C3' I4B d   1       4.778   1.241   4.870  0.00  0.00     0.013 C 
ENDBRANCH   7   8
ENDBRANCH   1   7
TORSDOF 2
ENDMDL
