MODEL 1
REMARK minimizedAffinity 0.668437958
REMARK minimizedRMSD -1
REMARK  2 active torsions:
REMARK  status: ('A' for Active; 'I' for Inactive)
REMARK    1  A    between atoms: C2'_3  and  C1'_4 
REMARK    2  A    between atoms: C1'_4  and  C1_5 
ROOT
ATOM      1  C1  I4B d   1       0.806   2.614  -0.160  0.00  0.00    -0.075 A 
ATOM      2  C2  I4B d   1      -0.551   2.481  -0.319  0.00  0.00     0.003 A 
ATOM      3  C3  I4B d   1      -1.411   2.550   0.803  0.00  0.00     0.002 A 
ATOM      4  C4  I4B d   1      -0.872   2.702   2.064  0.00  0.00    -0.004 A 
ATOM      5  C5  I4B d   1       0.502   2.860   2.222  0.00  0.00     0.002 A 
ATOM      6  C6  I4B d   1       1.346   2.828   1.102  0.00  0.00     0.003 A 
ENDROOT
BRANCH   1   7
ATOM      7  C1' I4B d   1       1.688   2.503  -1.363  0.00  0.00     0.060 C 
BRANCH   7   8
ATOM      8  C2' I4B d   1       0.943   1.707  -2.415  0.00  0.00    -0.013 C 
ATOM      9  C4' I4B d   1       0.813   2.487  -3.697  0.00  0.00     0.013 C 
ATOM     10  C3' I4B d   1       1.684   0.423  -2.636  0.00  0.00     0.013 C 
ENDBRANCH   7   8
ENDBRANCH   1   7
TORSDOF 2
ENDMDL
