MODEL 1
REMARK minimizedAffinity -3.95465064
REMARK minimizedRMSD -1
REMARK  2 active torsions:
REMARK  status: ('A' for Active; 'I' for Inactive)
REMARK    1  A    between atoms: C2'_3  and  C1'_4 
REMARK    2  A    between atoms: C1'_4  and  C1_5 
ROOT
ATOM      1  C1  I4B d   1       3.917  -3.759   3.952  0.00  0.00    -0.075 A 
ATOM      2  C2  I4B d   1       2.973  -3.743   2.956  0.00  0.00     0.003 A 
ATOM      3  C3  I4B d   1       2.794  -4.876   2.125  0.00  0.00     0.002 A 
ATOM      4  C4  I4B d   1       3.609  -5.976   2.291  0.00  0.00    -0.004 A 
ATOM      5  C5  I4B d   1       4.550  -6.000   3.316  0.00  0.00     0.002 A 
ATOM      6  C6  I4B d   1       4.697  -4.889   4.160  0.00  0.00     0.003 A 
ENDROOT
BRANCH   1   7
ATOM      7  C1' I4B d   1       4.102  -2.534   4.790  0.00  0.00     0.060 C 
BRANCH   7   8
ATOM      8  C2' I4B d   1       5.542  -2.086   4.649  0.00  0.00    -0.013 C 
ATOM      9  C4' I4B d   1       5.683  -1.031   3.583  0.00  0.00     0.013 C 
ATOM     10  C3' I4B d   1       6.000  -1.573   5.982  0.00  0.00     0.013 C 
ENDBRANCH   7   8
ENDBRANCH   1   7
TORSDOF 2
ENDMDL
