MODEL 1
REMARK minimizedAffinity -3.69047046
REMARK minimizedRMSD -1
REMARK  2 active torsions:
REMARK  status: ('A' for Active; 'I' for Inactive)
REMARK    1  A    between atoms: C2'_3  and  C1'_4 
REMARK    2  A    between atoms: C1'_4  and  C1_5 
ROOT
ATOM      1  C1  I4B d   1       1.152   0.134  -1.254  0.00  0.00    -0.075 A 
ATOM      2  C2  I4B d   1      -0.030   0.509  -0.664  0.00  0.00     0.003 A 
ATOM      3  C3  I4B d   1      -0.810  -0.441   0.038  0.00  0.00     0.002 A 
ATOM      4  C4  I4B d   1      -0.399  -1.758   0.083  0.00  0.00    -0.004 A 
ATOM      5  C5  I4B d   1       0.811  -2.132  -0.496  0.00  0.00     0.002 A 
ATOM      6  C6  I4B d   1       1.597  -1.178  -1.158  0.00  0.00     0.003 A 
ENDROOT
BRANCH   1   7
ATOM      7  C1' I4B d   1       1.934   1.156  -2.016  0.00  0.00     0.060 C 
BRANCH   7   8
ATOM      8  C2' I4B d   1       2.517   0.480  -3.240  0.00  0.00    -0.013 C 
ATOM      9  C4' I4B d   1       1.969   1.081  -4.507  0.00  0.00     0.013 C 
ATOM     10  C3' I4B d   1       4.009   0.617  -3.177  0.00  0.00     0.013 C 
ENDBRANCH   7   8
ENDBRANCH   1   7
TORSDOF 2
ENDMDL
