MODEL 1
REMARK minimizedAffinity 15.9391956
REMARK minimizedRMSD -1
REMARK  0 active torsions:
REMARK  status: ('A' for Active; 'I' for Inactive)
ROOT
ATOM      1  N1  IND d   1      -3.776  -5.532  -4.498  0.00  0.00    -0.196 N 
ATOM      2  C2  IND d   1      -3.523  -5.989  -5.761  0.00  0.00     0.054 A 
ATOM      3  C3  IND d   1      -2.193  -6.000  -5.999  0.00  0.00    -0.031 A 
ATOM      4  C4  IND d   1      -0.244  -5.406  -4.425  0.00  0.00     0.051 A 
ATOM      5  C5  IND d   1       0.022  -4.902  -3.183  0.00  0.00    -0.031 A 
ATOM      6  C6  IND d   1      -0.985  -4.578  -2.297  0.00  0.00     0.015 A 
ATOM      7  C7  IND d   1      -2.301  -4.758  -2.617  0.00  0.00    -0.016 A 
ATOM      8  C8  IND d   1      -2.575  -5.263  -3.880  0.00  0.00    -0.047 A 
ATOM      9  C9  IND d   1      -1.559  -5.553  -4.799  0.00  0.00    -0.096 A 
ATOM     10  HN1 IND d   1      -4.555  -5.429  -4.148  0.00  0.00     0.298 HD
ENDROOT
TORSDOF 0
ENDMDL
