MODEL 1
REMARK minimizedAffinity 14.071435
REMARK minimizedRMSD -1
REMARK  0 active torsions:
REMARK  status: ('A' for Active; 'I' for Inactive)
ROOT
ATOM      1  N1  IND d   1      -0.618   5.159  -3.388  0.00  0.00    -0.196 N 
ATOM      2  C2  IND d   1      -1.981   5.259  -3.398  0.00  0.00     0.054 A 
ATOM      3  C3  IND d   1      -2.506   4.635  -2.319  0.00  0.00    -0.031 A 
ATOM      4  C4  IND d   1      -1.310   3.475  -0.357  0.00  0.00     0.051 A 
ATOM      5  C5  IND d   1      -0.070   3.098   0.077  0.00  0.00    -0.031 A 
ATOM      6  C6  IND d   1       1.074   3.397  -0.634  0.00  0.00     0.015 A 
ATOM      7  C7  IND d   1       1.021   4.098  -1.806  0.00  0.00    -0.016 A 
ATOM      8  C8  IND d   1      -0.237   4.476  -2.254  0.00  0.00    -0.047 A 
ATOM      9  C9  IND d   1      -1.405   4.138  -1.558  0.00  0.00    -0.096 A 
ATOM     10  HN1 IND d   1      -0.088   5.470  -3.988  0.00  0.00     0.298 HD
ENDROOT
TORSDOF 0
ENDMDL
