MODEL 1
REMARK minimizedAffinity 8.59740639
REMARK minimizedRMSD -1
REMARK  0 active torsions:
REMARK  status: ('A' for Active; 'I' for Inactive)
ROOT
ATOM      1  N1  IND d   1       2.767   2.744   0.535  0.00  0.00    -0.196 N 
ATOM      2  C2  IND d   1       2.328   2.015   1.604  0.00  0.00     0.054 A 
ATOM      3  C3  IND d   1       0.979   2.053   1.678  0.00  0.00    -0.031 A 
ATOM      4  C4  IND d   1      -0.715   3.168   0.091  0.00  0.00     0.051 A 
ATOM      5  C5  IND d   1      -0.790   3.980  -1.006  0.00  0.00    -0.031 A 
ATOM      6  C6  IND d   1       0.339   4.428  -1.660  0.00  0.00     0.015 A 
ATOM      7  C7  IND d   1       1.591   4.070  -1.247  0.00  0.00    -0.016 A 
ATOM      8  C8  IND d   1       1.672   3.252  -0.129  0.00  0.00    -0.047 A 
ATOM      9  C9  IND d   1       0.531   2.829   0.565  0.00  0.00    -0.096 A 
ATOM     10  HN1 IND d   1       3.589   2.866   0.314  0.00  0.00     0.298 HD
ENDROOT
TORSDOF 0
ENDMDL
