MODEL 1
REMARK minimizedAffinity 1.65790296
REMARK minimizedRMSD -1
REMARK  0 active torsions:
REMARK  status: ('A' for Active; 'I' for Inactive)
ROOT
ATOM      1  N1  IND d   1      -2.166  -3.646  -5.652  0.00  0.00    -0.196 N 
ATOM      2  C2  IND d   1      -1.507  -4.837  -5.525  0.00  0.00     0.054 A 
ATOM      3  C3  IND d   1      -2.385  -5.864  -5.538  0.00  0.00    -0.031 A 
ATOM      4  C4  IND d   1      -4.939  -5.828  -5.861  0.00  0.00     0.051 A 
ATOM      5  C5  IND d   1      -5.998  -4.972  -5.980  0.00  0.00    -0.031 A 
ATOM      6  C6  IND d   1      -5.830  -3.603  -6.000  0.00  0.00     0.015 A 
ATOM      7  C7  IND d   1      -4.590  -3.036  -5.911  0.00  0.00    -0.016 A 
ATOM      8  C8  IND d   1      -3.513  -3.902  -5.783  0.00  0.00    -0.047 A 
ATOM      9  C9  IND d   1      -3.681  -5.291  -5.720  0.00  0.00    -0.096 A 
ATOM     10  HN1 IND d   1      -1.800  -2.867  -5.651  0.00  0.00     0.298 HD
ENDROOT
TORSDOF 0
ENDMDL
