MODEL 1
REMARK minimizedAffinity 8.49326992
REMARK minimizedRMSD -1
REMARK  0 active torsions:
REMARK  status: ('A' for Active; 'I' for Inactive)
ROOT
ATOM      1  N1  IND d   1       0.880   2.986  -0.331  0.00  0.00    -0.196 N 
ATOM      2  C2  IND d   1      -0.020   2.342   0.471  0.00  0.00     0.054 A 
ATOM      3  C3  IND d   1      -1.212   2.981   0.449  0.00  0.00    -0.031 A 
ATOM      4  C4  IND d   1      -1.937   5.043  -0.911  0.00  0.00     0.051 A 
ATOM      5  C5  IND d   1      -1.452   6.000  -1.758  0.00  0.00    -0.031 A 
ATOM      6  C6  IND d   1      -0.139   6.000  -2.183  0.00  0.00     0.015 A 
ATOM      7  C7  IND d   1       0.739   5.032  -1.784  0.00  0.00    -0.016 A 
ATOM      8  C8  IND d   1       0.252   4.062  -0.919  0.00  0.00    -0.047 A 
ATOM      9  C9  IND d   1      -1.069   4.081  -0.451  0.00  0.00    -0.096 A 
ATOM     10  HN1 IND d   1       1.700   2.758  -0.449  0.00  0.00     0.298 HD
ENDROOT
TORSDOF 0
ENDMDL
