MODEL 1
REMARK minimizedAffinity 11.9848528
REMARK minimizedRMSD -1
REMARK  0 active torsions:
REMARK  status: ('A' for Active; 'I' for Inactive)
ROOT
ATOM      1  N1  IND d   1       2.725  -3.830  -4.113  0.00  0.00    -0.196 N 
ATOM      2  C2  IND d   1       1.917  -2.913  -4.725  0.00  0.00     0.054 A 
ATOM      3  C3  IND d   1       0.859  -2.616  -3.937  0.00  0.00    -0.031 A 
ATOM      4  C4  IND d   1       0.310  -3.439  -1.560  0.00  0.00     0.051 A 
ATOM      5  C5  IND d   1       0.733  -4.312  -0.598  0.00  0.00    -0.031 A 
ATOM      6  C6  IND d   1       1.866  -5.083  -0.760  0.00  0.00     0.015 A 
ATOM      7  C7  IND d   1       2.628  -5.000  -1.891  0.00  0.00    -0.016 A 
ATOM      8  C8  IND d   1       2.197  -4.120  -2.873  0.00  0.00    -0.047 A 
ATOM      9  C9  IND d   1       1.025  -3.366  -2.732  0.00  0.00    -0.096 A 
ATOM     10  HN1 IND d   1       3.442  -4.168  -4.445  0.00  0.00     0.298 HD
ENDROOT
TORSDOF 0
ENDMDL
