MODEL 1
REMARK minimizedAffinity 9.94379139
REMARK minimizedRMSD -1
REMARK  0 active torsions:
REMARK  status: ('A' for Active; 'I' for Inactive)
ROOT
ATOM      1  N1  IND d   1      -0.538  -2.360  -0.582  0.00  0.00    -0.196 N 
ATOM      2  C2  IND d   1       0.720  -2.866  -0.754  0.00  0.00     0.054 A 
ATOM      3  C3  IND d   1       1.639  -1.876  -0.684  0.00  0.00    -0.031 A 
ATOM      4  C4  IND d   1       1.308   0.629  -0.191  0.00  0.00     0.051 A 
ATOM      5  C5  IND d   1       0.336   1.571  -0.000  0.00  0.00    -0.031 A 
ATOM      6  C6  IND d   1      -1.005   1.243   0.009  0.00  0.00     0.015 A 
ATOM      7  C7  IND d   1      -1.424  -0.047  -0.161  0.00  0.00    -0.016 A 
ATOM      8  C8  IND d   1      -0.439  -1.004  -0.362  0.00  0.00    -0.047 A 
ATOM      9  C9  IND d   1       0.920  -0.670  -0.415  0.00  0.00    -0.096 A 
ATOM     10  HN1 IND d   1      -1.268  -2.813  -0.607  0.00  0.00     0.298 HD
ENDROOT
TORSDOF 0
ENDMDL
