MODEL 1
REMARK minimizedAffinity 9.18343449
REMARK minimizedRMSD -1
REMARK  0 active torsions:
REMARK  status: ('A' for Active; 'I' for Inactive)
ROOT
ATOM      1  N1  IND d   1      -0.409   3.399   1.112  0.00  0.00    -0.196 N 
ATOM      2  C2  IND d   1      -1.114   3.616  -0.040  0.00  0.00     0.054 A 
ATOM      3  C3  IND d   1      -0.672   2.801  -1.023  0.00  0.00    -0.031 A 
ATOM      4  C4  IND d   1       1.127   0.961  -0.937  0.00  0.00     0.051 A 
ATOM      5  C5  IND d   1       2.071   0.415  -0.114  0.00  0.00    -0.031 A 
ATOM      6  C6  IND d   1       2.238   0.842   1.188  0.00  0.00     0.015 A 
ATOM      7  C7  IND d   1       1.456   1.828   1.720  0.00  0.00    -0.016 A 
ATOM      8  C8  IND d   1       0.501   2.390   0.884  0.00  0.00    -0.047 A 
ATOM      9  C9  IND d   1       0.356   1.990  -0.451  0.00  0.00    -0.096 A 
ATOM     10  HN1 IND d   1      -0.517   3.820   1.853  0.00  0.00     0.298 HD
ENDROOT
TORSDOF 0
ENDMDL
