MODEL 1
REMARK minimizedAffinity -4.99010563
REMARK minimizedRMSD -1
REMARK  2 active torsions:
REMARK  status: ('A' for Active; 'I' for Inactive)
REMARK    1  A    between atoms: C1_2  and  C2_3 
REMARK    2  A    between atoms: C2_3  and  C3_4 
ROOT
ATOM      1  C3  UNL d   1      -0.636  -0.023   0.219  0.00  0.00    -0.075 A 
ATOM      2  C4  UNL d   1      -0.840  -0.337   1.571  0.00  0.00     0.002 A 
ATOM      3  C5  UNL d   1      -1.583   0.513   2.391  0.00  0.00     0.002 A 
ATOM      4  C6  UNL d   1      -2.120   1.690   1.875  0.00  0.00    -0.004 A 
ATOM      5  C7  UNL d   1      -1.910   2.020   0.538  0.00  0.00     0.002 A 
ATOM      6  C8  UNL d   1      -1.171   1.170  -0.286  0.00  0.00     0.002 A 
ENDROOT
BRANCH   1   7
ATOM      7  C2  UNL d   1       0.141  -0.953  -0.681  0.00  0.00     0.056 C 
BRANCH   7   8
ATOM      8  C1  UNL d   1      -0.723  -1.700  -1.702  0.00  0.00     0.007 C 
ATOM      9  C   UNL d   1      -0.330  -3.162  -1.866  0.00  0.00     0.009 C 
ENDBRANCH   7   8
ENDBRANCH   1   7
TORSDOF 2
ENDMDL
