MODEL 1
REMARK minimizedAffinity -4.72261715
REMARK minimizedRMSD -1
REMARK  2 active torsions:
REMARK  status: ('A' for Active; 'I' for Inactive)
REMARK    1  A    between atoms: C1_2  and  C2_3 
REMARK    2  A    between atoms: C2_3  and  C3_4 
ROOT
ATOM      1  C3  UNL d   1       0.258  -0.214  -0.745  0.00  0.00    -0.075 A 
ATOM      2  C4  UNL d   1      -0.883  -0.273   0.068  0.00  0.00     0.002 A 
ATOM      3  C5  UNL d   1      -1.697   0.848   0.230  0.00  0.00     0.002 A 
ATOM      4  C6  UNL d   1      -1.377   2.043  -0.410  0.00  0.00    -0.004 A 
ATOM      5  C7  UNL d   1      -0.237   2.119  -1.208  0.00  0.00     0.002 A 
ATOM      6  C8  UNL d   1       0.578   0.997  -1.374  0.00  0.00     0.002 A 
ENDROOT
BRANCH   1   7
ATOM      7  C2  UNL d   1       1.127  -1.432  -0.948  0.00  0.00     0.056 C 
BRANCH   7   8
ATOM      8  C1  UNL d   1       0.414  -2.599  -1.638  0.00  0.00     0.007 C 
ATOM      9  C   UNL d   1       1.183  -3.911  -1.548  0.00  0.00     0.009 C 
ENDBRANCH   7   8
ENDBRANCH   1   7
TORSDOF 2
ENDMDL
