MODEL 1
REMARK minimizedAffinity 0.260389745
REMARK minimizedRMSD -1
REMARK  2 active torsions:
REMARK  status: ('A' for Active; 'I' for Inactive)
REMARK    1  A    between atoms: C1_2  and  C2_3 
REMARK    2  A    between atoms: C2_3  and  C3_4 
ROOT
ATOM      1  C3  UNL d   1      -0.603   0.684   1.146  0.00  0.00    -0.075 A 
ATOM      2  C4  UNL d   1      -0.964  -0.668   1.053  0.00  0.00     0.002 A 
ATOM      3  C5  UNL d   1      -0.573  -1.431  -0.048  0.00  0.00     0.002 A 
ATOM      4  C6  UNL d   1       0.172  -0.851  -1.072  0.00  0.00    -0.004 A 
ATOM      5  C7  UNL d   1       0.522   0.495  -0.998  0.00  0.00     0.002 A 
ATOM      6  C8  UNL d   1       0.137   1.260   0.104  0.00  0.00     0.002 A 
ENDROOT
BRANCH   1   7
ATOM      7  C2  UNL d   1      -0.997   1.508   2.349  0.00  0.00     0.056 C 
BRANCH   7   8
ATOM      8  C1  UNL d   1      -0.068   1.334   3.555  0.00  0.00     0.007 C 
ATOM      9  C   UNL d   1       0.657   2.616   3.944  0.00  0.00     0.009 C 
ENDBRANCH   7   8
ENDBRANCH   1   7
TORSDOF 2
ENDMDL
