MODEL 1
REMARK minimizedAffinity -4.53944254
REMARK minimizedRMSD -1
REMARK  2 active torsions:
REMARK  status: ('A' for Active; 'I' for Inactive)
REMARK    1  A    between atoms: C1_2  and  C2_3 
REMARK    2  A    between atoms: C2_3  and  C3_4 
ROOT
ATOM      1  C3  UNL d   1      -0.717   0.510   0.341  0.00  0.00    -0.075 A 
ATOM      2  C4  UNL d   1      -1.934   1.170   0.120  0.00  0.00     0.002 A 
ATOM      3  C5  UNL d   1      -2.516   1.939   1.128  0.00  0.00     0.002 A 
ATOM      4  C6  UNL d   1      -1.896   2.049   2.370  0.00  0.00    -0.004 A 
ATOM      5  C7  UNL d   1      -0.694   1.384   2.607  0.00  0.00     0.002 A 
ATOM      6  C8  UNL d   1      -0.107   0.617   1.598  0.00  0.00     0.002 A 
ENDROOT
BRANCH   1   7
ATOM      7  C2  UNL d   1      -0.067  -0.300  -0.756  0.00  0.00     0.056 C 
BRANCH   7   8
ATOM      8  C1  UNL d   1       1.406   0.048  -0.999  0.00  0.00     0.007 C 
ATOM      9  C   UNL d   1       2.339  -1.144  -0.836  0.00  0.00     0.009 C 
ENDBRANCH   7   8
ENDBRANCH   1   7
TORSDOF 2
ENDMDL
