MODEL 1
REMARK minimizedAffinity -3.90929151
REMARK minimizedRMSD -1
REMARK  2 active torsions:
REMARK  status: ('A' for Active; 'I' for Inactive)
REMARK    1  A    between atoms: C1_2  and  C2_3 
REMARK    2  A    between atoms: C2_3  and  C3_4 
ROOT
ATOM      1  C3  UNL d   1      -0.762   0.812  -0.228  0.00  0.00    -0.075 A 
ATOM      2  C4  UNL d   1      -0.227  -0.456   0.043  0.00  0.00     0.002 A 
ATOM      3  C5  UNL d   1       1.001  -0.837  -0.498  0.00  0.00     0.002 A 
ATOM      4  C6  UNL d   1       1.703   0.038  -1.324  0.00  0.00    -0.004 A 
ATOM      5  C7  UNL d   1       1.173   1.293  -1.614  0.00  0.00     0.002 A 
ATOM      6  C8  UNL d   1      -0.053   1.679  -1.070  0.00  0.00     0.002 A 
ENDROOT
BRANCH   1   7
ATOM      7  C2  UNL d   1      -2.077   1.242   0.378  0.00  0.00     0.056 C 
BRANCH   7   8
ATOM      8  C1  UNL d   1      -1.938   2.279   1.497  0.00  0.00     0.007 C 
ATOM      9  C   UNL d   1      -0.877   1.914   2.527  0.00  0.00     0.009 C 
ENDBRANCH   7   8
ENDBRANCH   1   7
TORSDOF 2
ENDMDL
