MODEL 1
REMARK minimizedAffinity -0.365830421
REMARK minimizedRMSD -1
REMARK  2 active torsions:
REMARK  status: ('A' for Active; 'I' for Inactive)
REMARK    1  A    between atoms: C1_2  and  C2_3 
REMARK    2  A    between atoms: C2_3  and  C3_4 
ROOT
ATOM      1  C3  UNL d   1      -4.380  -2.624   3.826  0.00  0.00    -0.075 A 
ATOM      2  C4  UNL d   1      -4.480  -2.429   5.211  0.00  0.00     0.002 A 
ATOM      3  C5  UNL d   1      -3.335  -2.221   5.981  0.00  0.00     0.002 A 
ATOM      4  C6  UNL d   1      -2.079  -2.216   5.380  0.00  0.00    -0.004 A 
ATOM      5  C7  UNL d   1      -1.966  -2.425   4.007  0.00  0.00     0.002 A 
ATOM      6  C8  UNL d   1      -3.110  -2.629   3.233  0.00  0.00     0.002 A 
ENDROOT
BRANCH   1   7
ATOM      7  C2  UNL d   1      -5.617  -2.820   2.982  0.00  0.00     0.056 C 
BRANCH   7   8
ATOM      8  C1  UNL d   1      -5.479  -2.309   1.544  0.00  0.00     0.007 C 
ATOM      9  C   UNL d   1      -5.256  -0.805   1.460  0.00  0.00     0.009 C 
ENDBRANCH   7   8
ENDBRANCH   1   7
TORSDOF 2
ENDMDL
