MODEL 1
REMARK minimizedAffinity -3.0919838
REMARK minimizedRMSD -1
REMARK  2 active torsions:
REMARK  status: ('A' for Active; 'I' for Inactive)
REMARK    1  A    between atoms: C1_2  and  C2_3 
REMARK    2  A    between atoms: C2_3  and  C3_4 
ROOT
ATOM      1  C3  UNL d   1       0.358  -1.855  -1.270  0.00  0.00    -0.075 A 
ATOM      2  C4  UNL d   1       1.079  -2.955  -0.783  0.00  0.00     0.002 A 
ATOM      3  C5  UNL d   1       1.065  -4.171  -1.467  0.00  0.00     0.002 A 
ATOM      4  C6  UNL d   1       0.323  -4.306  -2.639  0.00  0.00    -0.004 A 
ATOM      5  C7  UNL d   1      -0.410  -3.225  -3.123  0.00  0.00     0.002 A 
ATOM      6  C8  UNL d   1      -0.394  -2.006  -2.443  0.00  0.00     0.002 A 
ENDROOT
BRANCH   1   7
ATOM      7  C2  UNL d   1       0.393  -0.528  -0.551  0.00  0.00     0.056 C 
BRANCH   7   8
ATOM      8  C1  UNL d   1      -0.796   0.385  -0.868  0.00  0.00     0.007 C 
ATOM      9  C   UNL d   1      -0.428   1.862  -0.899  0.00  0.00     0.009 C 
ENDBRANCH   7   8
ENDBRANCH   1   7
TORSDOF 2
ENDMDL
