MODEL 1
REMARK minimizedAffinity 0.487449735
REMARK minimizedRMSD -1
REMARK  2 active torsions:
REMARK  status: ('A' for Active; 'I' for Inactive)
REMARK    1  A    between atoms: C1_2  and  C2_3 
REMARK    2  A    between atoms: C2_3  and  C3_4 
ROOT
ATOM      1  C3  UNL d   1       0.794  -1.717  -1.261  0.00  0.00    -0.075 A 
ATOM      2  C4  UNL d   1       0.308  -1.421  -2.543  0.00  0.00     0.002 A 
ATOM      3  C5  UNL d   1      -0.090  -2.444  -3.404  0.00  0.00     0.002 A 
ATOM      4  C6  UNL d   1       0.003  -3.774  -2.999  0.00  0.00    -0.004 A 
ATOM      5  C7  UNL d   1       0.500  -4.081  -1.734  0.00  0.00     0.002 A 
ATOM      6  C8  UNL d   1       0.894  -3.058  -0.869  0.00  0.00     0.002 A 
ENDROOT
BRANCH   1   7
ATOM      7  C2  UNL d   1       1.198  -0.612  -0.314  0.00  0.00     0.056 C 
BRANCH   7   8
ATOM      8  C1  UNL d   1       1.740   0.640  -1.012  0.00  0.00     0.007 C 
ATOM      9  C   UNL d   1       0.761   1.806  -0.998  0.00  0.00     0.009 C 
ENDBRANCH   7   8
ENDBRANCH   1   7
TORSDOF 2
ENDMDL
