MODEL 1
REMARK minimizedAffinity -1.73439026
REMARK minimizedRMSD -1
REMARK  2 active torsions:
REMARK  status: ('A' for Active; 'I' for Inactive)
REMARK    1  A    between atoms: C1_2  and  C2_3 
REMARK    2  A    between atoms: C2_3  and  C3_4 
ROOT
ATOM      1  C3  UNL d   1       0.127  -1.954  -0.916  0.00  0.00    -0.075 A 
ATOM      2  C4  UNL d   1      -0.682  -0.809  -0.955  0.00  0.00     0.002 A 
ATOM      3  C5  UNL d   1      -0.137   0.452  -0.709  0.00  0.00     0.002 A 
ATOM      4  C6  UNL d   1       1.217   0.583  -0.411  0.00  0.00    -0.004 A 
ATOM      5  C7  UNL d   1       2.027  -0.550  -0.353  0.00  0.00     0.002 A 
ATOM      6  C8  UNL d   1       1.485  -1.812  -0.603  0.00  0.00     0.002 A 
ENDROOT
BRANCH   1   7
ATOM      7  C2  UNL d   1      -0.450  -3.318  -1.210  0.00  0.00     0.056 C 
BRANCH   7   8
ATOM      8  C1  UNL d   1       0.034  -3.928  -2.529  0.00  0.00     0.007 C 
ATOM      9  C   UNL d   1       0.047  -2.934  -3.683  0.00  0.00     0.009 C 
ENDBRANCH   7   8
ENDBRANCH   1   7
TORSDOF 2
ENDMDL
