MODEL 1
REMARK minimizedAffinity -3.25660419
REMARK minimizedRMSD -1
REMARK  2 active torsions:
REMARK  status: ('A' for Active; 'I' for Inactive)
REMARK    1  A    between atoms: C1_2  and  C2_3 
REMARK    2  A    between atoms: C2_3  and  C3_4 
ROOT
ATOM      1  C3  UNL d   1      -0.621   0.031   0.396  0.00  0.00    -0.075 A 
ATOM      2  C4  UNL d   1       0.617   0.343  -0.184  0.00  0.00     0.002 A 
ATOM      3  C5  UNL d   1       1.192  -0.510  -1.127  0.00  0.00     0.002 A 
ATOM      4  C6  UNL d   1       0.543  -1.687  -1.493  0.00  0.00    -0.004 A 
ATOM      5  C7  UNL d   1      -0.679  -2.015  -0.911  0.00  0.00     0.002 A 
ATOM      6  C8  UNL d   1      -1.259  -1.162   0.030  0.00  0.00     0.002 A 
ENDROOT
BRANCH   1   7
ATOM      7  C2  UNL d   1      -1.263   0.963   1.395  0.00  0.00     0.056 C 
BRANCH   7   8
ATOM      8  C1  UNL d   1      -0.569   0.987   2.761  0.00  0.00     0.007 C 
ATOM      9  C   UNL d   1      -0.395  -0.397   3.371  0.00  0.00     0.009 C 
ENDBRANCH   7   8
ENDBRANCH   1   7
TORSDOF 2
ENDMDL
