MODEL 1
REMARK minimizedAffinity -3.60590863
REMARK minimizedRMSD -1
REMARK  2 active torsions:
REMARK  status: ('A' for Active; 'I' for Inactive)
REMARK    1  A    between atoms: C1_2  and  C2_3 
REMARK    2  A    between atoms: C2_3  and  C3_4 
ROOT
ATOM      1  C3  UNL d   1      -0.435  -0.084   0.089  0.00  0.00    -0.075 A 
ATOM      2  C4  UNL d   1      -0.149  -0.817   1.249  0.00  0.00     0.002 A 
ATOM      3  C5  UNL d   1      -0.325  -0.246   2.510  0.00  0.00     0.002 A 
ATOM      4  C6  UNL d   1      -0.778   1.067   2.626  0.00  0.00    -0.004 A 
ATOM      5  C7  UNL d   1      -1.049   1.810   1.479  0.00  0.00     0.002 A 
ATOM      6  C8  UNL d   1      -0.878   1.240   0.217  0.00  0.00     0.002 A 
ENDROOT
BRANCH   1   7
ATOM      7  C2  UNL d   1      -0.275  -0.706  -1.278  0.00  0.00     0.056 C 
BRANCH   7   8
ATOM      8  C1  UNL d   1       0.210  -2.159  -1.248  0.00  0.00     0.007 C 
ATOM      9  C   UNL d   1      -0.163  -2.943  -2.500  0.00  0.00     0.009 C 
ENDBRANCH   7   8
ENDBRANCH   1   7
TORSDOF 2
ENDMDL
