MODEL 1
REMARK minimizedAffinity -4.7212472
REMARK minimizedRMSD -1
REMARK  2 active torsions:
REMARK  status: ('A' for Active; 'I' for Inactive)
REMARK    1  A    between atoms: C1_2  and  C2_3 
REMARK    2  A    between atoms: C2_3  and  C3_4 
ROOT
ATOM      1  C3  UNL d   1      -0.205  -0.499   0.816  0.00  0.00    -0.075 A 
ATOM      2  C4  UNL d   1      -0.900   0.503   0.123  0.00  0.00     0.002 A 
ATOM      3  C5  UNL d   1      -1.387   1.623   0.798  0.00  0.00     0.002 A 
ATOM      4  C6  UNL d   1      -1.194   1.751   2.172  0.00  0.00    -0.004 A 
ATOM      5  C7  UNL d   1      -0.520   0.753   2.873  0.00  0.00     0.002 A 
ATOM      6  C8  UNL d   1      -0.028  -0.366   2.200  0.00  0.00     0.002 A 
ENDROOT
BRANCH   1   7
ATOM      7  C2  UNL d   1       0.350  -1.700   0.087  0.00  0.00     0.056 C 
BRANCH   7   8
ATOM      8  C1  UNL d   1       1.032  -1.362  -1.243  0.00  0.00     0.007 C 
ATOM      9  C   UNL d   1       1.145  -2.557  -2.180  0.00  0.00     0.009 C 
ENDBRANCH   7   8
ENDBRANCH   1   7
TORSDOF 2
ENDMDL
