MODEL 1
REMARK minimizedAffinity -4.95379734
REMARK minimizedRMSD -1
REMARK  2 active torsions:
REMARK  status: ('A' for Active; 'I' for Inactive)
REMARK    1  A    between atoms: C1_2  and  C2_3 
REMARK    2  A    between atoms: C2_3  and  C3_4 
ROOT
ATOM      1  C3  UNL d   1       0.186  -0.408  -0.108  0.00  0.00    -0.075 A 
ATOM      2  C4  UNL d   1      -0.396   0.820  -0.455  0.00  0.00     0.002 A 
ATOM      3  C5  UNL d   1      -0.995   1.620   0.518  0.00  0.00     0.002 A 
ATOM      4  C6  UNL d   1      -1.030   1.199   1.846  0.00  0.00    -0.004 A 
ATOM      5  C7  UNL d   1      -0.469  -0.027   2.199  0.00  0.00     0.002 A 
ATOM      6  C8  UNL d   1       0.135  -0.827   1.228  0.00  0.00     0.002 A 
ENDROOT
BRANCH   1   7
ATOM      7  C2  UNL d   1       0.862  -1.265  -1.152  0.00  0.00     0.056 C 
BRANCH   7   8
ATOM      8  C1  UNL d   1      -0.111  -2.001  -2.079  0.00  0.00     0.007 C 
ATOM      9  C   UNL d   1       0.419  -3.346  -2.559  0.00  0.00     0.009 C 
ENDBRANCH   7   8
ENDBRANCH   1   7
TORSDOF 2
ENDMDL
