MODEL 1
REMARK minimizedAffinity -5.25817299
REMARK minimizedRMSD -1
REMARK  2 active torsions:
REMARK  status: ('A' for Active; 'I' for Inactive)
REMARK    1  A    between atoms: C1_2  and  C2_3 
REMARK    2  A    between atoms: C2_3  and  C3_4 
ROOT
ATOM      1  C3  UNL d   1       0.443  -1.669  -1.079  0.00  0.00    -0.075 A 
ATOM      2  C4  UNL d   1       1.242  -2.822  -1.076  0.00  0.00     0.002 A 
ATOM      3  C5  UNL d   1       0.843  -3.963  -1.772  0.00  0.00     0.002 A 
ATOM      4  C6  UNL d   1      -0.363  -3.971  -2.469  0.00  0.00    -0.004 A 
ATOM      5  C7  UNL d   1      -1.173  -2.837  -2.466  0.00  0.00     0.002 A 
ATOM      6  C8  UNL d   1      -0.774  -1.692  -1.774  0.00  0.00     0.002 A 
ENDROOT
BRANCH   1   7
ATOM      7  C2  UNL d   1       0.884  -0.421  -0.353  0.00  0.00     0.056 C 
BRANCH   7   8
ATOM      8  C1  UNL d   1      -0.231   0.611  -0.154  0.00  0.00     0.007 C 
ATOM      9  C   UNL d   1       0.030   1.924  -0.881  0.00  0.00     0.009 C 
ENDBRANCH   7   8
ENDBRANCH   1   7
TORSDOF 2
ENDMDL
