MODEL 1
REMARK minimizedAffinity -5.1320014
REMARK minimizedRMSD -1
REMARK  2 active torsions:
REMARK  status: ('A' for Active; 'I' for Inactive)
REMARK    1  A    between atoms: C1_2  and  C2_3 
REMARK    2  A    between atoms: C2_3  and  C3_4 
ROOT
ATOM      1  C3  UNL d   1       0.306  -0.451   0.077  0.00  0.00    -0.075 A 
ATOM      2  C4  UNL d   1      -0.442   0.608  -0.458  0.00  0.00     0.002 A 
ATOM      3  C5  UNL d   1      -1.047   1.543   0.382  0.00  0.00     0.002 A 
ATOM      4  C6  UNL d   1      -0.921   1.426   1.765  0.00  0.00    -0.004 A 
ATOM      5  C7  UNL d   1      -0.195   0.369   2.308  0.00  0.00     0.002 A 
ATOM      6  C8  UNL d   1       0.415  -0.566   1.469  0.00  0.00     0.002 A 
ENDROOT
BRANCH   1   7
ATOM      7  C2  UNL d   1       0.988  -1.450  -0.827  0.00  0.00     0.056 C 
BRANCH   7   8
ATOM      8  C1  UNL d   1       0.026  -2.418  -1.524  0.00  0.00     0.007 C 
ATOM      9  C   UNL d   1       0.647  -3.122  -2.723  0.00  0.00     0.009 C 
ENDBRANCH   7   8
ENDBRANCH   1   7
TORSDOF 2
ENDMDL
