MODEL 1
REMARK minimizedAffinity -4.38919401
REMARK minimizedRMSD -1
REMARK  2 active torsions:
REMARK  status: ('A' for Active; 'I' for Inactive)
REMARK    1  A    between atoms: C1_2  and  C2_3 
REMARK    2  A    between atoms: C2_3  and  C3_4 
ROOT
ATOM      1  C3  UNL d   1       0.460  -0.445  -0.415  0.00  0.00    -0.075 A 
ATOM      2  C4  UNL d   1      -0.501   0.434  -0.934  0.00  0.00     0.002 A 
ATOM      3  C5  UNL d   1      -1.293   1.202  -0.079  0.00  0.00     0.002 A 
ATOM      4  C6  UNL d   1      -1.142   1.094   1.301  0.00  0.00    -0.004 A 
ATOM      5  C7  UNL d   1      -0.201   0.211   1.828  0.00  0.00     0.002 A 
ATOM      6  C8  UNL d   1       0.596  -0.555   0.975  0.00  0.00     0.002 A 
ENDROOT
BRANCH   1   7
ATOM      7  C2  UNL d   1       1.341  -1.257  -1.334  0.00  0.00     0.056 C 
BRANCH   7   8
ATOM      8  C1  UNL d   1       0.630  -2.446  -1.989  0.00  0.00     0.007 C 
ATOM      9  C   UNL d   1       0.688  -2.416  -3.511  0.00  0.00     0.009 C 
ENDBRANCH   7   8
ENDBRANCH   1   7
TORSDOF 2
ENDMDL
