MODEL 1
REMARK minimizedAffinity 7.00382805
REMARK minimizedRMSD -1
REMARK  0 active torsions:
REMARK  status: ('A' for Active; 'I' for Inactive)
ROOT
ATOM      1  C   UNL d   1       0.027   2.220   2.011  0.00  0.00     0.020 A 
ATOM      2  C1  UNL d   1      -0.818   3.324   1.905  0.00  0.00     0.020 A 
ATOM      3  C2  UNL d   1      -1.296   3.720   0.654  0.00  0.00     0.034 A 
ATOM      4  C3  UNL d   1      -0.931   3.011  -0.496  0.00  0.00     0.017 A 
ATOM      5  C4  UNL d   1      -0.083   1.902  -0.388  0.00  0.00     0.017 A 
ATOM      6  C5  UNL d   1       0.393   1.510   0.867  0.00  0.00     0.034 A 
ATOM      7 Cl   UNL d   1       0.411   0.977  -1.762  0.00  0.00    -0.070 Cl
ATOM      8 Cl1  UNL d   1      -1.560   3.556  -2.010  0.00  0.00    -0.070 Cl
ENDROOT
TORSDOF 0
ENDMDL
