MODEL 1
REMARK minimizedAffinity -2.83288527
REMARK minimizedRMSD -1
REMARK  0 active torsions:
REMARK  status: ('A' for Active; 'I' for Inactive)
ROOT
ATOM      1  C   UNL d   1      -1.881   3.174   2.318  0.00  0.00     0.020 A 
ATOM      2  C1  UNL d   1      -1.500   3.414   0.998  0.00  0.00     0.020 A 
ATOM      3  C2  UNL d   1      -0.666   2.510   0.337  0.00  0.00     0.034 A 
ATOM      4  C3  UNL d   1      -0.208   1.363   0.995  0.00  0.00     0.017 A 
ATOM      5  C4  UNL d   1      -0.591   1.123   2.319  0.00  0.00     0.017 A 
ATOM      6  C5  UNL d   1      -1.427   2.031   2.977  0.00  0.00     0.034 A 
ATOM      7 Cl   UNL d   1      -0.067  -0.271   3.197  0.00  0.00    -0.070 Cl
ATOM      8 Cl1  UNL d   1       0.821   0.289   0.116  0.00  0.00    -0.070 Cl
ENDROOT
TORSDOF 0
ENDMDL
