MODEL 1
REMARK minimizedAffinity 6.10967779
REMARK minimizedRMSD -1
REMARK  0 active torsions:
REMARK  status: ('A' for Active; 'I' for Inactive)
ROOT
ATOM      1  C   UNL d   1      -0.090   2.728  -1.665  0.00  0.00     0.020 A 
ATOM      2  C1  UNL d   1      -1.080   2.938  -0.707  0.00  0.00     0.020 A 
ATOM      3  C2  UNL d   1      -2.111   2.008  -0.552  0.00  0.00     0.034 A 
ATOM      4  C3  UNL d   1      -2.153   0.864  -1.356  0.00  0.00     0.017 A 
ATOM      5  C4  UNL d   1      -1.157   0.653  -2.317  0.00  0.00     0.017 A 
ATOM      6  C5  UNL d   1      -0.128   1.588  -2.469  0.00  0.00     0.034 A 
ATOM      7 Cl   UNL d   1      -1.142  -0.735  -3.347  0.00  0.00    -0.070 Cl
ATOM      8 Cl1  UNL d   1      -3.455  -0.244  -1.110  0.00  0.00    -0.070 Cl
ENDROOT
TORSDOF 0
ENDMDL
