MODEL 1
REMARK minimizedAffinity 4.09321737
REMARK minimizedRMSD -1
REMARK  0 active torsions:
REMARK  status: ('A' for Active; 'I' for Inactive)
ROOT
ATOM      1  C   UNL d   1       5.241  -5.192  -2.834  0.00  0.00     0.020 A 
ATOM      2  C1  UNL d   1       4.117  -6.000  -3.002  0.00  0.00     0.020 A 
ATOM      3  C2  UNL d   1       2.964  -5.756  -2.253  0.00  0.00     0.034 A 
ATOM      4  C3  UNL d   1       2.933  -4.703  -1.332  0.00  0.00     0.017 A 
ATOM      5  C4  UNL d   1       4.061  -3.893  -1.164  0.00  0.00     0.017 A 
ATOM      6  C5  UNL d   1       5.213  -4.141  -1.917  0.00  0.00     0.034 A 
ATOM      7 Cl   UNL d   1       4.098  -2.574  -0.047  0.00  0.00    -0.070 Cl
ATOM      8 Cl1  UNL d   1       1.473  -4.459  -0.440  0.00  0.00    -0.070 Cl
ENDROOT
TORSDOF 0
ENDMDL
