MODEL 1
REMARK minimizedAffinity 5.82685518
REMARK minimizedRMSD -1
REMARK  0 active torsions:
REMARK  status: ('A' for Active; 'I' for Inactive)
ROOT
ATOM      1  C   UNL d   1      -0.411  -0.301  -3.065  0.00  0.00     0.020 A 
ATOM      2  C1  UNL d   1      -1.360  -1.321  -3.135  0.00  0.00     0.020 A 
ATOM      3  C2  UNL d   1      -2.433  -1.338  -2.241  0.00  0.00     0.034 A 
ATOM      4  C3  UNL d   1      -2.560  -0.335  -1.274  0.00  0.00     0.017 A 
ATOM      5  C4  UNL d   1      -1.607   0.687  -1.204  0.00  0.00     0.017 A 
ATOM      6  C5  UNL d   1      -0.535   0.701  -2.102  0.00  0.00     0.034 A 
ATOM      7 Cl   UNL d   1      -1.696   1.960  -0.038  0.00  0.00    -0.070 Cl
ATOM      8 Cl1  UNL d   1      -3.912  -0.420  -0.201  0.00  0.00    -0.070 Cl
ENDROOT
TORSDOF 0
ENDMDL
