MODEL 1
REMARK minimizedAffinity 6.06943846
REMARK minimizedRMSD -1
REMARK  0 active torsions:
REMARK  status: ('A' for Active; 'I' for Inactive)
ROOT
ATOM      1  C   UNL d   1       1.823  -2.226   4.018  0.00  0.00     0.172 C 
ATOM      2  N   UNL d   1       1.620  -1.378   2.867  0.00  0.00    -0.070 N 
ATOM      3  C1  UNL d   1       0.590  -1.481   1.971  0.00  0.00    -0.004 A 
ATOM      4  C2  UNL d   1       0.753  -0.493   1.024  0.00  0.00    -0.047 A 
ATOM      5  C3  UNL d   1       1.922   0.229   1.363  0.00  0.00    -0.047 A 
ATOM      6  C4  UNL d   1       2.439  -0.340   2.508  0.00  0.00    -0.004 A 
ENDROOT
TORSDOF 0
ENDMDL
