MODEL 1
REMARK minimizedAffinity 3.27303195
REMARK minimizedRMSD -1
REMARK  0 active torsions:
REMARK  status: ('A' for Active; 'I' for Inactive)
ROOT
ATOM      1  C   UNL d   1       4.806  -2.499  -4.702  0.00  0.00     0.172 C 
ATOM      2  N   UNL d   1       5.163  -3.885  -4.895  0.00  0.00    -0.070 N 
ATOM      3  C1  UNL d   1       5.869  -4.657  -4.012  0.00  0.00    -0.004 A 
ATOM      4  C2  UNL d   1       6.000  -5.914  -4.562  0.00  0.00    -0.047 A 
ATOM      5  C3  UNL d   1       5.350  -5.896  -5.819  0.00  0.00    -0.047 A 
ATOM      6  C4  UNL d   1       4.841  -4.627  -6.000  0.00  0.00    -0.004 A 
ENDROOT
TORSDOF 0
ENDMDL
