MODEL 1
REMARK minimizedAffinity 0.943991542
REMARK minimizedRMSD -1
REMARK  0 active torsions:
REMARK  status: ('A' for Active; 'I' for Inactive)
ROOT
ATOM      1  C   UNL d   1      -5.707  -6.000  -4.778  0.00  0.00     0.172 C 
ATOM      2  N   UNL d   1      -5.361  -4.629  -5.075  0.00  0.00    -0.070 N 
ATOM      3  C1  UNL d   1      -5.990  -3.828  -5.989  0.00  0.00    -0.004 A 
ATOM      4  C2  UNL d   1      -5.366  -2.599  -5.974  0.00  0.00    -0.047 A 
ATOM      5  C3  UNL d   1      -4.325  -2.665  -5.017  0.00  0.00    -0.047 A 
ATOM      6  C4  UNL d   1      -4.345  -3.933  -4.476  0.00  0.00    -0.004 A 
ENDROOT
TORSDOF 0
ENDMDL
