MODEL 1
REMARK minimizedAffinity 0.372863501
REMARK minimizedRMSD -1
REMARK  0 active torsions:
REMARK  status: ('A' for Active; 'I' for Inactive)
ROOT
ATOM      1  C   UNL d   1       3.858  -0.380  -4.490  0.00  0.00     0.172 C 
ATOM      2  N   UNL d   1       4.649  -1.531  -4.861  0.00  0.00    -0.070 N 
ATOM      3  C1  UNL d   1       5.400  -1.649  -6.000  0.00  0.00    -0.004 A 
ATOM      4  C2  UNL d   1       5.999  -2.890  -5.983  0.00  0.00    -0.047 A 
ATOM      5  C3  UNL d   1       5.593  -3.540  -4.793  0.00  0.00    -0.047 A 
ATOM      6  C4  UNL d   1       4.757  -2.676  -4.118  0.00  0.00    -0.004 A 
ENDROOT
TORSDOF 0
ENDMDL
