MODEL 1
REMARK minimizedAffinity 2.3780899
REMARK minimizedRMSD -1
REMARK  0 active torsions:
REMARK  status: ('A' for Active; 'I' for Inactive)
ROOT
ATOM      1  C   UNL d   1      -3.987   1.155  -1.958  0.00  0.00     0.023 A 
ATOM      2  C1  UNL d   1      -3.964   0.691  -0.642  0.00  0.00     0.003 A 
ATOM      3  C2  UNL d   1      -2.747   0.387  -0.029  0.00  0.00     0.048 A 
ATOM      4  C3  UNL d   1      -1.556   0.550  -0.737  0.00  0.00     0.023 A 
ATOM      5  C4  UNL d   1      -1.574   1.014  -2.053  0.00  0.00     0.048 A 
ATOM      6  C5  UNL d   1      -2.794   1.316  -2.662  0.00  0.00     0.003 A 
ATOM      7  I   UNL d   1       0.256   0.098   0.174  0.00  0.00    -0.146 I 
ENDROOT
TORSDOF 0
ENDMDL
