MODEL 1
REMARK minimizedAffinity 1.28727329
REMARK minimizedRMSD -1
REMARK  0 active torsions:
REMARK  status: ('A' for Active; 'I' for Inactive)
ROOT
ATOM      1  C   UNL d   1       3.240  -5.648  -4.439  0.00  0.00     0.023 A 
ATOM      2  C1  UNL d   1       2.329  -5.550  -3.387  0.00  0.00     0.003 A 
ATOM      3  C2  UNL d   1       0.958  -5.642  -3.637  0.00  0.00     0.048 A 
ATOM      4  C3  UNL d   1       0.505  -5.833  -4.942  0.00  0.00     0.023 A 
ATOM      5  C4  UNL d   1       1.413  -5.933  -5.998  0.00  0.00     0.048 A 
ATOM      6  C5  UNL d   1       2.783  -5.839  -5.742  0.00  0.00     0.003 A 
ATOM      7  I   UNL d   1      -1.534  -5.971  -5.317  0.00  0.00    -0.146 I 
ENDROOT
TORSDOF 0
ENDMDL
