MODEL 1
REMARK minimizedAffinity 6.01059818
REMARK minimizedRMSD -1
REMARK  0 active torsions:
REMARK  status: ('A' for Active; 'I' for Inactive)
ROOT
ATOM      1  C   UNL d   1       0.274  -0.238  -0.568  0.00  0.00     0.023 A 
ATOM      2  C1  UNL d   1       0.174  -1.086   0.536  0.00  0.00     0.003 A 
ATOM      3  C2  UNL d   1       1.292  -1.326   1.337  0.00  0.00     0.048 A 
ATOM      4  C3  UNL d   1       2.507  -0.715   1.030  0.00  0.00     0.023 A 
ATOM      5  C4  UNL d   1       2.612   0.135  -0.072  0.00  0.00     0.048 A 
ATOM      6  C5  UNL d   1       1.492   0.371  -0.872  0.00  0.00     0.003 A 
ATOM      7  I   UNL d   1       4.172  -1.070   2.222  0.00  0.00    -0.146 I 
ENDROOT
TORSDOF 0
ENDMDL
