MODEL 1
REMARK minimizedAffinity 4.63480759
REMARK minimizedRMSD -1
REMARK  0 active torsions:
REMARK  status: ('A' for Active; 'I' for Inactive)
ROOT
ATOM      1  C   UNL d   1       4.966  -1.035   3.622  0.00  0.00     0.023 A 
ATOM      2  C1  UNL d   1       3.622  -1.029   3.993  0.00  0.00     0.003 A 
ATOM      3  C2  UNL d   1       2.627  -0.975   3.015  0.00  0.00     0.048 A 
ATOM      4  C3  UNL d   1       2.983  -0.928   1.667  0.00  0.00     0.023 A 
ATOM      5  C4  UNL d   1       4.327  -0.934   1.291  0.00  0.00     0.048 A 
ATOM      6  C5  UNL d   1       5.319  -0.987   2.273  0.00  0.00     0.003 A 
ATOM      7  I   UNL d   1       1.504  -0.848   0.210  0.00  0.00    -0.146 I 
ENDROOT
TORSDOF 0
ENDMDL
