MODEL 1
REMARK minimizedAffinity 0.349750787
REMARK minimizedRMSD -1
REMARK  0 active torsions:
REMARK  status: ('A' for Active; 'I' for Inactive)
ROOT
ATOM      1  C   UNL d   1       3.707  -1.294   2.877  0.00  0.00     0.023 A 
ATOM      2  C1  UNL d   1       3.962  -0.893   1.566  0.00  0.00     0.003 A 
ATOM      3  C2  UNL d   1       2.907  -0.520   0.731  0.00  0.00     0.048 A 
ATOM      4  C3  UNL d   1       1.600  -0.551   1.213  0.00  0.00     0.023 A 
ATOM      5  C4  UNL d   1       1.339  -0.951   2.525  0.00  0.00     0.048 A 
ATOM      6  C5  UNL d   1       2.397  -1.323   3.356  0.00  0.00     0.003 A 
ATOM      7  I   UNL d   1       0.028   0.004  -0.028  0.00  0.00    -0.146 I 
ENDROOT
TORSDOF 0
ENDMDL
