MODEL 1
REMARK minimizedAffinity 1.11829853
REMARK minimizedRMSD -1
REMARK  0 active torsions:
REMARK  status: ('A' for Active; 'I' for Inactive)
ROOT
ATOM      1  C   UNL d   1       2.910  -5.203  -4.100  0.00  0.00     0.023 A 
ATOM      2  C1  UNL d   1       1.879  -5.674  -3.288  0.00  0.00     0.003 A 
ATOM      3  C2  UNL d   1       0.612  -5.903  -3.829  0.00  0.00     0.048 A 
ATOM      4  C3  UNL d   1       0.383  -5.659  -5.182  0.00  0.00     0.023 A 
ATOM      5  C4  UNL d   1       1.412  -5.187  -5.999  0.00  0.00     0.048 A 
ATOM      6  C5  UNL d   1       2.677  -4.959  -5.454  0.00  0.00     0.003 A 
ATOM      7  I   UNL d   1      -1.502  -5.998  -5.989  0.00  0.00    -0.146 I 
ENDROOT
TORSDOF 0
ENDMDL
