MODEL 1
REMARK minimizedAffinity 6.61781931
REMARK minimizedRMSD -1
REMARK  0 active torsions:
REMARK  status: ('A' for Active; 'I' for Inactive)
ROOT
ATOM      1  C   UNL d   1      -0.311  -3.100  -0.351  0.00  0.00     0.023 A 
ATOM      2  C1  UNL d   1      -0.177  -1.718  -0.222  0.00  0.00     0.003 A 
ATOM      3  C2  UNL d   1      -1.306  -0.922  -0.015  0.00  0.00     0.048 A 
ATOM      4  C3  UNL d   1      -2.566  -1.516   0.062  0.00  0.00     0.023 A 
ATOM      5  C4  UNL d   1      -2.704  -2.899  -0.066  0.00  0.00     0.048 A 
ATOM      6  C5  UNL d   1      -1.573  -3.690  -0.273  0.00  0.00     0.003 A 
ATOM      7  I   UNL d   1      -4.247  -0.333   0.370  0.00  0.00    -0.146 I 
ENDROOT
TORSDOF 0
ENDMDL
