MODEL 1
REMARK minimizedAffinity 6.43213749
REMARK minimizedRMSD -1
REMARK  0 active torsions:
REMARK  status: ('A' for Active; 'I' for Inactive)
ROOT
ATOM      1  C   UNL d   1       0.951  -0.056   0.182  0.00  0.00     0.023 A 
ATOM      2  C1  UNL d   1       1.388  -1.359  -0.062  0.00  0.00     0.003 A 
ATOM      3  C2  UNL d   1       0.495  -2.427   0.045  0.00  0.00     0.048 A 
ATOM      4  C3  UNL d   1      -0.833  -2.186   0.395  0.00  0.00     0.023 A 
ATOM      5  C4  UNL d   1      -1.275  -0.885   0.639  0.00  0.00     0.048 A 
ATOM      6  C5  UNL d   1      -0.379   0.180   0.531  0.00  0.00     0.003 A 
ATOM      7  I   UNL d   1      -2.164  -3.775   0.555  0.00  0.00    -0.146 I 
ENDROOT
TORSDOF 0
ENDMDL
