MODEL 1
REMARK minimizedAffinity 2.82967472
REMARK minimizedRMSD -1
REMARK  0 active torsions:
REMARK  status: ('A' for Active; 'I' for Inactive)
ROOT
ATOM      1  C   UNL d   1      -0.832   3.450  -4.330  0.00  0.00     0.023 A 
ATOM      2  C1  UNL d   1      -0.507   2.324  -3.574  0.00  0.00     0.003 A 
ATOM      3  C2  UNL d   1      -1.514   1.462  -3.133  0.00  0.00     0.048 A 
ATOM      4  C3  UNL d   1      -2.844   1.732  -3.454  0.00  0.00     0.023 A 
ATOM      5  C4  UNL d   1      -3.174   2.858  -4.211  0.00  0.00     0.048 A 
ATOM      6  C5  UNL d   1      -2.164   3.717  -4.648  0.00  0.00     0.003 A 
ATOM      7  I   UNL d   1      -4.344   0.451  -2.800  0.00  0.00    -0.146 I 
ENDROOT
TORSDOF 0
ENDMDL
