MODEL 1
REMARK minimizedAffinity 3.13363767
REMARK minimizedRMSD -1
REMARK  0 active torsions:
REMARK  status: ('A' for Active; 'I' for Inactive)
ROOT
ATOM      1  C   UNL d   1      -2.330  -5.147  -4.826  0.00  0.00     0.023 A 
ATOM      2  C1  UNL d   1      -1.500  -4.428  -3.966  0.00  0.00     0.003 A 
ATOM      3  C2  UNL d   1      -0.113  -4.492  -4.116  0.00  0.00     0.048 A 
ATOM      4  C3  UNL d   1       0.437  -5.276  -5.130  0.00  0.00     0.023 A 
ATOM      5  C4  UNL d   1      -0.390  -5.996  -5.994  0.00  0.00     0.048 A 
ATOM      6  C5  UNL d   1      -1.776  -5.930  -5.838  0.00  0.00     0.003 A 
ATOM      7  I   UNL d   1       2.500  -5.372  -5.357  0.00  0.00    -0.146 I 
ENDROOT
TORSDOF 0
ENDMDL
