MODEL 1
REMARK minimizedAffinity 10.65341
REMARK minimizedRMSD -1
REMARK  0 active torsions:
REMARK  status: ('A' for Active; 'I' for Inactive)
ROOT
ATOM      1  C   UNL d   1       0.041   0.042  -1.177  0.00  0.00     0.023 A 
ATOM      2  C1  UNL d   1       1.214  -0.571  -1.616  0.00  0.00     0.003 A 
ATOM      3  C2  UNL d   1       2.183  -0.967  -0.692  0.00  0.00     0.048 A 
ATOM      4  C3  UNL d   1       1.972  -0.749   0.669  0.00  0.00     0.023 A 
ATOM      5  C4  UNL d   1       0.798  -0.137   1.112  0.00  0.00     0.048 A 
ATOM      6  C5  UNL d   1      -0.167   0.259   0.185  0.00  0.00     0.003 A 
ATOM      7  I   UNL d   1       3.412  -1.339   2.046  0.00  0.00    -0.146 I 
ENDROOT
TORSDOF 0
ENDMDL
