MODEL 1
REMARK minimizedAffinity 6.96260071
REMARK minimizedRMSD -1
REMARK  0 active torsions:
REMARK  status: ('A' for Active; 'I' for Inactive)
ROOT
ATOM      1  C   UNL d   1       5.100  -0.900   3.678  0.00  0.00     0.023 A 
ATOM      2  C1  UNL d   1       3.783  -1.342   3.797  0.00  0.00     0.003 A 
ATOM      3  C2  UNL d   1       2.915  -1.259   2.706  0.00  0.00     0.048 A 
ATOM      4  C3  UNL d   1       3.373  -0.734   1.498  0.00  0.00     0.023 A 
ATOM      5  C4  UNL d   1       4.691  -0.291   1.373  0.00  0.00     0.048 A 
ATOM      6  C5  UNL d   1       5.554  -0.375   2.468  0.00  0.00     0.003 A 
ATOM      7  I   UNL d   1       2.084  -0.610  -0.128  0.00  0.00    -0.146 I 
ENDROOT
TORSDOF 0
ENDMDL
