MODEL 1
REMARK minimizedAffinity -2.90821338
REMARK minimizedRMSD -1
REMARK  0 active torsions:
REMARK  status: ('A' for Active; 'I' for Inactive)
ROOT
ATOM      1  C   UNL d   1      -2.988  -4.877   2.252  0.00  0.00     0.023 A 
ATOM      2  C1  UNL d   1      -4.123  -5.676   2.110  0.00  0.00     0.003 A 
ATOM      3  C2  UNL d   1      -4.596  -5.999   0.837  0.00  0.00     0.048 A 
ATOM      4  C3  UNL d   1      -3.930  -5.520  -0.291  0.00  0.00     0.023 A 
ATOM      5  C4  UNL d   1      -2.794  -4.721  -0.154  0.00  0.00     0.048 A 
ATOM      6  C5  UNL d   1      -2.325  -4.400   1.122  0.00  0.00     0.003 A 
ATOM      7  I   UNL d   1      -4.632  -6.000  -2.187  0.00  0.00    -0.146 I 
ENDROOT
TORSDOF 0
ENDMDL
