MODEL 1
REMARK minimizedAffinity -3.04136467
REMARK minimizedRMSD -1
REMARK  0 active torsions:
REMARK  status: ('A' for Active; 'I' for Inactive)
ROOT
ATOM      1  C1  BNZ d   1       2.734  -3.201  -1.934  0.00  0.00     0.000 A 
ATOM      2  C2  BNZ d   1       2.976  -3.374  -0.597  0.00  0.00     0.000 A 
ATOM      3  C3  BNZ d   1       4.054  -4.098  -0.169  0.00  0.00     0.000 A 
ATOM      4  C4  BNZ d   1       4.864  -4.681  -1.076  0.00  0.00     0.000 A 
ATOM      5  C5  BNZ d   1       4.628  -4.524  -2.427  0.00  0.00     0.000 A 
ATOM      6  C6  BNZ d   1       3.565  -3.762  -2.855  0.00  0.00     0.000 A 
ENDROOT
TORSDOF 0
ENDMDL
