MODEL 1
REMARK minimizedAffinity -4.63516474
REMARK minimizedRMSD -1
REMARK  0 active torsions:
REMARK  status: ('A' for Active; 'I' for Inactive)
ROOT
ATOM      1  C1  BNZ d   1       3.458  -3.789  -1.111  0.00  0.00     0.000 A 
ATOM      2  C2  BNZ d   1       2.666  -3.085  -1.979  0.00  0.00     0.000 A 
ATOM      3  C3  BNZ d   1       2.877  -3.149  -3.328  0.00  0.00     0.000 A 
ATOM      4  C4  BNZ d   1       3.902  -3.883  -3.805  0.00  0.00     0.000 A 
ATOM      5  C5  BNZ d   1       4.716  -4.591  -2.942  0.00  0.00     0.000 A 
ATOM      6  C6  BNZ d   1       4.477  -4.555  -1.588  0.00  0.00     0.000 A 
ENDROOT
TORSDOF 0
ENDMDL
