MODEL 1
REMARK minimizedAffinity 0.201000899
REMARK minimizedRMSD -1
REMARK  0 active torsions:
REMARK  status: ('A' for Active; 'I' for Inactive)
ROOT
ATOM      1  C1  BNZ d   1       4.176  -4.758  -1.683  0.00  0.00     0.000 A 
ATOM      2  C2  BNZ d   1       4.611  -4.530  -2.961  0.00  0.00     0.000 A 
ATOM      3  C3  BNZ d   1       3.749  -4.086  -3.925  0.00  0.00     0.000 A 
ATOM      4  C4  BNZ d   1       2.448  -3.909  -3.620  0.00  0.00     0.000 A 
ATOM      5  C5  BNZ d   1       1.992  -4.144  -2.338  0.00  0.00     0.000 A 
ATOM      6  C6  BNZ d   1       2.870  -4.553  -1.361  0.00  0.00     0.000 A 
ENDROOT
TORSDOF 0
ENDMDL
