MODEL 1
REMARK minimizedAffinity 0.219527498
REMARK minimizedRMSD -1
REMARK  0 active torsions:
REMARK  status: ('A' for Active; 'I' for Inactive)
ROOT
ATOM      1  C1  BNZ d   1       2.310  -3.299  -2.502  0.00  0.00     0.000 A 
ATOM      2  C2  BNZ d   1       2.896  -4.397  -1.931  0.00  0.00     0.000 A 
ATOM      3  C3  BNZ d   1       3.727  -4.265  -0.854  0.00  0.00     0.000 A 
ATOM      4  C4  BNZ d   1       4.002  -3.035  -0.375  0.00  0.00     0.000 A 
ATOM      5  C5  BNZ d   1       3.426  -1.918  -0.946  0.00  0.00     0.000 A 
ATOM      6  C6  BNZ d   1       2.559  -2.057  -2.006  0.00  0.00     0.000 A 
ENDROOT
TORSDOF 0
ENDMDL
