MODEL 1
REMARK minimizedAffinity 4.76453543
REMARK minimizedRMSD -1
REMARK  0 active torsions:
REMARK  status: ('A' for Active; 'I' for Inactive)
ROOT
ATOM      1  C1  BNZ d   1       3.922  -5.120  -3.010  0.00  0.00     0.000 A 
ATOM      2  C2  BNZ d   1       3.156  -4.673  -4.053  0.00  0.00     0.000 A 
ATOM      3  C3  BNZ d   1       1.972  -4.028  -3.826  0.00  0.00     0.000 A 
ATOM      4  C4  BNZ d   1       1.538  -3.866  -2.560  0.00  0.00     0.000 A 
ATOM      5  C5  BNZ d   1       2.294  -4.320  -1.498  0.00  0.00     0.000 A 
ATOM      6  C6  BNZ d   1       3.504  -4.934  -1.729  0.00  0.00     0.000 A 
ENDROOT
TORSDOF 0
ENDMDL
