MODEL 1
REMARK minimizedAffinity 3.79166174
REMARK minimizedRMSD -1
REMARK  0 active torsions:
REMARK  status: ('A' for Active; 'I' for Inactive)
ROOT
ATOM      1  C1  BNZ d   1       4.560  -4.123  -4.208  0.00  0.00     0.000 A 
ATOM      2  C2  BNZ d   1       3.355  -3.546  -4.513  0.00  0.00     0.000 A 
ATOM      3  C3  BNZ d   1       2.463  -3.228  -3.528  0.00  0.00     0.000 A 
ATOM      4  C4  BNZ d   1       2.757  -3.522  -2.245  0.00  0.00     0.000 A 
ATOM      5  C5  BNZ d   1       3.963  -4.112  -1.923  0.00  0.00     0.000 A 
ATOM      6  C6  BNZ d   1       4.876  -4.396  -2.913  0.00  0.00     0.000 A 
ENDROOT
TORSDOF 0
ENDMDL
