MODEL 1
REMARK minimizedAffinity -2.30980468
REMARK minimizedRMSD -1
REMARK  0 active torsions:
REMARK  status: ('A' for Active; 'I' for Inactive)
ROOT
ATOM      1  C1  BNZ d   1       3.972  -4.561  -3.458  0.00  0.00     0.000 A 
ATOM      2  C2  BNZ d   1       4.233  -4.888  -2.154  0.00  0.00     0.000 A 
ATOM      3  C3  BNZ d   1       3.476  -4.373  -1.139  0.00  0.00     0.000 A 
ATOM      4  C4  BNZ d   1       2.486  -3.503  -1.426  0.00  0.00     0.000 A 
ATOM      5  C5  BNZ d   1       2.217  -3.157  -2.735  0.00  0.00     0.000 A 
ATOM      6  C6  BNZ d   1       2.956  -3.707  -3.757  0.00  0.00     0.000 A 
ENDROOT
TORSDOF 0
ENDMDL
