MODEL 1
REMARK minimizedAffinity -3.10762858
REMARK minimizedRMSD -1
REMARK  0 active torsions:
REMARK  status: ('A' for Active; 'I' for Inactive)
ROOT
ATOM      1  C1  BNZ d   1       3.799  -4.184  -1.328  0.00  0.00     0.000 A 
ATOM      2  C2  BNZ d   1       4.269  -4.638  -2.532  0.00  0.00     0.000 A 
ATOM      3  C3  BNZ d   1       3.795  -4.125  -3.707  0.00  0.00     0.000 A 
ATOM      4  C4  BNZ d   1       2.823  -3.191  -3.678  0.00  0.00     0.000 A 
ATOM      5  C5  BNZ d   1       2.331  -2.730  -2.473  0.00  0.00     0.000 A 
ATOM      6  C6  BNZ d   1       2.839  -3.220  -1.291  0.00  0.00     0.000 A 
ENDROOT
TORSDOF 0
ENDMDL
