MODEL 1
REMARK minimizedAffinity -0.155021608
REMARK minimizedRMSD -1
REMARK  0 active torsions:
REMARK  status: ('A' for Active; 'I' for Inactive)
ROOT
ATOM      1  C1  BNZ d   1      -2.538   3.195   3.421  0.00  0.00     0.000 A 
ATOM      2  C2  BNZ d   1      -1.801   2.976   4.554  0.00  0.00     0.000 A 
ATOM      3  C3  BNZ d   1      -1.980   1.842   5.296  0.00  0.00     0.000 A 
ATOM      4  C4  BNZ d   1      -2.922   0.950   4.928  0.00  0.00     0.000 A 
ATOM      5  C5  BNZ d   1      -3.679   1.162   3.793  0.00  0.00     0.000 A 
ATOM      6  C6  BNZ d   1      -3.469   2.285   3.027  0.00  0.00     0.000 A 
ENDROOT
TORSDOF 0
ENDMDL
