MODEL 1
REMARK minimizedAffinity -0.334590256
REMARK minimizedRMSD -1
REMARK  0 active torsions:
REMARK  status: ('A' for Active; 'I' for Inactive)
ROOT
ATOM      1  C1  BNZ d   1      -2.278  -3.522   1.980  0.00  0.00     0.000 A 
ATOM      2  C2  BNZ d   1      -1.928  -3.738   0.674  0.00  0.00     0.000 A 
ATOM      3  C3  BNZ d   1      -0.703  -3.353   0.206  0.00  0.00     0.000 A 
ATOM      4  C4  BNZ d   1       0.154  -2.718   1.032  0.00  0.00     0.000 A 
ATOM      5  C5  BNZ d   1      -0.189  -2.485   2.349  0.00  0.00     0.000 A 
ATOM      6  C6  BNZ d   1      -1.407  -2.909   2.827  0.00  0.00     0.000 A 
ENDROOT
TORSDOF 0
ENDMDL
