MODEL 1
REMARK minimizedAffinity 4.09941292
REMARK minimizedRMSD -1
REMARK  0 active torsions:
REMARK  status: ('A' for Active; 'I' for Inactive)
ROOT
ATOM      1  C1  BNZ d   1      -3.035  -3.062  -3.172  0.00  0.00     0.000 A 
ATOM      2  C2  BNZ d   1      -2.655  -3.293  -1.877  0.00  0.00     0.000 A 
ATOM      3  C3  BNZ d   1      -1.921  -4.399  -1.550  0.00  0.00     0.000 A 
ATOM      4  C4  BNZ d   1      -1.603  -5.292  -2.509  0.00  0.00     0.000 A 
ATOM      5  C5  BNZ d   1      -1.987  -5.078  -3.818  0.00  0.00     0.000 A 
ATOM      6  C6  BNZ d   1      -2.692  -3.944  -4.151  0.00  0.00     0.000 A 
ENDROOT
TORSDOF 0
ENDMDL
