MODEL 1
REMARK minimizedAffinity -1.81584966
REMARK minimizedRMSD -1
REMARK  0 active torsions:
REMARK  status: ('A' for Active; 'I' for Inactive)
ROOT
ATOM      1  C1  BNZ d   1      -2.147   2.005   3.287  0.00  0.00     0.000 A 
ATOM      2  C2  BNZ d   1      -2.514   1.401   4.460  0.00  0.00     0.000 A 
ATOM      3  C3  BNZ d   1      -1.646   0.584   5.128  0.00  0.00     0.000 A 
ATOM      4  C4  BNZ d   1      -0.427   0.340   4.604  0.00  0.00     0.000 A 
ATOM      5  C5  BNZ d   1      -0.045   0.935   3.418  0.00  0.00     0.000 A 
ATOM      6  C6  BNZ d   1      -0.908   1.788   2.768  0.00  0.00     0.000 A 
ENDROOT
TORSDOF 0
ENDMDL
