MODEL 1
REMARK minimizedAffinity 0.280229777
REMARK minimizedRMSD -1
REMARK  0 active torsions:
REMARK  status: ('A' for Active; 'I' for Inactive)
ROOT
ATOM      1  C1  BNZ d   1      -4.159  -1.289   2.611  0.00  0.00     0.000 A 
ATOM      2  C2  BNZ d   1      -4.642  -0.008   2.568  0.00  0.00     0.000 A 
ATOM      3  C3  BNZ d   1      -3.852   1.049   2.924  0.00  0.00     0.000 A 
ATOM      4  C4  BNZ d   1      -2.595   0.821   3.358  0.00  0.00     0.000 A 
ATOM      5  C5  BNZ d   1      -2.098  -0.465   3.415  0.00  0.00     0.000 A 
ATOM      6  C6  BNZ d   1      -2.883  -1.524   3.020  0.00  0.00     0.000 A 
ENDROOT
TORSDOF 0
ENDMDL
