MODEL 1
REMARK minimizedAffinity -2.23778534
REMARK minimizedRMSD -1
REMARK  0 active torsions:
REMARK  status: ('A' for Active; 'I' for Inactive)
ROOT
ATOM      1  C1  BNZ d   1       1.836   4.999  -0.631  0.00  0.00     0.000 A 
ATOM      2  C2  BNZ d   1       2.154   4.498  -1.865  0.00  0.00     0.000 A 
ATOM      3  C3  BNZ d   1       1.996   3.169  -2.143  0.00  0.00     0.000 A 
ATOM      4  C4  BNZ d   1       1.557   2.337  -1.176  0.00  0.00     0.000 A 
ATOM      5  C5  BNZ d   1       1.241   2.826   0.076  0.00  0.00     0.000 A 
ATOM      6  C6  BNZ d   1       1.365   4.170   0.340  0.00  0.00     0.000 A 
ENDROOT
TORSDOF 0
ENDMDL
