MODEL 1
REMARK minimizedAffinity 1.81339133
REMARK minimizedRMSD -1
REMARK  0 active torsions:
REMARK  status: ('A' for Active; 'I' for Inactive)
ROOT
ATOM      1  C1  BNZ d   1       1.734   2.904   0.056  0.00  0.00     0.000 A 
ATOM      2  C2  BNZ d   1       1.797   2.216  -1.126  0.00  0.00     0.000 A 
ATOM      3  C3  BNZ d   1       2.248   0.926  -1.162  0.00  0.00     0.000 A 
ATOM      4  C4  BNZ d   1       2.673   0.340  -0.024  0.00  0.00     0.000 A 
ATOM      5  C5  BNZ d   1       2.625   1.024   1.174  0.00  0.00     0.000 A 
ATOM      6  C6  BNZ d   1       2.134   2.309   1.213  0.00  0.00     0.000 A 
ENDROOT
TORSDOF 0
ENDMDL
