MODEL 1
REMARK minimizedAffinity 4.00212908
REMARK minimizedRMSD -1
REMARK  0 active torsions:
REMARK  status: ('A' for Active; 'I' for Inactive)
ROOT
ATOM      1  C1  BNZ d   1      -1.210  -4.458  -4.565  0.00  0.00     0.000 A 
ATOM      2  C2  BNZ d   1      -1.023  -4.926  -3.292  0.00  0.00     0.000 A 
ATOM      3  C3  BNZ d   1      -1.485  -4.226  -2.213  0.00  0.00     0.000 A 
ATOM      4  C4  BNZ d   1      -2.098  -3.040  -2.406  0.00  0.00     0.000 A 
ATOM      5  C5  BNZ d   1      -2.286  -2.550  -3.683  0.00  0.00     0.000 A 
ATOM      6  C6  BNZ d   1      -1.854  -3.277  -4.768  0.00  0.00     0.000 A 
ENDROOT
TORSDOF 0
ENDMDL
