MODEL 1
REMARK minimizedAffinity -1.52620888
REMARK minimizedRMSD -1
REMARK  0 active torsions:
REMARK  status: ('A' for Active; 'I' for Inactive)
ROOT
ATOM      1  C   UNL d   1      -1.889   3.554  -4.311  0.00  0.00     0.078 C 
ATOM      2  C1  UNL d   1      -3.323   3.313  -3.948  0.00  0.00    -0.077 A 
ATOM      3  C2  UNL d   1      -4.349   3.526  -4.877  0.00  0.00    -0.001 A 
ATOM      4  C3  UNL d   1      -5.680   3.307  -4.522  0.00  0.00     0.003 A 
ATOM      5  C4  UNL d   1      -6.000   2.874  -3.237  0.00  0.00    -0.005 A 
ATOM      6  C5  UNL d   1      -4.987   2.661  -2.304  0.00  0.00     0.003 A 
ATOM      7  C6  UNL d   1      -3.654   2.880  -2.657  0.00  0.00    -0.001 A 
ENDROOT
TORSDOF 0
ENDMDL
