MODEL 1
REMARK minimizedAffinity 1.39149523
REMARK minimizedRMSD -1
REMARK  0 active torsions:
REMARK  status: ('A' for Active; 'I' for Inactive)
ROOT
ATOM      1  C   UNL d   1       4.229  -0.567  -1.457  0.00  0.00     0.078 C 
ATOM      2  C1  UNL d   1       2.973  -0.464  -0.644  0.00  0.00    -0.077 A 
ATOM      3  C2  UNL d   1       2.111  -1.559  -0.507  0.00  0.00    -0.001 A 
ATOM      4  C3  UNL d   1       0.941  -1.447   0.245  0.00  0.00     0.003 A 
ATOM      5  C4  UNL d   1       0.621  -0.241   0.866  0.00  0.00    -0.005 A 
ATOM      6  C5  UNL d   1       1.472   0.855   0.734  0.00  0.00     0.003 A 
ATOM      7  C6  UNL d   1       2.643   0.744  -0.018  0.00  0.00    -0.001 A 
ENDROOT
TORSDOF 0
ENDMDL
