MODEL 1
REMARK minimizedAffinity 2.80238414
REMARK minimizedRMSD -1
REMARK  0 active torsions:
REMARK  status: ('A' for Active; 'I' for Inactive)
ROOT
ATOM      1  C   UNL d   1       0.822  -1.438   1.601  0.00  0.00     0.078 C 
ATOM      2  C1  UNL d   1      -0.634  -1.233   1.898  0.00  0.00    -0.077 A 
ATOM      3  C2  UNL d   1      -1.087  -0.053   2.502  0.00  0.00    -0.001 A 
ATOM      4  C3  UNL d   1      -2.443   0.120   2.781  0.00  0.00     0.003 A 
ATOM      5  C4  UNL d   1      -3.357  -0.882   2.462  0.00  0.00    -0.005 A 
ATOM      6  C5  UNL d   1      -2.915  -2.060   1.863  0.00  0.00     0.003 A 
ATOM      7  C6  UNL d   1      -1.559  -2.235   1.583  0.00  0.00    -0.001 A 
ENDROOT
TORSDOF 0
ENDMDL
