MODEL 1
REMARK minimizedAffinity -0.0836286917
REMARK minimizedRMSD -1
REMARK  0 active torsions:
REMARK  status: ('A' for Active; 'I' for Inactive)
ROOT
ATOM      1  C   UNL d   1       3.462   1.179  -1.925  0.00  0.00     0.078 C 
ATOM      2  C1  UNL d   1       2.771   0.338  -0.892  0.00  0.00    -0.077 A 
ATOM      3  C2  UNL d   1       2.585  -1.036  -1.088  0.00  0.00    -0.001 A 
ATOM      4  C3  UNL d   1       1.932  -1.804  -0.123  0.00  0.00     0.003 A 
ATOM      5  C4  UNL d   1       1.459  -1.207   1.044  0.00  0.00    -0.005 A 
ATOM      6  C5  UNL d   1       1.637   0.160   1.246  0.00  0.00     0.003 A 
ATOM      7  C6  UNL d   1       2.290   0.930   0.282  0.00  0.00    -0.001 A 
ENDROOT
TORSDOF 0
ENDMDL
