MODEL 1
REMARK minimizedAffinity -0.368601441
REMARK minimizedRMSD -1
REMARK  0 active torsions:
REMARK  status: ('A' for Active; 'I' for Inactive)
ROOT
ATOM      1  C   UNL d   1      -0.888  -1.878   1.615  0.00  0.00     0.078 C 
ATOM      2  C1  UNL d   1       0.224  -1.091   0.988  0.00  0.00    -0.077 A 
ATOM      3  C2  UNL d   1       1.112  -1.691   0.088  0.00  0.00    -0.001 A 
ATOM      4  C3  UNL d   1       2.149  -0.949  -0.481  0.00  0.00     0.003 A 
ATOM      5  C4  UNL d   1       2.307   0.396  -0.155  0.00  0.00    -0.005 A 
ATOM      6  C5  UNL d   1       1.429   1.001   0.742  0.00  0.00     0.003 A 
ATOM      7  C6  UNL d   1       0.392   0.261   1.312  0.00  0.00    -0.001 A 
ENDROOT
TORSDOF 0
ENDMDL
