MODEL 1
REMARK minimizedAffinity 1.68633533
REMARK minimizedRMSD -1
REMARK  0 active torsions:
REMARK  status: ('A' for Active; 'I' for Inactive)
ROOT
ATOM      1  C   UNL d   1       1.999  -1.505  -1.039  0.00  0.00     0.078 C 
ATOM      2  C1  UNL d   1       1.230  -1.075   0.175  0.00  0.00    -0.077 A 
ATOM      3  C2  UNL d   1       0.255  -1.904   0.742  0.00  0.00    -0.001 A 
ATOM      4  C3  UNL d   1      -0.460  -1.486   1.865  0.00  0.00     0.003 A 
ATOM      5  C4  UNL d   1      -0.208  -0.238   2.431  0.00  0.00    -0.005 A 
ATOM      6  C5  UNL d   1       0.760   0.595   1.873  0.00  0.00     0.003 A 
ATOM      7  C6  UNL d   1       1.476   0.179   0.749  0.00  0.00    -0.001 A 
ENDROOT
TORSDOF 0
ENDMDL
