MODEL 1
REMARK minimizedAffinity 3.60145164
REMARK minimizedRMSD -1
REMARK  0 active torsions:
REMARK  status: ('A' for Active; 'I' for Inactive)
ROOT
ATOM      1  C   UNL d   1      -0.683   5.322  -2.603  0.00  0.00     0.078 C 
ATOM      2  C1  UNL d   1      -0.837   3.944  -3.174  0.00  0.00    -0.077 A 
ATOM      3  C2  UNL d   1       0.282   3.150  -3.453  0.00  0.00    -0.001 A 
ATOM      4  C3  UNL d   1       0.125   1.873  -3.994  0.00  0.00     0.003 A 
ATOM      5  C4  UNL d   1      -1.151   1.378  -4.261  0.00  0.00    -0.005 A 
ATOM      6  C5  UNL d   1      -2.270   2.162  -3.989  0.00  0.00     0.003 A 
ATOM      7  C6  UNL d   1      -2.114   3.440  -3.448  0.00  0.00    -0.001 A 
ENDROOT
TORSDOF 0
ENDMDL
