MODEL 1
REMARK minimizedAffinity 0.216692358
REMARK minimizedRMSD -1
REMARK  0 active torsions:
REMARK  status: ('A' for Active; 'I' for Inactive)
ROOT
ATOM      1  C   UNL d   1      -0.204  -1.074   2.580  0.00  0.00     0.078 C 
ATOM      2  C1  UNL d   1       0.624  -0.511   1.464  0.00  0.00    -0.077 A 
ATOM      3  C2  UNL d   1       1.041   0.826   1.479  0.00  0.00    -0.001 A 
ATOM      4  C3  UNL d   1       1.803   1.339   0.429  0.00  0.00     0.003 A 
ATOM      5  C4  UNL d   1       2.155   0.524  -0.645  0.00  0.00    -0.005 A 
ATOM      6  C5  UNL d   1       1.743  -0.807  -0.670  0.00  0.00     0.003 A 
ATOM      7  C6  UNL d   1       0.980  -1.323   0.380  0.00  0.00    -0.001 A 
ENDROOT
TORSDOF 0
ENDMDL
