MODEL 1
REMARK minimizedAffinity -3.27222991
REMARK minimizedRMSD -1
REMARK  0 active torsions:
REMARK  status: ('A' for Active; 'I' for Inactive)
ROOT
ATOM      1  C   UNL d   1      -0.616  -1.190   2.391  0.00  0.00     0.078 C 
ATOM      2  C1  UNL d   1       0.305  -0.848   1.258  0.00  0.00    -0.077 A 
ATOM      3  C2  UNL d   1       0.580   0.485   0.929  0.00  0.00    -0.001 A 
ATOM      4  C3  UNL d   1       1.432   0.788  -0.134  0.00  0.00     0.003 A 
ATOM      5  C4  UNL d   1       2.014  -0.236  -0.878  0.00  0.00    -0.005 A 
ATOM      6  C5  UNL d   1       1.744  -1.565  -0.560  0.00  0.00     0.003 A 
ATOM      7  C6  UNL d   1       0.893  -1.871   0.503  0.00  0.00    -0.001 A 
ENDROOT
TORSDOF 0
ENDMDL
