MODEL 1
REMARK minimizedAffinity -2.50259447
REMARK minimizedRMSD -1
REMARK  0 active torsions:
REMARK  status: ('A' for Active; 'I' for Inactive)
ROOT
ATOM      1  C   UNL d   1       0.595  -1.376   0.975  0.00  0.00     0.078 C 
ATOM      2  C1  UNL d   1       1.588  -0.844  -0.014  0.00  0.00    -0.077 A 
ATOM      3  C2  UNL d   1       2.483  -1.699  -0.670  0.00  0.00    -0.001 A 
ATOM      4  C3  UNL d   1       3.409  -1.188  -1.580  0.00  0.00     0.003 A 
ATOM      5  C4  UNL d   1       3.450   0.180  -1.843  0.00  0.00    -0.005 A 
ATOM      6  C5  UNL d   1       2.565   1.039  -1.194  0.00  0.00     0.003 A 
ATOM      7  C6  UNL d   1       1.639   0.530  -0.283  0.00  0.00    -0.001 A 
ENDROOT
TORSDOF 0
ENDMDL
