MODEL 1
REMARK minimizedAffinity 5.98227072
REMARK minimizedRMSD -1
REMARK  3 active torsions:
REMARK  status: ('A' for Active; 'I' for Inactive)
REMARK    1  A    between atoms: C3'_2  and  C2'_3 
REMARK    2  A    between atoms: C2'_3  and  C1'_4 
REMARK    3  A    between atoms: C1'_4  and  C1_5 
ROOT
ATOM      1  C1  N4B d   1      -4.155   0.186  -2.746  0.00  0.00    -0.075 A 
ATOM      2  C2  N4B d   1      -5.166   0.145  -3.732  0.00  0.00     0.002 A 
ATOM      3  C3  N4B d   1      -5.609  -1.063  -4.210  0.00  0.00     0.002 A 
ATOM      4  C4  N4B d   1      -5.047  -2.238  -3.734  0.00  0.00    -0.004 A 
ATOM      5  C5  N4B d   1      -4.090  -2.191  -2.763  0.00  0.00     0.002 A 
ATOM      6  C6  N4B d   1      -3.637  -0.984  -2.270  0.00  0.00     0.002 A 
ENDROOT
BRANCH   1   7
ATOM      7  C1' N4B d   1      -3.577   1.485  -2.254  0.00  0.00     0.057 C 
BRANCH   7   8
ATOM      8  C2' N4B d   1      -3.134   2.321  -3.451  0.00  0.00     0.009 C 
BRANCH   8   9
ATOM      9  C3' N4B d   1      -3.431   3.797  -3.254  0.00  0.00     0.004 C 
ATOM     10  C4' N4B d   1      -4.536   4.291  -4.139  0.00  0.00     0.003 C 
ENDBRANCH   8   9
ENDBRANCH   7   8
ENDBRANCH   1   7
TORSDOF 3
ENDMDL
