MODEL 1
REMARK minimizedAffinity 1.5830133
REMARK minimizedRMSD -1
REMARK  3 active torsions:
REMARK  status: ('A' for Active; 'I' for Inactive)
REMARK    1  A    between atoms: C3'_2  and  C2'_3 
REMARK    2  A    between atoms: C2'_3  and  C1'_4 
REMARK    3  A    between atoms: C1'_4  and  C1_5 
ROOT
ATOM      1  C1  N4B d   1       2.997  -3.019   2.236  0.00  0.00    -0.075 A 
ATOM      2  C2  N4B d   1       2.133  -2.265   3.060  0.00  0.00     0.002 A 
ATOM      3  C3  N4B d   1       1.131  -1.512   2.498  0.00  0.00     0.002 A 
ATOM      4  C4  N4B d   1       0.987  -1.483   1.119  0.00  0.00    -0.004 A 
ATOM      5  C5  N4B d   1       1.809  -2.234   0.331  0.00  0.00     0.002 A 
ATOM      6  C6  N4B d   1       2.818  -2.998   0.883  0.00  0.00     0.002 A 
ENDROOT
BRANCH   1   7
ATOM      7  C1' N4B d   1       4.160  -3.789   2.799  0.00  0.00     0.057 C 
BRANCH   7   8
ATOM      8  C2' N4B d   1       4.170  -3.642   4.317  0.00  0.00     0.009 C 
BRANCH   8   9
ATOM      9  C3' N4B d   1       4.577  -2.243   4.750  0.00  0.00     0.004 C 
ATOM     10  C4' N4B d   1       5.999  -2.171   5.218  0.00  0.00     0.003 C 
ENDBRANCH   8   9
ENDBRANCH   7   8
ENDBRANCH   1   7
TORSDOF 3
ENDMDL
