MODEL 1
REMARK minimizedAffinity 3.52432966
REMARK minimizedRMSD -1
REMARK  3 active torsions:
REMARK  status: ('A' for Active; 'I' for Inactive)
REMARK    1  A    between atoms: C3'_2  and  C2'_3 
REMARK    2  A    between atoms: C2'_3  and  C1'_4 
REMARK    3  A    between atoms: C1'_4  and  C1_5 
ROOT
ATOM      1  C1  N4B d   1       3.595  -3.222   2.080  0.00  0.00    -0.075 A 
ATOM      2  C2  N4B d   1       3.735  -3.600   0.726  0.00  0.00     0.002 A 
ATOM      3  C3  N4B d   1       2.865  -3.111  -0.217  0.00  0.00     0.002 A 
ATOM      4  C4  N4B d   1       1.840  -2.261   0.171  0.00  0.00    -0.004 A 
ATOM      5  C5  N4B d   1       1.727  -1.880   1.477  0.00  0.00     0.002 A 
ATOM      6  C6  N4B d   1       2.597  -2.361   2.435  0.00  0.00     0.002 A 
ENDROOT
BRANCH   1   7
ATOM      7  C1' N4B d   1       4.469  -3.799   3.160  0.00  0.00     0.057 C 
BRANCH   7   8
ATOM      8  C2' N4B d   1       5.137  -2.660   3.925  0.00  0.00     0.009 C 
BRANCH   8   9
ATOM      9  C3' N4B d   1       4.807  -2.700   5.407  0.00  0.00     0.004 C 
ATOM     10  C4' N4B d   1       4.933  -4.075   5.993  0.00  0.00     0.003 C 
ENDBRANCH   8   9
ENDBRANCH   7   8
ENDBRANCH   1   7
TORSDOF 3
ENDMDL
