MODEL 1
REMARK minimizedAffinity -1.1550101
REMARK minimizedRMSD -1
REMARK  1 active torsions:
REMARK  status: ('A' for Active; 'I' for Inactive)
REMARK    1  A    between atoms: N_2  and  C1_3 
ROOT
ATOM      1  C1  UNL d   1       4.910   5.466   3.242  0.00  0.00     0.143 A 
ATOM      2  C2  UNL d   1       5.972   4.893   2.536  0.00  0.00    -0.057 A 
ATOM      3  C3  UNL d   1       5.999   4.894   1.136  0.00  0.00     0.033 A 
ATOM      4  C4  UNL d   1       4.944   5.445   0.415  0.00  0.00    -0.042 A 
ATOM      5  C5  UNL d   1       3.866   5.998   1.096  0.00  0.00     0.033 A 
ATOM      6  C6  UNL d   1       3.849   6.000   2.494  0.00  0.00    -0.057 A 
ENDROOT
BRANCH   1   7
ATOM      7  N   UNL d   1       4.778   5.409   4.632  0.00  0.00    -0.732 N 
ATOM      8  C   UNL d   1       5.910   5.684   5.491  0.00  0.00     0.284 C 
ATOM      9  H3  UNL d   1       3.902   5.812   4.956  0.00  0.00     0.395 HD
ENDBRANCH   1   7
TORSDOF 1
ENDMDL
