MODEL 1
REMARK minimizedAffinity 6.57702827
REMARK minimizedRMSD -1
REMARK  1 active torsions:
REMARK  status: ('A' for Active; 'I' for Inactive)
REMARK    1  A    between atoms: N_2  and  C1_3 
ROOT
ATOM      1  C1  UNL d   1      -1.591   0.544   1.983  0.00  0.00     0.143 A 
ATOM      2  C2  UNL d   1      -2.373  -0.595   2.201  0.00  0.00    -0.057 A 
ATOM      3  C3  UNL d   1      -2.819  -1.385   1.134  0.00  0.00     0.033 A 
ATOM      4  C4  UNL d   1      -2.512  -1.033  -0.176  0.00  0.00    -0.042 A 
ATOM      5  C5  UNL d   1      -1.758   0.109  -0.418  0.00  0.00     0.033 A 
ATOM      6  C6  UNL d   1      -1.310   0.891   0.652  0.00  0.00    -0.057 A 
ENDROOT
BRANCH   1   7
ATOM      7  N   UNL d   1      -1.201   1.425   2.994  0.00  0.00    -0.732 N 
ATOM      8  C   UNL d   1      -1.809   2.734   3.106  0.00  0.00     0.284 C 
ATOM      9  H3  UNL d   1      -1.059   0.955   3.885  0.00  0.00     0.395 HD
ENDBRANCH   1   7
TORSDOF 1
ENDMDL
