MODEL 1
REMARK minimizedAffinity 5.8481679
REMARK minimizedRMSD -1
REMARK  1 active torsions:
REMARK  status: ('A' for Active; 'I' for Inactive)
REMARK    1  A    between atoms: N_2  and  C1_3 
ROOT
ATOM      1  C1  UNL d   1       1.827   0.298  -2.206  0.00  0.00     0.143 A 
ATOM      2  C2  UNL d   1       2.593   1.423  -1.885  0.00  0.00    -0.057 A 
ATOM      3  C3  UNL d   1       2.433   2.632  -2.573  0.00  0.00     0.033 A 
ATOM      4  C4  UNL d   1       1.521   2.728  -3.619  0.00  0.00    -0.042 A 
ATOM      5  C5  UNL d   1       0.767   1.615  -3.973  0.00  0.00     0.033 A 
ATOM      6  C6  UNL d   1       0.926   0.413  -3.277  0.00  0.00    -0.057 A 
ENDROOT
BRANCH   1   7
ATOM      7  N   UNL d   1       2.008  -0.959  -1.625  0.00  0.00    -0.732 N 
ATOM      8  C   UNL d   1       1.007  -1.993  -1.775  0.00  0.00     0.284 C 
ATOM      9  H3  UNL d   1       2.966  -1.292  -1.711  0.00  0.00     0.395 HD
ENDBRANCH   1   7
TORSDOF 1
ENDMDL
