MODEL 1
REMARK minimizedAffinity 11.4929285
REMARK minimizedRMSD -1
REMARK  1 active torsions:
REMARK  status: ('A' for Active; 'I' for Inactive)
REMARK    1  A    between atoms: N_2  and  C1_3 
ROOT
ATOM      1  C1  UNL d   1      -1.574   1.636   3.386  0.00  0.00     0.143 A 
ATOM      2  C2  UNL d   1      -1.059   1.549   2.088  0.00  0.00    -0.057 A 
ATOM      3  C3  UNL d   1      -1.444   0.518   1.222  0.00  0.00     0.033 A 
ATOM      4  C4  UNL d   1      -2.332  -0.463   1.650  0.00  0.00    -0.042 A 
ATOM      5  C5  UNL d   1      -2.838  -0.410   2.944  0.00  0.00     0.033 A 
ATOM      6  C6  UNL d   1      -2.454   0.625   3.802  0.00  0.00    -0.057 A 
ENDROOT
BRANCH   1   7
ATOM      7  N   UNL d   1      -1.155   2.580   4.327  0.00  0.00    -0.732 N 
ATOM      8  C   UNL d   1      -1.583   3.959   4.229  0.00  0.00     0.284 C 
ATOM      9  H3  UNL d   1      -1.157   2.210   5.275  0.00  0.00     0.395 HD
ENDBRANCH   1   7
TORSDOF 1
ENDMDL
