MODEL 1
REMARK minimizedAffinity 8.47402954
REMARK minimizedRMSD -1
REMARK  1 active torsions:
REMARK  status: ('A' for Active; 'I' for Inactive)
REMARK    1  A    between atoms: N_2  and  C1_3 
ROOT
ATOM      1  C1  UNL d   1      -1.820   1.630   0.027  0.00  0.00     0.143 A 
ATOM      2  C2  UNL d   1      -2.487   2.731   0.574  0.00  0.00    -0.057 A 
ATOM      3  C3  UNL d   1      -2.787   2.793   1.940  0.00  0.00     0.033 A 
ATOM      4  C4  UNL d   1      -2.448   1.739   2.781  0.00  0.00    -0.042 A 
ATOM      5  C5  UNL d   1      -1.806   0.623   2.255  0.00  0.00     0.033 A 
ATOM      6  C6  UNL d   1      -1.504   0.570   0.891  0.00  0.00    -0.057 A 
ENDROOT
BRANCH   1   7
ATOM      7  N   UNL d   1      -1.581   1.465  -1.340  0.00  0.00    -0.732 N 
ATOM      8  C   UNL d   1      -0.311   0.955  -1.810  0.00  0.00     0.284 C 
ATOM      9  H3  UNL d   1      -2.388   1.088  -1.832  0.00  0.00     0.395 HD
ENDBRANCH   1   7
TORSDOF 1
ENDMDL
