MODEL 1
REMARK minimizedAffinity 7.02348137
REMARK minimizedRMSD -1
REMARK  1 active torsions:
REMARK  status: ('A' for Active; 'I' for Inactive)
REMARK    1  A    between atoms: N_2  and  C1_3 
ROOT
ATOM      1  C1  UNL d   1       5.410   4.701   2.923  0.00  0.00     0.143 A 
ATOM      2  C2  UNL d   1       5.941   3.727   3.775  0.00  0.00    -0.057 A 
ATOM      3  C3  UNL d   1       5.881   3.869   5.167  0.00  0.00     0.033 A 
ATOM      4  C4  UNL d   1       5.314   5.007   5.732  0.00  0.00    -0.042 A 
ATOM      5  C5  UNL d   1       4.803   6.000   4.904  0.00  0.00     0.033 A 
ATOM      6  C6  UNL d   1       4.859   5.849   3.515  0.00  0.00    -0.057 A 
ENDROOT
BRANCH   1   7
ATOM      7  N   UNL d   1       5.526   4.664   1.531  0.00  0.00    -0.732 N 
ATOM      8  C   UNL d   1       5.583   5.889   0.763  0.00  0.00     0.284 C 
ATOM      9  H3  UNL d   1       6.173   3.945   1.215  0.00  0.00     0.395 HD
ENDBRANCH   1   7
TORSDOF 1
ENDMDL
