MODEL 1
REMARK minimizedAffinity 12.1485262
REMARK minimizedRMSD -1
REMARK  1 active torsions:
REMARK  status: ('A' for Active; 'I' for Inactive)
REMARK    1  A    between atoms: N_2  and  C1_3 
ROOT
ATOM      1  C1  UNL d   1       0.726  -1.593  -4.501  0.00  0.00     0.143 A 
ATOM      2  C2  UNL d   1       0.551  -2.930  -4.128  0.00  0.00    -0.057 A 
ATOM      3  C3  UNL d   1       1.066  -3.422  -2.922  0.00  0.00     0.033 A 
ATOM      4  C4  UNL d   1       1.793  -2.588  -2.079  0.00  0.00    -0.042 A 
ATOM      5  C5  UNL d   1       2.001  -1.262  -2.441  0.00  0.00     0.033 A 
ATOM      6  C6  UNL d   1       1.479  -0.776  -3.643  0.00  0.00    -0.057 A 
ENDROOT
BRANCH   1   7
ATOM      7  N   UNL d   1       0.323  -1.070  -5.732  0.00  0.00    -0.732 N 
ATOM      8  C   UNL d   1       0.391   0.353  -5.985  0.00  0.00     0.284 C 
ATOM      9  H3  UNL d   1       0.622  -1.646  -6.516  0.00  0.00     0.395 HD
ENDBRANCH   1   7
TORSDOF 1
ENDMDL
