MODEL 1
REMARK minimizedAffinity -2.17087364
REMARK minimizedRMSD -1
REMARK  1 active torsions:
REMARK  status: ('A' for Active; 'I' for Inactive)
REMARK    1  A    between atoms: N_2  and  C1_3 
ROOT
ATOM      1  C1  UNL d   1       4.435   5.999   3.646  0.00  0.00     0.143 A 
ATOM      2  C2  UNL d   1       5.741   5.879   3.160  0.00  0.00    -0.057 A 
ATOM      3  C3  UNL d   1       5.999   5.792   1.786  0.00  0.00     0.033 A 
ATOM      4  C4  UNL d   1       4.949   5.794   0.874  0.00  0.00    -0.042 A 
ATOM      5  C5  UNL d   1       3.641   5.888   1.336  0.00  0.00     0.033 A 
ATOM      6  C6  UNL d   1       3.390   5.981   2.708  0.00  0.00    -0.057 A 
ENDROOT
BRANCH   1   7
ATOM      7  N   UNL d   1       4.106   5.990   5.004  0.00  0.00    -0.732 N 
ATOM      8  C   UNL d   1       4.934   5.282   5.958  0.00  0.00     0.284 C 
ATOM      9  H3  UNL d   1       3.778   6.896   5.330  0.00  0.00     0.395 HD
ENDBRANCH   1   7
TORSDOF 1
ENDMDL
