MODEL 1
REMARK minimizedAffinity 7.24597979
REMARK minimizedRMSD -1
REMARK  1 active torsions:
REMARK  status: ('A' for Active; 'I' for Inactive)
REMARK    1  A    between atoms: N_2  and  C1_3 
ROOT
ATOM      1  C1  UNL d   1      -1.446   1.643   3.808  0.00  0.00     0.143 A 
ATOM      2  C2  UNL d   1      -1.138   1.091   2.560  0.00  0.00    -0.057 A 
ATOM      3  C3  UNL d   1      -1.743  -0.093   2.121  0.00  0.00     0.033 A 
ATOM      4  C4  UNL d   1      -2.647  -0.763   2.938  0.00  0.00    -0.042 A 
ATOM      5  C5  UNL d   1      -2.949  -0.246   4.193  0.00  0.00     0.033 A 
ATOM      6  C6  UNL d   1      -2.347   0.940   4.622  0.00  0.00    -0.057 A 
ENDROOT
BRANCH   1   7
ATOM      7  N   UNL d   1      -0.805   2.764   4.341  0.00  0.00    -0.732 N 
ATOM      8  C   UNL d   1      -1.513   4.017   4.491  0.00  0.00     0.284 C 
ATOM      9  H3  UNL d   1      -0.204   2.530   5.129  0.00  0.00     0.395 HD
ENDBRANCH   1   7
TORSDOF 1
ENDMDL
