MODEL 1
REMARK minimizedAffinity 4.68932772
REMARK minimizedRMSD -1
REMARK  1 active torsions:
REMARK  status: ('A' for Active; 'I' for Inactive)
REMARK    1  A    between atoms: N_2  and  C1_3 
ROOT
ATOM      1  C1  UNL d   1       5.413   4.811   3.196  0.00  0.00     0.143 A 
ATOM      2  C2  UNL d   1       5.784   3.646   3.876  0.00  0.00    -0.057 A 
ATOM      3  C3  UNL d   1       5.982   3.646   5.262  0.00  0.00     0.033 A 
ATOM      4  C4  UNL d   1       5.839   4.822   5.991  0.00  0.00    -0.042 A 
ATOM      5  C5  UNL d   1       5.495   5.997   5.333  0.00  0.00     0.033 A 
ATOM      6  C6  UNL d   1       5.292   5.989   3.949  0.00  0.00    -0.057 A 
ENDROOT
BRANCH   1   7
ATOM      7  N   UNL d   1       5.298   4.897   1.806  0.00  0.00    -0.732 N 
ATOM      8  C   UNL d   1       5.903   5.995   1.084  0.00  0.00     0.284 C 
ATOM      9  H3  UNL d   1       5.400   3.993   1.351  0.00  0.00     0.395 HD
ENDBRANCH   1   7
TORSDOF 1
ENDMDL
