MODEL 1
REMARK minimizedAffinity 6.69973898
REMARK minimizedRMSD -1
REMARK  1 active torsions:
REMARK  status: ('A' for Active; 'I' for Inactive)
REMARK    1  A    between atoms: N_2  and  C1_3 
ROOT
ATOM      1  C1  UNL d   1      -0.728   1.208   1.075  0.00  0.00     0.143 A 
ATOM      2  C2  UNL d   1      -1.610   0.985   0.013  0.00  0.00    -0.057 A 
ATOM      3  C3  UNL d   1      -1.141   0.775  -1.289  0.00  0.00     0.033 A 
ATOM      4  C4  UNL d   1       0.224   0.813  -1.558  0.00  0.00    -0.042 A 
ATOM      5  C5  UNL d   1       1.118   1.057  -0.522  0.00  0.00     0.033 A 
ATOM      6  C6  UNL d   1       0.643   1.260   0.778  0.00  0.00    -0.057 A 
ENDROOT
BRANCH   1   7
ATOM      7  N   UNL d   1      -1.137   1.522   2.374  0.00  0.00    -0.732 N 
ATOM      8  C   UNL d   1      -2.253   0.829   2.982  0.00  0.00     0.284 C 
ATOM      9  H3  UNL d   1      -0.352   1.677   3.001  0.00  0.00     0.395 HD
ENDBRANCH   1   7
TORSDOF 1
ENDMDL
