MODEL 1
REMARK minimizedAffinity 6.08317947
REMARK minimizedRMSD -1
REMARK  1 active torsions:
REMARK  status: ('A' for Active; 'I' for Inactive)
REMARK    1  A    between atoms: N_2  and  C1_3 
ROOT
ATOM      1  C1  UNL d   1       1.906   1.805  -2.630  0.00  0.00     0.143 A 
ATOM      2  C2  UNL d   1       2.461   0.522  -2.573  0.00  0.00    -0.057 A 
ATOM      3  C3  UNL d   1       1.682  -0.592  -2.239  0.00  0.00     0.033 A 
ATOM      4  C4  UNL d   1       0.336  -0.439  -1.927  0.00  0.00    -0.042 A 
ATOM      5  C5  UNL d   1      -0.232   0.830  -1.953  0.00  0.00     0.033 A 
ATOM      6  C6  UNL d   1       0.549   1.938  -2.294  0.00  0.00    -0.057 A 
ENDROOT
BRANCH   1   7
ATOM      7  N   UNL d   1       2.649   2.965  -2.859  0.00  0.00    -0.732 N 
ATOM      8  C   UNL d   1       2.006   4.170  -3.339  0.00  0.00     0.284 C 
ATOM      9  H3  UNL d   1       3.350   3.126  -2.139  0.00  0.00     0.395 HD
ENDBRANCH   1   7
TORSDOF 1
ENDMDL
