MODEL 1
REMARK minimizedAffinity 9.757061
REMARK minimizedRMSD -1
REMARK  1 active torsions:
REMARK  status: ('A' for Active; 'I' for Inactive)
REMARK    1  A    between atoms: N_2  and  C1_3 
ROOT
ATOM      1  C1  UNL d   1      -3.123   2.925   2.112  0.00  0.00     0.143 A 
ATOM      2  C2  UNL d   1      -4.299   3.470   1.587  0.00  0.00    -0.057 A 
ATOM      3  C3  UNL d   1      -4.683   4.785   1.878  0.00  0.00     0.033 A 
ATOM      4  C4  UNL d   1      -3.909   5.570   2.726  0.00  0.00    -0.042 A 
ATOM      5  C5  UNL d   1      -2.748   5.041   3.279  0.00  0.00     0.033 A 
ATOM      6  C6  UNL d   1      -2.367   3.730   2.980  0.00  0.00    -0.057 A 
ENDROOT
BRANCH   1   7
ATOM      7  N   UNL d   1      -2.738   1.593   1.940  0.00  0.00    -0.732 N 
ATOM      8  C   UNL d   1      -1.916   0.929   2.929  0.00  0.00     0.284 C 
ATOM      9  H3  UNL d   1      -3.490   1.016   1.569  0.00  0.00     0.395 HD
ENDBRANCH   1   7
TORSDOF 1
ENDMDL
