MODEL 1
REMARK minimizedAffinity -5.05492306
REMARK minimizedRMSD -1
REMARK  3 active torsions:
REMARK  status: ('A' for Active; 'I' for Inactive)
REMARK    1  A    between atoms: C3'_2  and  C2'_3 
REMARK    2  A    between atoms: C2'_3  and  C1'_4 
REMARK    3  A    between atoms: C1'_4  and  C1_5 
ROOT
ATOM      1  C1  N4B d   1      -0.224  -0.017  -0.294  0.00  0.00    -0.075 A 
ATOM      2  C2  N4B d   1      -1.409   0.030   0.473  0.00  0.00     0.002 A 
ATOM      3  C3  N4B d   1      -1.357  -0.174   1.830  0.00  0.00     0.002 A 
ATOM      4  C4  N4B d   1      -0.140  -0.444   2.436  0.00  0.00    -0.004 A 
ATOM      5  C5  N4B d   1       1.004  -0.462   1.692  0.00  0.00     0.002 A 
ATOM      6  C6  N4B d   1       0.967  -0.255   0.328  0.00  0.00     0.002 A 
ENDROOT
BRANCH   1   7
ATOM      7  C1' N4B d   1      -0.243   0.115  -1.793  0.00  0.00     0.057 C 
BRANCH   7   8
ATOM      8  C2' N4B d   1      -1.225   1.214  -2.187  0.00  0.00     0.009 C 
BRANCH   8   9
ATOM      9  C3' N4B d   1      -0.570   2.584  -2.198  0.00  0.00     0.004 C 
ATOM     10  C4' N4B d   1       0.491   2.713  -3.251  0.00  0.00     0.003 C 
ENDBRANCH   8   9
ENDBRANCH   7   8
ENDBRANCH   1   7
TORSDOF 3
ENDMDL
