MODEL 1
REMARK minimizedAffinity -5.95012236
REMARK minimizedRMSD -1
REMARK  3 active torsions:
REMARK  status: ('A' for Active; 'I' for Inactive)
REMARK    1  A    between atoms: C3'_2  and  C2'_3 
REMARK    2  A    between atoms: C2'_3  and  C1'_4 
REMARK    3  A    between atoms: C1'_4  and  C1_5 
ROOT
ATOM      1  C1  N4B d   1      -0.768  -0.192   0.606  0.00  0.00    -0.075 A 
ATOM      2  C2  N4B d   1      -1.369  -0.002   1.870  0.00  0.00     0.002 A 
ATOM      3  C3  N4B d   1      -0.645  -0.227   3.015  0.00  0.00     0.002 A 
ATOM      4  C4  N4B d   1       0.669  -0.657   2.922  0.00  0.00    -0.004 A 
ATOM      5  C5  N4B d   1       1.250  -0.814   1.698  0.00  0.00     0.002 A 
ATOM      6  C6  N4B d   1       0.536  -0.589   0.538  0.00  0.00     0.002 A 
ENDROOT
BRANCH   1   7
ATOM      7  C1' N4B d   1      -1.545  -0.043  -0.673  0.00  0.00     0.057 C 
BRANCH   7   8
ATOM      8  C2' N4B d   1      -0.672   0.656  -1.711  0.00  0.00     0.009 C 
BRANCH   8   9
ATOM      9  C3' N4B d   1      -1.271   1.977  -2.161  0.00  0.00     0.004 C 
ATOM     10  C4' N4B d   1      -0.240   2.940  -2.670  0.00  0.00     0.003 C 
ENDBRANCH   8   9
ENDBRANCH   7   8
ENDBRANCH   1   7
TORSDOF 3
ENDMDL
