MODEL 1
REMARK minimizedAffinity 5.75019836
REMARK minimizedRMSD -1
REMARK  0 active torsions:
REMARK  status: ('A' for Active; 'I' for Inactive)
ROOT
ATOM      1  C   UNL d   1      -0.590  -3.101  -2.820  0.00  0.00     0.172 C 
ATOM      2  N   UNL d   1      -1.648  -2.934  -3.788  0.00  0.00    -0.070 N 
ATOM      3  C1  UNL d   1      -2.470  -3.927  -4.252  0.00  0.00    -0.004 A 
ATOM      4  C2  UNL d   1      -3.342  -3.364  -5.158  0.00  0.00    -0.047 A 
ATOM      5  C3  UNL d   1      -3.034  -1.985  -5.242  0.00  0.00    -0.047 A 
ATOM      6  C4  UNL d   1      -1.982  -1.746  -4.384  0.00  0.00    -0.004 A 
ENDROOT
TORSDOF 0
ENDMDL
