MODEL 1
REMARK minimizedAffinity -1.63043106
REMARK minimizedRMSD -1
REMARK  0 active torsions:
REMARK  status: ('A' for Active; 'I' for Inactive)
ROOT
ATOM      1  C   UNL d   1       5.985   3.185  -1.913  0.00  0.00     0.172 C 
ATOM      2  N   UNL d   1       4.872   2.472  -1.331  0.00  0.00    -0.070 N 
ATOM      3  C1  UNL d   1       4.684   2.238   0.005  0.00  0.00    -0.004 A 
ATOM      4  C2  UNL d   1       3.511   1.530   0.149  0.00  0.00    -0.047 A 
ATOM      5  C3  UNL d   1       2.976   1.329  -1.146  0.00  0.00    -0.047 A 
ATOM      6  C4  UNL d   1       3.839   1.923  -2.043  0.00  0.00    -0.004 A 
ENDROOT
TORSDOF 0
ENDMDL
