MODEL 1
REMARK minimizedAffinity 11.4535236
REMARK minimizedRMSD -1
REMARK  0 active torsions:
REMARK  status: ('A' for Active; 'I' for Inactive)
ROOT
ATOM      1  C   UNL d   1       5.999   2.641   1.348  0.00  0.00     0.172 C 
ATOM      2  N   UNL d   1       5.456   2.367   0.038  0.00  0.00    -0.070 N 
ATOM      3  C1  UNL d   1       5.995   2.776  -1.152  0.00  0.00    -0.004 A 
ATOM      4  C2  UNL d   1       5.183   2.313  -2.165  0.00  0.00    -0.047 A 
ATOM      5  C3  UNL d   1       4.118   1.602  -1.562  0.00  0.00    -0.047 A 
ATOM      6  C4  UNL d   1       4.312   1.651  -0.198  0.00  0.00    -0.004 A 
ENDROOT
TORSDOF 0
ENDMDL
