MODEL 1
REMARK minimizedAffinity -1.36699378
REMARK minimizedRMSD -1
REMARK  1 active torsions:
REMARK  status: ('A' for Active; 'I' for Inactive)
REMARK    1  A    between atoms: N_2  and  C1_3 
ROOT
ATOM      1  C1  UNL d   1      -1.045   0.099  -1.375  0.00  0.00     0.143 A 
ATOM      2  C2  UNL d   1      -1.597   1.006  -2.286  0.00  0.00    -0.057 A 
ATOM      3  C3  UNL d   1      -1.893   0.626  -3.601  0.00  0.00     0.033 A 
ATOM      4  C4  UNL d   1      -1.613  -0.665  -4.037  0.00  0.00    -0.042 A 
ATOM      5  C5  UNL d   1      -1.041  -1.576  -3.157  0.00  0.00     0.033 A 
ATOM      6  C6  UNL d   1      -0.754  -1.193  -1.843  0.00  0.00    -0.057 A 
ENDROOT
BRANCH   1   7
ATOM      7  N   UNL d   1      -0.637   0.443  -0.084  0.00  0.00    -0.732 N 
ATOM      8  C   UNL d   1       0.767   0.595   0.230  0.00  0.00     0.284 C 
ATOM      9  H3  UNL d   1      -1.236   1.150   0.336  0.00  0.00     0.395 HD
ENDBRANCH   1   7
TORSDOF 1
ENDMDL
