MODEL 1
REMARK minimizedAffinity -3.68338585
REMARK minimizedRMSD -1
REMARK  1 active torsions:
REMARK  status: ('A' for Active; 'I' for Inactive)
REMARK    1  A    between atoms: N_2  and  C1_3 
ROOT
ATOM      1  C1  UNL d   1      -1.623   2.469   0.224  0.00  0.00     0.143 A 
ATOM      2  C2  UNL d   1      -0.316   2.756  -0.185  0.00  0.00    -0.057 A 
ATOM      3  C3  UNL d   1       0.686   1.780  -0.152  0.00  0.00     0.033 A 
ATOM      4  C4  UNL d   1       0.406   0.502   0.321  0.00  0.00    -0.042 A 
ATOM      5  C5  UNL d   1      -0.880   0.201   0.756  0.00  0.00     0.033 A 
ATOM      6  C6  UNL d   1      -1.878   1.178   0.714  0.00  0.00    -0.057 A 
ENDROOT
BRANCH   1   7
ATOM      7  N   UNL d   1      -2.640   3.423   0.307  0.00  0.00    -0.732 N 
ATOM      8  C   UNL d   1      -2.323   4.828   0.446  0.00  0.00     0.284 C 
ATOM      9  H3  UNL d   1      -3.406   3.231  -0.335  0.00  0.00     0.395 HD
ENDBRANCH   1   7
TORSDOF 1
ENDMDL
