MODEL 1
REMARK minimizedAffinity 11.1924181
REMARK minimizedRMSD -1
REMARK  0 active torsions:
REMARK  status: ('A' for Active; 'I' for Inactive)
ROOT
ATOM      1  C   UNL d   1       2.431  -4.017   0.467  0.00  0.00     0.124 A 
ATOM      2  C1  UNL d   1       2.668  -2.657   0.320  0.00  0.00     0.062 A 
ATOM      3  C2  UNL d   1       1.968  -1.736   1.094  0.00  0.00     0.162 A 
ATOM      4  C3  UNL d   1       1.025  -2.172   2.025  0.00  0.00    -0.034 A 
ATOM      5  C4  UNL d   1       0.791  -3.541   2.167  0.00  0.00     0.162 A 
ATOM      6  C5  UNL d   1       1.493  -4.457   1.390  0.00  0.00     0.062 A 
ATOM      7  F   UNL d   1       1.262  -5.770   1.534  0.00  0.00    -0.097 F 
ATOM      8  F1  UNL d   1      -0.109  -3.994   3.052  0.00  0.00    -0.096 F 
ATOM      9  I   UNL d   1      -0.024  -0.798   3.184  0.00  0.00    -0.060 I 
ATOM     10  F2  UNL d   1       2.218  -0.429   0.930  0.00  0.00    -0.096 F 
ATOM     11  F3  UNL d   1       3.573  -2.229  -0.572  0.00  0.00    -0.097 F 
ATOM     12  F4  UNL d   1       3.105  -4.900  -0.280  0.00  0.00    -0.092 F 
ENDROOT
TORSDOF 0
ENDMDL
