MODEL 1
REMARK minimizedAffinity 13.5596333
REMARK minimizedRMSD -1
REMARK  0 active torsions:
REMARK  status: ('A' for Active; 'I' for Inactive)
ROOT
ATOM      1  C   UNL d   1      -0.518  -1.800   1.265  0.00  0.00     0.124 A 
ATOM      2  C1  UNL d   1       0.176  -1.754   0.063  0.00  0.00     0.062 A 
ATOM      3  C2  UNL d   1       1.554  -1.944   0.043  0.00  0.00     0.162 A 
ATOM      4  C3  UNL d   1       2.249  -2.184   1.228  0.00  0.00    -0.034 A 
ATOM      5  C4  UNL d   1       1.545  -2.228   2.433  0.00  0.00     0.162 A 
ATOM      6  C5  UNL d   1       0.167  -2.037   2.448  0.00  0.00     0.062 A 
ATOM      7  F   UNL d   1      -0.501  -2.083   3.610  0.00  0.00    -0.097 F 
ATOM      8  F1  UNL d   1       2.182  -2.456   3.591  0.00  0.00    -0.096 F 
ATOM      9  I   UNL d   1       4.311  -2.468   1.202  0.00  0.00    -0.060 I 
ATOM     10  F2  UNL d   1       2.199  -1.893  -1.132  0.00  0.00    -0.096 F 
ATOM     11  F3  UNL d   1      -0.484  -1.524  -1.081  0.00  0.00    -0.097 F 
ATOM     12  F4  UNL d   1      -1.844  -1.616   1.282  0.00  0.00    -0.092 F 
ENDROOT
TORSDOF 0
ENDMDL
