MODEL 1
REMARK minimizedAffinity 9.65534306
REMARK minimizedRMSD -1
REMARK  0 active torsions:
REMARK  status: ('A' for Active; 'I' for Inactive)
ROOT
ATOM      1  C   UNL d   1       2.147  -2.741   1.440  0.00  0.00     0.124 A 
ATOM      2  C1  UNL d   1       1.745  -4.063   1.314  0.00  0.00     0.062 A 
ATOM      3  C2  UNL d   1       0.561  -4.495   1.906  0.00  0.00     0.162 A 
ATOM      4  C3  UNL d   1      -0.230  -3.602   2.629  0.00  0.00    -0.034 A 
ATOM      5  C4  UNL d   1       0.182  -2.274   2.753  0.00  0.00     0.162 A 
ATOM      6  C5  UNL d   1       1.365  -1.848   2.159  0.00  0.00     0.062 A 
ATOM      7  F   UNL d   1       1.753  -0.570   2.282  0.00  0.00    -0.097 F 
ATOM      8  F1  UNL d   1      -0.555  -1.389   3.441  0.00  0.00    -0.096 F 
ATOM      9  I   UNL d   1      -2.000  -4.242   3.516  0.00  0.00    -0.060 I 
ATOM     10  F2  UNL d   1       0.197  -5.778   1.768  0.00  0.00    -0.096 F 
ATOM     11  F3  UNL d   1       2.499  -4.929   0.621  0.00  0.00    -0.097 F 
ATOM     12  F4  UNL d   1       3.287  -2.329   0.871  0.00  0.00    -0.092 F 
ENDROOT
TORSDOF 0
ENDMDL
