MODEL 1
REMARK minimizedAffinity 3.56524944
REMARK minimizedRMSD -1
REMARK  0 active torsions:
REMARK  status: ('A' for Active; 'I' for Inactive)
ROOT
ATOM      1  C   UNL d   1       0.032   0.417   2.302  0.00  0.00     0.124 A 
ATOM      2  C1  UNL d   1      -0.531  -0.751   2.798  0.00  0.00     0.062 A 
ATOM      3  C2  UNL d   1       0.043  -1.984   2.503  0.00  0.00     0.162 A 
ATOM      4  C3  UNL d   1       1.187  -2.057   1.709  0.00  0.00    -0.034 A 
ATOM      5  C4  UNL d   1       1.747  -0.878   1.213  0.00  0.00     0.162 A 
ATOM      6  C5  UNL d   1       1.170   0.353   1.510  0.00  0.00     0.062 A 
ATOM      7  F   UNL d   1       1.715   1.480   1.030  0.00  0.00    -0.097 F 
ATOM      8  F1  UNL d   1       2.847  -0.911   0.447  0.00  0.00    -0.096 F 
ATOM      9  I   UNL d   1       2.048  -3.899   1.266  0.00  0.00    -0.060 I 
ATOM     10  F2  UNL d   1      -0.522  -3.097   2.996  0.00  0.00    -0.096 F 
ATOM     11  F3  UNL d   1      -1.631  -0.691   3.562  0.00  0.00    -0.097 F 
ATOM     12  F4  UNL d   1      -0.523   1.602   2.586  0.00  0.00    -0.092 F 
ENDROOT
TORSDOF 0
ENDMDL
