MODEL 1
REMARK minimizedAffinity 8.10346413
REMARK minimizedRMSD -1
REMARK  0 active torsions:
REMARK  status: ('A' for Active; 'I' for Inactive)
ROOT
ATOM      1  C   UNL d   1       2.025  -2.789   2.145  0.00  0.00     0.124 A 
ATOM      2  C1  UNL d   1       0.881  -2.711   1.362  0.00  0.00     0.062 A 
ATOM      3  C2  UNL d   1      -0.164  -1.870   1.732  0.00  0.00     0.162 A 
ATOM      4  C3  UNL d   1      -0.071  -1.098   2.890  0.00  0.00    -0.034 A 
ATOM      5  C4  UNL d   1       1.082  -1.183   3.673  0.00  0.00     0.162 A 
ATOM      6  C5  UNL d   1       2.124  -2.025   3.299  0.00  0.00     0.062 A 
ATOM      7  F   UNL d   1       3.228  -2.100   4.056  0.00  0.00    -0.097 F 
ATOM      8  F1  UNL d   1       1.205  -0.455   4.793  0.00  0.00    -0.096 F 
ATOM      9  I   UNL d   1      -1.631   0.161   3.446  0.00  0.00    -0.060 I 
ATOM     10  F2  UNL d   1      -1.257  -1.814   0.956  0.00  0.00    -0.096 F 
ATOM     11  F3  UNL d   1       0.782  -3.449   0.247  0.00  0.00    -0.097 F 
ATOM     12  F4  UNL d   1       3.028  -3.601   1.787  0.00  0.00    -0.092 F 
ENDROOT
TORSDOF 0
ENDMDL
