MODEL 1
REMARK minimizedAffinity 18.9203491
REMARK minimizedRMSD -1
REMARK  0 active torsions:
REMARK  status: ('A' for Active; 'I' for Inactive)
ROOT
ATOM      1  C   UNL d   1       1.804  -2.763   1.714  0.00  0.00     0.124 A 
ATOM      2  C1  UNL d   1       0.941  -2.460   0.670  0.00  0.00     0.062 A 
ATOM      3  C2  UNL d   1      -0.259  -1.801   0.923  0.00  0.00     0.162 A 
ATOM      4  C3  UNL d   1      -0.602  -1.438   2.225  0.00  0.00    -0.034 A 
ATOM      5  C4  UNL d   1       0.271  -1.747   3.270  0.00  0.00     0.162 A 
ATOM      6  C5  UNL d   1       1.469  -2.406   3.013  0.00  0.00     0.062 A 
ATOM      7  F   UNL d   1       2.301  -2.697   4.022  0.00  0.00    -0.097 F 
ATOM      8  F1  UNL d   1      -0.028  -1.413   4.534  0.00  0.00    -0.096 F 
ATOM      9  I   UNL d   1      -2.395  -0.452   2.606  0.00  0.00    -0.060 I 
ATOM     10  F2  UNL d   1      -1.074  -1.521  -0.105  0.00  0.00    -0.096 F 
ATOM     11  F3  UNL d   1       1.262  -2.805  -0.585  0.00  0.00    -0.097 F 
ATOM     12  F4  UNL d   1       2.957  -3.398   1.469  0.00  0.00    -0.092 F 
ENDROOT
TORSDOF 0
ENDMDL
