MODEL 1
REMARK minimizedAffinity 21.5556507
REMARK minimizedRMSD -1
REMARK  0 active torsions:
REMARK  status: ('A' for Active; 'I' for Inactive)
ROOT
ATOM      1  C   UNL d   1       2.555  -2.687   1.715  0.00  0.00     0.124 A 
ATOM      2  C1  UNL d   1       1.530  -2.405   0.822  0.00  0.00     0.062 A 
ATOM      3  C2  UNL d   1       0.340  -1.845   1.277  0.00  0.00     0.162 A 
ATOM      4  C3  UNL d   1       0.168  -1.562   2.632  0.00  0.00    -0.034 A 
ATOM      5  C4  UNL d   1       1.202  -1.850   3.524  0.00  0.00     0.162 A 
ATOM      6  C5  UNL d   1       2.390  -2.410   3.065  0.00  0.00     0.062 A 
ATOM      7  F   UNL d   1       3.379  -2.682   3.929  0.00  0.00    -0.097 F 
ATOM      8  F1  UNL d   1       1.070  -1.591   4.834  0.00  0.00    -0.096 F 
ATOM      9  I   UNL d   1      -1.610  -0.725   3.317  0.00  0.00    -0.060 I 
ATOM     10  F2  UNL d   1      -0.633  -1.582   0.392  0.00  0.00    -0.096 F 
ATOM     11  F3  UNL d   1       1.687  -2.673  -0.482  0.00  0.00    -0.097 F 
ATOM     12  F4  UNL d   1       3.699  -3.227   1.275  0.00  0.00    -0.092 F 
ENDROOT
TORSDOF 0
ENDMDL
