MODEL 1
REMARK minimizedAffinity 12.6637011
REMARK minimizedRMSD -1
REMARK  0 active torsions:
REMARK  status: ('A' for Active; 'I' for Inactive)
ROOT
ATOM      1  C   UNL d   1       0.702  -1.885   1.667  0.00  0.00     0.124 A 
ATOM      2  C1  UNL d   1       0.998  -1.380   0.409  0.00  0.00     0.062 A 
ATOM      3  C2  UNL d   1       0.016  -0.732  -0.335  0.00  0.00     0.162 A 
ATOM      4  C3  UNL d   1      -1.272  -0.585   0.179  0.00  0.00    -0.034 A 
ATOM      5  C4  UNL d   1      -1.563  -1.096   1.445  0.00  0.00     0.162 A 
ATOM      6  C5  UNL d   1      -0.578  -1.742   2.184  0.00  0.00     0.062 A 
ATOM      7  F   UNL d   1      -0.867  -2.230   3.400  0.00  0.00    -0.097 F 
ATOM      8  F1  UNL d   1      -2.792  -0.971   1.968  0.00  0.00    -0.096 F 
ATOM      9  I   UNL d   1      -2.744   0.383  -0.930  0.00  0.00    -0.060 I 
ATOM     10  F2  UNL d   1       0.331  -0.254  -1.548  0.00  0.00    -0.096 F 
ATOM     11  F3  UNL d   1       2.234  -1.517  -0.093  0.00  0.00    -0.097 F 
ATOM     12  F4  UNL d   1       1.649  -2.508   2.380  0.00  0.00    -0.092 F 
ENDROOT
TORSDOF 0
ENDMDL
