MODEL 1
REMARK minimizedAffinity 11.9156675
REMARK minimizedRMSD -1
REMARK  0 active torsions:
REMARK  status: ('A' for Active; 'I' for Inactive)
ROOT
ATOM      1  C   UNL d   1       2.120  -2.646   1.052  0.00  0.00     0.124 A 
ATOM      2  C1  UNL d   1       1.619  -2.496   2.338  0.00  0.00     0.062 A 
ATOM      3  C2  UNL d   1       0.352  -1.956   2.537  0.00  0.00     0.162 A 
ATOM      4  C3  UNL d   1      -0.425  -1.562   1.448  0.00  0.00    -0.034 A 
ATOM      5  C4  UNL d   1       0.086  -1.715   0.157  0.00  0.00     0.162 A 
ATOM      6  C5  UNL d   1       1.353  -2.256  -0.037  0.00  0.00     0.062 A 
ATOM      7  F   UNL d   1       1.834  -2.400  -1.280  0.00  0.00    -0.097 F 
ATOM      8  F1  UNL d   1      -0.635  -1.347  -0.913  0.00  0.00    -0.096 F 
ATOM      9  I   UNL d   1      -2.320  -0.754   1.742  0.00  0.00    -0.060 I 
ATOM     10  F2  UNL d   1      -0.106  -1.822   3.791  0.00  0.00    -0.096 F 
ATOM     11  F3  UNL d   1       2.359  -2.872   3.391  0.00  0.00    -0.097 F 
ATOM     12  F4  UNL d   1       3.339  -3.165   0.863  0.00  0.00    -0.092 F 
ENDROOT
TORSDOF 0
ENDMDL
