MODEL 1
REMARK minimizedAffinity 4.84778309
REMARK minimizedRMSD -1
REMARK  0 active torsions:
REMARK  status: ('A' for Active; 'I' for Inactive)
ROOT
ATOM      1  C4' PXY d   1      -2.999   1.498   3.031  0.00  0.00     0.077 C 
ATOM      2  C1' PXY d   1       2.680   1.545   1.953  0.00  0.00     0.077 C 
ATOM      3  C1  PXY d   1       1.192   1.542   2.244  0.00  0.00    -0.082 A 
ATOM      4  C2  PXY d   1       0.483   0.448   2.020  0.00  0.00     0.003 A 
ATOM      5  C3  PXY d   1      -0.869   0.438   2.247  0.00  0.00     0.003 A 
ATOM      6  C4  PXY d   1      -1.493   1.543   2.760  0.00  0.00    -0.082 A 
ATOM      7  C5  PXY d   1      -0.775   2.660   3.002  0.00  0.00     0.003 A 
ATOM      8  C6  PXY d   1       0.589   2.663   2.726  0.00  0.00     0.003 A 
ENDROOT
TORSDOF 0
ENDMDL
