MODEL 1
REMARK minimizedAffinity 0.0678097457
REMARK minimizedRMSD -1
REMARK  0 active torsions:
REMARK  status: ('A' for Active; 'I' for Inactive)
ROOT
ATOM      1  C4' PXY d   1      -0.719   0.954   1.870  0.00  0.00     0.077 C 
ATOM      2  C1' PXY d   1       4.984   0.015   1.991  0.00  0.00     0.077 C 
ATOM      3  C1  PXY d   1       3.486   0.249   1.964  0.00  0.00    -0.082 A 
ATOM      4  C2  PXY d   1       2.981   1.161   1.148  0.00  0.00     0.003 A 
ATOM      5  C3  PXY d   1       1.632   1.408   1.134  0.00  0.00     0.003 A 
ATOM      6  C4  PXY d   1       0.786   0.677   1.924  0.00  0.00    -0.082 A 
ATOM      7  C5  PXY d   1       1.292  -0.262   2.751  0.00  0.00     0.003 A 
ATOM      8  C6  PXY d   1       2.669  -0.469   2.781  0.00  0.00     0.003 A 
ENDROOT
TORSDOF 0
ENDMDL
