MODEL 1
REMARK minimizedAffinity 5.47690105
REMARK minimizedRMSD -1
REMARK  0 active torsions:
REMARK  status: ('A' for Active; 'I' for Inactive)
ROOT
ATOM      1  C4' PXY d   1      -2.561  -0.347  -0.404  0.00  0.00     0.077 C 
ATOM      2  C1' PXY d   1      -0.066   2.282   4.100  0.00  0.00     0.077 C 
ATOM      3  C1  PXY d   1      -0.709   1.591   2.913  0.00  0.00    -0.082 A 
ATOM      4  C2  PXY d   1      -1.985   1.809   2.642  0.00  0.00     0.003 A 
ATOM      5  C3  PXY d   1      -2.590   1.168   1.592  0.00  0.00     0.003 A 
ATOM      6  C4  PXY d   1      -1.868   0.336   0.779  0.00  0.00    -0.082 A 
ATOM      7  C5  PXY d   1      -0.562   0.117   1.043  0.00  0.00     0.003 A 
ATOM      8  C6  PXY d   1       0.023   0.745   2.138  0.00  0.00     0.003 A 
ENDROOT
TORSDOF 0
ENDMDL
