MODEL 1
REMARK minimizedAffinity 5.18614721
REMARK minimizedRMSD -1
REMARK  0 active torsions:
REMARK  status: ('A' for Active; 'I' for Inactive)
ROOT
ATOM      1  C4' PXY d   1       2.876   2.620  -5.410  0.00  0.00     0.077 C 
ATOM      2  C1' PXY d   1       3.305  -2.880  -3.685  0.00  0.00     0.077 C 
ATOM      3  C1  PXY d   1       3.191  -1.434  -4.125  0.00  0.00    -0.082 A 
ATOM      4  C2  PXY d   1       2.861  -1.155  -5.376  0.00  0.00     0.003 A 
ATOM      5  C3  PXY d   1       2.784   0.147  -5.799  0.00  0.00     0.003 A 
ATOM      6  C4  PXY d   1       2.995   1.175  -4.919  0.00  0.00    -0.082 A 
ATOM      7  C5  PXY d   1       3.321   0.898  -3.639  0.00  0.00     0.003 A 
ATOM      8  C6  PXY d   1       3.434  -0.430  -3.240  0.00  0.00     0.003 A 
ENDROOT
TORSDOF 0
ENDMDL
