MODEL 1
REMARK minimizedAffinity 1.13815176
REMARK minimizedRMSD -1
REMARK  0 active torsions:
REMARK  status: ('A' for Active; 'I' for Inactive)
ROOT
ATOM      1  C4' PXY d   1       4.140  -0.075   1.953  0.00  0.00     0.077 C 
ATOM      2  C1' PXY d   1      -1.536   1.017   1.977  0.00  0.00     0.077 C 
ATOM      3  C1  PXY d   1      -0.049   0.722   1.980  0.00  0.00    -0.082 A 
ATOM      4  C2  PXY d   1       0.801   1.640   1.549  0.00  0.00     0.003 A 
ATOM      5  C3  PXY d   1       2.146   1.377   1.515  0.00  0.00     0.003 A 
ATOM      6  C4  PXY d   1       2.631   0.183   1.977  0.00  0.00    -0.082 A 
ATOM      7  C5  PXY d   1       1.771  -0.754   2.428  0.00  0.00     0.003 A 
ATOM      8  C6  PXY d   1       0.406  -0.484   2.416  0.00  0.00     0.003 A 
ENDROOT
TORSDOF 0
ENDMDL
