MODEL 1
REMARK minimizedAffinity 5.90414572
REMARK minimizedRMSD -1
REMARK  0 active torsions:
REMARK  status: ('A' for Active; 'I' for Inactive)
ROOT
ATOM      1  C4' PXY d   1      -2.241   0.247   0.394  0.00  0.00     0.077 C 
ATOM      2  C1' PXY d   1       1.393   2.155   4.464  0.00  0.00     0.077 C 
ATOM      3  C1  PXY d   1       0.450   1.650   3.390  0.00  0.00    -0.082 A 
ATOM      4  C2  PXY d   1      -0.735   2.220   3.239  0.00  0.00     0.003 A 
ATOM      5  C3  PXY d   1      -1.612   1.755   2.294  0.00  0.00     0.003 A 
ATOM      6  C4  PXY d   1      -1.253   0.730   1.459  0.00  0.00    -0.082 A 
ATOM      7  C5  PXY d   1      -0.042   0.151   1.600  0.00  0.00     0.003 A 
ATOM      8  C6  PXY d   1       0.818   0.611   2.593  0.00  0.00     0.003 A 
ENDROOT
TORSDOF 0
ENDMDL
