MODEL 1
REMARK minimizedAffinity 7.37101269
REMARK minimizedRMSD -1
REMARK  0 active torsions:
REMARK  status: ('A' for Active; 'I' for Inactive)
ROOT
ATOM      1  C4' PXY d   1      -2.958   0.647   1.200  0.00  0.00     0.077 C 
ATOM      2  C1' PXY d   1       1.162   2.392   4.860  0.00  0.00     0.077 C 
ATOM      3  C1  PXY d   1       0.073   1.933   3.910  0.00  0.00    -0.082 A 
ATOM      4  C2  PXY d   1       0.403   1.390   2.749  0.00  0.00     0.003 A 
ATOM      5  C3  PXY d   1      -0.569   0.999   1.865  0.00  0.00     0.003 A 
ATOM      6  C4  PXY d   1      -1.892   1.116   2.194  0.00  0.00    -0.082 A 
ATOM      7  C5  PXY d   1      -2.238   1.659   3.381  0.00  0.00     0.003 A 
ATOM      8  C6  PXY d   1      -1.236   2.087   4.247  0.00  0.00     0.003 A 
ENDROOT
TORSDOF 0
ENDMDL
