MODEL 1
REMARK minimizedAffinity 4.23520756
REMARK minimizedRMSD -1
REMARK  0 active torsions:
REMARK  status: ('A' for Active; 'I' for Inactive)
ROOT
ATOM      1  C4' PXY d   1       1.696   0.404   0.749  0.00  0.00     0.077 C 
ATOM      2  C1' PXY d   1      -3.531   1.475   2.972  0.00  0.00     0.077 C 
ATOM      3  C1  PXY d   1      -2.155   1.196   2.401  0.00  0.00    -0.082 A 
ATOM      4  C2  PXY d   1      -1.933   1.381   1.110  0.00  0.00     0.003 A 
ATOM      5  C3  PXY d   1      -0.703   1.103   0.571  0.00  0.00     0.003 A 
ATOM      6  C4  PXY d   1       0.325   0.682   1.371  0.00  0.00    -0.082 A 
ATOM      7  C5  PXY d   1       0.110   0.501   2.691  0.00  0.00     0.003 A 
ATOM      8  C6  PXY d   1      -1.157   0.750   3.212  0.00  0.00     0.003 A 
ENDROOT
TORSDOF 0
ENDMDL
