MODEL 1
REMARK minimizedAffinity 7.26514864
REMARK minimizedRMSD -1
REMARK  0 active torsions:
REMARK  status: ('A' for Active; 'I' for Inactive)
ROOT
ATOM      1  C4' PXY d   1      -2.256   0.250  -0.038  0.00  0.00     0.077 C 
ATOM      2  C1' PXY d   1       1.376   2.202   4.013  0.00  0.00     0.077 C 
ATOM      3  C1  PXY d   1       0.434   1.687   2.943  0.00  0.00    -0.082 A 
ATOM      4  C2  PXY d   1      -0.797   2.167   2.870  0.00  0.00     0.003 A 
ATOM      5  C3  PXY d   1      -1.673   1.689   1.929  0.00  0.00     0.003 A 
ATOM      6  C4  PXY d   1      -1.267   0.748   1.020  0.00  0.00    -0.082 A 
ATOM      7  C5  PXY d   1      -0.010   0.261   1.082  0.00  0.00     0.003 A 
ATOM      8  C6  PXY d   1       0.850   0.729   2.071  0.00  0.00     0.003 A 
ENDROOT
TORSDOF 0
ENDMDL
