MODEL 1
REMARK minimizedAffinity 4.02188158
REMARK minimizedRMSD -1
REMARK  0 active torsions:
REMARK  status: ('A' for Active; 'I' for Inactive)
ROOT
ATOM      1  C4' PXY d   1       2.310   0.700   2.271  0.00  0.00     0.077 C 
ATOM      2  C1' PXY d   1      -3.436   0.856   2.883  0.00  0.00     0.077 C 
ATOM      3  C1  PXY d   1      -1.929   0.828   2.720  0.00  0.00    -0.082 A 
ATOM      4  C2  PXY d   1      -1.322  -0.317   2.453  0.00  0.00     0.003 A 
ATOM      5  C3  PXY d   1       0.043  -0.366   2.333  0.00  0.00     0.003 A 
ATOM      6  C4  PXY d   1       0.789   0.777   2.435  0.00  0.00    -0.082 A 
ATOM      7  C5  PXY d   1       0.176   1.951   2.697  0.00  0.00     0.003 A 
ATOM      8  C6  PXY d   1      -1.207   1.973   2.856  0.00  0.00     0.003 A 
ENDROOT
TORSDOF 0
ENDMDL
