MODEL 1
REMARK minimizedAffinity 5.52743292
REMARK minimizedRMSD -1
REMARK  0 active torsions:
REMARK  status: ('A' for Active; 'I' for Inactive)
ROOT
ATOM      1  C4' PXY d   1      -2.383   0.330   0.139  0.00  0.00     0.077 C 
ATOM      2  C1' PXY d   1       1.193   1.975   4.371  0.00  0.00     0.077 C 
ATOM      3  C1  PXY d   1       0.266   1.539   3.254  0.00  0.00    -0.082 A 
ATOM      4  C2  PXY d   1      -0.917   2.117   3.124  0.00  0.00     0.003 A 
ATOM      5  C3  PXY d   1      -1.782   1.713   2.139  0.00  0.00     0.003 A 
ATOM      6  C4  PXY d   1      -1.410   0.744   1.246  0.00  0.00    -0.082 A 
ATOM      7  C5  PXY d   1      -0.201   0.157   1.366  0.00  0.00     0.003 A 
ATOM      8  C6  PXY d   1       0.646   0.553   2.397  0.00  0.00     0.003 A 
ENDROOT
TORSDOF 0
ENDMDL
