MODEL 1
REMARK minimizedAffinity 15.5882616
REMARK minimizedRMSD -1
REMARK  0 active torsions:
REMARK  status: ('A' for Active; 'I' for Inactive)
ROOT
ATOM      1  C4' PXY d   1      -1.477   1.561   1.838  0.00  0.00     0.077 C 
ATOM      2  C1' PXY d   1       3.686  -0.910   1.035  0.00  0.00     0.077 C 
ATOM      3  C1  PXY d   1       2.328  -0.273   1.251  0.00  0.00    -0.082 A 
ATOM      4  C2  PXY d   1       1.941   0.723   0.471  0.00  0.00     0.003 A 
ATOM      5  C3  PXY d   1       0.729   1.332   0.673  0.00  0.00     0.003 A 
ATOM      6  C4  PXY d   1      -0.118   0.881   1.650  0.00  0.00    -0.082 A 
ATOM      7  C5  PXY d   1       0.265  -0.142   2.443  0.00  0.00     0.003 A 
ATOM      8  C6  PXY d   1       1.516  -0.719   2.248  0.00  0.00     0.003 A 
ENDROOT
TORSDOF 0
ENDMDL
