MODEL 1
REMARK minimizedAffinity 5.08159208
REMARK minimizedRMSD -1
REMARK  0 active torsions:
REMARK  status: ('A' for Active; 'I' for Inactive)
ROOT
ATOM      1  C4' PXY d   1      -6.000  -0.739   1.877  0.00  0.00     0.077 C 
ATOM      2  C1' PXY d   1      -0.829   1.657   0.912  0.00  0.00     0.077 C 
ATOM      3  C1  PXY d   1      -2.184   1.022   1.154  0.00  0.00    -0.082 A 
ATOM      4  C2  PXY d   1      -3.056   1.624   1.946  0.00  0.00     0.003 A 
ATOM      5  C3  PXY d   1      -4.274   1.048   2.201  0.00  0.00     0.003 A 
ATOM      6  C4  PXY d   1      -4.623  -0.130   1.597  0.00  0.00    -0.082 A 
ATOM      7  C5  PXY d   1      -3.743  -0.745   0.779  0.00  0.00     0.003 A 
ATOM      8  C6  PXY d   1      -2.496  -0.164   0.566  0.00  0.00     0.003 A 
ENDROOT
TORSDOF 0
ENDMDL
