MODEL 1
REMARK minimizedAffinity 1.57186508
REMARK minimizedRMSD -1
REMARK  0 active torsions:
REMARK  status: ('A' for Active; 'I' for Inactive)
ROOT
ATOM      1  C4' PXY d   1       2.676  -0.018   1.758  0.00  0.00     0.077 C 
ATOM      2  C1' PXY d   1      -2.977   1.051   2.326  0.00  0.00     0.077 C 
ATOM      3  C1  PXY d   1      -1.496   0.759   2.182  0.00  0.00    -0.082 A 
ATOM      4  C2  PXY d   1      -0.636   1.762   2.102  0.00  0.00     0.003 A 
ATOM      5  C3  PXY d   1       0.703   1.516   1.940  0.00  0.00     0.003 A 
ATOM      6  C4  PXY d   1       1.173   0.230   1.913  0.00  0.00    -0.082 A 
ATOM      7  C5  PXY d   1       0.303  -0.798   2.006  0.00  0.00     0.003 A 
ATOM      8  C6  PXY d   1      -1.057  -0.527   2.128  0.00  0.00     0.003 A 
ENDROOT
TORSDOF 0
ENDMDL
