MODEL 1
REMARK minimizedAffinity 3.47163248
REMARK minimizedRMSD -1
REMARK  0 active torsions:
REMARK  status: ('A' for Active; 'I' for Inactive)
ROOT
ATOM      1  C4' PXY d   1       0.684   0.739   0.354  0.00  0.00     0.077 C 
ATOM      2  C1' PXY d   1      -4.034   2.011   3.443  0.00  0.00     0.077 C 
ATOM      3  C1  PXY d   1      -2.803   1.667   2.628  0.00  0.00    -0.082 A 
ATOM      4  C2  PXY d   1      -1.613   2.079   3.034  0.00  0.00     0.003 A 
ATOM      5  C3  PXY d   1      -0.493   1.805   2.292  0.00  0.00     0.003 A 
ATOM      6  C4  PXY d   1      -0.585   1.055   1.150  0.00  0.00    -0.082 A 
ATOM      7  C5  PXY d   1      -1.794   0.621   0.735  0.00  0.00     0.003 A 
ATOM      8  C6  PXY d   1      -2.924   0.946   1.480  0.00  0.00     0.003 A 
ENDROOT
TORSDOF 0
ENDMDL
