MODEL 1
REMARK minimizedAffinity 10.0249481
REMARK minimizedRMSD -1
REMARK  0 active torsions:
REMARK  status: ('A' for Active; 'I' for Inactive)
ROOT
ATOM      1  C4' PXY d   1       2.437  -2.281  -5.950  0.00  0.00     0.077 C 
ATOM      2  C1' PXY d   1       5.838   0.083  -1.917  0.00  0.00     0.077 C 
ATOM      3  C1  PXY d   1       4.936  -0.535  -2.967  0.00  0.00    -0.082 A 
ATOM      4  C2  PXY d   1       5.436  -1.403  -3.831  0.00  0.00     0.003 A 
ATOM      5  C3  PXY d   1       4.642  -1.947  -4.807  0.00  0.00     0.003 A 
ATOM      6  C4  PXY d   1       3.309  -1.639  -4.867  0.00  0.00    -0.082 A 
ATOM      7  C5  PXY d   1       2.788  -0.762  -3.982  0.00  0.00     0.003 A 
ATOM      8  C6  PXY d   1       3.621  -0.190  -3.025  0.00  0.00     0.003 A 
ENDROOT
TORSDOF 0
ENDMDL
