MODEL 1
REMARK minimizedAffinity 7.49019384
REMARK minimizedRMSD -1
REMARK  0 active torsions:
REMARK  status: ('A' for Active; 'I' for Inactive)
ROOT
ATOM      1  C4' PXY d   1      -5.999  -1.858   1.891  0.00  0.00     0.077 C 
ATOM      2  C1' PXY d   1      -5.705   2.197   5.999  0.00  0.00     0.077 C 
ATOM      3  C1  PXY d   1      -5.778   1.125   4.931  0.00  0.00    -0.082 A 
ATOM      4  C2  PXY d   1      -5.691   1.466   3.655  0.00  0.00     0.003 A 
ATOM      5  C3  PXY d   1      -5.787   0.512   2.674  0.00  0.00     0.003 A 
ATOM      6  C4  PXY d   1      -5.920  -0.810   3.004  0.00  0.00    -0.082 A 
ATOM      7  C5  PXY d   1      -5.999  -1.167   4.304  0.00  0.00     0.003 A 
ATOM      8  C6  PXY d   1      -5.941  -0.179   5.283  0.00  0.00     0.003 A 
ENDROOT
TORSDOF 0
ENDMDL
