MODEL 1
REMARK minimizedAffinity 2.93429327
REMARK minimizedRMSD -1
REMARK  0 active torsions:
REMARK  status: ('A' for Active; 'I' for Inactive)
ROOT
ATOM      1  C4' PXY d   1       0.330   2.783   3.592  0.00  0.00     0.077 C 
ATOM      2  C1' PXY d   1      -2.778  -0.301  -0.183  0.00  0.00     0.077 C 
ATOM      3  C1  PXY d   1      -1.972   0.517   0.808  0.00  0.00    -0.082 A 
ATOM      4  C2  PXY d   1      -0.658   0.375   0.857  0.00  0.00     0.003 A 
ATOM      5  C3  PXY d   1       0.083   1.083   1.768  0.00  0.00     0.003 A 
ATOM      6  C4  PXY d   1      -0.523   1.985   2.601  0.00  0.00    -0.082 A 
ATOM      7  C5  PXY d   1      -1.862   2.144   2.550  0.00  0.00     0.003 A 
ATOM      8  C6  PXY d   1      -2.601   1.385   1.646  0.00  0.00     0.003 A 
ENDROOT
TORSDOF 0
ENDMDL
