MODEL 1
REMARK minimizedAffinity 6.87272024
REMARK minimizedRMSD -1
REMARK  0 active torsions:
REMARK  status: ('A' for Active; 'I' for Inactive)
ROOT
ATOM      1  C4' PXY d   1       2.329  -0.209   1.187  0.00  0.00     0.077 C 
ATOM      2  C1' PXY d   1      -2.915   1.673   2.728  0.00  0.00     0.077 C 
ATOM      3  C1  PXY d   1      -1.534   1.190   2.330  0.00  0.00    -0.082 A 
ATOM      4  C2  PXY d   1      -1.404   0.343   1.322  0.00  0.00     0.003 A 
ATOM      5  C3  PXY d   1      -0.166  -0.129   0.968  0.00  0.00     0.003 A 
ATOM      6  C4  PXY d   1       0.955   0.312   1.619  0.00  0.00    -0.082 A 
ATOM      7  C5  PXY d   1       0.832   1.185   2.641  0.00  0.00     0.003 A 
ATOM      8  C6  PXY d   1      -0.438   1.620   3.011  0.00  0.00     0.003 A 
ENDROOT
TORSDOF 0
ENDMDL
