MODEL 1
REMARK minimizedAffinity -3.84741187
REMARK minimizedRMSD -1
REMARK  0 active torsions:
REMARK  status: ('A' for Active; 'I' for Inactive)
ROOT
ATOM      1  N1  IND d   1      -0.749   0.749  -0.390  0.00  0.00    -0.196 N 
ATOM      2  C2  IND d   1      -0.754  -0.362   0.406  0.00  0.00     0.054 A 
ATOM      3  C3  IND d   1       0.252  -1.196   0.057  0.00  0.00    -0.031 A 
ATOM      4  C4  IND d   1       2.086  -0.889  -1.723  0.00  0.00     0.051 A 
ATOM      5  C5  IND d   1       2.484  -0.051  -2.727  0.00  0.00    -0.031 A 
ATOM      6  C6  IND d   1       1.813   1.121  -3.007  0.00  0.00     0.015 A 
ATOM      7  C7  IND d   1       0.720   1.507  -2.283  0.00  0.00    -0.016 A 
ATOM      8  C8  IND d   1       0.309   0.655  -1.267  0.00  0.00    -0.047 A 
ATOM      9  C9  IND d   1       0.961  -0.557  -1.006  0.00  0.00    -0.096 A 
ATOM     10  HN1 IND d   1      -1.312   1.398  -0.350  0.00  0.00     0.298 HD
ENDROOT
TORSDOF 0
ENDMDL
