MODEL 1
REMARK minimizedAffinity -3.44887614
REMARK minimizedRMSD -1
REMARK  0 active torsions:
REMARK  status: ('A' for Active; 'I' for Inactive)
ROOT
ATOM      1  N1  IND d   1       0.753   1.973  -2.340  0.00  0.00    -0.196 N 
ATOM      2  C2  IND d   1       1.600   1.949  -3.413  0.00  0.00     0.054 A 
ATOM      3  C3  IND d   1       2.241   0.761  -3.480  0.00  0.00    -0.031 A 
ATOM      4  C4  IND d   1       1.980  -1.325  -1.994  0.00  0.00     0.051 A 
ATOM      5  C5  IND d   1       1.354  -1.771  -0.865  0.00  0.00    -0.031 A 
ATOM      6  C6  IND d   1       0.475  -0.977  -0.156  0.00  0.00     0.015 A 
ATOM      7  C7  IND d   1       0.180   0.294  -0.559  0.00  0.00    -0.016 A 
ATOM      8  C8  IND d   1       0.820   0.754  -1.702  0.00  0.00    -0.047 A 
ATOM      9  C9  IND d   1       1.745  -0.033  -2.401  0.00  0.00    -0.096 A 
ATOM     10  HN1 IND d   1       0.262   2.637  -2.102  0.00  0.00     0.298 HD
ENDROOT
TORSDOF 0
ENDMDL
