MODEL 1
REMARK minimizedAffinity -3.30528259
REMARK minimizedRMSD -1
REMARK  0 active torsions:
REMARK  status: ('A' for Active; 'I' for Inactive)
ROOT
ATOM      1  N1  IND d   1      -3.802  -1.268   4.775  0.00  0.00    -0.196 N 
ATOM      2  C2  IND d   1      -4.718  -1.976   4.048  0.00  0.00     0.054 A 
ATOM      3  C3  IND d   1      -4.618  -1.665   2.736  0.00  0.00    -0.031 A 
ATOM      4  C4  IND d   1      -2.956  -0.098   1.548  0.00  0.00     0.051 A 
ATOM      5  C5  IND d   1      -1.955   0.798   1.796  0.00  0.00    -0.031 A 
ATOM      6  C6  IND d   1      -1.507   1.055   3.076  0.00  0.00     0.015 A 
ATOM      7  C7  IND d   1      -2.039   0.413   4.159  0.00  0.00    -0.016 A 
ATOM      8  C8  IND d   1      -3.060  -0.492   3.911  0.00  0.00    -0.047 A 
ATOM      9  C9  IND d   1      -3.548  -0.725   2.619  0.00  0.00    -0.096 A 
ATOM     10  HN1 IND d   1      -3.705  -1.301   5.629  0.00  0.00     0.298 HD
ENDROOT
TORSDOF 0
ENDMDL
