MODEL 1
REMARK minimizedAffinity -1.45854223
REMARK minimizedRMSD -1
REMARK  0 active torsions:
REMARK  status: ('A' for Active; 'I' for Inactive)
ROOT
ATOM      1  N1  IND d   1       0.399   1.570  -2.176  0.00  0.00    -0.196 N 
ATOM      2  C2  IND d   1       1.386   1.265  -3.071  0.00  0.00     0.054 A 
ATOM      3  C3  IND d   1       1.925   0.059  -2.784  0.00  0.00    -0.031 A 
ATOM      4  C4  IND d   1       1.272  -1.630  -0.954  0.00  0.00     0.051 A 
ATOM      5  C5  IND d   1       0.452  -1.782   0.129  0.00  0.00    -0.031 A 
ATOM      6  C6  IND d   1      -0.447  -0.805   0.505  0.00  0.00     0.015 A 
ATOM      7  C7  IND d   1      -0.569   0.360  -0.198  0.00  0.00    -0.016 A 
ATOM      8  C8  IND d   1       0.267   0.520  -1.294  0.00  0.00    -0.047 A 
ATOM      9  C9  IND d   1       1.211  -0.449  -1.655  0.00  0.00    -0.096 A 
ATOM     10  HN1 IND d   1      -0.062   2.296  -2.165  0.00  0.00     0.298 HD
ENDROOT
TORSDOF 0
ENDMDL
