MODEL 1
REMARK minimizedAffinity -3.9873054
REMARK minimizedRMSD -1
REMARK  0 active torsions:
REMARK  status: ('A' for Active; 'I' for Inactive)
ROOT
ATOM      1  N1  IND d   1       2.486   0.278  -0.834  0.00  0.00    -0.196 N 
ATOM      2  C2  IND d   1       2.960  -0.920  -1.290  0.00  0.00     0.054 A 
ATOM      3  C3  IND d   1       1.995  -1.864  -1.224  0.00  0.00    -0.031 A 
ATOM      4  C4  IND d   1      -0.465  -1.641  -0.497  0.00  0.00     0.051 A 
ATOM      5  C5  IND d   1      -1.354  -0.750   0.035  0.00  0.00    -0.031 A 
ATOM      6  C6  IND d   1      -1.002   0.556   0.308  0.00  0.00     0.015 A 
ATOM      7  C7  IND d   1       0.254   1.025   0.047  0.00  0.00    -0.016 A 
ATOM      8  C8  IND d   1       1.162   0.122  -0.487  0.00  0.00    -0.047 A 
ATOM      9  C9  IND d   1       0.823  -1.216  -0.727  0.00  0.00    -0.096 A 
ATOM     10  HN1 IND d   1       2.938   1.007  -0.774  0.00  0.00     0.298 HD
ENDROOT
TORSDOF 0
ENDMDL
