MODEL 1
REMARK minimizedAffinity -5.86462116
REMARK minimizedRMSD -1
REMARK  0 active torsions:
REMARK  status: ('A' for Active; 'I' for Inactive)
ROOT
ATOM      1  N1  IND d   1      -0.761   0.364  -0.113  0.00  0.00    -0.196 N 
ATOM      2  C2  IND d   1      -0.767   1.692  -0.439  0.00  0.00     0.054 A 
ATOM      3  C3  IND d   1       0.470   2.090  -0.812  0.00  0.00    -0.031 A 
ATOM      4  C4  IND d   1       2.628   0.708  -1.061  0.00  0.00     0.051 A 
ATOM      5  C5  IND d   1       3.138  -0.541  -0.844  0.00  0.00    -0.031 A 
ATOM      6  C6  IND d   1       2.358  -1.574  -0.365  0.00  0.00     0.015 A 
ATOM      7  C7  IND d   1       1.030  -1.398  -0.095  0.00  0.00    -0.016 A 
ATOM      8  C8  IND d   1       0.511  -0.129  -0.307  0.00  0.00    -0.047 A 
ATOM      9  C9  IND d   1       1.307   0.934  -0.753  0.00  0.00    -0.096 A 
ATOM     10  HN1 IND d   1      -1.437  -0.087   0.166  0.00  0.00     0.298 HD
ENDROOT
TORSDOF 0
ENDMDL
