MODEL 1
REMARK minimizedAffinity -5.67882729
REMARK minimizedRMSD -1
REMARK  0 active torsions:
REMARK  status: ('A' for Active; 'I' for Inactive)
ROOT
ATOM      1  N1  IND d   1      -0.377   1.127  -0.638  0.00  0.00    -0.196 N 
ATOM      2  C2  IND d   1      -0.700   0.031   0.112  0.00  0.00     0.054 A 
ATOM      3  C3  IND d   1       0.254  -0.919  -0.010  0.00  0.00    -0.031 A 
ATOM      4  C4  IND d   1       2.478  -0.849  -1.305  0.00  0.00     0.051 A 
ATOM      5  C5  IND d   1       3.196  -0.072  -2.170  0.00  0.00    -0.031 A 
ATOM      6  C6  IND d   1       2.752   1.170  -2.576  0.00  0.00     0.015 A 
ATOM      7  C7  IND d   1       1.574   1.689  -2.119  0.00  0.00    -0.016 A 
ATOM      8  C8  IND d   1       0.838   0.901  -1.246  0.00  0.00    -0.047 A 
ATOM      9  C9  IND d   1       1.263  -0.379  -0.864  0.00  0.00    -0.096 A 
ATOM     10  HN1 IND d   1      -0.853   1.839  -0.717  0.00  0.00     0.298 HD
ENDROOT
TORSDOF 0
ENDMDL
