MODEL 1
REMARK minimizedAffinity -2.53154063
REMARK minimizedRMSD -1
REMARK  0 active torsions:
REMARK  status: ('A' for Active; 'I' for Inactive)
ROOT
ATOM      1  N1  IND d   1      -1.079   0.642  -0.460  0.00  0.00    -0.196 N 
ATOM      2  C2  IND d   1      -1.339  -0.533   0.190  0.00  0.00     0.054 A 
ATOM      3  C3  IND d   1      -0.389  -1.450  -0.099  0.00  0.00    -0.031 A 
ATOM      4  C4  IND d   1       1.736  -1.209  -1.532  0.00  0.00     0.051 A 
ATOM      5  C5  IND d   1       2.385  -0.334  -2.358  0.00  0.00    -0.031 A 
ATOM      6  C6  IND d   1       1.903   0.937  -2.596  0.00  0.00     0.015 A 
ATOM      7  C7  IND d   1       0.756   1.387  -2.006  0.00  0.00    -0.016 A 
ATOM      8  C8  IND d   1       0.092   0.499  -1.172  0.00  0.00    -0.047 A 
ATOM      9  C9  IND d   1       0.552  -0.807  -0.960  0.00  0.00    -0.096 A 
ATOM     10  HN1 IND d   1      -1.565   1.350  -0.429  0.00  0.00     0.298 HD
ENDROOT
TORSDOF 0
ENDMDL
