MODEL 1
REMARK minimizedAffinity -5.10842609
REMARK minimizedRMSD -1
REMARK  0 active torsions:
REMARK  status: ('A' for Active; 'I' for Inactive)
ROOT
ATOM      1  N1  IND d   1      -0.869   0.488  -0.189  0.00  0.00    -0.196 N 
ATOM      2  C2  IND d   1      -0.959  -0.701   0.481  0.00  0.00     0.054 A 
ATOM      3  C3  IND d   1       0.162  -1.433   0.293  0.00  0.00    -0.031 A 
ATOM      4  C4  IND d   1       2.311  -0.833  -0.992  0.00  0.00     0.051 A 
ATOM      5  C5  IND d   1       2.850   0.129  -1.799  0.00  0.00    -0.031 A 
ATOM      6  C6  IND d   1       2.165   1.284  -2.115  0.00  0.00     0.015 A 
ATOM      7  C7  IND d   1       0.913   1.526  -1.624  0.00  0.00    -0.016 A 
ATOM      8  C8  IND d   1       0.359   0.549  -0.810  0.00  0.00    -0.047 A 
ATOM      9  C9  IND d   1       1.033  -0.645  -0.520  0.00  0.00    -0.096 A 
ATOM     10  HN1 IND d   1      -1.477   1.095  -0.217  0.00  0.00     0.298 HD
ENDROOT
TORSDOF 0
ENDMDL
