MODEL 1
REMARK minimizedAffinity -4.73881721
REMARK minimizedRMSD -1
REMARK  0 active torsions:
REMARK  status: ('A' for Active; 'I' for Inactive)
ROOT
ATOM      1  N1  IND d   1      -1.205   1.888   1.661  0.00  0.00    -0.196 N 
ATOM      2  C2  IND d   1      -2.152   1.123   2.282  0.00  0.00     0.054 A 
ATOM      3  C3  IND d   1      -2.089  -0.153   1.842  0.00  0.00    -0.031 A 
ATOM      4  C4  IND d   1      -0.443  -1.230   0.181  0.00  0.00     0.051 A 
ATOM      5  C5  IND d   1       0.577  -0.925  -0.675  0.00  0.00    -0.031 A 
ATOM      6  C6  IND d   1       1.068   0.359  -0.797  0.00  0.00     0.015 A 
ATOM      7  C7  IND d   1       0.561   1.388  -0.055  0.00  0.00    -0.016 A 
ATOM      8  C8  IND d   1      -0.480   1.083   0.810  0.00  0.00    -0.047 A 
ATOM      9  C9  IND d   1      -1.011  -0.210   0.906  0.00  0.00    -0.096 A 
ATOM     10  HN1 IND d   1      -1.083   2.731   1.782  0.00  0.00     0.298 HD
ENDROOT
TORSDOF 0
ENDMDL
