MODEL 1
REMARK minimizedAffinity -3.94434571
REMARK minimizedRMSD -1
REMARK  0 active torsions:
REMARK  status: ('A' for Active; 'I' for Inactive)
ROOT
ATOM      1  N1  IND d   1       2.137   1.328  -0.746  0.00  0.00    -0.196 N 
ATOM      2  C2  IND d   1       3.177   0.451  -0.882  0.00  0.00     0.054 A 
ATOM      3  C3  IND d   1       2.762  -0.812  -0.634  0.00  0.00    -0.031 A 
ATOM      4  C4  IND d   1       0.400  -1.680  -0.088  0.00  0.00     0.051 A 
ATOM      5  C5  IND d   1      -0.870  -1.252   0.178  0.00  0.00    -0.031 A 
ATOM      6  C6  IND d   1      -1.211   0.085   0.146  0.00  0.00     0.015 A 
ATOM      7  C7  IND d   1      -0.292   1.047  -0.166  0.00  0.00    -0.016 A 
ATOM      8  C8  IND d   1       1.001   0.616  -0.429  0.00  0.00    -0.047 A 
ATOM      9  C9  IND d   1       1.362  -0.735  -0.357  0.00  0.00    -0.096 A 
ATOM     10  HN1 IND d   1       2.185   2.181  -0.843  0.00  0.00     0.298 HD
ENDROOT
TORSDOF 0
ENDMDL
