MODEL 1
REMARK minimizedAffinity 0.0167683717
REMARK minimizedRMSD -1
REMARK  0 active torsions:
REMARK  status: ('A' for Active; 'I' for Inactive)
ROOT
ATOM      1  N1  IND d   1      -0.053   1.433   0.691  0.00  0.00    -0.196 N 
ATOM      2  C2  IND d   1      -0.449   0.568  -0.291  0.00  0.00     0.054 A 
ATOM      3  C3  IND d   1      -1.515  -0.155   0.120  0.00  0.00    -0.031 A 
ATOM      4  C4  IND d   1      -2.834  -0.013   2.326  0.00  0.00     0.051 A 
ATOM      5  C5  IND d   1      -2.829   0.602   3.547  0.00  0.00    -0.031 A 
ATOM      6  C6  IND d   1      -1.880   1.545   3.884  0.00  0.00     0.015 A 
ATOM      7  C7  IND d   1      -0.904   1.920   3.004  0.00  0.00    -0.016 A 
ATOM      8  C8  IND d   1      -0.902   1.293   1.766  0.00  0.00    -0.047 A 
ATOM      9  C9  IND d   1      -1.837   0.304   1.434  0.00  0.00    -0.096 A 
ATOM     10  HN1 IND d   1       0.614   1.973   0.644  0.00  0.00     0.298 HD
ENDROOT
TORSDOF 0
ENDMDL
