MODEL 1
REMARK minimizedAffinity -5.82311201
REMARK minimizedRMSD -1
REMARK  0 active torsions:
REMARK  status: ('A' for Active; 'I' for Inactive)
ROOT
ATOM      1  N1  IND d   1      -0.691   0.675  -0.640  0.00  0.00    -0.196 N 
ATOM      2  C2  IND d   1      -0.848  -0.416   0.168  0.00  0.00     0.054 A 
ATOM      3  C3  IND d   1       0.241  -1.215   0.097  0.00  0.00    -0.031 A 
ATOM      4  C4  IND d   1       2.437  -0.874  -1.203  0.00  0.00     0.051 A 
ATOM      5  C5  IND d   1       3.034  -0.044  -2.110  0.00  0.00    -0.031 A 
ATOM      6  C6  IND d   1       2.409   1.092  -2.580  0.00  0.00     0.015 A 
ATOM      7  C7  IND d   1       1.162   1.449  -2.151  0.00  0.00    -0.016 A 
ATOM      8  C8  IND d   1       0.549   0.605  -1.236  0.00  0.00    -0.047 A 
ATOM      9  C9  IND d   1       1.162  -0.573  -0.787  0.00  0.00    -0.096 A 
ATOM     10  HN1 IND d   1      -1.270   1.300  -0.757  0.00  0.00     0.298 HD
ENDROOT
TORSDOF 0
ENDMDL
