MODEL 1
REMARK minimizedAffinity -4.1558466
REMARK minimizedRMSD -1
REMARK  0 active torsions:
REMARK  status: ('A' for Active; 'I' for Inactive)
ROOT
ATOM      1  N1  IND d   1      -0.093   0.819   0.177  0.00  0.00    -0.196 N 
ATOM      2  C2  IND d   1      -0.675  -0.320   0.660  0.00  0.00     0.054 A 
ATOM      3  C3  IND d   1      -0.063  -1.413   0.153  0.00  0.00    -0.031 A 
ATOM      4  C4  IND d   1       1.980  -1.568  -1.406  0.00  0.00     0.051 A 
ATOM      5  C5  IND d   1       2.834  -0.795  -2.143  0.00  0.00    -0.031 A 
ATOM      6  C6  IND d   1       2.756   0.583  -2.141  0.00  0.00     0.015 A 
ATOM      7  C7  IND d   1       1.824   1.243  -1.391  0.00  0.00    -0.016 A 
ATOM      8  C8  IND d   1       0.951   0.461  -0.647  0.00  0.00    -0.047 A 
ATOM      9  C9  IND d   1       0.998  -0.938  -0.678  0.00  0.00    -0.096 A 
ATOM     10  HN1 IND d   1      -0.337   1.623   0.358  0.00  0.00     0.298 HD
ENDROOT
TORSDOF 0
ENDMDL
