MODEL 1
REMARK minimizedAffinity -6.28551006
REMARK minimizedRMSD -1
REMARK  0 active torsions:
REMARK  status: ('A' for Active; 'I' for Inactive)
ROOT
ATOM      1  N1  IND d   1      -0.953   0.829  -0.303  0.00  0.00    -0.196 N 
ATOM      2  C2  IND d   1      -1.180  -0.327   0.391  0.00  0.00     0.054 A 
ATOM      3  C3  IND d   1      -0.146  -1.183   0.230  0.00  0.00    -0.031 A 
ATOM      4  C4  IND d   1       2.066  -0.854  -1.045  0.00  0.00     0.051 A 
ATOM      5  C5  IND d   1       2.716   0.024  -1.867  0.00  0.00    -0.031 A 
ATOM      6  C6  IND d   1       2.166   1.241  -2.214  0.00  0.00     0.015 A 
ATOM      7  C7  IND d   1       0.945   1.632  -1.741  0.00  0.00    -0.016 A 
ATOM      8  C8  IND d   1       0.279   0.740  -0.912  0.00  0.00    -0.047 A 
ATOM      9  C9  IND d   1       0.814  -0.514  -0.590  0.00  0.00    -0.096 A 
ATOM     10  HN1 IND d   1      -1.489   1.499  -0.350  0.00  0.00     0.298 HD
ENDROOT
TORSDOF 0
ENDMDL
