MODEL 1
REMARK minimizedAffinity -3.70638657
REMARK minimizedRMSD -1
REMARK  0 active torsions:
REMARK  status: ('A' for Active; 'I' for Inactive)
ROOT
ATOM      1  N1  IND d   1       0.692   1.620  -1.354  0.00  0.00    -0.196 N 
ATOM      2  C2  IND d   1      -0.576   2.113  -1.228  0.00  0.00     0.054 A 
ATOM      3  C3  IND d   1      -1.403   1.164  -0.736  0.00  0.00    -0.031 A 
ATOM      4  C4  IND d   1      -0.868  -1.236   0.027  0.00  0.00     0.051 A 
ATOM      5  C5  IND d   1       0.145  -2.152   0.071  0.00  0.00    -0.031 A 
ATOM      6  C6  IND d   1       1.419  -1.850  -0.365  0.00  0.00     0.015 A 
ATOM      7  C7  IND d   1       1.731  -0.612  -0.852  0.00  0.00    -0.016 A 
ATOM      8  C8  IND d   1       0.703   0.318  -0.904  0.00  0.00    -0.047 A 
ATOM      9  C9  IND d   1      -0.602   0.004  -0.503  0.00  0.00    -0.096 A 
ATOM     10  HN1 IND d   1       1.370   2.050  -1.663  0.00  0.00     0.298 HD
ENDROOT
TORSDOF 0
ENDMDL
