MODEL 1
REMARK minimizedAffinity -1.96487606
REMARK minimizedRMSD -1
REMARK  0 active torsions:
REMARK  status: ('A' for Active; 'I' for Inactive)
ROOT
ATOM      1  C1  DEN d   1       1.991   1.775   0.151  0.00  0.00     0.130 A 
ATOM      2  C2  DEN d   1       0.642   2.306  -0.023  0.00  0.00    -0.031 A 
ATOM      3  C3  DEN d   1      -0.268   1.170  -0.271  0.00  0.00     0.027 A 
ATOM      4  C4  DEN d   1       0.278  -1.348  -0.398  0.00  0.00     0.027 A 
ATOM      5  C5  DEN d   1       1.287  -2.283  -0.326  0.00  0.00    -0.003 A 
ATOM      6  C6  DEN d   1       2.595  -1.931  -0.125  0.00  0.00     0.001 A 
ATOM      7  C7  DEN d   1       2.924  -0.614   0.055  0.00  0.00     0.017 A 
ATOM      8  C8  DEN d   1       1.913   0.335  -0.023  0.00  0.00    -0.094 A 
ATOM      9  C9  DEN d   1       0.595  -0.041  -0.214  0.00  0.00    -0.072 A 
ENDROOT
TORSDOF 0
ENDMDL
