MODEL 1
REMARK minimizedAffinity -4.49111271
REMARK minimizedRMSD -1
REMARK  0 active torsions:
REMARK  status: ('A' for Active; 'I' for Inactive)
ROOT
ATOM      1  C1  DEN d   1      -0.812  -0.514  -1.309  0.00  0.00     0.130 A 
ATOM      2  C2  DEN d   1      -1.305   0.847  -1.120  0.00  0.00    -0.031 A 
ATOM      3  C3  DEN d   1      -0.397   1.535  -0.180  0.00  0.00     0.027 A 
ATOM      4  C4  DEN d   1       1.717   0.631   0.990  0.00  0.00     0.027 A 
ATOM      5  C5  DEN d   1       2.526  -0.472   1.150  0.00  0.00    -0.003 A 
ATOM      6  C6  DEN d   1       2.263  -1.667   0.533  0.00  0.00     0.001 A 
ATOM      7  C7  DEN d   1       1.188  -1.774  -0.309  0.00  0.00     0.017 A 
ATOM      8  C8  DEN d   1       0.363  -0.668  -0.469  0.00  0.00    -0.094 A 
ATOM      9  C9  DEN d   1       0.652   0.534   0.153  0.00  0.00    -0.072 A 
ENDROOT
TORSDOF 0
ENDMDL
