MODEL 1
REMARK minimizedAffinity -3.57161498
REMARK minimizedRMSD -1
REMARK  0 active torsions:
REMARK  status: ('A' for Active; 'I' for Inactive)
ROOT
ATOM      1  C1  DEN d   1      -2.218   0.052  -0.890  0.00  0.00     0.130 A 
ATOM      2  C2  DEN d   1      -2.545   1.352  -0.310  0.00  0.00    -0.031 A 
ATOM      3  C3  DEN d   1      -1.341   1.862   0.375  0.00  0.00     0.027 A 
ATOM      4  C4  DEN d   1       0.988   0.775   0.588  0.00  0.00     0.027 A 
ATOM      5  C5  DEN d   1       1.744  -0.332   0.271  0.00  0.00    -0.003 A 
ATOM      6  C6  DEN d   1       1.226  -1.395  -0.421  0.00  0.00     0.001 A 
ATOM      7  C7  DEN d   1      -0.072  -1.354  -0.857  0.00  0.00     0.017 A 
ATOM      8  C8  DEN d   1      -0.842  -0.244  -0.535  0.00  0.00    -0.094 A 
ATOM      9  C9  DEN d   1      -0.297   0.825   0.155  0.00  0.00    -0.072 A 
ENDROOT
TORSDOF 0
ENDMDL
