MODEL 1
REMARK minimizedAffinity -4.2489357
REMARK minimizedRMSD -1
REMARK  0 active torsions:
REMARK  status: ('A' for Active; 'I' for Inactive)
ROOT
ATOM      1  C1  DEN d   1       2.069   0.793   1.291  0.00  0.00     0.130 A 
ATOM      2  C2  DEN d   1       2.968  -0.339   1.495  0.00  0.00    -0.031 A 
ATOM      3  C3  DEN d   1       2.442  -1.484   0.725  0.00  0.00     0.027 A 
ATOM      4  C4  DEN d   1       0.337  -1.612  -0.759  0.00  0.00     0.027 A 
ATOM      5  C5  DEN d   1      -0.749  -0.908  -1.230  0.00  0.00    -0.003 A 
ATOM      6  C6  DEN d   1      -0.988   0.392  -0.870  0.00  0.00     0.001 A 
ATOM      7  C7  DEN d   1      -0.105   1.043  -0.050  0.00  0.00     0.017 A 
ATOM      8  C8  DEN d   1       0.988   0.337   0.435  0.00  0.00    -0.094 A 
ATOM      9  C9  DEN d   1       1.219  -0.973   0.050  0.00  0.00    -0.072 A 
ENDROOT
TORSDOF 0
ENDMDL
