MODEL 1
REMARK minimizedAffinity -3.61223626
REMARK minimizedRMSD -1
REMARK  0 active torsions:
REMARK  status: ('A' for Active; 'I' for Inactive)
ROOT
ATOM      1  C1  DEN d   1       1.927   1.127   0.639  0.00  0.00     0.130 A 
ATOM      2  C2  DEN d   1       2.747  -0.079   0.561  0.00  0.00    -0.031 A 
ATOM      3  C3  DEN d   1       1.942  -1.138  -0.080  0.00  0.00     0.027 A 
ATOM      4  C4  DEN d   1      -0.481  -1.026  -0.959  0.00  0.00     0.027 A 
ATOM      5  C5  DEN d   1      -1.586  -0.217  -1.104  0.00  0.00    -0.003 A 
ATOM      6  C6  DEN d   1      -1.609   1.075  -0.651  0.00  0.00     0.001 A 
ATOM      7  C7  DEN d   1      -0.490   1.612  -0.071  0.00  0.00     0.017 A 
ATOM      8  C8  DEN d   1       0.626   0.800   0.085  0.00  0.00    -0.094 A 
ATOM      9  C9  DEN d   1       0.634  -0.500  -0.391  0.00  0.00    -0.072 A 
ENDROOT
TORSDOF 0
ENDMDL
