MODEL 1
REMARK minimizedAffinity -0.0182467904
REMARK minimizedRMSD -1
REMARK  1 active torsions:
REMARK  status: ('A' for Active; 'I' for Inactive)
REMARK    1  A    between atoms: C1_2  and  C2_3 
ROOT
ATOM      1  C2  UNL d   1       0.796  -3.923  -1.704  0.00  0.00    -0.081 A 
ATOM      2  C3  UNL d   1       1.055  -5.291  -1.855  0.00  0.00     0.006 A 
ATOM      3  C4  UNL d   1       1.868  -5.963  -0.939  0.00  0.00     0.002 A 
ATOM      4  C5  UNL d   1       2.428  -5.282   0.147  0.00  0.00    -0.080 A 
ATOM      5  C6  UNL d   1       3.277  -5.999   1.154  0.00  0.00     0.076 C 
ATOM      6  C7  UNL d   1       2.183  -3.912   0.288  0.00  0.00     0.002 A 
ATOM      7  C8  UNL d   1       1.372  -3.239  -0.628  0.00  0.00     0.006 A 
ENDROOT
BRANCH   1   8
ATOM      8  C1  UNL d   1      -0.131  -3.209  -2.653  0.00  0.00     0.054 C 
ATOM      9  C   UNL d   1       0.623  -2.660  -3.856  0.00  0.00     0.018 C 
ENDBRANCH   1   8
TORSDOF 1
ENDMDL
