MODEL 1
REMARK minimizedAffinity -2.98468542
REMARK minimizedRMSD -1
REMARK  1 active torsions:
REMARK  status: ('A' for Active; 'I' for Inactive)
REMARK    1  A    between atoms: C1_2  and  C2_3 
ROOT
ATOM      1  C2  UNL d   1       0.218  -0.637  -0.117  0.00  0.00    -0.081 A 
ATOM      2  C3  UNL d   1      -0.145  -0.655   1.235  0.00  0.00     0.006 A 
ATOM      3  C4  UNL d   1      -0.893   0.390   1.782  0.00  0.00     0.002 A 
ATOM      4  C5  UNL d   1      -1.298   1.466   0.984  0.00  0.00    -0.080 A 
ATOM      5  C6  UNL d   1      -2.127   2.580   1.552  0.00  0.00     0.076 C 
ATOM      6  C7  UNL d   1      -0.920   1.493  -0.362  0.00  0.00     0.002 A 
ATOM      7  C8  UNL d   1      -0.172   0.449  -0.909  0.00  0.00     0.006 A 
ENDROOT
BRANCH   1   8
ATOM      8  C1  UNL d   1       0.969  -1.794  -0.725  0.00  0.00     0.054 C 
ATOM      9  C   UNL d   1       0.225  -2.370  -1.921  0.00  0.00     0.018 C 
ENDBRANCH   1   8
TORSDOF 1
ENDMDL
