MODEL 1
REMARK minimizedAffinity -4.4344306
REMARK minimizedRMSD -1
REMARK  1 active torsions:
REMARK  status: ('A' for Active; 'I' for Inactive)
REMARK    1  A    between atoms: C1_2  and  C2_3 
ROOT
ATOM      1  C2  UNL d   1       0.148  -0.845  -0.708  0.00  0.00    -0.081 A 
ATOM      2  C3  UNL d   1       0.450   0.521  -0.750  0.00  0.00     0.006 A 
ATOM      3  C4  UNL d   1      -0.308   1.437  -0.016  0.00  0.00     0.002 A 
ATOM      4  C5  UNL d   1      -1.375   1.001   0.777  0.00  0.00    -0.080 A 
ATOM      5  C6  UNL d   1      -2.178   1.970   1.593  0.00  0.00     0.076 C 
ATOM      6  C7  UNL d   1      -1.688  -0.363   0.805  0.00  0.00     0.002 A 
ATOM      7  C8  UNL d   1      -0.931  -1.278   0.071  0.00  0.00     0.006 A 
ENDROOT
BRANCH   1   8
ATOM      8  C1  UNL d   1       1.004  -1.842  -1.447  0.00  0.00     0.054 C 
ATOM      9  C   UNL d   1       0.234  -3.123  -1.739  0.00  0.00     0.018 C 
ENDBRANCH   1   8
TORSDOF 1
ENDMDL
