MODEL 1
REMARK minimizedAffinity -4.85560036
REMARK minimizedRMSD -1
REMARK  1 active torsions:
REMARK  status: ('A' for Active; 'I' for Inactive)
REMARK    1  A    between atoms: C1_2  and  C2_3 
ROOT
ATOM      1  C2  UNL d   1       0.844  -0.951  -0.485  0.00  0.00    -0.081 A 
ATOM      2  C3  UNL d   1       0.435  -1.007   0.854  0.00  0.00     0.006 A 
ATOM      3  C4  UNL d   1      -0.378  -0.004   1.388  0.00  0.00     0.002 A 
ATOM      4  C5  UNL d   1      -0.802   1.065   0.592  0.00  0.00    -0.080 A 
ATOM      5  C6  UNL d   1      -1.700   2.132   1.145  0.00  0.00     0.076 C 
ATOM      6  C7  UNL d   1      -0.380   1.130  -0.740  0.00  0.00     0.002 A 
ATOM      7  C8  UNL d   1       0.434   0.129  -1.275  0.00  0.00     0.006 A 
ENDROOT
BRANCH   1   8
ATOM      8  C1  UNL d   1       1.667  -2.064  -1.081  0.00  0.00     0.054 C 
ATOM      9  C   UNL d   1       0.911  -2.777  -2.193  0.00  0.00     0.018 C 
ENDBRANCH   1   8
TORSDOF 1
ENDMDL
