MODEL 1
REMARK minimizedAffinity -5.15804863
REMARK minimizedRMSD -1
REMARK  1 active torsions:
REMARK  status: ('A' for Active; 'I' for Inactive)
REMARK    1  A    between atoms: C1_2  and  C2_3 
ROOT
ATOM      1  C2  UNL d   1       0.807  -0.543  -0.477  0.00  0.00    -0.081 A 
ATOM      2  C3  UNL d   1       0.508  -0.903   0.843  0.00  0.00     0.006 A 
ATOM      3  C4  UNL d   1      -0.418  -0.166   1.585  0.00  0.00     0.002 A 
ATOM      4  C5  UNL d   1      -1.066   0.937   1.018  0.00  0.00    -0.080 A 
ATOM      5  C6  UNL d   1      -2.084   1.719   1.794  0.00  0.00     0.076 C 
ATOM      6  C7  UNL d   1      -0.754   1.307  -0.295  0.00  0.00     0.002 A 
ATOM      7  C8  UNL d   1       0.172   0.571  -1.037  0.00  0.00     0.006 A 
ENDROOT
BRANCH   1   8
ATOM      8  C1  UNL d   1       1.757  -1.374  -1.302  0.00  0.00     0.054 C 
ATOM      9  C   UNL d   1       1.005  -2.364  -2.181  0.00  0.00     0.018 C 
ENDBRANCH   1   8
TORSDOF 1
ENDMDL
