MODEL 1
REMARK minimizedAffinity -5.57969952
REMARK minimizedRMSD -1
REMARK  1 active torsions:
REMARK  status: ('A' for Active; 'I' for Inactive)
REMARK    1  A    between atoms: C1_2  and  C2_3 
ROOT
ATOM      1  C2  UNL d   1      -0.259  -0.157   0.575  0.00  0.00    -0.081 A 
ATOM      2  C3  UNL d   1      -1.111   0.894   0.934  0.00  0.00     0.006 A 
ATOM      3  C4  UNL d   1      -1.090   1.411   2.232  0.00  0.00     0.002 A 
ATOM      4  C5  UNL d   1      -0.210   0.892   3.188  0.00  0.00    -0.080 A 
ATOM      5  C6  UNL d   1      -0.155   1.459   4.576  0.00  0.00     0.076 C 
ATOM      6  C7  UNL d   1       0.629  -0.169   2.834  0.00  0.00     0.002 A 
ATOM      7  C8  UNL d   1       0.608  -0.688   1.537  0.00  0.00     0.006 A 
ENDROOT
BRANCH   1   8
ATOM      8  C1  UNL d   1      -0.234  -0.674  -0.841  0.00  0.00     0.054 C 
ATOM      9  C   UNL d   1       1.103  -1.322  -1.170  0.00  0.00     0.018 C 
ENDBRANCH   1   8
TORSDOF 1
ENDMDL
