MODEL 1
REMARK minimizedAffinity -6.16409492
REMARK minimizedRMSD -1
REMARK  1 active torsions:
REMARK  status: ('A' for Active; 'I' for Inactive)
REMARK    1  A    between atoms: C1_2  and  C2_3 
ROOT
ATOM      1  C2  UNL d   1       0.540  -0.855  -0.287  0.00  0.00    -0.081 A 
ATOM      2  C3  UNL d   1       0.006  -0.949   1.004  0.00  0.00     0.006 A 
ATOM      3  C4  UNL d   1      -0.881   0.022   1.475  0.00  0.00     0.002 A 
ATOM      4  C5  UNL d   1      -1.256   1.096   0.661  0.00  0.00    -0.080 A 
ATOM      5  C6  UNL d   1      -2.232   2.128   1.144  0.00  0.00     0.076 C 
ATOM      6  C7  UNL d   1      -0.710   1.199  -0.622  0.00  0.00     0.002 A 
ATOM      7  C8  UNL d   1       0.178   0.229  -1.094  0.00  0.00     0.006 A 
ENDROOT
BRANCH   1   8
ATOM      8  C1  UNL d   1       1.447  -1.934  -0.822  0.00  0.00     0.054 C 
ATOM      9  C   UNL d   1       0.841  -2.613  -2.042  0.00  0.00     0.018 C 
ENDBRANCH   1   8
TORSDOF 1
ENDMDL
