MODEL 1
REMARK minimizedAffinity -6.07079554
REMARK minimizedRMSD -1
REMARK  1 active torsions:
REMARK  status: ('A' for Active; 'I' for Inactive)
REMARK    1  A    between atoms: C1_2  and  C2_3 
ROOT
ATOM      1  C2  UNL d   1       0.577  -0.896  -0.368  0.00  0.00    -0.081 A 
ATOM      2  C3  UNL d   1       0.269  -1.124   0.979  0.00  0.00     0.006 A 
ATOM      3  C4  UNL d   1      -0.537  -0.227   1.683  0.00  0.00     0.002 A 
ATOM      4  C5  UNL d   1      -1.056   0.908   1.051  0.00  0.00    -0.080 A 
ATOM      5  C6  UNL d   1      -1.949   1.863   1.787  0.00  0.00     0.076 C 
ATOM      6  C7  UNL d   1      -0.735   1.145  -0.290  0.00  0.00     0.002 A 
ATOM      7  C8  UNL d   1       0.072   0.249  -0.994  0.00  0.00     0.006 A 
ENDROOT
BRANCH   1   8
ATOM      8  C1  UNL d   1       1.393  -1.895  -1.147  0.00  0.00     0.054 C 
ATOM      9  C   UNL d   1       0.562  -2.559  -2.236  0.00  0.00     0.018 C 
ENDBRANCH   1   8
TORSDOF 1
ENDMDL
