MODEL 1
REMARK minimizedAffinity 13.7066193
REMARK minimizedRMSD -1
REMARK  1 active torsions:
REMARK  status: ('A' for Active; 'I' for Inactive)
REMARK    1  A    between atoms: C1_2  and  C2_3 
ROOT
ATOM      1  C2  UNL d   1      -2.401   0.678   2.170  0.00  0.00    -0.076 A 
ATOM      2  C3  UNL d   1      -1.212   0.327   2.833  0.00  0.00     0.004 A 
ATOM      3  C4  UNL d   1      -0.619  -0.918   2.633  0.00  0.00    -0.003 A 
ATOM      4  C5  UNL d   1      -1.206  -1.834   1.767  0.00  0.00     0.000 A 
ATOM      5  C6  UNL d   1      -2.376  -1.497   1.087  0.00  0.00     0.000 A 
ATOM      6  C7  UNL d   1      -2.977  -0.239   1.264  0.00  0.00    -0.073 A 
ATOM      7  C8  UNL d   1      -4.242   0.069   0.511  0.00  0.00     0.078 C 
ENDROOT
BRANCH   1   8
ATOM      8  C1  UNL d   1      -3.012   2.033   2.446  0.00  0.00     0.053 C 
ATOM      9  C   UNL d   1      -2.170   3.175   1.899  0.00  0.00     0.018 C 
ENDBRANCH   1   8
TORSDOF 1
ENDMDL
