MODEL 1
REMARK minimizedAffinity 12.2429247
REMARK minimizedRMSD -1
REMARK  1 active torsions:
REMARK  status: ('A' for Active; 'I' for Inactive)
REMARK    1  A    between atoms: C1_2  and  C2_3 
ROOT
ATOM      1  C2  UNL d   1       3.232  -2.510  -0.036  0.00  0.00    -0.076 A 
ATOM      2  C3  UNL d   1       3.541  -3.857   0.218  0.00  0.00     0.004 A 
ATOM      3  C4  UNL d   1       4.860  -4.268   0.405  0.00  0.00    -0.003 A 
ATOM      4  C5  UNL d   1       5.891  -3.337   0.341  0.00  0.00     0.000 A 
ATOM      5  C6  UNL d   1       5.601  -1.994   0.107  0.00  0.00     0.000 A 
ATOM      6  C7  UNL d   1       4.275  -1.560  -0.067  0.00  0.00    -0.073 A 
ATOM      7  C8  UNL d   1       4.021  -0.100  -0.322  0.00  0.00     0.078 C 
ENDROOT
BRANCH   1   8
ATOM      8  C1  UNL d   1       1.785  -2.127  -0.257  0.00  0.00     0.053 C 
ATOM      9  C   UNL d   1       0.887  -2.558   0.892  0.00  0.00     0.018 C 
ENDBRANCH   1   8
TORSDOF 1
ENDMDL
