MODEL 1
REMARK minimizedAffinity -2.73345828
REMARK minimizedRMSD -1
REMARK  1 active torsions:
REMARK  status: ('A' for Active; 'I' for Inactive)
REMARK    1  A    between atoms: C1_2  and  C2_3 
ROOT
ATOM      1  C2  UNL d   1       3.450  -2.324   2.724  0.00  0.00    -0.076 A 
ATOM      2  C3  UNL d   1       2.195  -1.745   2.985  0.00  0.00     0.004 A 
ATOM      3  C4  UNL d   1       1.169  -1.802   2.043  0.00  0.00    -0.003 A 
ATOM      4  C5  UNL d   1       1.380  -2.441   0.826  0.00  0.00     0.000 A 
ATOM      5  C6  UNL d   1       2.612  -3.036   0.558  0.00  0.00     0.000 A 
ATOM      6  C7  UNL d   1       3.652  -3.001   1.503  0.00  0.00    -0.073 A 
ATOM      7  C8  UNL d   1       4.963  -3.654   1.158  0.00  0.00     0.078 C 
ENDROOT
BRANCH   1   8
ATOM      8  C1  UNL d   1       4.533  -2.206   3.772  0.00  0.00     0.053 C 
ATOM      9  C   UNL d   1       4.236  -3.033   5.013  0.00  0.00     0.018 C 
ENDBRANCH   1   8
TORSDOF 1
ENDMDL
