MODEL 1
REMARK minimizedAffinity -0.193312451
REMARK minimizedRMSD -1
REMARK  1 active torsions:
REMARK  status: ('A' for Active; 'I' for Inactive)
REMARK    1  A    between atoms: C1_2  and  C2_3 
ROOT
ATOM      1  C2  UNL d   1       0.054  -1.623   0.980  0.00  0.00    -0.076 A 
ATOM      2  C3  UNL d   1       0.349  -1.178  -0.321  0.00  0.00     0.004 A 
ATOM      3  C4  UNL d   1      -0.657  -0.713  -1.165  0.00  0.00    -0.003 A 
ATOM      4  C5  UNL d   1      -1.975  -0.683  -0.723  0.00  0.00     0.000 A 
ATOM      5  C6  UNL d   1      -2.284  -1.103   0.570  0.00  0.00     0.000 A 
ATOM      6  C7  UNL d   1      -1.279  -1.560   1.440  0.00  0.00    -0.073 A 
ATOM      7  C8  UNL d   1      -1.670  -2.007   2.823  0.00  0.00     0.078 C 
ENDROOT
BRANCH   1   8
ATOM      8  C1  UNL d   1       1.182  -2.143   1.841  0.00  0.00     0.053 C 
ATOM      9  C   UNL d   1       1.860  -3.363   1.239  0.00  0.00     0.018 C 
ENDBRANCH   1   8
TORSDOF 1
ENDMDL
