MODEL 1
REMARK minimizedAffinity -3.20844507
REMARK minimizedRMSD -1
REMARK  1 active torsions:
REMARK  status: ('A' for Active; 'I' for Inactive)
REMARK    1  A    between atoms: C1_2  and  C2_3 
ROOT
ATOM      1  C2  UNL d   1       3.451   4.371  -5.946  0.00  0.00    -0.076 A 
ATOM      2  C3  UNL d   1       2.968   3.052  -5.897  0.00  0.00     0.004 A 
ATOM      3  C4  UNL d   1       3.843   1.967  -5.870  0.00  0.00    -0.003 A 
ATOM      4  C5  UNL d   1       5.216   2.184  -5.893  0.00  0.00     0.000 A 
ATOM      5  C6  UNL d   1       5.714   3.486  -5.924  0.00  0.00     0.000 A 
ATOM      6  C7  UNL d   1       4.845   4.591  -5.934  0.00  0.00    -0.073 A 
ATOM      7  C8  UNL d   1       5.437   5.974  -5.974  0.00  0.00     0.078 C 
ENDROOT
BRANCH   1   8
ATOM      8  C1  UNL d   1       2.454   5.506  -6.000  0.00  0.00     0.053 C 
ATOM      9  C   UNL d   1       1.014   5.018  -5.998  0.00  0.00     0.018 C 
ENDBRANCH   1   8
TORSDOF 1
ENDMDL
