MODEL 1
REMARK minimizedAffinity 6.53558064
REMARK minimizedRMSD -1
REMARK  1 active torsions:
REMARK  status: ('A' for Active; 'I' for Inactive)
REMARK    1  A    between atoms: C1_2  and  C2_3 
ROOT
ATOM      1  C2  UNL d   1       0.236  -0.427   0.279  0.00  0.00    -0.077 A 
ATOM      2  C3  UNL d   1      -0.556   0.218   1.240  0.00  0.00     0.002 A 
ATOM      3  C4  UNL d   1      -1.940   0.295   1.079  0.00  0.00     0.002 A 
ATOM      4  C5  UNL d   1      -2.546  -0.275  -0.039  0.00  0.00    -0.004 A 
ATOM      5  C6  UNL d   1      -1.767  -0.917  -1.002  0.00  0.00     0.002 A 
ATOM      6  C7  UNL d   1      -0.383  -0.993  -0.843  0.00  0.00     0.002 A 
ENDROOT
BRANCH   1   7
ATOM      7  C1  UNL d   1       1.724  -0.554   0.476  0.00  0.00     0.055 C 
ATOM      8  C   UNL d   1       2.321   0.733   1.027  0.00  0.00     0.019 C 
ENDBRANCH   1   7
TORSDOF 1
ENDMDL
