MODEL 1
REMARK minimizedAffinity -1.3381207
REMARK minimizedRMSD -1
REMARK  1 active torsions:
REMARK  status: ('A' for Active; 'I' for Inactive)
REMARK    1  A    between atoms: C1_2  and  C2_3 
ROOT
ATOM      1  C2  UNL d   1      -0.023  -0.992   3.121  0.00  0.00    -0.077 A 
ATOM      2  C3  UNL d   1      -1.337  -0.552   3.335  0.00  0.00     0.002 A 
ATOM      3  C4  UNL d   1      -2.033   0.111   2.324  0.00  0.00     0.002 A 
ATOM      4  C5  UNL d   1      -1.427   0.337   1.090  0.00  0.00    -0.004 A 
ATOM      5  C6  UNL d   1      -0.120  -0.094   0.867  0.00  0.00     0.002 A 
ATOM      6  C7  UNL d   1       0.579  -0.757   1.878  0.00  0.00     0.002 A 
ENDROOT
BRANCH   1   7
ATOM      7  C1  UNL d   1       0.713  -1.751   4.193  0.00  0.00     0.055 C 
ATOM      8  C   UNL d   1       1.495  -0.812   5.100  0.00  0.00     0.019 C 
ENDBRANCH   1   7
TORSDOF 1
ENDMDL
