MODEL 1
REMARK minimizedAffinity 8.23700905
REMARK minimizedRMSD -1
REMARK  1 active torsions:
REMARK  status: ('A' for Active; 'I' for Inactive)
REMARK    1  A    between atoms: C1_2  and  C2_3 
ROOT
ATOM      1  C2  UNL d   1       1.633   0.162  -0.102  0.00  0.00    -0.077 A 
ATOM      2  C3  UNL d   1       1.877   0.543   1.225  0.00  0.00     0.002 A 
ATOM      3  C4  UNL d   1       2.991   1.322   1.543  0.00  0.00     0.002 A 
ATOM      4  C5  UNL d   1       3.867   1.731   0.539  0.00  0.00    -0.004 A 
ATOM      5  C6  UNL d   1       3.633   1.356  -0.784  0.00  0.00     0.002 A 
ATOM      6  C7  UNL d   1       2.521   0.576  -1.103  0.00  0.00     0.002 A 
ENDROOT
BRANCH   1   7
ATOM      7  C1  UNL d   1       0.405  -0.637  -0.453  0.00  0.00     0.055 C 
ATOM      8  C   UNL d   1      -0.857   0.205  -0.332  0.00  0.00     0.019 C 
ENDBRANCH   1   7
TORSDOF 1
ENDMDL
