MODEL 1
REMARK minimizedAffinity 1.01281297
REMARK minimizedRMSD -1
REMARK  1 active torsions:
REMARK  status: ('A' for Active; 'I' for Inactive)
REMARK    1  A    between atoms: C1_2  and  C2_3 
ROOT
ATOM      1  C2  UNL d   1       0.676  -0.203   1.689  0.00  0.00    -0.077 A 
ATOM      2  C3  UNL d   1       1.027  -0.774   2.921  0.00  0.00     0.002 A 
ATOM      3  C4  UNL d   1       0.117  -0.784   3.980  0.00  0.00     0.002 A 
ATOM      4  C5  UNL d   1      -1.151  -0.229   3.817  0.00  0.00    -0.004 A 
ATOM      5  C6  UNL d   1      -1.509   0.343   2.596  0.00  0.00     0.002 A 
ATOM      6  C7  UNL d   1      -0.600   0.355   1.537  0.00  0.00     0.002 A 
ENDROOT
BRANCH   1   7
ATOM      7  C1  UNL d   1       1.638  -0.235   0.531  0.00  0.00     0.055 C 
ATOM      8  C   UNL d   1       2.564   0.973   0.547  0.00  0.00     0.019 C 
ENDBRANCH   1   7
TORSDOF 1
ENDMDL
