MODEL 1
REMARK minimizedAffinity 0.0574768707
REMARK minimizedRMSD -1
REMARK  1 active torsions:
REMARK  status: ('A' for Active; 'I' for Inactive)
REMARK    1  A    between atoms: C1_2  and  C2_3 
ROOT
ATOM      1  C2  UNL d   1      -0.552  -0.579   2.578  0.00  0.00    -0.077 A 
ATOM      2  C3  UNL d   1      -1.874  -0.232   2.267  0.00  0.00     0.002 A 
ATOM      3  C4  UNL d   1      -2.224   0.120   0.962  0.00  0.00     0.002 A 
ATOM      4  C5  UNL d   1      -1.259   0.123  -0.042  0.00  0.00    -0.004 A 
ATOM      5  C6  UNL d   1       0.059  -0.218   0.257  0.00  0.00     0.002 A 
ATOM      6  C7  UNL d   1       0.411  -0.569   1.561  0.00  0.00     0.002 A 
ENDROOT
BRANCH   1   7
ATOM      7  C1  UNL d   1      -0.183  -1.006   3.975  0.00  0.00     0.055 C 
ATOM      8  C   UNL d   1       1.326  -1.099   4.145  0.00  0.00     0.019 C 
ENDBRANCH   1   7
TORSDOF 1
ENDMDL
