MODEL 1
REMARK minimizedAffinity 5.10022545
REMARK minimizedRMSD -1
REMARK  1 active torsions:
REMARK  status: ('A' for Active; 'I' for Inactive)
REMARK    1  A    between atoms: C1_2  and  C2_3 
ROOT
ATOM      1  C2  UNL d   1      -4.339  -0.225   4.242  0.00  0.00    -0.077 A 
ATOM      2  C3  UNL d   1      -5.006  -1.322   4.805  0.00  0.00     0.002 A 
ATOM      3  C4  UNL d   1      -5.297  -2.445   4.028  0.00  0.00     0.002 A 
ATOM      4  C5  UNL d   1      -4.922  -2.484   2.687  0.00  0.00    -0.004 A 
ATOM      5  C6  UNL d   1      -4.260  -1.397   2.118  0.00  0.00     0.002 A 
ATOM      6  C7  UNL d   1      -3.968  -0.273   2.892  0.00  0.00     0.002 A 
ENDROOT
BRANCH   1   7
ATOM      7  C1  UNL d   1      -3.980   0.967   5.091  0.00  0.00     0.055 C 
ATOM      8  C   UNL d   1      -2.472   1.100   5.249  0.00  0.00     0.019 C 
ENDBRANCH   1   7
TORSDOF 1
ENDMDL
