MODEL 1
REMARK minimizedAffinity 9.77477837
REMARK minimizedRMSD -1
REMARK  1 active torsions:
REMARK  status: ('A' for Active; 'I' for Inactive)
REMARK    1  A    between atoms: C1_2  and  C2_3 
ROOT
ATOM      1  C2  UNL d   1      -4.887   0.007   4.905  0.00  0.00    -0.077 A 
ATOM      2  C3  UNL d   1      -5.582  -1.168   5.225  0.00  0.00     0.002 A 
ATOM      3  C4  UNL d   1      -5.900  -2.094   4.230  0.00  0.00     0.002 A 
ATOM      4  C5  UNL d   1      -5.524  -1.858   2.910  0.00  0.00    -0.004 A 
ATOM      5  C6  UNL d   1      -4.834  -0.692   2.580  0.00  0.00     0.002 A 
ATOM      6  C7  UNL d   1      -4.516   0.236   3.573  0.00  0.00     0.002 A 
ENDROOT
BRANCH   1   7
ATOM      7  C1  UNL d   1      -4.499   0.983   5.984  0.00  0.00     0.055 C 
ATOM      8  C   UNL d   1      -2.997   1.225   5.998  0.00  0.00     0.019 C 
ENDBRANCH   1   7
TORSDOF 1
ENDMDL
