MODEL 1
REMARK minimizedAffinity 0.354625791
REMARK minimizedRMSD -1
REMARK  1 active torsions:
REMARK  status: ('A' for Active; 'I' for Inactive)
REMARK    1  A    between atoms: C1_2  and  C2_3 
ROOT
ATOM      1  C2  UNL d   1      -3.782   0.777   4.298  0.00  0.00    -0.077 A 
ATOM      2  C3  UNL d   1      -4.464  -0.028   5.222  0.00  0.00     0.002 A 
ATOM      3  C4  UNL d   1      -5.176  -1.149   4.792  0.00  0.00     0.002 A 
ATOM      4  C5  UNL d   1      -5.210  -1.479   3.438  0.00  0.00    -0.004 A 
ATOM      5  C6  UNL d   1      -4.536  -0.684   2.511  0.00  0.00     0.002 A 
ATOM      6  C7  UNL d   1      -3.825   0.438   2.939  0.00  0.00     0.002 A 
ENDROOT
BRANCH   1   7
ATOM      7  C1  UNL d   1      -2.973   1.958   4.765  0.00  0.00     0.055 C 
ATOM      8  C   UNL d   1      -3.742   2.787   5.783  0.00  0.00     0.019 C 
ENDBRANCH   1   7
TORSDOF 1
ENDMDL
