MODEL 1
REMARK minimizedAffinity 9.87808323
REMARK minimizedRMSD -1
REMARK  1 active torsions:
REMARK  status: ('A' for Active; 'I' for Inactive)
REMARK    1  A    between atoms: C1_2  and  C2_3 
ROOT
ATOM      1  C2  UNL d   1       0.489  -3.426   1.309  0.00  0.00    -0.077 A 
ATOM      2  C3  UNL d   1      -0.832  -3.511   0.846  0.00  0.00     0.002 A 
ATOM      3  C4  UNL d   1      -1.771  -2.545   1.210  0.00  0.00     0.002 A 
ATOM      4  C5  UNL d   1      -1.400  -1.485   2.034  0.00  0.00    -0.004 A 
ATOM      5  C6  UNL d   1      -0.089  -1.393   2.501  0.00  0.00     0.002 A 
ATOM      6  C7  UNL d   1       0.851  -2.358   2.139  0.00  0.00     0.002 A 
ENDROOT
BRANCH   1   7
ATOM      7  C1  UNL d   1       1.516  -4.441   0.877  0.00  0.00     0.055 C 
ATOM      8  C   UNL d   1       2.677  -3.778   0.151  0.00  0.00     0.019 C 
ENDBRANCH   1   7
TORSDOF 1
ENDMDL
