MODEL 1
REMARK minimizedAffinity -3.37836576
REMARK minimizedRMSD -1
REMARK  1 active torsions:
REMARK  status: ('A' for Active; 'I' for Inactive)
REMARK    1  A    between atoms: C1_2  and  C2_3 
ROOT
ATOM      1  C2  UNL d   1       2.956  -3.333  -0.418  0.00  0.00    -0.077 A 
ATOM      2  C3  UNL d   1       3.586  -4.331   0.338  0.00  0.00     0.002 A 
ATOM      3  C4  UNL d   1       4.778  -4.907  -0.106  0.00  0.00     0.002 A 
ATOM      4  C5  UNL d   1       5.352  -4.489  -1.305  0.00  0.00    -0.004 A 
ATOM      5  C6  UNL d   1       4.731  -3.498  -2.065  0.00  0.00     0.002 A 
ATOM      6  C7  UNL d   1       3.539  -2.922  -1.624  0.00  0.00     0.002 A 
ENDROOT
BRANCH   1   7
ATOM      7  C1  UNL d   1       1.697  -2.676   0.083  0.00  0.00     0.055 C 
ATOM      8  C   UNL d   1       1.081  -3.463   1.231  0.00  0.00     0.019 C 
ENDBRANCH   1   7
TORSDOF 1
ENDMDL
