MODEL 1
REMARK minimizedAffinity 7.3290062
REMARK minimizedRMSD -1
REMARK  1 active torsions:
REMARK  status: ('A' for Active; 'I' for Inactive)
REMARK    1  A    between atoms: C1_2  and  C2_3 
ROOT
ATOM      1  C2  UNL d   1      -1.614  -1.626   1.357  0.00  0.00    -0.077 A 
ATOM      2  C3  UNL d   1      -1.854  -2.893   0.807  0.00  0.00     0.002 A 
ATOM      3  C4  UNL d   1      -0.813  -3.813   0.669  0.00  0.00     0.002 A 
ATOM      4  C5  UNL d   1       0.475  -3.477   1.083  0.00  0.00    -0.004 A 
ATOM      5  C6  UNL d   1       0.724  -2.219   1.629  0.00  0.00     0.002 A 
ATOM      6  C7  UNL d   1      -0.316  -1.298   1.767  0.00  0.00     0.002 A 
ENDROOT
BRANCH   1   7
ATOM      7  C1  UNL d   1      -2.746  -0.651   1.552  0.00  0.00     0.055 C 
ATOM      8  C   UNL d   1      -2.227   0.739   1.888  0.00  0.00     0.019 C 
ENDBRANCH   1   7
TORSDOF 1
ENDMDL
