MODEL 1
REMARK minimizedAffinity -4.48847628
REMARK minimizedRMSD -1
REMARK  1 active torsions:
REMARK  status: ('A' for Active; 'I' for Inactive)
REMARK    1  A    between atoms: C1_2  and  C2_3 
ROOT
ATOM      1  C2  UNL d   1       2.730  -3.166  -0.283  0.00  0.00    -0.077 A 
ATOM      2  C3  UNL d   1       2.969  -2.790  -1.612  0.00  0.00     0.002 A 
ATOM      3  C4  UNL d   1       4.105  -3.248  -2.282  0.00  0.00     0.002 A 
ATOM      4  C5  UNL d   1       5.008  -4.087  -1.633  0.00  0.00    -0.004 A 
ATOM      5  C6  UNL d   1       4.780  -4.465  -0.311  0.00  0.00     0.002 A 
ATOM      6  C7  UNL d   1       3.646  -4.008   0.361  0.00  0.00     0.002 A 
ENDROOT
BRANCH   1   7
ATOM      7  C1  UNL d   1       1.480  -2.713   0.426  0.00  0.00     0.055 C 
ATOM      8  C   UNL d   1       0.474  -3.848   0.553  0.00  0.00     0.019 C 
ENDBRANCH   1   7
TORSDOF 1
ENDMDL
