MODEL 1
REMARK minimizedAffinity -2.80563569
REMARK minimizedRMSD -1
REMARK  1 active torsions:
REMARK  status: ('A' for Active; 'I' for Inactive)
REMARK    1  A    between atoms: C1_2  and  C2_3 
ROOT
ATOM      1  C2  UNL d   1       2.668  -3.161  -0.636  0.00  0.00    -0.077 A 
ATOM      2  C3  UNL d   1       3.684  -4.126  -0.656  0.00  0.00     0.002 A 
ATOM      3  C4  UNL d   1       4.974  -3.803  -0.230  0.00  0.00     0.002 A 
ATOM      4  C5  UNL d   1       5.258  -2.516   0.222  0.00  0.00    -0.004 A 
ATOM      5  C6  UNL d   1       4.255  -1.548   0.244  0.00  0.00     0.002 A 
ATOM      6  C7  UNL d   1       2.965  -1.869  -0.183  0.00  0.00     0.002 A 
ENDROOT
BRANCH   1   7
ATOM      7  C1  UNL d   1       1.265  -3.521  -1.048  0.00  0.00     0.055 C 
ATOM      8  C   UNL d   1       0.443  -3.995   0.141  0.00  0.00     0.019 C 
ENDBRANCH   1   7
TORSDOF 1
ENDMDL
