MODEL 1
REMARK minimizedAffinity -3.39736581
REMARK minimizedRMSD -1
REMARK  1 active torsions:
REMARK  status: ('A' for Active; 'I' for Inactive)
REMARK    1  A    between atoms: C1_2  and  C2_3 
ROOT
ATOM      1  C2  UNL d   1       3.304  -3.501  -0.953  0.00  0.00    -0.077 A 
ATOM      2  C3  UNL d   1       3.963  -4.502  -0.225  0.00  0.00     0.002 A 
ATOM      3  C4  UNL d   1       5.305  -4.791  -0.479  0.00  0.00     0.002 A 
ATOM      4  C5  UNL d   1       6.000  -4.083  -1.457  0.00  0.00    -0.004 A 
ATOM      5  C6  UNL d   1       5.352  -3.088  -2.188  0.00  0.00     0.002 A 
ATOM      6  C7  UNL d   1       4.010  -2.797  -1.936  0.00  0.00     0.002 A 
ENDROOT
BRANCH   1   7
ATOM      7  C1  UNL d   1       1.870  -3.153  -0.646  0.00  0.00     0.055 C 
ATOM      8  C   UNL d   1       1.523  -3.464   0.802  0.00  0.00     0.019 C 
ENDBRANCH   1   7
TORSDOF 1
ENDMDL
