MODEL 1
REMARK minimizedAffinity -2.69212532
REMARK minimizedRMSD -1
REMARK  1 active torsions:
REMARK  status: ('A' for Active; 'I' for Inactive)
REMARK    1  A    between atoms: C1_2  and  C2_3 
ROOT
ATOM      1  C2  UNL d   1       2.215  -2.491  -0.148  0.00  0.00    -0.077 A 
ATOM      2  C3  UNL d   1       2.478  -1.396  -0.982  0.00  0.00     0.002 A 
ATOM      3  C4  UNL d   1       3.380  -1.516  -2.042  0.00  0.00     0.002 A 
ATOM      4  C5  UNL d   1       4.021  -2.730  -2.278  0.00  0.00    -0.004 A 
ATOM      5  C6  UNL d   1       3.767  -3.824  -1.453  0.00  0.00     0.002 A 
ATOM      6  C7  UNL d   1       2.868  -3.705  -0.393  0.00  0.00     0.002 A 
ENDROOT
BRANCH   1   7
ATOM      7  C1  UNL d   1       1.206  -2.377   0.965  0.00  0.00     0.055 C 
ATOM      8  C   UNL d   1       0.538  -3.715   1.245  0.00  0.00     0.019 C 
ENDBRANCH   1   7
TORSDOF 1
ENDMDL
