MODEL 1
REMARK minimizedAffinity 6.34661674
REMARK minimizedRMSD -1
REMARK  1 active torsions:
REMARK  status: ('A' for Active; 'I' for Inactive)
REMARK    1  A    between atoms: C1_2  and  C2_3 
ROOT
ATOM      1  C2  UNL d   1       0.169   4.511  -3.532  0.00  0.00    -0.077 A 
ATOM      2  C3  UNL d   1       0.039   4.993  -2.221  0.00  0.00     0.002 A 
ATOM      3  C4  UNL d   1       0.752   4.401  -1.177  0.00  0.00     0.002 A 
ATOM      4  C5  UNL d   1       1.603   3.328  -1.432  0.00  0.00    -0.004 A 
ATOM      5  C6  UNL d   1       1.738   2.840  -2.731  0.00  0.00     0.002 A 
ATOM      6  C7  UNL d   1       1.025   3.429  -3.776  0.00  0.00     0.002 A 
ENDROOT
BRANCH   1   7
ATOM      7  C1  UNL d   1      -0.561   5.179  -4.667  0.00  0.00     0.055 C 
ATOM      8  C   UNL d   1       0.408   5.858  -5.625  0.00  0.00     0.019 C 
ENDBRANCH   1   7
TORSDOF 1
ENDMDL
