MODEL 1
REMARK minimizedAffinity 9.49972153
REMARK minimizedRMSD -1
REMARK  1 active torsions:
REMARK  status: ('A' for Active; 'I' for Inactive)
REMARK    1  A    between atoms: C1_2  and  C2_3 
ROOT
ATOM      1  C2  UNL d   1      -3.018   2.872   0.649  0.00  0.00    -0.077 A 
ATOM      2  C3  UNL d   1      -4.011   3.224  -0.276  0.00  0.00     0.002 A 
ATOM      3  C4  UNL d   1      -3.886   4.388  -1.038  0.00  0.00     0.002 A 
ATOM      4  C5  UNL d   1      -2.768   5.205  -0.886  0.00  0.00    -0.004 A 
ATOM      5  C6  UNL d   1      -1.777   4.865   0.033  0.00  0.00     0.002 A 
ATOM      6  C7  UNL d   1      -1.900   3.703   0.796  0.00  0.00     0.002 A 
ENDROOT
BRANCH   1   7
ATOM      7  C1  UNL d   1      -3.127   1.592   1.436  0.00  0.00     0.055 C 
ATOM      8  C   UNL d   1      -4.058   0.600   0.753  0.00  0.00     0.019 C 
ENDBRANCH   1   7
TORSDOF 1
ENDMDL
