MODEL 1
REMARK minimizedAffinity -2.52769494
REMARK minimizedRMSD -1
REMARK  1 active torsions:
REMARK  status: ('A' for Active; 'I' for Inactive)
REMARK    1  A    between atoms: C1_2  and  C2_3 
ROOT
ATOM      1  C2  UNL d   1       3.495  -4.204  -0.017  0.00  0.00    -0.077 A 
ATOM      2  C3  UNL d   1       2.143  -4.539   0.138  0.00  0.00     0.002 A 
ATOM      3  C4  UNL d   1       1.201  -3.552   0.438  0.00  0.00     0.002 A 
ATOM      4  C5  UNL d   1       1.601  -2.225   0.581  0.00  0.00    -0.004 A 
ATOM      5  C6  UNL d   1       2.944  -1.883   0.431  0.00  0.00     0.002 A 
ATOM      6  C7  UNL d   1       3.887  -2.868   0.132  0.00  0.00     0.002 A 
ENDROOT
BRANCH   1   7
ATOM      7  C1  UNL d   1       4.505  -5.259  -0.388  0.00  0.00     0.055 C 
ATOM      8  C   UNL d   1       5.046  -5.966   0.846  0.00  0.00     0.019 C 
ENDBRANCH   1   7
TORSDOF 1
ENDMDL
