MODEL 1
REMARK minimizedAffinity 1.72610772
REMARK minimizedRMSD -1
REMARK  1 active torsions:
REMARK  status: ('A' for Active; 'I' for Inactive)
REMARK    1  A    between atoms: C1_2  and  C2_3 
ROOT
ATOM      1  C2  UNL d   1       2.578   4.916   0.916  0.00  0.00    -0.077 A 
ATOM      2  C3  UNL d   1       3.421   5.884   1.479  0.00  0.00     0.002 A 
ATOM      3  C4  UNL d   1       4.753   5.985   1.071  0.00  0.00     0.002 A 
ATOM      4  C5  UNL d   1       5.251   5.123   0.097  0.00  0.00    -0.004 A 
ATOM      5  C6  UNL d   1       4.421   4.155  -0.468  0.00  0.00     0.002 A 
ATOM      6  C7  UNL d   1       3.090   4.053  -0.061  0.00  0.00     0.002 A 
ENDROOT
BRANCH   1   7
ATOM      7  C1  UNL d   1       1.128   4.839   1.319  0.00  0.00     0.055 C 
ATOM      8  C   UNL d   1       0.216   4.819   0.102  0.00  0.00     0.019 C 
ENDBRANCH   1   7
TORSDOF 1
ENDMDL
