MODEL 1
REMARK minimizedAffinity 5.1117115
REMARK minimizedRMSD -1
REMARK  1 active torsions:
REMARK  status: ('A' for Active; 'I' for Inactive)
REMARK    1  A    between atoms: C1_2  and  C2_3 
ROOT
ATOM      1  C2  UNL d   1       5.012   3.901  -0.433  0.00  0.00    -0.077 A 
ATOM      2  C3  UNL d   1       5.887   4.994  -0.374  0.00  0.00     0.002 A 
ATOM      3  C4  UNL d   1       5.698   6.000   0.576  0.00  0.00     0.002 A 
ATOM      4  C5  UNL d   1       4.638   5.919   1.477  0.00  0.00    -0.004 A 
ATOM      5  C6  UNL d   1       3.762   4.836   1.425  0.00  0.00     0.002 A 
ATOM      6  C7  UNL d   1       3.948   3.831   0.475  0.00  0.00     0.002 A 
ENDROOT
BRANCH   1   7
ATOM      7  C1  UNL d   1       5.243   2.791  -1.425  0.00  0.00     0.055 C 
ATOM      8  C   UNL d   1       4.102   1.784  -1.406  0.00  0.00     0.019 C 
ENDBRANCH   1   7
TORSDOF 1
ENDMDL
