MODEL 1
REMARK minimizedAffinity -5.13103485
REMARK minimizedRMSD -1
REMARK  2 active torsions:
REMARK  status: ('A' for Active; 'I' for Inactive)
REMARK    1  A    between atoms: C2'_3  and  C1'_4 
REMARK    2  A    between atoms: C1'_4  and  C1_5 
ROOT
ATOM      1  C1  I4B d   1      -0.289  -0.085  -0.103  0.00  0.00    -0.075 A 
ATOM      2  C2  I4B d   1       1.061  -0.292   0.037  0.00  0.00     0.003 A 
ATOM      3  C3  I4B d   1       1.607  -0.602   1.307  0.00  0.00     0.002 A 
ATOM      4  C4  I4B d   1       0.779  -0.644   2.410  0.00  0.00    -0.004 A 
ATOM      5  C5  I4B d   1      -0.592  -0.457   2.262  0.00  0.00     0.002 A 
ATOM      6  C6  I4B d   1      -1.132  -0.188   0.996  0.00  0.00     0.003 A 
ENDROOT
BRANCH   1   7
ATOM      7  C1' I4B d   1      -0.827   0.273  -1.452  0.00  0.00     0.060 C 
BRANCH   7   8
ATOM      8  C2' I4B d   1      -1.256   1.725  -1.413  0.00  0.00    -0.013 C 
ATOM      9  C4' I4B d   1      -0.154   2.632  -1.895  0.00  0.00     0.013 C 
ATOM     10  C3' I4B d   1      -2.484   1.868  -2.262  0.00  0.00     0.013 C 
ENDBRANCH   7   8
ENDBRANCH   1   7
TORSDOF 2
ENDMDL
