MODEL 1
REMARK minimizedAffinity -4.07942677
REMARK minimizedRMSD -1
REMARK  2 active torsions:
REMARK  status: ('A' for Active; 'I' for Inactive)
REMARK    1  A    between atoms: C2'_3  and  C1'_4 
REMARK    2  A    between atoms: C1'_4  and  C1_5 
ROOT
ATOM      1  C1  I4B d   1       0.768  -0.721   1.748  0.00  0.00    -0.075 A 
ATOM      2  C2  I4B d   1       1.054  -0.619   0.409  0.00  0.00     0.003 A 
ATOM      3  C3  I4B d   1       2.073  -1.418  -0.165  0.00  0.00     0.002 A 
ATOM      4  C4  I4B d   1       2.810  -2.262   0.640  0.00  0.00    -0.004 A 
ATOM      5  C5  I4B d   1       2.503  -2.380   1.993  0.00  0.00     0.002 A 
ATOM      6  C6  I4B d   1       1.468  -1.615   2.548  0.00  0.00     0.003 A 
ENDROOT
BRANCH   1   7
ATOM      7  C1' I4B d   1      -0.292   0.161   2.327  0.00  0.00     0.060 C 
BRANCH   7   8
ATOM      8  C2' I4B d   1      -1.640  -0.416   1.944  0.00  0.00    -0.013 C 
ATOM      9  C4' I4B d   1      -2.757   0.270   2.686  0.00  0.00     0.013 C 
ATOM     10  C3' I4B d   1      -1.803  -0.265   0.461  0.00  0.00     0.013 C 
ENDBRANCH   7   8
ENDBRANCH   1   7
TORSDOF 2
ENDMDL
