MODEL 1
REMARK minimizedAffinity -5.21021795
REMARK minimizedRMSD -1
REMARK  2 active torsions:
REMARK  status: ('A' for Active; 'I' for Inactive)
REMARK    1  A    between atoms: C2'_3  and  C1'_4 
REMARK    2  A    between atoms: C1'_4  and  C1_5 
ROOT
ATOM      1  C1  I4B d   1       0.856  -0.232   1.856  0.00  0.00    -0.075 A 
ATOM      2  C2  I4B d   1       1.460  -1.083   0.964  0.00  0.00     0.003 A 
ATOM      3  C3  I4B d   1       2.488  -1.956   1.396  0.00  0.00     0.002 A 
ATOM      4  C4  I4B d   1       2.913  -1.909   2.708  0.00  0.00    -0.004 A 
ATOM      5  C5  I4B d   1       2.284  -1.062   3.616  0.00  0.00     0.002 A 
ATOM      6  C6  I4B d   1       1.241  -0.226   3.190  0.00  0.00     0.003 A 
ENDROOT
BRANCH   1   7
ATOM      7  C1' I4B d   1      -0.203   0.700   1.358  0.00  0.00     0.060 C 
BRANCH   7   8
ATOM      8  C2' I4B d   1      -0.969  -0.008   0.260  0.00  0.00    -0.013 C 
ATOM      9  C4' I4B d   1      -2.324  -0.457   0.741  0.00  0.00     0.013 C 
ATOM     10  C3' I4B d   1      -1.092   0.934  -0.901  0.00  0.00     0.013 C 
ENDBRANCH   7   8
ENDBRANCH   1   7
TORSDOF 2
ENDMDL
