MODEL 1
REMARK minimizedAffinity -4.9676342
REMARK minimizedRMSD -1
REMARK  2 active torsions:
REMARK  status: ('A' for Active; 'I' for Inactive)
REMARK    1  A    between atoms: C2'_3  and  C1'_4 
REMARK    2  A    between atoms: C1'_4  and  C1_5 
ROOT
ATOM      1  C1  I4B d   1      -0.354   0.104   0.048  0.00  0.00    -0.075 A 
ATOM      2  C2  I4B d   1       0.860  -0.299   0.547  0.00  0.00     0.003 A 
ATOM      3  C3  I4B d   1       1.004  -0.584   1.926  0.00  0.00     0.002 A 
ATOM      4  C4  I4B d   1      -0.071  -0.406   2.773  0.00  0.00    -0.004 A 
ATOM      5  C5  I4B d   1      -1.307  -0.020   2.262  0.00  0.00     0.002 A 
ATOM      6  C6  I4B d   1      -1.453   0.225   0.889  0.00  0.00     0.003 A 
ENDROOT
BRANCH   1   7
ATOM      7  C1' I4B d   1      -0.462   0.429  -1.408  0.00  0.00     0.060 C 
BRANCH   7   8
ATOM      8  C2' I4B d   1      -0.965   1.853  -1.532  0.00  0.00    -0.013 C 
ATOM      9  C4' I4B d   1      -0.022   2.694  -2.352  0.00  0.00     0.013 C 
ATOM     10  C3' I4B d   1      -2.330   1.810  -2.152  0.00  0.00     0.013 C 
ENDBRANCH   7   8
ENDBRANCH   1   7
TORSDOF 2
ENDMDL
