MODEL 1
REMARK minimizedAffinity -5.24512148
REMARK minimizedRMSD -1
REMARK  2 active torsions:
REMARK  status: ('A' for Active; 'I' for Inactive)
REMARK    1  A    between atoms: C2'_3  and  C1'_4 
REMARK    2  A    between atoms: C1'_4  and  C1_5 
ROOT
ATOM      1  C1  I4B d   1       0.386   0.212   0.313  0.00  0.00    -0.075 A 
ATOM      2  C2  I4B d   1       1.676  -0.170   0.583  0.00  0.00     0.003 A 
ATOM      3  C3  I4B d   1       1.962  -0.958   1.724  0.00  0.00     0.002 A 
ATOM      4  C4  I4B d   1       0.942  -1.297   2.589  0.00  0.00    -0.004 A 
ATOM      5  C5  I4B d   1      -0.369  -0.928   2.301  0.00  0.00     0.002 A 
ATOM      6  C6  I4B d   1      -0.651  -0.179   1.150  0.00  0.00     0.003 A 
ENDROOT
BRANCH   1   7
ATOM      7  C1' I4B d   1       0.124   1.073  -0.882  0.00  0.00     0.060 C 
BRANCH   7   8
ATOM      8  C2' I4B d   1      -0.663   0.252  -1.884  0.00  0.00    -0.013 C 
ATOM      9  C4' I4B d   1      -1.439   1.137  -2.824  0.00  0.00     0.013 C 
ATOM     10  C3' I4B d   1       0.304  -0.616  -2.633  0.00  0.00     0.013 C 
ENDBRANCH   7   8
ENDBRANCH   1   7
TORSDOF 2
ENDMDL
