MODEL 1
REMARK minimizedAffinity -5.19280243
REMARK minimizedRMSD -1
REMARK  2 active torsions:
REMARK  status: ('A' for Active; 'I' for Inactive)
REMARK    1  A    between atoms: C2'_3  and  C1'_4 
REMARK    2  A    between atoms: C1'_4  and  C1_5 
ROOT
ATOM      1  C1  I4B d   1       1.048  -0.581   0.692  0.00  0.00    -0.075 A 
ATOM      2  C2  I4B d   1       2.004  -1.371   1.281  0.00  0.00     0.003 A 
ATOM      3  C3  I4B d   1       1.734  -2.017   2.512  0.00  0.00     0.002 A 
ATOM      4  C4  I4B d   1       0.523  -1.807   3.139  0.00  0.00    -0.004 A 
ATOM      5  C5  I4B d   1      -0.453  -1.023   2.529  0.00  0.00     0.002 A 
ATOM      6  C6  I4B d   1      -0.194  -0.416   1.292  0.00  0.00     0.003 A 
ENDROOT
BRANCH   1   7
ATOM      7  C1' I4B d   1       1.378   0.113  -0.591  0.00  0.00     0.060 C 
BRANCH   7   8
ATOM      8  C2' I4B d   1       0.130   0.125  -1.451  0.00  0.00    -0.013 C 
ATOM      9  C4' I4B d   1      -0.317   1.533  -1.744  0.00  0.00     0.013 C 
ATOM     10  C3' I4B d   1       0.432  -0.623  -2.715  0.00  0.00     0.013 C 
ENDBRANCH   7   8
ENDBRANCH   1   7
TORSDOF 2
ENDMDL
