MODEL 1
REMARK minimizedAffinity -5.62384319
REMARK minimizedRMSD -1
REMARK  2 active torsions:
REMARK  status: ('A' for Active; 'I' for Inactive)
REMARK    1  A    between atoms: C2'_3  and  C1'_4 
REMARK    2  A    between atoms: C1'_4  and  C1_5 
ROOT
ATOM      1  C1  I4B d   1       0.348  -0.388  -0.643  0.00  0.00    -0.075 A 
ATOM      2  C2  I4B d   1      -0.081   0.008   0.599  0.00  0.00     0.003 A 
ATOM      3  C3  I4B d   1       0.628  -0.387   1.759  0.00  0.00     0.002 A 
ATOM      4  C4  I4B d   1       1.725  -1.215   1.635  0.00  0.00    -0.004 A 
ATOM      5  C5  I4B d   1       2.173  -1.597   0.374  0.00  0.00     0.002 A 
ATOM      6  C6  I4B d   1       1.488  -1.171  -0.773  0.00  0.00     0.003 A 
ENDROOT
BRANCH   1   7
ATOM      7  C1' I4B d   1      -0.444   0.021  -1.844  0.00  0.00     0.060 C 
BRANCH   7   8
ATOM      8  C2' I4B d   1      -0.874   1.461  -1.652  0.00  0.00    -0.013 C 
ATOM      9  C4' I4B d   1      -0.037   2.395  -2.485  0.00  0.00     0.013 C 
ATOM     10  C3' I4B d   1      -2.325   1.563  -2.016  0.00  0.00     0.013 C 
ENDBRANCH   7   8
ENDBRANCH   1   7
TORSDOF 2
ENDMDL
