MODEL 1
REMARK minimizedAffinity -2.58515787
REMARK minimizedRMSD -1
REMARK  2 active torsions:
REMARK  status: ('A' for Active; 'I' for Inactive)
REMARK    1  A    between atoms: C2'_3  and  C1'_4 
REMARK    2  A    between atoms: C1'_4  and  C1_5 
ROOT
ATOM      1  C1  I4B d   1      -0.785   0.022  -0.471  0.00  0.00    -0.075 A 
ATOM      2  C2  I4B d   1      -1.986  -0.412   0.032  0.00  0.00     0.003 A 
ATOM      3  C3  I4B d   1      -2.088  -0.823   1.383  0.00  0.00     0.002 A 
ATOM      4  C4  I4B d   1      -0.959  -0.831   2.177  0.00  0.00    -0.004 A 
ATOM      5  C5  I4B d   1       0.253  -0.370   1.673  0.00  0.00     0.002 A 
ATOM      6  C6  I4B d   1       0.339   0.071   0.344  0.00  0.00     0.003 A 
ENDROOT
BRANCH   1   7
ATOM      7  C1' I4B d   1      -0.706   0.417  -1.911  0.00  0.00     0.060 C 
BRANCH   7   8
ATOM      8  C2' I4B d   1      -1.075   1.883  -2.014  0.00  0.00    -0.013 C 
ATOM      9  C4' I4B d   1      -0.167   2.608  -2.972  0.00  0.00     0.013 C 
ATOM     10  C3' I4B d   1      -2.506   1.970  -2.453  0.00  0.00     0.013 C 
ENDBRANCH   7   8
ENDBRANCH   1   7
TORSDOF 2
ENDMDL
