MODEL 1
REMARK minimizedAffinity -5.34083652
REMARK minimizedRMSD -1
REMARK  2 active torsions:
REMARK  status: ('A' for Active; 'I' for Inactive)
REMARK    1  A    between atoms: C2'_3  and  C1'_4 
REMARK    2  A    between atoms: C1'_4  and  C1_5 
ROOT
ATOM      1  C1  I4B d   1       0.234   0.027  -0.251  0.00  0.00    -0.075 A 
ATOM      2  C2  I4B d   1      -0.807  -0.065   0.638  0.00  0.00     0.003 A 
ATOM      3  C3  I4B d   1      -0.552  -0.257   2.017  0.00  0.00     0.002 A 
ATOM      4  C4  I4B d   1       0.749  -0.400   2.454  0.00  0.00    -0.004 A 
ATOM      5  C5  I4B d   1       1.805  -0.283   1.555  0.00  0.00     0.002 A 
ATOM      6  C6  I4B d   1       1.547  -0.056   0.195  0.00  0.00     0.003 A 
ENDROOT
BRANCH   1   7
ATOM      7  C1' I4B d   1      -0.072   0.197  -1.705  0.00  0.00     0.060 C 
BRANCH   7   8
ATOM      8  C2' I4B d   1      -0.478   1.639  -1.932  0.00  0.00    -0.013 C 
ATOM      9  C4' I4B d   1       0.631   2.421  -2.586  0.00  0.00     0.013 C 
ATOM     10  C3' I4B d   1      -1.716   1.644  -2.778  0.00  0.00     0.013 C 
ENDBRANCH   7   8
ENDBRANCH   1   7
TORSDOF 2
ENDMDL
