MODEL 1
REMARK minimizedAffinity -3.97836161
REMARK minimizedRMSD -1
REMARK  2 active torsions:
REMARK  status: ('A' for Active; 'I' for Inactive)
REMARK    1  A    between atoms: C2'_3  and  C1'_4 
REMARK    2  A    between atoms: C1'_4  and  C1_5 
ROOT
ATOM      1  C1  I4B d   1      -1.459  -0.861   0.149  0.00  0.00    -0.075 A 
ATOM      2  C2  I4B d   1      -2.444  -0.498   1.033  0.00  0.00     0.003 A 
ATOM      3  C3  I4B d   1      -2.189  -0.504   2.426  0.00  0.00     0.002 A 
ATOM      4  C4  I4B d   1      -0.959  -0.924   2.890  0.00  0.00    -0.004 A 
ATOM      5  C5  I4B d   1       0.046  -1.269   1.991  0.00  0.00     0.002 A 
ATOM      6  C6  I4B d   1      -0.201  -1.226   0.611  0.00  0.00     0.003 A 
ENDROOT
BRANCH   1   7
ATOM      7  C1' I4B d   1      -1.773  -0.876  -1.313  0.00  0.00     0.060 C 
BRANCH   7   8
ATOM      8  C2' I4B d   1      -1.910   0.561  -1.776  0.00  0.00    -0.013 C 
ATOM      9  C4' I4B d   1      -0.810   0.931  -2.736  0.00  0.00     0.013 C 
ATOM     10  C3' I4B d   1      -3.259   0.716  -2.412  0.00  0.00     0.013 C 
ENDBRANCH   7   8
ENDBRANCH   1   7
TORSDOF 2
ENDMDL
