MODEL 1
REMARK minimizedAffinity -4.86440897
REMARK minimizedRMSD -1
REMARK  0 active torsions:
REMARK  status: ('A' for Active; 'I' for Inactive)
ROOT
ATOM      1  C   UNL d   1       0.068   4.234  -0.199  0.00  0.00     0.020 A 
ATOM      2  C1  UNL d   1       1.310   4.808   0.068  0.00  0.00     0.020 A 
ATOM      3  C2  UNL d   1       2.408   3.995   0.358  0.00  0.00     0.034 A 
ATOM      4  C3  UNL d   1       2.265   2.602   0.382  0.00  0.00     0.017 A 
ATOM      5  C4  UNL d   1       1.018   2.027   0.114  0.00  0.00     0.017 A 
ATOM      6  C5  UNL d   1      -0.078   2.846  -0.176  0.00  0.00     0.034 A 
ATOM      7 Cl   UNL d   1       0.765   0.317   0.125  0.00  0.00    -0.070 Cl
ATOM      8 Cl1  UNL d   1       3.665   1.658   0.747  0.00  0.00    -0.070 Cl
ENDROOT
TORSDOF 0
ENDMDL
