MODEL 1
REMARK minimizedAffinity 9.60408115
REMARK minimizedRMSD -1
REMARK  0 active torsions:
REMARK  status: ('A' for Active; 'I' for Inactive)
ROOT
ATOM      1  C   UNL d   1      -2.298  -4.886   3.012  0.00  0.00     0.020 A 
ATOM      2  C1  UNL d   1      -1.447  -4.215   3.889  0.00  0.00     0.020 A 
ATOM      3  C2  UNL d   1      -1.082  -2.892   3.632  0.00  0.00     0.034 A 
ATOM      4  C3  UNL d   1      -1.569  -2.236   2.495  0.00  0.00     0.017 A 
ATOM      5  C4  UNL d   1      -2.423  -2.910   1.616  0.00  0.00     0.017 A 
ATOM      6  C5  UNL d   1      -2.785  -4.235   1.878  0.00  0.00     0.034 A 
ATOM      7 Cl   UNL d   1      -3.064  -2.167   0.193  0.00  0.00    -0.070 Cl
ATOM      8 Cl1  UNL d   1      -1.076  -0.599   2.240  0.00  0.00    -0.070 Cl
ENDROOT
TORSDOF 0
ENDMDL
