MODEL 1
REMARK minimizedAffinity 7.2519002
REMARK minimizedRMSD -1
REMARK  0 active torsions:
REMARK  status: ('A' for Active; 'I' for Inactive)
ROOT
ATOM      1  C   UNL d   1      -0.137   3.353   0.357  0.00  0.00     0.020 A 
ATOM      2  C1  UNL d   1      -0.917   2.328   0.893  0.00  0.00     0.020 A 
ATOM      3  C2  UNL d   1      -0.422   1.023   0.933  0.00  0.00     0.034 A 
ATOM      4  C3  UNL d   1       0.855   0.738   0.437  0.00  0.00     0.017 A 
ATOM      5  C4  UNL d   1       1.637   1.767  -0.101  0.00  0.00     0.017 A 
ATOM      6  C5  UNL d   1       1.137   3.073  -0.139  0.00  0.00     0.034 A 
ATOM      7 Cl   UNL d   1       3.222   1.494  -0.732  0.00  0.00    -0.070 Cl
ATOM      8 Cl1  UNL d   1       1.403  -0.899   0.519  0.00  0.00    -0.070 Cl
ENDROOT
TORSDOF 0
ENDMDL
