MODEL 1
REMARK minimizedAffinity -1.57548487
REMARK minimizedRMSD -1
REMARK  0 active torsions:
REMARK  status: ('A' for Active; 'I' for Inactive)
ROOT
ATOM      1  C   UNL d   1      -1.545   2.135   0.324  0.00  0.00     0.020 A 
ATOM      2  C1  UNL d   1      -0.837   3.329   0.190  0.00  0.00     0.020 A 
ATOM      3  C2  UNL d   1       0.559   3.323   0.241  0.00  0.00     0.034 A 
ATOM      4  C3  UNL d   1       1.251   2.120   0.428  0.00  0.00     0.017 A 
ATOM      5  C4  UNL d   1       0.539   0.923   0.562  0.00  0.00     0.017 A 
ATOM      6  C5  UNL d   1      -0.858   0.935   0.510  0.00  0.00     0.034 A 
ATOM      7 Cl   UNL d   1       1.323  -0.600   0.795  0.00  0.00    -0.070 Cl
ATOM      8 Cl1  UNL d   1       2.977   2.186   0.482  0.00  0.00    -0.070 Cl
ENDROOT
TORSDOF 0
ENDMDL
