MODEL 1
REMARK minimizedAffinity 2.58524823
REMARK minimizedRMSD -1
REMARK  0 active torsions:
REMARK  status: ('A' for Active; 'I' for Inactive)
ROOT
ATOM      1  C   UNL d   1       0.909   3.771   0.656  0.00  0.00     0.020 A 
ATOM      2  C1  UNL d   1      -0.126   2.867   0.420  0.00  0.00     0.020 A 
ATOM      3  C2  UNL d   1       0.144   1.499   0.355  0.00  0.00     0.034 A 
ATOM      4  C3  UNL d   1       1.452   1.030   0.527  0.00  0.00     0.017 A 
ATOM      5  C4  UNL d   1       2.490   1.938   0.764  0.00  0.00     0.017 A 
ATOM      6  C5  UNL d   1       2.214   3.308   0.828  0.00  0.00     0.034 A 
ATOM      7 Cl   UNL d   1       4.129   1.436   0.986  0.00  0.00    -0.070 Cl
ATOM      8 Cl1  UNL d   1       1.713  -0.676   0.434  0.00  0.00    -0.070 Cl
ENDROOT
TORSDOF 0
ENDMDL
