MODEL 1
REMARK minimizedAffinity 5.08125067
REMARK minimizedRMSD -1
REMARK  0 active torsions:
REMARK  status: ('A' for Active; 'I' for Inactive)
ROOT
ATOM      1  C   UNL d   1      -5.961   4.592  -3.650  0.00  0.00     0.020 A 
ATOM      2  C1  UNL d   1      -5.989   5.829  -3.008  0.00  0.00     0.020 A 
ATOM      3  C2  UNL d   1      -5.999   5.892  -1.613  0.00  0.00     0.034 A 
ATOM      4  C3  UNL d   1      -5.982   4.714  -0.856  0.00  0.00     0.017 A 
ATOM      5  C4  UNL d   1      -5.954   3.473  -1.501  0.00  0.00     0.017 A 
ATOM      6  C5  UNL d   1      -5.944   3.417  -2.899  0.00  0.00     0.034 A 
ATOM      7 Cl   UNL d   1      -5.931   1.978  -0.635  0.00  0.00    -0.070 Cl
ATOM      8 Cl1  UNL d   1      -5.996   4.866   0.866  0.00  0.00    -0.070 Cl
ENDROOT
TORSDOF 0
ENDMDL
