MODEL 1
REMARK minimizedAffinity 8.11379242
REMARK minimizedRMSD -1
REMARK  0 active torsions:
REMARK  status: ('A' for Active; 'I' for Inactive)
ROOT
ATOM      1  C   UNL d   1      -0.339   3.191   1.522  0.00  0.00     0.020 A 
ATOM      2  C1  UNL d   1       0.605   3.220   0.497  0.00  0.00     0.020 A 
ATOM      3  C2  UNL d   1       1.141   2.026   0.008  0.00  0.00     0.034 A 
ATOM      4  C3  UNL d   1       0.733   0.800   0.545  0.00  0.00     0.017 A 
ATOM      5  C4  UNL d   1      -0.215   0.772   1.574  0.00  0.00     0.017 A 
ATOM      6  C5  UNL d   1      -0.749   1.970   2.059  0.00  0.00     0.034 A 
ATOM      7 Cl   UNL d   1      -0.768  -0.702   2.286  0.00  0.00    -0.070 Cl
ATOM      8 Cl1  UNL d   1       1.437  -0.637  -0.108  0.00  0.00    -0.070 Cl
ENDROOT
TORSDOF 0
ENDMDL
