MODEL 1
REMARK minimizedAffinity 6.95721912
REMARK minimizedRMSD -1
REMARK  0 active torsions:
REMARK  status: ('A' for Active; 'I' for Inactive)
ROOT
ATOM      1  C   UNL d   1       1.306   0.201  -3.333  0.00  0.00     0.020 A 
ATOM      2  C1  UNL d   1       1.863  -0.997  -2.887  0.00  0.00     0.020 A 
ATOM      3  C2  UNL d   1       2.127  -1.181  -1.528  0.00  0.00     0.034 A 
ATOM      4  C3  UNL d   1       1.835  -0.165  -0.611  0.00  0.00     0.017 A 
ATOM      5  C4  UNL d   1       1.275   1.037  -1.059  0.00  0.00     0.017 A 
ATOM      6  C5  UNL d   1       1.013   1.216  -2.421  0.00  0.00     0.034 A 
ATOM      7 Cl   UNL d   1       0.887   2.336   0.013  0.00  0.00    -0.070 Cl
ATOM      8 Cl1  UNL d   1       2.187  -0.461   1.055  0.00  0.00    -0.070 Cl
ENDROOT
TORSDOF 0
ENDMDL
