MODEL 1
REMARK minimizedAffinity 0.590518773
REMARK minimizedRMSD -1
REMARK  0 active torsions:
REMARK  status: ('A' for Active; 'I' for Inactive)
ROOT
ATOM      1  C   UNL d   1       1.872   3.910  -1.033  0.00  0.00     0.020 A 
ATOM      2  C1  UNL d   1       2.778   2.886  -1.305  0.00  0.00     0.020 A 
ATOM      3  C2  UNL d   1       2.621   1.636  -0.703  0.00  0.00     0.034 A 
ATOM      4  C3  UNL d   1       1.555   1.406   0.174  0.00  0.00     0.017 A 
ATOM      5  C4  UNL d   1       0.646   2.435   0.447  0.00  0.00     0.017 A 
ATOM      6  C5  UNL d   1       0.808   3.685  -0.159  0.00  0.00     0.034 A 
ATOM      7 Cl   UNL d   1      -0.694   2.227   1.519  0.00  0.00    -0.070 Cl
ATOM      8 Cl1  UNL d   1       1.421  -0.164   0.883  0.00  0.00    -0.070 Cl
ENDROOT
TORSDOF 0
ENDMDL
