MODEL 1
REMARK minimizedAffinity 7.93840122
REMARK minimizedRMSD -1
REMARK  0 active torsions:
REMARK  status: ('A' for Active; 'I' for Inactive)
ROOT
ATOM      1  C   UNL d   1       2.367   1.514  -0.229  0.00  0.00     0.020 A 
ATOM      2  C1  UNL d   1       2.334   0.510   0.737  0.00  0.00     0.020 A 
ATOM      3  C2  UNL d   1       2.123  -0.817   0.358  0.00  0.00     0.034 A 
ATOM      4  C3  UNL d   1       1.944  -1.144  -0.992  0.00  0.00     0.017 A 
ATOM      5  C4  UNL d   1       1.977  -0.135  -1.961  0.00  0.00     0.017 A 
ATOM      6  C5  UNL d   1       2.189   1.193  -1.575  0.00  0.00     0.034 A 
ATOM      7 Cl   UNL d   1       1.765  -0.460  -3.645  0.00  0.00    -0.070 Cl
ATOM      8 Cl1  UNL d   1       1.689  -2.806  -1.389  0.00  0.00    -0.070 Cl
ENDROOT
TORSDOF 0
ENDMDL
