MODEL 1
REMARK minimizedAffinity 0.29381156
REMARK minimizedRMSD -1
REMARK  0 active torsions:
REMARK  status: ('A' for Active; 'I' for Inactive)
ROOT
ATOM      1  C   UNL d   1       0.022   3.595   0.725  0.00  0.00     0.020 A 
ATOM      2  C1  UNL d   1      -0.961   2.610   0.816  0.00  0.00     0.020 A 
ATOM      3  C2  UNL d   1      -0.597   1.262   0.850  0.00  0.00     0.034 A 
ATOM      4  C3  UNL d   1       0.752   0.895   0.792  0.00  0.00     0.017 A 
ATOM      5  C4  UNL d   1       1.738   1.885   0.700  0.00  0.00     0.017 A 
ATOM      6  C5  UNL d   1       1.368   3.233   0.667  0.00  0.00     0.034 A 
ATOM      7 Cl   UNL d   1       3.423   1.510   0.624  0.00  0.00    -0.070 Cl
ATOM      8 Cl1  UNL d   1       1.129  -0.790   0.838  0.00  0.00    -0.070 Cl
ENDROOT
TORSDOF 0
ENDMDL
