MODEL 1
REMARK minimizedAffinity 3.95491815
REMARK minimizedRMSD -1
REMARK  0 active torsions:
REMARK  status: ('A' for Active; 'I' for Inactive)
ROOT
ATOM      1  C   UNL d   1      -1.134   3.487   0.557  0.00  0.00     0.020 A 
ATOM      2  C1  UNL d   1      -2.174   2.692   1.037  0.00  0.00     0.020 A 
ATOM      3  C2  UNL d   1      -1.953   1.339   1.303  0.00  0.00     0.034 A 
ATOM      4  C3  UNL d   1      -0.689   0.777   1.088  0.00  0.00     0.017 A 
ATOM      5  C4  UNL d   1       0.354   1.575   0.606  0.00  0.00     0.017 A 
ATOM      6  C5  UNL d   1       0.127   2.929   0.341  0.00  0.00     0.034 A 
ATOM      7 Cl   UNL d   1       1.940   0.952   0.316  0.00  0.00    -0.070 Cl
ATOM      8 Cl1  UNL d   1      -0.488  -0.903   1.439  0.00  0.00    -0.070 Cl
ENDROOT
TORSDOF 0
ENDMDL
