MODEL 1
REMARK minimizedAffinity 2.51699471
REMARK minimizedRMSD -1
REMARK  0 active torsions:
REMARK  status: ('A' for Active; 'I' for Inactive)
ROOT
ATOM      1  C   UNL d   1       1.709   4.187  -0.442  0.00  0.00     0.020 A 
ATOM      2  C1  UNL d   1       2.404   3.220   0.284  0.00  0.00     0.020 A 
ATOM      3  C2  UNL d   1       1.704   2.260   1.017  0.00  0.00     0.034 A 
ATOM      4  C3  UNL d   1       0.304   2.264   1.026  0.00  0.00     0.017 A 
ATOM      5  C4  UNL d   1      -0.393   3.234   0.297  0.00  0.00     0.017 A 
ATOM      6  C5  UNL d   1       0.313   4.193  -0.436  0.00  0.00     0.034 A 
ATOM      7 Cl   UNL d   1      -2.119   3.302   0.259  0.00  0.00    -0.070 Cl
ATOM      8 Cl1  UNL d   1      -0.497   1.046   1.954  0.00  0.00    -0.070 Cl
ENDROOT
TORSDOF 0
ENDMDL
