MODEL 1
REMARK minimizedAffinity 5.94867992
REMARK minimizedRMSD -1
REMARK  0 active torsions:
REMARK  status: ('A' for Active; 'I' for Inactive)
ROOT
ATOM      1  C   UNL d   1      -0.445   1.660   0.960  0.00  0.00     0.020 A 
ATOM      2  C1  UNL d   1       0.465   2.689   1.200  0.00  0.00     0.020 A 
ATOM      3  C2  UNL d   1       1.835   2.454   1.064  0.00  0.00     0.034 A 
ATOM      4  C3  UNL d   1       2.299   1.188   0.688  0.00  0.00     0.017 A 
ATOM      5  C4  UNL d   1       1.384   0.156   0.447  0.00  0.00     0.017 A 
ATOM      6  C5  UNL d   1       0.014   0.397   0.584  0.00  0.00     0.034 A 
ATOM      7 Cl   UNL d   1       1.880  -1.432  -0.021  0.00  0.00    -0.070 Cl
ATOM      8 Cl1  UNL d   1       4.006   0.969   0.539  0.00  0.00    -0.070 Cl
ENDROOT
TORSDOF 0
ENDMDL
