MODEL 1
REMARK minimizedAffinity 8.58905697
REMARK minimizedRMSD -1
REMARK  0 active torsions:
REMARK  status: ('A' for Active; 'I' for Inactive)
ROOT
ATOM      1  C   UNL d   1       2.772   2.142   1.058  0.00  0.00     0.020 A 
ATOM      2  C1  UNL d   1       3.193   2.941  -0.004  0.00  0.00     0.020 A 
ATOM      3  C2  UNL d   1       2.255   3.641  -0.765  0.00  0.00     0.034 A 
ATOM      4  C3  UNL d   1       0.891   3.545  -0.465  0.00  0.00     0.017 A 
ATOM      5  C4  UNL d   1       0.469   2.744   0.602  0.00  0.00     0.017 A 
ATOM      6  C5  UNL d   1       1.413   2.044   1.361  0.00  0.00     0.034 A 
ATOM      7 Cl   UNL d   1      -1.196   2.575   1.033  0.00  0.00    -0.070 Cl
ATOM      8 Cl1  UNL d   1      -0.213   4.440  -1.448  0.00  0.00    -0.070 Cl
ENDROOT
TORSDOF 0
ENDMDL
