MODEL 1
REMARK minimizedAffinity 8.92976856
REMARK minimizedRMSD -1
REMARK  0 active torsions:
REMARK  status: ('A' for Active; 'I' for Inactive)
ROOT
ATOM      1  N1  IND d   1       4.295  -4.853  -2.272  0.00  0.00    -0.196 N 
ATOM      2  C2  IND d   1       3.488  -5.894  -1.908  0.00  0.00     0.054 A 
ATOM      3  C3  IND d   1       2.856  -5.616  -0.745  0.00  0.00    -0.031 A 
ATOM      4  C4  IND d   1       2.920  -3.472   0.678  0.00  0.00     0.051 A 
ATOM      5  C5  IND d   1       3.543  -2.258   0.770  0.00  0.00    -0.031 A 
ATOM      6  C6  IND d   1       4.464  -1.838  -0.168  0.00  0.00     0.015 A 
ATOM      7  C7  IND d   1       4.790  -2.615  -1.243  0.00  0.00    -0.016 A 
ATOM      8  C8  IND d   1       4.166  -3.850  -1.336  0.00  0.00    -0.047 A 
ATOM      9  C9  IND d   1       3.262  -4.300  -0.365  0.00  0.00    -0.096 A 
ATOM     10  HN1 IND d   1       4.799  -4.828  -2.968  0.00  0.00     0.298 HD
ENDROOT
TORSDOF 0
ENDMDL
