MODEL 1
REMARK minimizedAffinity -4.90734196
REMARK minimizedRMSD -1
REMARK  0 active torsions:
REMARK  status: ('A' for Active; 'I' for Inactive)
ROOT
ATOM      1  N1  IND d   1      -3.531   1.958   0.849  0.00  0.00    -0.196 N 
ATOM      2  C2  IND d   1      -4.253   0.808   1.011  0.00  0.00     0.054 A 
ATOM      3  C3  IND d   1      -3.452  -0.273   0.875  0.00  0.00    -0.031 A 
ATOM      4  C4  IND d   1      -0.910  -0.386   0.487  0.00  0.00     0.051 A 
ATOM      5  C5  IND d   1       0.178   0.403   0.238  0.00  0.00    -0.031 A 
ATOM      6  C6  IND d   1       0.084   1.778   0.181  0.00  0.00     0.015 A 
ATOM      7  C7  IND d   1      -1.106   2.419   0.384  0.00  0.00    -0.016 A 
ATOM      8  C8  IND d   1      -2.214   1.621   0.630  0.00  0.00    -0.047 A 
ATOM      9  C9  IND d   1      -2.132   0.223   0.647  0.00  0.00    -0.096 A 
ATOM     10  HN1 IND d   1      -3.848   2.757   0.879  0.00  0.00     0.298 HD
ENDROOT
TORSDOF 0
ENDMDL
