MODEL 1
REMARK minimizedAffinity 0.273451954
REMARK minimizedRMSD -1
REMARK  0 active torsions:
REMARK  status: ('A' for Active; 'I' for Inactive)
ROOT
ATOM      1  N1  IND d   1      -4.737   2.853   0.545  0.00  0.00    -0.196 N 
ATOM      2  C2  IND d   1      -5.565   1.909   1.085  0.00  0.00     0.054 A 
ATOM      3  C3  IND d   1      -4.899   0.747   1.264  0.00  0.00    -0.031 A 
ATOM      4  C4  IND d   1      -2.420   0.199   0.836  0.00  0.00     0.051 A 
ATOM      5  C5  IND d   1      -1.275   0.730   0.312  0.00  0.00    -0.031 A 
ATOM      6  C6  IND d   1      -1.223   2.023  -0.168  0.00  0.00     0.015 A 
ATOM      7  C7  IND d   1      -2.317   2.840  -0.132  0.00  0.00    -0.016 A 
ATOM      8  C8  IND d   1      -3.484   2.302   0.393  0.00  0.00    -0.047 A 
ATOM      9  C9  IND d   1      -3.553   0.977   0.843  0.00  0.00    -0.096 A 
ATOM     10  HN1 IND d   1      -4.962   3.656   0.335  0.00  0.00     0.298 HD
ENDROOT
TORSDOF 0
ENDMDL
