MODEL 1
REMARK minimizedAffinity -2.00947213
REMARK minimizedRMSD -1
REMARK  0 active torsions:
REMARK  status: ('A' for Active; 'I' for Inactive)
ROOT
ATOM      1  N1  IND d   1       2.272   0.658   1.729  0.00  0.00    -0.196 N 
ATOM      2  C2  IND d   1       3.057   1.355   0.854  0.00  0.00     0.054 A 
ATOM      3  C3  IND d   1       2.299   1.908  -0.120  0.00  0.00    -0.031 A 
ATOM      4  C4  IND d   1      -0.258   1.883  -0.415  0.00  0.00     0.051 A 
ATOM      5  C5  IND d   1      -1.398   1.346   0.113  0.00  0.00    -0.031 A 
ATOM      6  C6  IND d   1      -1.373   0.537   1.231  0.00  0.00     0.015 A 
ATOM      7  C7  IND d   1      -0.203   0.244   1.872  0.00  0.00    -0.016 A 
ATOM      8  C8  IND d   1       0.958   0.782   1.335  0.00  0.00    -0.047 A 
ATOM      9  C9  IND d   1       0.943   1.569   0.176  0.00  0.00    -0.096 A 
ATOM     10  HN1 IND d   1       2.552   0.216   2.411  0.00  0.00     0.298 HD
ENDROOT
TORSDOF 0
ENDMDL
