MODEL 1
REMARK minimizedAffinity 2.64076376
REMARK minimizedRMSD -1
REMARK  0 active torsions:
REMARK  status: ('A' for Active; 'I' for Inactive)
ROOT
ATOM      1  N1  IND d   1      -3.881   2.250  -0.421  0.00  0.00    -0.196 N 
ATOM      2  C2  IND d   1      -4.689   1.491   0.379  0.00  0.00     0.054 A 
ATOM      3  C3  IND d   1      -3.964   0.900   1.355  0.00  0.00    -0.031 A 
ATOM      4  C4  IND d   1      -1.455   1.122   1.890  0.00  0.00     0.051 A 
ATOM      5  C5  IND d   1      -0.298   1.676   1.419  0.00  0.00    -0.031 A 
ATOM      6  C6  IND d   1      -0.276   2.468   0.289  0.00  0.00     0.015 A 
ATOM      7  C7  IND d   1      -1.418   2.745  -0.409  0.00  0.00    -0.016 A 
ATOM      8  C8  IND d   1      -2.594   2.179   0.063  0.00  0.00    -0.047 A 
ATOM      9  C9  IND d   1      -2.615   1.340   1.185  0.00  0.00    -0.096 A 
ATOM     10  HN1 IND d   1      -4.135   2.697  -1.111  0.00  0.00     0.298 HD
ENDROOT
TORSDOF 0
ENDMDL
