MODEL 1
REMARK minimizedAffinity -3.60460091
REMARK minimizedRMSD -1
REMARK  0 active torsions:
REMARK  status: ('A' for Active; 'I' for Inactive)
ROOT
ATOM      1  N1  IND d   1      -3.261   2.639   0.362  0.00  0.00    -0.196 N 
ATOM      2  C2  IND d   1      -4.424   1.943   0.544  0.00  0.00     0.054 A 
ATOM      3  C3  IND d   1      -4.160   0.637   0.771  0.00  0.00    -0.031 A 
ATOM      4  C4  IND d   1      -1.890  -0.560   0.986  0.00  0.00     0.051 A 
ATOM      5  C5  IND d   1      -0.546  -0.350   0.861  0.00  0.00    -0.031 A 
ATOM      6  C6  IND d   1      -0.027   0.893   0.560  0.00  0.00     0.015 A 
ATOM      7  C7  IND d   1      -0.836   1.979   0.383  0.00  0.00    -0.016 A 
ATOM      8  C8  IND d   1      -2.203   1.768   0.502  0.00  0.00    -0.047 A 
ATOM      9  C9  IND d   1      -2.738   0.501   0.765  0.00  0.00    -0.096 A 
ATOM     10  HN1 IND d   1      -3.201   3.479   0.189  0.00  0.00     0.298 HD
ENDROOT
TORSDOF 0
ENDMDL
