MODEL 1
REMARK minimizedAffinity 0.61796844
REMARK minimizedRMSD -1
REMARK  0 active torsions:
REMARK  status: ('A' for Active; 'I' for Inactive)
ROOT
ATOM      1  N1  IND d   1      -3.836   2.388   0.888  0.00  0.00    -0.196 N 
ATOM      2  C2  IND d   1      -4.614   1.268   0.789  0.00  0.00     0.054 A 
ATOM      3  C3  IND d   1      -3.839   0.161   0.743  0.00  0.00    -0.031 A 
ATOM      4  C4  IND d   1      -1.280  -0.054   0.918  0.00  0.00     0.051 A 
ATOM      5  C5  IND d   1      -0.138   0.695   0.983  0.00  0.00    -0.031 A 
ATOM      6  C6  IND d   1      -0.171   2.074   1.023  0.00  0.00     0.015 A 
ATOM      7  C7  IND d   1      -1.354   2.758   1.011  0.00  0.00    -0.016 A 
ATOM      8  C8  IND d   1      -2.515   2.002   0.938  0.00  0.00    -0.047 A 
ATOM      9  C9  IND d   1      -2.486   0.604   0.855  0.00  0.00    -0.096 A 
ATOM     10  HN1 IND d   1      -4.124   3.198   0.914  0.00  0.00     0.298 HD
ENDROOT
TORSDOF 0
ENDMDL
