MODEL 1
REMARK minimizedAffinity -1.92321217
REMARK minimizedRMSD -1
REMARK  0 active torsions:
REMARK  status: ('A' for Active; 'I' for Inactive)
ROOT
ATOM      1  N1  IND d   1      -3.077   1.383  -0.262  0.00  0.00    -0.196 N 
ATOM      2  C2  IND d   1      -3.666   0.707   0.769  0.00  0.00     0.054 A 
ATOM      3  C3  IND d   1      -2.756   0.425   1.728  0.00  0.00    -0.031 A 
ATOM      4  C4  IND d   1      -0.266   1.066   1.858  0.00  0.00     0.051 A 
ATOM      5  C5  IND d   1       0.734   1.653   1.136  0.00  0.00    -0.031 A 
ATOM      6  C6  IND d   1       0.510   2.194  -0.114  0.00  0.00     0.015 A 
ATOM      7  C7  IND d   1      -0.730   2.177  -0.685  0.00  0.00    -0.016 A 
ATOM      8  C8  IND d   1      -1.747   1.575   0.043  0.00  0.00    -0.047 A 
ATOM      9  C9  IND d   1      -1.517   0.987   1.293  0.00  0.00    -0.096 A 
ATOM     10  HN1 IND d   1      -3.470   1.644  -0.981  0.00  0.00     0.298 HD
ENDROOT
TORSDOF 0
ENDMDL
