MODEL 1
REMARK minimizedAffinity 6.53187037
REMARK minimizedRMSD -1
REMARK  0 active torsions:
REMARK  status: ('A' for Active; 'I' for Inactive)
ROOT
ATOM      1  N1  IND d   1      -2.645   0.624   2.109  0.00  0.00    -0.196 N 
ATOM      2  C2  IND d   1      -1.887  -0.455   2.468  0.00  0.00     0.054 A 
ATOM      3  C3  IND d   1      -0.689  -0.417   1.843  0.00  0.00    -0.031 A 
ATOM      4  C4  IND d   1       0.277   1.375   0.267  0.00  0.00     0.051 A 
ATOM      5  C5  IND d   1      -0.056   2.529  -0.385  0.00  0.00    -0.031 A 
ATOM      6  C6  IND d   1      -1.294   3.120  -0.234  0.00  0.00     0.015 A 
ATOM      7  C7  IND d   1      -2.244   2.583   0.588  0.00  0.00    -0.016 A 
ATOM      8  C8  IND d   1      -1.912   1.408   1.246  0.00  0.00    -0.047 A 
ATOM      9  C9  IND d   1      -0.673   0.780   1.063  0.00  0.00    -0.096 A 
ATOM     10  HN1 IND d   1      -3.446   0.786   2.377  0.00  0.00     0.298 HD
ENDROOT
TORSDOF 0
ENDMDL
