MODEL 1
REMARK minimizedAffinity 7.53525019
REMARK minimizedRMSD -1
REMARK  0 active torsions:
REMARK  status: ('A' for Active; 'I' for Inactive)
ROOT
ATOM      1  N1  IND d   1       4.269  -1.861  -0.723  0.00  0.00    -0.196 N 
ATOM      2  C2  IND d   1       3.931  -0.854   0.137  0.00  0.00     0.054 A 
ATOM      3  C3  IND d   1       2.967  -1.268   0.990  0.00  0.00    -0.031 A 
ATOM      4  C4  IND d   1       1.871  -3.587   1.218  0.00  0.00     0.051 A 
ATOM      5  C5  IND d   1       1.827  -4.820   0.631  0.00  0.00    -0.031 A 
ATOM      6  C6  IND d   1       2.613  -5.137  -0.459  0.00  0.00     0.015 A 
ATOM      7  C7  IND d   1       3.484  -4.232  -0.996  0.00  0.00    -0.016 A 
ATOM      8  C8  IND d   1       3.526  -2.977  -0.407  0.00  0.00    -0.047 A 
ATOM      9  C9  IND d   1       2.700  -2.635   0.672  0.00  0.00    -0.096 A 
ATOM     10  HN1 IND d   1       4.849  -1.806  -1.356  0.00  0.00     0.298 HD
ENDROOT
TORSDOF 0
ENDMDL
