MODEL 1
REMARK minimizedAffinity -3.15408969
REMARK minimizedRMSD -1
REMARK  0 active torsions:
REMARK  status: ('A' for Active; 'I' for Inactive)
ROOT
ATOM      1  N1  IND d   1      -4.030   0.953   1.229  0.00  0.00    -0.196 N 
ATOM      2  C2  IND d   1      -4.778   2.028   0.837  0.00  0.00     0.054 A 
ATOM      3  C3  IND d   1      -3.989   2.967   0.268  0.00  0.00    -0.031 A 
ATOM      4  C4  IND d   1      -1.462   2.906  -0.216  0.00  0.00     0.051 A 
ATOM      5  C5  IND d   1      -0.343   2.148  -0.008  0.00  0.00    -0.031 A 
ATOM      6  C6  IND d   1      -0.398   0.927   0.633  0.00  0.00     0.015 A 
ATOM      7  C7  IND d   1      -1.581   0.411   1.082  0.00  0.00    -0.016 A 
ATOM      8  C8  IND d   1      -2.718   1.181   0.879  0.00  0.00    -0.047 A 
ATOM      9  C9  IND d   1      -2.662   2.440   0.268  0.00  0.00    -0.096 A 
ATOM     10  HN1 IND d   1      -4.330   0.252   1.627  0.00  0.00     0.298 HD
ENDROOT
TORSDOF 0
ENDMDL
