MODEL 1
REMARK minimizedAffinity -0.358851254
REMARK minimizedRMSD -1
REMARK  0 active torsions:
REMARK  status: ('A' for Active; 'I' for Inactive)
ROOT
ATOM      1  N1  IND d   1       3.014   0.608   2.127  0.00  0.00    -0.196 N 
ATOM      2  C2  IND d   1       3.458   0.413   0.849  0.00  0.00     0.054 A 
ATOM      3  C3  IND d   1       2.510   0.783  -0.040  0.00  0.00    -0.031 A 
ATOM      4  C4  IND d   1       0.194   1.828   0.378  0.00  0.00     0.051 A 
ATOM      5  C5  IND d   1      -0.671   2.164   1.381  0.00  0.00    -0.031 A 
ATOM      6  C6  IND d   1      -0.344   1.997   2.712  0.00  0.00     0.015 A 
ATOM      7  C7  IND d   1       0.870   1.497   3.090  0.00  0.00    -0.016 A 
ATOM      8  C8  IND d   1       1.748   1.148   2.074  0.00  0.00    -0.047 A 
ATOM      9  C9  IND d   1       1.406   1.275   0.721  0.00  0.00    -0.096 A 
ATOM     10  HN1 IND d   1       3.451   0.423   2.844  0.00  0.00     0.298 HD
ENDROOT
TORSDOF 0
ENDMDL
