MODEL 1
REMARK minimizedAffinity -3.71794271
REMARK minimizedRMSD -1
REMARK  0 active torsions:
REMARK  status: ('A' for Active; 'I' for Inactive)
ROOT
ATOM      1  N1  IND d   1      -3.801   2.906  -0.103  0.00  0.00    -0.196 N 
ATOM      2  C2  IND d   1      -4.926   2.293   0.375  0.00  0.00     0.054 A 
ATOM      3  C3  IND d   1      -4.613   1.099   0.925  0.00  0.00    -0.031 A 
ATOM      4  C4  IND d   1      -2.308  -0.004   1.241  0.00  0.00     0.051 A 
ATOM      5  C5  IND d   1      -0.986   0.157   0.934  0.00  0.00    -0.031 A 
ATOM      6  C6  IND d   1      -0.525   1.266   0.254  0.00  0.00     0.015 A 
ATOM      7  C7  IND d   1      -1.372   2.266  -0.135  0.00  0.00    -0.016 A 
ATOM      8  C8  IND d   1      -2.716   2.102   0.168  0.00  0.00    -0.047 A 
ATOM      9  C9  IND d   1      -3.196   0.959   0.820  0.00  0.00    -0.096 A 
ATOM     10  HN1 IND d   1      -3.776   3.665  -0.505  0.00  0.00     0.298 HD
ENDROOT
TORSDOF 0
ENDMDL
