MODEL 1
REMARK minimizedAffinity 0.532391608
REMARK minimizedRMSD -1
REMARK  0 active torsions:
REMARK  status: ('A' for Active; 'I' for Inactive)
ROOT
ATOM      1  N1  IND d   1      -4.255   3.087   0.448  0.00  0.00    -0.196 N 
ATOM      2  C2  IND d   1      -5.053   2.021   0.758  0.00  0.00     0.054 A 
ATOM      3  C3  IND d   1      -4.310   0.900   0.890  0.00  0.00    -0.031 A 
ATOM      4  C4  IND d   1      -1.757   0.603   0.744  0.00  0.00     0.051 A 
ATOM      5  C5  IND d   1      -0.609   1.282   0.446  0.00  0.00    -0.031 A 
ATOM      6  C6  IND d   1      -0.617   2.625   0.130  0.00  0.00     0.015 A 
ATOM      7  C7  IND d   1      -1.778   3.345   0.111  0.00  0.00    -0.016 A 
ATOM      8  C8  IND d   1      -2.947   2.657   0.406  0.00  0.00    -0.047 A 
ATOM      9  C9  IND d   1      -2.950   1.285   0.686  0.00  0.00    -0.096 A 
ATOM     10  HN1 IND d   1      -4.525   3.891   0.304  0.00  0.00     0.298 HD
ENDROOT
TORSDOF 0
ENDMDL
