MODEL 1
REMARK minimizedAffinity -2.46976709
REMARK minimizedRMSD -1
REMARK  0 active torsions:
REMARK  status: ('A' for Active; 'I' for Inactive)
ROOT
ATOM      1  N1  IND d   1      -3.424   2.279   0.170  0.00  0.00    -0.196 N 
ATOM      2  C2  IND d   1      -4.440   1.488   0.630  0.00  0.00     0.054 A 
ATOM      3  C3  IND d   1      -3.945   0.348   1.161  0.00  0.00    -0.031 A 
ATOM      4  C4  IND d   1      -1.496  -0.383   1.471  0.00  0.00     0.051 A 
ATOM      5  C5  IND d   1      -0.215  -0.010   1.175  0.00  0.00    -0.031 A 
ATOM      6  C6  IND d   1       0.068   1.170   0.518  0.00  0.00     0.015 A 
ATOM      7  C7  IND d   1      -0.924   2.031   0.141  0.00  0.00    -0.016 A 
ATOM      8  C8  IND d   1      -2.227   1.652   0.433  0.00  0.00    -0.047 A 
ATOM      9  C9  IND d   1      -2.522   0.435   1.062  0.00  0.00    -0.096 A 
ATOM     10  HN1 IND d   1      -3.518   3.040  -0.219  0.00  0.00     0.298 HD
ENDROOT
TORSDOF 0
ENDMDL
