MODEL 1
REMARK minimizedAffinity 4.84222269
REMARK minimizedRMSD -1
REMARK  0 active torsions:
REMARK  status: ('A' for Active; 'I' for Inactive)
ROOT
ATOM      1  N1  IND d   1      -2.804   2.294   1.100  0.00  0.00    -0.196 N 
ATOM      2  C2  IND d   1      -2.715   3.138   0.028  0.00  0.00     0.054 A 
ATOM      3  C3  IND d   1      -1.480   3.075  -0.519  0.00  0.00    -0.031 A 
ATOM      4  C4  IND d   1       0.518   1.582   0.120  0.00  0.00     0.051 A 
ATOM      5  C5  IND d   1       0.928   0.674   1.055  0.00  0.00    -0.031 A 
ATOM      6  C6  IND d   1       0.098   0.248   2.071  0.00  0.00     0.015 A 
ATOM      7  C7  IND d   1      -1.184   0.709   2.185  0.00  0.00    -0.016 A 
ATOM      8  C8  IND d   1      -1.601   1.637   1.241  0.00  0.00    -0.047 A 
ATOM      9  C9  IND d   1      -0.749   2.105   0.233  0.00  0.00    -0.096 A 
ATOM     10  HN1 IND d   1      -3.495   2.191   1.601  0.00  0.00     0.298 HD
ENDROOT
TORSDOF 0
ENDMDL
