MODEL 1
REMARK minimizedAffinity -0.832630932
REMARK minimizedRMSD -1
REMARK  0 active torsions:
REMARK  status: ('A' for Active; 'I' for Inactive)
ROOT
ATOM      1  N1  IND d   1      -3.760   3.038   0.687  0.00  0.00    -0.196 N 
ATOM      2  C2  IND d   1      -4.917   2.378   0.993  0.00  0.00     0.054 A 
ATOM      3  C3  IND d   1      -4.647   1.111   1.381  0.00  0.00    -0.031 A 
ATOM      4  C4  IND d   1      -2.373  -0.057   1.684  0.00  0.00     0.051 A 
ATOM      5  C5  IND d   1      -1.032   0.129   1.493  0.00  0.00    -0.031 A 
ATOM      6  C6  IND d   1      -0.522   1.319   1.017  0.00  0.00     0.015 A 
ATOM      7  C7  IND d   1      -1.336   2.376   0.723  0.00  0.00    -0.016 A 
ATOM      8  C8  IND d   1      -2.698   2.189   0.909  0.00  0.00    -0.047 A 
ATOM      9  C9  IND d   1      -3.226   0.969   1.352  0.00  0.00    -0.096 A 
ATOM     10  HN1 IND d   1      -3.704   3.848   0.403  0.00  0.00     0.298 HD
ENDROOT
TORSDOF 0
ENDMDL
