MODEL 1
REMARK minimizedAffinity -2.14749813
REMARK minimizedRMSD -1
REMARK  0 active torsions:
REMARK  status: ('A' for Active; 'I' for Inactive)
ROOT
ATOM      1  N1  IND d   1      -0.651   2.783   0.323  0.00  0.00    -0.196 N 
ATOM      2  C2  IND d   1       0.402   1.991   0.688  0.00  0.00     0.054 A 
ATOM      3  C3  IND d   1      -0.023   0.735   0.952  0.00  0.00    -0.031 A 
ATOM      4  C4  IND d   1      -2.386  -0.268   0.751  0.00  0.00     0.051 A 
ATOM      5  C5  IND d   1      -3.683   0.074   0.489  0.00  0.00    -0.031 A 
ATOM      6  C6  IND d   1      -4.042   1.362   0.149  0.00  0.00     0.015 A 
ATOM      7  C7  IND d   1      -3.113   2.358   0.046  0.00  0.00    -0.016 A 
ATOM      8  C8  IND d   1      -1.796   2.016   0.318  0.00  0.00    -0.047 A 
ATOM      9  C9  IND d   1      -1.430   0.720   0.706  0.00  0.00    -0.096 A 
ATOM     10  HN1 IND d   1      -0.607   3.619   0.129  0.00  0.00     0.298 HD
ENDROOT
TORSDOF 0
ENDMDL
