MODEL 1
REMARK minimizedAffinity -3.86356759
REMARK minimizedRMSD -1
REMARK  0 active torsions:
REMARK  status: ('A' for Active; 'I' for Inactive)
ROOT
ATOM      1  C   UNL d   1       1.920  -4.233   1.085  0.00  0.00     0.078 C 
ATOM      2  C1  UNL d   1       1.116  -2.968   1.118  0.00  0.00    -0.077 A 
ATOM      3  C2  UNL d   1       0.427  -2.581   2.274  0.00  0.00    -0.001 A 
ATOM      4  C3  UNL d   1      -0.325  -1.406   2.288  0.00  0.00     0.003 A 
ATOM      5  C4  UNL d   1      -0.397  -0.608   1.148  0.00  0.00    -0.005 A 
ATOM      6  C5  UNL d   1       0.283  -0.985  -0.008  0.00  0.00     0.003 A 
ATOM      7  C6  UNL d   1       1.036  -2.160  -0.023  0.00  0.00    -0.001 A 
ENDROOT
TORSDOF 0
ENDMDL
