MODEL 1
REMARK minimizedAffinity -3.1413095
REMARK minimizedRMSD -1
REMARK  0 active torsions:
REMARK  status: ('A' for Active; 'I' for Inactive)
ROOT
ATOM      1  C   UNL d   1       3.427   5.998   2.241  0.00  0.00     0.078 C 
ATOM      2  C1  UNL d   1       2.578   5.995   3.477  0.00  0.00    -0.077 A 
ATOM      3  C2  UNL d   1       3.159   5.996   4.751  0.00  0.00    -0.001 A 
ATOM      4  C3  UNL d   1       2.356   5.983   5.893  0.00  0.00     0.003 A 
ATOM      5  C4  UNL d   1       0.968   5.969   5.772  0.00  0.00    -0.005 A 
ATOM      6  C5  UNL d   1       0.381   5.966   4.509  0.00  0.00     0.003 A 
ATOM      7  C6  UNL d   1       1.182   5.978   3.366  0.00  0.00    -0.001 A 
ENDROOT
TORSDOF 0
ENDMDL
