MODEL 1
REMARK minimizedAffinity -4.36061287
REMARK minimizedRMSD -1
REMARK  0 active torsions:
REMARK  status: ('A' for Active; 'I' for Inactive)
ROOT
ATOM      1  C   UNL d   1       0.678  -1.237  -0.863  0.00  0.00     0.078 C 
ATOM      2  C1  UNL d   1      -0.485  -1.141   0.078  0.00  0.00    -0.077 A 
ATOM      3  C2  UNL d   1      -0.369  -1.547   1.413  0.00  0.00    -0.001 A 
ATOM      4  C3  UNL d   1      -1.463  -1.460   2.275  0.00  0.00     0.003 A 
ATOM      5  C4  UNL d   1      -2.682  -0.969   1.811  0.00  0.00    -0.005 A 
ATOM      6  C5  UNL d   1      -2.808  -0.565   0.484  0.00  0.00     0.003 A 
ATOM      7  C6  UNL d   1      -1.715  -0.651  -0.380  0.00  0.00    -0.001 A 
ENDROOT
TORSDOF 0
ENDMDL
