MODEL 1
REMARK minimizedAffinity -2.20191598
REMARK minimizedRMSD -1
REMARK  0 active torsions:
REMARK  status: ('A' for Active; 'I' for Inactive)
ROOT
ATOM      1  C   UNL d   1       2.028  -4.258   1.974  0.00  0.00     0.078 C 
ATOM      2  C1  UNL d   1       0.788  -3.606   2.508  0.00  0.00    -0.077 A 
ATOM      3  C2  UNL d   1      -0.226  -4.364   3.106  0.00  0.00    -0.001 A 
ATOM      4  C3  UNL d   1      -1.379  -3.744   3.590  0.00  0.00     0.003 A 
ATOM      5  C4  UNL d   1      -1.530  -2.363   3.481  0.00  0.00    -0.005 A 
ATOM      6  C5  UNL d   1      -0.527  -1.601   2.885  0.00  0.00     0.003 A 
ATOM      7  C6  UNL d   1       0.626  -2.219   2.401  0.00  0.00    -0.001 A 
ENDROOT
TORSDOF 0
ENDMDL
