MODEL 1
REMARK minimizedAffinity -4.21334743
REMARK minimizedRMSD -1
REMARK  0 active torsions:
REMARK  status: ('A' for Active; 'I' for Inactive)
ROOT
ATOM      1  C   UNL d   1      -1.025  -0.215   1.575  0.00  0.00     0.078 C 
ATOM      2  C1  UNL d   1      -0.170  -1.447   1.577  0.00  0.00    -0.077 A 
ATOM      3  C2  UNL d   1       0.795  -1.657   0.585  0.00  0.00    -0.001 A 
ATOM      4  C3  UNL d   1       1.577  -2.813   0.594  0.00  0.00     0.003 A 
ATOM      5  C4  UNL d   1       1.402  -3.769   1.593  0.00  0.00    -0.005 A 
ATOM      6  C5  UNL d   1       0.442  -3.569   2.584  0.00  0.00     0.003 A 
ATOM      7  C6  UNL d   1      -0.341  -2.414   2.576  0.00  0.00    -0.001 A 
ENDROOT
TORSDOF 0
ENDMDL
