MODEL 1
REMARK minimizedAffinity -1.66344631
REMARK minimizedRMSD -1
REMARK  0 active torsions:
REMARK  status: ('A' for Active; 'I' for Inactive)
ROOT
ATOM      1  C   UNL d   1      -4.772   0.811   2.940  0.00  0.00     0.078 C 
ATOM      2  C1  UNL d   1      -3.378   0.350   2.635  0.00  0.00    -0.077 A 
ATOM      3  C2  UNL d   1      -2.589  -0.261   3.618  0.00  0.00    -0.001 A 
ATOM      4  C3  UNL d   1      -1.290  -0.676   3.323  0.00  0.00     0.003 A 
ATOM      5  C4  UNL d   1      -0.767  -0.485   2.045  0.00  0.00    -0.005 A 
ATOM      6  C5  UNL d   1      -1.543   0.124   1.061  0.00  0.00     0.003 A 
ATOM      7  C6  UNL d   1      -2.843   0.541   1.355  0.00  0.00    -0.001 A 
ENDROOT
TORSDOF 0
ENDMDL
