MODEL 1
REMARK minimizedAffinity 0.50534451
REMARK minimizedRMSD -1
REMARK  0 active torsions:
REMARK  status: ('A' for Active; 'I' for Inactive)
ROOT
ATOM      1  C   UNL d   1       1.462  -1.134  -0.474  0.00  0.00     0.078 C 
ATOM      2  C1  UNL d   1       0.207  -0.716   0.233  0.00  0.00    -0.077 A 
ATOM      3  C2  UNL d   1       0.010  -1.013   1.587  0.00  0.00    -0.001 A 
ATOM      4  C3  UNL d   1      -1.168  -0.626   2.230  0.00  0.00     0.003 A 
ATOM      5  C4  UNL d   1      -2.157   0.057   1.526  0.00  0.00    -0.005 A 
ATOM      6  C5  UNL d   1      -1.970   0.355   0.178  0.00  0.00     0.003 A 
ATOM      7  C6  UNL d   1      -0.794  -0.031  -0.467  0.00  0.00    -0.001 A 
ENDROOT
TORSDOF 0
ENDMDL
