MODEL 1
REMARK minimizedAffinity 3.60379863
REMARK minimizedRMSD -1
REMARK  0 active torsions:
REMARK  status: ('A' for Active; 'I' for Inactive)
ROOT
ATOM      1  C   UNL d   1       0.302  -0.723  -0.539  0.00  0.00     0.078 C 
ATOM      2  C1  UNL d   1      -0.806  -0.610   0.465  0.00  0.00    -0.077 A 
ATOM      3  C2  UNL d   1      -2.108  -1.019   0.150  0.00  0.00    -0.001 A 
ATOM      4  C3  UNL d   1      -3.132  -0.899   1.091  0.00  0.00     0.003 A 
ATOM      5  C4  UNL d   1      -2.866  -0.370   2.352  0.00  0.00    -0.005 A 
ATOM      6  C5  UNL d   1      -1.574   0.042   2.673  0.00  0.00     0.003 A 
ATOM      7  C6  UNL d   1      -0.549  -0.077   1.734  0.00  0.00    -0.001 A 
ENDROOT
TORSDOF 0
ENDMDL
