MODEL 1
REMARK minimizedAffinity -3.26772261
REMARK minimizedRMSD -1
REMARK  0 active torsions:
REMARK  status: ('A' for Active; 'I' for Inactive)
ROOT
ATOM      1  C1  BNZ d   1      -3.745  -1.180  -3.858  0.00  0.00     0.000 A 
ATOM      2  C2  BNZ d   1      -5.012  -0.707  -3.644  0.00  0.00     0.000 A 
ATOM      3  C3  BNZ d   1      -5.597   0.154  -4.530  0.00  0.00     0.000 A 
ATOM      4  C4  BNZ d   1      -4.900   0.572  -5.606  0.00  0.00     0.000 A 
ATOM      5  C5  BNZ d   1      -3.618   0.112  -5.831  0.00  0.00     0.000 A 
ATOM      6  C6  BNZ d   1      -3.047  -0.785  -4.957  0.00  0.00     0.000 A 
ENDROOT
TORSDOF 0
ENDMDL
