MODEL 1
REMARK minimizedAffinity -3.76160526
REMARK minimizedRMSD -1
REMARK  0 active torsions:
REMARK  status: ('A' for Active; 'I' for Inactive)
ROOT
ATOM      1  C1  BNZ d   1      -5.358   0.071  -5.223  0.00  0.00     0.000 A 
ATOM      2  C2  BNZ d   1      -5.448  -0.806  -4.175  0.00  0.00     0.000 A 
ATOM      3  C3  BNZ d   1      -4.328  -1.394  -3.657  0.00  0.00     0.000 A 
ATOM      4  C4  BNZ d   1      -3.126  -1.136  -4.213  0.00  0.00     0.000 A 
ATOM      5  C5  BNZ d   1      -3.021  -0.262  -5.276  0.00  0.00     0.000 A 
ATOM      6  C6  BNZ d   1      -4.145   0.359  -5.769  0.00  0.00     0.000 A 
ENDROOT
TORSDOF 0
ENDMDL
