MODEL 1
REMARK minimizedAffinity 2.99821067
REMARK minimizedRMSD -1
REMARK  0 active torsions:
REMARK  status: ('A' for Active; 'I' for Inactive)
ROOT
ATOM      1  C1  BNZ d   1       3.162  -1.028  -0.233  0.00  0.00     0.000 A 
ATOM      2  C2  BNZ d   1       3.958   0.084  -0.298  0.00  0.00     0.000 A 
ATOM      3  C3  BNZ d   1       3.507   1.295   0.149  0.00  0.00     0.000 A 
ATOM      4  C4  BNZ d   1       2.249   1.400   0.623  0.00  0.00     0.000 A 
ATOM      5  C5  BNZ d   1       1.430   0.290   0.686  0.00  0.00     0.000 A 
ATOM      6  C6  BNZ d   1       1.901  -0.935   0.271  0.00  0.00     0.000 A 
ENDROOT
TORSDOF 0
ENDMDL
