MODEL 1
REMARK minimizedAffinity -3.60148478
REMARK minimizedRMSD -1
REMARK  0 active torsions:
REMARK  status: ('A' for Active; 'I' for Inactive)
ROOT
ATOM      1  C1  BNZ d   1      -2.806  -1.140  -4.268  0.00  0.00     0.000 A 
ATOM      2  C2  BNZ d   1      -4.042  -1.339  -3.715  0.00  0.00     0.000 A 
ATOM      3  C3  BNZ d   1      -5.135  -0.663  -4.182  0.00  0.00     0.000 A 
ATOM      4  C4  BNZ d   1      -4.983   0.238  -5.174  0.00  0.00     0.000 A 
ATOM      5  C5  BNZ d   1      -3.741   0.456  -5.736  0.00  0.00     0.000 A 
ATOM      6  C6  BNZ d   1      -2.650  -0.254  -5.289  0.00  0.00     0.000 A 
ENDROOT
TORSDOF 0
ENDMDL
