MODEL 1
REMARK minimizedAffinity 0.75729841
REMARK minimizedRMSD -1
REMARK  0 active torsions:
REMARK  status: ('A' for Active; 'I' for Inactive)
ROOT
ATOM      1  C1  BNZ d   1       4.261  -5.351   4.427  0.00  0.00     0.000 A 
ATOM      2  C2  BNZ d   1       4.488  -4.962   5.720  0.00  0.00     0.000 A 
ATOM      3  C3  BNZ d   1       5.279  -3.882   5.998  0.00  0.00     0.000 A 
ATOM      4  C4  BNZ d   1       5.874  -3.218   4.985  0.00  0.00     0.000 A 
ATOM      5  C5  BNZ d   1       5.662  -3.604   3.677  0.00  0.00     0.000 A 
ATOM      6  C6  BNZ d   1       4.834  -4.668   3.399  0.00  0.00     0.000 A 
ENDROOT
TORSDOF 0
ENDMDL
