MODEL 1
REMARK minimizedAffinity 3.48194718
REMARK minimizedRMSD -1
REMARK  0 active torsions:
REMARK  status: ('A' for Active; 'I' for Inactive)
ROOT
ATOM      1  C1  BNZ d   1      -5.989   0.768  -4.505  0.00  0.00     0.000 A 
ATOM      2  C2  BNZ d   1      -5.631   1.497  -5.608  0.00  0.00     0.000 A 
ATOM      3  C3  BNZ d   1      -4.321   1.595  -5.987  0.00  0.00     0.000 A 
ATOM      4  C4  BNZ d   1      -3.369   1.000  -5.241  0.00  0.00     0.000 A 
ATOM      5  C5  BNZ d   1      -3.713   0.270  -4.121  0.00  0.00     0.000 A 
ATOM      6  C6  BNZ d   1      -5.035   0.140  -3.765  0.00  0.00     0.000 A 
ENDROOT
TORSDOF 0
ENDMDL
