MODEL 1
REMARK minimizedAffinity -1.50772965
REMARK minimizedRMSD -1
REMARK  0 active torsions:
REMARK  status: ('A' for Active; 'I' for Inactive)
ROOT
ATOM      1  C1  BNZ d   1       6.000  -2.249   5.040  0.00  0.00     0.000 A 
ATOM      2  C2  BNZ d   1       5.769  -2.541   3.722  0.00  0.00     0.000 A 
ATOM      3  C3  BNZ d   1       5.255  -3.753   3.353  0.00  0.00     0.000 A 
ATOM      4  C4  BNZ d   1       5.011  -4.685   4.296  0.00  0.00     0.000 A 
ATOM      5  C5  BNZ d   1       5.248  -4.409   5.628  0.00  0.00     0.000 A 
ATOM      6  C6  BNZ d   1       5.728  -3.175   6.000  0.00  0.00     0.000 A 
ENDROOT
TORSDOF 0
ENDMDL
