MODEL 1
REMARK minimizedAffinity -0.767606199
REMARK minimizedRMSD -1
REMARK  0 active torsions:
REMARK  status: ('A' for Active; 'I' for Inactive)
ROOT
ATOM      1  C1  BNZ d   1      -4.781   0.325  -4.852  0.00  0.00     0.000 A 
ATOM      2  C2  BNZ d   1      -4.952  -0.408  -3.708  0.00  0.00     0.000 A 
ATOM      3  C3  BNZ d   1      -3.957  -1.223  -3.244  0.00  0.00     0.000 A 
ATOM      4  C4  BNZ d   1      -2.810  -1.334  -3.945  0.00  0.00     0.000 A 
ATOM      5  C5  BNZ d   1      -2.627  -0.609  -5.105  0.00  0.00     0.000 A 
ATOM      6  C6  BNZ d   1      -3.615   0.240  -5.548  0.00  0.00     0.000 A 
ENDROOT
TORSDOF 0
ENDMDL
