MODEL 1
REMARK minimizedAffinity -1.42012894
REMARK minimizedRMSD -1
REMARK  0 active torsions:
REMARK  status: ('A' for Active; 'I' for Inactive)
ROOT
ATOM      1  C1  BNZ d   1       3.605  -3.423   1.187  0.00  0.00     0.000 A 
ATOM      2  C2  BNZ d   1       2.425  -2.858   0.784  0.00  0.00     0.000 A 
ATOM      3  C3  BNZ d   1       2.408  -1.645   0.154  0.00  0.00     0.000 A 
ATOM      4  C4  BNZ d   1       3.566  -0.981  -0.037  0.00  0.00     0.000 A 
ATOM      5  C5  BNZ d   1       4.764  -1.533   0.372  0.00  0.00     0.000 A 
ATOM      6  C6  BNZ d   1       4.781  -2.772   0.971  0.00  0.00     0.000 A 
ENDROOT
TORSDOF 0
ENDMDL
