MODEL 1
REMARK minimizedAffinity 2.12295294
REMARK minimizedRMSD -1
REMARK  0 active torsions:
REMARK  status: ('A' for Active; 'I' for Inactive)
ROOT
ATOM      1  C   UNL d   1       1.493   3.814  -0.720  0.00  0.00     0.078 C 
ATOM      2  C1  UNL d   1       1.826   2.556   0.025  0.00  0.00    -0.077 A 
ATOM      3  C2  UNL d   1       0.847   1.870   0.755  0.00  0.00    -0.001 A 
ATOM      4  C3  UNL d   1       1.174   0.706   1.452  0.00  0.00     0.003 A 
ATOM      5  C4  UNL d   1       2.479   0.218   1.427  0.00  0.00    -0.005 A 
ATOM      6  C5  UNL d   1       3.459   0.895   0.705  0.00  0.00     0.003 A 
ATOM      7  C6  UNL d   1       3.135   2.059   0.007  0.00  0.00    -0.001 A 
ENDROOT
TORSDOF 0
ENDMDL
