MODEL 1
REMARK minimizedAffinity 0.90620482
REMARK minimizedRMSD -1
REMARK  0 active torsions:
REMARK  status: ('A' for Active; 'I' for Inactive)
ROOT
ATOM      1  C   UNL d   1       0.881  -2.211   2.629  0.00  0.00     0.078 C 
ATOM      2  C1  UNL d   1       1.131  -1.041   1.725  0.00  0.00    -0.077 A 
ATOM      3  C2  UNL d   1       1.789  -1.203   0.499  0.00  0.00    -0.001 A 
ATOM      4  C3  UNL d   1       2.023  -0.103  -0.327  0.00  0.00     0.003 A 
ATOM      5  C4  UNL d   1       1.604   1.167   0.063  0.00  0.00    -0.005 A 
ATOM      6  C5  UNL d   1       0.951   1.339   1.282  0.00  0.00     0.003 A 
ATOM      7  C6  UNL d   1       0.716   0.240   2.110  0.00  0.00    -0.001 A 
ENDROOT
TORSDOF 0
ENDMDL
