MODEL 1
REMARK minimizedAffinity -2.61428905
REMARK minimizedRMSD -1
REMARK  0 active torsions:
REMARK  status: ('A' for Active; 'I' for Inactive)
ROOT
ATOM      1  C   UNL d   1       1.849  -1.236   3.813  0.00  0.00     0.078 C 
ATOM      2  C1  UNL d   1       1.562  -0.520   2.527  0.00  0.00    -0.077 A 
ATOM      3  C2  UNL d   1       2.252   0.649   2.182  0.00  0.00    -0.001 A 
ATOM      4  C3  UNL d   1       1.967   1.310   0.987  0.00  0.00     0.003 A 
ATOM      5  C4  UNL d   1       0.990   0.812   0.127  0.00  0.00    -0.005 A 
ATOM      6  C5  UNL d   1       0.297  -0.349   0.463  0.00  0.00     0.003 A 
ATOM      7  C6  UNL d   1       0.580  -1.012   1.658  0.00  0.00    -0.001 A 
ENDROOT
TORSDOF 0
ENDMDL
