MODEL 1
REMARK minimizedAffinity 2.16184759
REMARK minimizedRMSD -1
REMARK  1 active torsions:
REMARK  status: ('A' for Active; 'I' for Inactive)
REMARK    1  A    between atoms: C1_2  and  C2_3 
ROOT
ATOM      1  C2  UNL d   1       3.638   1.577  -0.659  0.00  0.00    -0.077 A 
ATOM      2  C3  UNL d   1       2.632   0.895  -1.357  0.00  0.00     0.002 A 
ATOM      3  C4  UNL d   1       2.663   0.822  -2.751  0.00  0.00     0.002 A 
ATOM      4  C5  UNL d   1       3.701   1.425  -3.458  0.00  0.00    -0.004 A 
ATOM      5  C6  UNL d   1       4.706   2.108  -2.774  0.00  0.00     0.002 A 
ATOM      6  C7  UNL d   1       4.675   2.183  -1.381  0.00  0.00     0.002 A 
ENDROOT
BRANCH   1   7
ATOM      7  C1  UNL d   1       3.633   1.615   0.846  0.00  0.00     0.055 C 
ATOM      8  C   UNL d   1       4.105   0.293   1.435  0.00  0.00     0.019 C 
ENDBRANCH   1   7
TORSDOF 1
ENDMDL
