MODEL 1
REMARK minimizedAffinity 8.87084866
REMARK minimizedRMSD -1
REMARK  1 active torsions:
REMARK  status: ('A' for Active; 'I' for Inactive)
REMARK    1  A    between atoms: C1_2  and  C2_3 
ROOT
ATOM      1  C2  UNL d   1      -0.488  -1.390   1.691  0.00  0.00    -0.077 A 
ATOM      2  C3  UNL d   1      -1.016  -2.343   0.808  0.00  0.00     0.002 A 
ATOM      3  C4  UNL d   1      -2.327  -2.226   0.343  0.00  0.00     0.002 A 
ATOM      4  C5  UNL d   1      -3.120  -1.155   0.751  0.00  0.00    -0.004 A 
ATOM      5  C6  UNL d   1      -2.605  -0.203   1.631  0.00  0.00     0.002 A 
ATOM      6  C7  UNL d   1      -1.295  -0.320   2.097  0.00  0.00     0.002 A 
ENDROOT
BRANCH   1   7
ATOM      7  C1  UNL d   1       0.942  -1.488   2.155  0.00  0.00     0.055 C 
ATOM      8  C   UNL d   1       1.034  -2.133   3.530  0.00  0.00     0.019 C 
ENDBRANCH   1   7
TORSDOF 1
ENDMDL
