MODEL 1
REMARK minimizedAffinity -0.305873066
REMARK minimizedRMSD -1
REMARK  1 active torsions:
REMARK  status: ('A' for Active; 'I' for Inactive)
REMARK    1  A    between atoms: C1_2  and  C2_3 
ROOT
ATOM      1  C2  UNL d   1       4.588   2.729   0.947  0.00  0.00    -0.077 A 
ATOM      2  C3  UNL d   1       4.051   2.820   2.239  0.00  0.00     0.002 A 
ATOM      3  C4  UNL d   1       4.180   3.998   2.977  0.00  0.00     0.002 A 
ATOM      4  C5  UNL d   1       4.841   5.096   2.429  0.00  0.00    -0.004 A 
ATOM      5  C6  UNL d   1       5.380   5.015   1.146  0.00  0.00     0.002 A 
ATOM      6  C7  UNL d   1       5.253   3.838   0.408  0.00  0.00     0.002 A 
ENDROOT
BRANCH   1   7
ATOM      7  C1  UNL d   1       4.407   1.476   0.132  0.00  0.00     0.055 C 
ATOM      8  C   UNL d   1       3.780   0.363   0.958  0.00  0.00     0.019 C 
ENDBRANCH   1   7
TORSDOF 1
ENDMDL
