MODEL 1
REMARK minimizedAffinity 19.5645218
REMARK minimizedRMSD -1
REMARK  1 active torsions:
REMARK  status: ('A' for Active; 'I' for Inactive)
REMARK    1  A    between atoms: C1_2  and  C2_3 
ROOT
ATOM      1  C2  UNL d   1       3.936  -0.743   0.554  0.00  0.00    -0.077 A 
ATOM      2  C3  UNL d   1       2.585  -0.986   0.268  0.00  0.00     0.002 A 
ATOM      3  C4  UNL d   1       1.684   0.076   0.163  0.00  0.00     0.002 A 
ATOM      4  C5  UNL d   1       2.125   1.386   0.336  0.00  0.00    -0.004 A 
ATOM      5  C6  UNL d   1       3.466   1.637   0.622  0.00  0.00     0.002 A 
ATOM      6  C7  UNL d   1       4.368   0.578   0.730  0.00  0.00     0.002 A 
ENDROOT
BRANCH   1   7
ATOM      7  C1  UNL d   1       4.919  -1.883   0.619  0.00  0.00     0.055 C 
ATOM      8  C   UNL d   1       4.247  -3.213   0.311  0.00  0.00     0.019 C 
ENDBRANCH   1   7
TORSDOF 1
ENDMDL
