MODEL 1
REMARK minimizedAffinity 8.70521355
REMARK minimizedRMSD -1
REMARK  1 active torsions:
REMARK  status: ('A' for Active; 'I' for Inactive)
REMARK    1  A    between atoms: C1_2  and  C2_3 
ROOT
ATOM      1  C2  UNL d   1      -0.534  -1.485   0.867  0.00  0.00    -0.077 A 
ATOM      2  C3  UNL d   1      -1.489  -1.956  -0.045  0.00  0.00     0.002 A 
ATOM      3  C4  UNL d   1      -2.626  -1.199  -0.331  0.00  0.00     0.002 A 
ATOM      4  C5  UNL d   1      -2.817   0.035   0.287  0.00  0.00    -0.004 A 
ATOM      5  C6  UNL d   1      -1.875   0.511   1.197  0.00  0.00     0.002 A 
ATOM      6  C7  UNL d   1      -0.738  -0.245   1.485  0.00  0.00     0.002 A 
ENDROOT
BRANCH   1   7
ATOM      7  C1  UNL d   1       0.717  -2.278   1.140  0.00  0.00     0.055 C 
ATOM      8  C   UNL d   1       1.030  -2.325   2.629  0.00  0.00     0.019 C 
ENDBRANCH   1   7
TORSDOF 1
ENDMDL
