MODEL 1
REMARK minimizedAffinity 1.07246423
REMARK minimizedRMSD -1
REMARK  1 active torsions:
REMARK  status: ('A' for Active; 'I' for Inactive)
REMARK    1  A    between atoms: C1_2  and  C2_3 
ROOT
ATOM      1  C2  UNL d   1      -0.551   0.279   0.131  0.00  0.00    -0.077 A 
ATOM      2  C3  UNL d   1       0.765   0.297  -0.351  0.00  0.00     0.002 A 
ATOM      3  C4  UNL d   1       1.640  -0.750  -0.056  0.00  0.00     0.002 A 
ATOM      4  C5  UNL d   1       1.208  -1.824   0.719  0.00  0.00    -0.004 A 
ATOM      5  C6  UNL d   1      -0.099  -1.850   1.205  0.00  0.00     0.002 A 
ATOM      6  C7  UNL d   1      -0.975  -0.804   0.912  0.00  0.00     0.002 A 
ENDROOT
BRANCH   1   7
ATOM      7  C1  UNL d   1      -1.512   1.383  -0.228  0.00  0.00     0.055 C 
ATOM      8  C   UNL d   1      -2.406   0.982  -1.392  0.00  0.00     0.019 C 
ENDBRANCH   1   7
TORSDOF 1
ENDMDL
