MODEL 1
REMARK minimizedAffinity 8.48726273
REMARK minimizedRMSD -1
REMARK  1 active torsions:
REMARK  status: ('A' for Active; 'I' for Inactive)
REMARK    1  A    between atoms: C1_2  and  C2_3 
ROOT
ATOM      1  C2  UNL d   1       2.971  -0.071   0.363  0.00  0.00    -0.077 A 
ATOM      2  C3  UNL d   1       4.243  -0.661   0.345  0.00  0.00     0.002 A 
ATOM      3  C4  UNL d   1       4.377  -2.046   0.225  0.00  0.00     0.002 A 
ATOM      4  C5  UNL d   1       3.244  -2.850   0.118  0.00  0.00    -0.004 A 
ATOM      5  C6  UNL d   1       1.975  -2.273   0.137  0.00  0.00     0.002 A 
ATOM      6  C7  UNL d   1       1.839  -0.889   0.258  0.00  0.00     0.002 A 
ENDROOT
BRANCH   1   7
ATOM      7  C1  UNL d   1       2.826   1.427   0.443  0.00  0.00     0.055 C 
ATOM      8  C   UNL d   1       4.183   2.113   0.492  0.00  0.00     0.019 C 
ENDBRANCH   1   7
TORSDOF 1
ENDMDL
