MODEL 1
REMARK minimizedAffinity 0.345829219
REMARK minimizedRMSD -1
REMARK  1 active torsions:
REMARK  status: ('A' for Active; 'I' for Inactive)
REMARK    1  A    between atoms: C1_2  and  C2_3 
ROOT
ATOM      1  C2  UNL d   1      -2.542   0.456   2.567  0.00  0.00    -0.077 A 
ATOM      2  C3  UNL d   1      -1.319  -0.037   3.044  0.00  0.00     0.002 A 
ATOM      3  C4  UNL d   1      -0.423  -0.663   2.175  0.00  0.00     0.002 A 
ATOM      4  C5  UNL d   1      -0.738  -0.797   0.824  0.00  0.00    -0.004 A 
ATOM      5  C6  UNL d   1      -1.952  -0.312   0.341  0.00  0.00     0.002 A 
ATOM      6  C7  UNL d   1      -2.850   0.313   1.208  0.00  0.00     0.002 A 
ENDROOT
BRANCH   1   7
ATOM      7  C1  UNL d   1      -3.488   1.175   3.493  0.00  0.00     0.055 C 
ATOM      8  C   UNL d   1      -4.848   0.494   3.533  0.00  0.00     0.019 C 
ENDBRANCH   1   7
TORSDOF 1
ENDMDL
