MODEL 1
REMARK minimizedAffinity 2.96348858
REMARK minimizedRMSD -1
REMARK  1 active torsions:
REMARK  status: ('A' for Active; 'I' for Inactive)
REMARK    1  A    between atoms: C1_2  and  C2_3 
ROOT
ATOM      1  C2  UNL d   1      -3.141   0.211   2.515  0.00  0.00    -0.077 A 
ATOM      2  C3  UNL d   1      -3.285   0.124   1.123  0.00  0.00     0.002 A 
ATOM      3  C4  UNL d   1      -2.209  -0.273   0.326  0.00  0.00     0.002 A 
ATOM      4  C5  UNL d   1      -0.986  -0.590   0.911  0.00  0.00    -0.004 A 
ATOM      5  C6  UNL d   1      -0.832  -0.505   2.295  0.00  0.00     0.002 A 
ATOM      6  C7  UNL d   1      -1.906  -0.107   3.093  0.00  0.00     0.002 A 
ENDROOT
BRANCH   1   7
ATOM      7  C1  UNL d   1      -4.314   0.592   3.381  0.00  0.00     0.055 C 
ATOM      8  C   UNL d   1      -5.631   0.177   2.742  0.00  0.00     0.019 C 
ENDBRANCH   1   7
TORSDOF 1
ENDMDL
