MODEL 1
REMARK minimizedAffinity -1.6700511
REMARK minimizedRMSD -1
REMARK  1 active torsions:
REMARK  status: ('A' for Active; 'I' for Inactive)
REMARK    1  A    between atoms: C1_2  and  C2_3 
ROOT
ATOM      1  C2  UNL d   1      -5.292  -2.028  -4.897  0.00  0.00    -0.077 A 
ATOM      2  C3  UNL d   1      -6.000  -1.092  -4.129  0.00  0.00     0.002 A 
ATOM      3  C4  UNL d   1      -5.353   0.034  -3.616  0.00  0.00     0.002 A 
ATOM      4  C5  UNL d   1      -3.999   0.238  -3.870  0.00  0.00    -0.004 A 
ATOM      5  C6  UNL d   1      -3.286  -0.688  -4.632  0.00  0.00     0.002 A 
ATOM      6  C7  UNL d   1      -3.930  -1.815  -5.143  0.00  0.00     0.002 A 
ENDROOT
BRANCH   1   7
ATOM      7  C1  UNL d   1      -5.999  -3.218  -5.491  0.00  0.00     0.055 C 
ATOM      8  C   UNL d   1      -5.512  -4.518  -4.869  0.00  0.00     0.019 C 
ENDBRANCH   1   7
TORSDOF 1
ENDMDL
