MODEL 1
REMARK minimizedAffinity 3.79975414
REMARK minimizedRMSD -1
REMARK  1 active torsions:
REMARK  status: ('A' for Active; 'I' for Inactive)
REMARK    1  A    between atoms: C1_2  and  C2_3 
ROOT
ATOM      1  C2  UNL d   1       0.048  -1.486   0.561  0.00  0.00    -0.077 A 
ATOM      2  C3  UNL d   1      -1.046  -2.053  -0.108  0.00  0.00     0.002 A 
ATOM      3  C4  UNL d   1      -2.320  -1.495   0.021  0.00  0.00     0.002 A 
ATOM      4  C5  UNL d   1      -2.510  -0.366   0.815  0.00  0.00    -0.004 A 
ATOM      5  C6  UNL d   1      -1.429   0.203   1.487  0.00  0.00     0.002 A 
ATOM      6  C7  UNL d   1      -0.155  -0.354   1.359  0.00  0.00     0.002 A 
ENDROOT
BRANCH   1   7
ATOM      7  C1  UNL d   1       1.430  -2.057   0.383  0.00  0.00     0.055 C 
ATOM      8  C   UNL d   1       2.327  -1.105  -0.395  0.00  0.00     0.019 C 
ENDBRANCH   1   7
TORSDOF 1
ENDMDL
