MODEL 1
REMARK minimizedAffinity -0.753304064
REMARK minimizedRMSD -1
REMARK  1 active torsions:
REMARK  status: ('A' for Active; 'I' for Inactive)
REMARK    1  A    between atoms: C1_2  and  C2_3 
ROOT
ATOM      1  C2  UNL d   1      -0.270  -1.444   1.027  0.00  0.00    -0.077 A 
ATOM      2  C3  UNL d   1      -1.320  -1.973   0.263  0.00  0.00     0.002 A 
ATOM      3  C4  UNL d   1      -2.511  -1.260   0.112  0.00  0.00     0.002 A 
ATOM      4  C5  UNL d   1      -2.661  -0.014   0.717  0.00  0.00    -0.004 A 
ATOM      5  C6  UNL d   1      -1.623   0.519   1.481  0.00  0.00     0.002 A 
ATOM      6  C7  UNL d   1      -0.433  -0.193   1.634  0.00  0.00     0.002 A 
ENDROOT
BRANCH   1   7
ATOM      7  C1  UNL d   1       1.034  -2.189   1.151  0.00  0.00     0.055 C 
ATOM      8  C   UNL d   1       2.007  -1.788   0.052  0.00  0.00     0.019 C 
ENDBRANCH   1   7
TORSDOF 1
ENDMDL
