MODEL 1
REMARK minimizedAffinity 7.2222662
REMARK minimizedRMSD -1
REMARK  1 active torsions:
REMARK  status: ('A' for Active; 'I' for Inactive)
REMARK    1  A    between atoms: C1_2  and  C2_3 
ROOT
ATOM      1  C2  UNL d   1      -0.262  -1.536   1.606  0.00  0.00    -0.077 A 
ATOM      2  C3  UNL d   1      -1.022  -2.448   0.861  0.00  0.00     0.002 A 
ATOM      3  C4  UNL d   1      -2.282  -2.090   0.379  0.00  0.00     0.002 A 
ATOM      4  C5  UNL d   1      -2.792  -0.818   0.632  0.00  0.00    -0.004 A 
ATOM      5  C6  UNL d   1      -2.045   0.096   1.374  0.00  0.00     0.002 A 
ATOM      6  C7  UNL d   1      -0.785  -0.261   1.858  0.00  0.00     0.002 A 
ENDROOT
BRANCH   1   7
ATOM      7  C1  UNL d   1       1.118  -1.903   2.085  0.00  0.00     0.055 C 
ATOM      8  C   UNL d   1       1.191  -1.915   3.605  0.00  0.00     0.019 C 
ENDBRANCH   1   7
TORSDOF 1
ENDMDL
