MODEL 1
REMARK minimizedAffinity 1.86072683
REMARK minimizedRMSD -1
REMARK  0 active torsions:
REMARK  status: ('A' for Active; 'I' for Inactive)
ROOT
ATOM      1  C1  BNZ d   1       0.116  -1.605   1.094  0.00  0.00     0.000 A 
ATOM      2  C2  BNZ d   1       1.246  -1.975   1.775  0.00  0.00     0.000 A 
ATOM      3  C3  BNZ d   1       1.498  -1.491   3.028  0.00  0.00     0.000 A 
ATOM      4  C4  BNZ d   1       0.642  -0.608   3.582  0.00  0.00     0.000 A 
ATOM      5  C5  BNZ d   1      -0.497  -0.219   2.906  0.00  0.00     0.000 A 
ATOM      6  C6  BNZ d   1      -0.767  -0.738   1.660  0.00  0.00     0.000 A 
ENDROOT
TORSDOF 0
ENDMDL
