MODEL 1
REMARK minimizedAffinity -0.430921286
REMARK minimizedRMSD -1
REMARK  0 active torsions:
REMARK  status: ('A' for Active; 'I' for Inactive)
ROOT
ATOM      1  C1  BNZ d   1       0.348   0.943  -4.818  0.00  0.00     0.000 A 
ATOM      2  C2  BNZ d   1      -0.063   0.341  -3.658  0.00  0.00     0.000 A 
ATOM      3  C3  BNZ d   1      -0.490  -0.958  -3.658  0.00  0.00     0.000 A 
ATOM      4  C4  BNZ d   1      -0.545  -1.638  -4.821  0.00  0.00     0.000 A 
ATOM      5  C5  BNZ d   1      -0.143  -1.041  -6.000  0.00  0.00     0.000 A 
ATOM      6  C6  BNZ d   1       0.323   0.253  -5.990  0.00  0.00     0.000 A 
ENDROOT
TORSDOF 0
ENDMDL
