MODEL 1
REMARK minimizedAffinity -1.51637137
REMARK minimizedRMSD -1
REMARK  0 active torsions:
REMARK  status: ('A' for Active; 'I' for Inactive)
ROOT
ATOM      1  C1  BNZ d   1      -0.504   0.386  -5.747  0.00  0.00     0.000 A 
ATOM      2  C2  BNZ d   1      -0.810   0.762  -4.466  0.00  0.00     0.000 A 
ATOM      3  C3  BNZ d   1      -0.665  -0.112  -3.426  0.00  0.00     0.000 A 
ATOM      4  C4  BNZ d   1      -0.253  -1.373  -3.672  0.00  0.00     0.000 A 
ATOM      5  C5  BNZ d   1       0.050  -1.770  -4.959  0.00  0.00     0.000 A 
ATOM      6  C6  BNZ d   1      -0.059  -0.875  -5.998  0.00  0.00     0.000 A 
ENDROOT
TORSDOF 0
ENDMDL
