MODEL 1
REMARK minimizedAffinity -1.93606925
REMARK minimizedRMSD -1
REMARK  0 active torsions:
REMARK  status: ('A' for Active; 'I' for Inactive)
ROOT
ATOM      1  C1  BNZ d   1      -0.930  -0.231  -5.728  0.00  0.00     0.000 A 
ATOM      2  C2  BNZ d   1      -1.062   0.190  -4.431  0.00  0.00     0.000 A 
ATOM      3  C3  BNZ d   1      -0.699  -0.620  -3.392  0.00  0.00     0.000 A 
ATOM      4  C4  BNZ d   1      -0.243  -1.863  -3.648  0.00  0.00     0.000 A 
ATOM      5  C5  BNZ d   1      -0.113  -2.306  -4.950  0.00  0.00     0.000 A 
ATOM      6  C6  BNZ d   1      -0.443  -1.473  -5.994  0.00  0.00     0.000 A 
ENDROOT
TORSDOF 0
ENDMDL
