MODEL 1
REMARK minimizedAffinity 3.67222214
REMARK minimizedRMSD -1
REMARK  0 active torsions:
REMARK  status: ('A' for Active; 'I' for Inactive)
ROOT
ATOM      1  C1  BNZ d   1      -0.386  -1.518  -3.367  0.00  0.00     0.000 A 
ATOM      2  C2  BNZ d   1      -1.167  -0.402  -3.230  0.00  0.00     0.000 A 
ATOM      3  C3  BNZ d   1      -1.584   0.299  -4.327  0.00  0.00     0.000 A 
ATOM      4  C4  BNZ d   1      -1.186  -0.093  -5.555  0.00  0.00     0.000 A 
ATOM      5  C5  BNZ d   1      -0.391  -1.211  -5.708  0.00  0.00     0.000 A 
ATOM      6  C6  BNZ d   1      -0.006  -1.937  -4.604  0.00  0.00     0.000 A 
ENDROOT
TORSDOF 0
ENDMDL
