MODEL 1
REMARK minimizedAffinity 2.26889586
REMARK minimizedRMSD -1
REMARK  0 active torsions:
REMARK  status: ('A' for Active; 'I' for Inactive)
ROOT
ATOM      1  C1  BNZ d   1      -1.481   1.125  -4.890  0.00  0.00     0.000 A 
ATOM      2  C2  BNZ d   1      -0.763   0.749  -5.994  0.00  0.00     0.000 A 
ATOM      3  C3  BNZ d   1      -0.046  -0.415  -5.999  0.00  0.00     0.000 A 
ATOM      4  C4  BNZ d   1      -0.014  -1.179  -4.889  0.00  0.00     0.000 A 
ATOM      5  C5  BNZ d   1      -0.724  -0.809  -3.764  0.00  0.00     0.000 A 
ATOM      6  C6  BNZ d   1      -1.477   0.343  -3.776  0.00  0.00     0.000 A 
ENDROOT
TORSDOF 0
ENDMDL
