MODEL 1
REMARK minimizedAffinity -0.410790652
REMARK minimizedRMSD -1
REMARK  0 active torsions:
REMARK  status: ('A' for Active; 'I' for Inactive)
ROOT
ATOM      1  C1  BNZ d   1      -2.167  -1.374   0.235  0.00  0.00     0.000 A 
ATOM      2  C2  BNZ d   1      -1.145  -1.201   1.130  0.00  0.00     0.000 A 
ATOM      3  C3  BNZ d   1      -1.161  -0.161   2.017  0.00  0.00     0.000 A 
ATOM      4  C4  BNZ d   1      -2.176   0.725   1.982  0.00  0.00     0.000 A 
ATOM      5  C5  BNZ d   1      -3.209   0.570   1.079  0.00  0.00     0.000 A 
ATOM      6  C6  BNZ d   1      -3.210  -0.500   0.214  0.00  0.00     0.000 A 
ENDROOT
TORSDOF 0
ENDMDL
