MODEL 1
REMARK minimizedAffinity 3.63882542
REMARK minimizedRMSD -1
REMARK  0 active torsions:
REMARK  status: ('A' for Active; 'I' for Inactive)
ROOT
ATOM      1  C   UNL d   1       1.732   2.014   0.999  0.00  0.00     0.172 C 
ATOM      2  N   UNL d   1       1.078   2.927   0.090  0.00  0.00    -0.070 N 
ATOM      3  C1  UNL d   1      -0.262   3.207   0.067  0.00  0.00    -0.004 A 
ATOM      4  C2  UNL d   1      -0.485   4.121  -0.939  0.00  0.00    -0.047 A 
ATOM      5  C3  UNL d   1       0.764   4.400  -1.542  0.00  0.00    -0.047 A 
ATOM      6  C4  UNL d   1       1.715   3.647  -0.886  0.00  0.00    -0.004 A 
ENDROOT
TORSDOF 0
ENDMDL
