MODEL 1
REMARK minimizedAffinity 2.3215313
REMARK minimizedRMSD -1
REMARK  0 active torsions:
REMARK  status: ('A' for Active; 'I' for Inactive)
ROOT
ATOM      1  C   UNL d   1      -0.425   1.630   2.816  0.00  0.00     0.172 C 
ATOM      2  N   UNL d   1      -0.146   2.219   1.528  0.00  0.00    -0.070 N 
ATOM      3  C1  UNL d   1       0.900   1.888   0.709  0.00  0.00    -0.004 A 
ATOM      4  C2  UNL d   1       0.815   2.672  -0.422  0.00  0.00    -0.047 A 
ATOM      5  C3  UNL d   1      -0.322   3.502  -0.277  0.00  0.00    -0.047 A 
ATOM      6  C4  UNL d   1      -0.898   3.201   0.939  0.00  0.00    -0.004 A 
ENDROOT
TORSDOF 0
ENDMDL
