MODEL 1
REMARK minimizedAffinity 5.10760164
REMARK minimizedRMSD -1
REMARK  0 active torsions:
REMARK  status: ('A' for Active; 'I' for Inactive)
ROOT
ATOM      1  C   UNL d   1      -5.977  -5.965  -5.864  0.00  0.00     0.172 C 
ATOM      2  N   UNL d   1      -4.680  -5.341  -5.744  0.00  0.00    -0.070 N 
ATOM      3  C1  UNL d   1      -3.524  -5.968  -5.361  0.00  0.00    -0.004 A 
ATOM      4  C2  UNL d   1      -2.513  -5.032  -5.373  0.00  0.00    -0.047 A 
ATOM      5  C3  UNL d   1      -3.080  -3.799  -5.775  0.00  0.00    -0.047 A 
ATOM      6  C4  UNL d   1      -4.423  -4.019  -5.998  0.00  0.00    -0.004 A 
ENDROOT
TORSDOF 0
ENDMDL
