MODEL 1
REMARK minimizedAffinity 4.255476
REMARK minimizedRMSD -1
REMARK  0 active torsions:
REMARK  status: ('A' for Active; 'I' for Inactive)
ROOT
ATOM      1  C   UNL d   1      -1.302  -4.385  -3.349  0.00  0.00     0.172 C 
ATOM      2  N   UNL d   1      -2.206  -4.742  -4.417  0.00  0.00    -0.070 N 
ATOM      3  C1  UNL d   1      -3.099  -3.899  -5.023  0.00  0.00    -0.004 A 
ATOM      4  C2  UNL d   1      -3.770  -4.618  -5.988  0.00  0.00    -0.047 A 
ATOM      5  C3  UNL d   1      -3.264  -5.939  -5.961  0.00  0.00    -0.047 A 
ATOM      6  C4  UNL d   1      -2.297  -5.988  -4.979  0.00  0.00    -0.004 A 
ENDROOT
TORSDOF 0
ENDMDL
