MODEL 1
REMARK minimizedAffinity -2.22595263
REMARK minimizedRMSD -1
REMARK  0 active torsions:
REMARK  status: ('A' for Active; 'I' for Inactive)
ROOT
ATOM      1  C   UNL d   1      -2.497  -5.980  -5.880  0.00  0.00     0.172 C 
ATOM      2  N   UNL d   1      -3.790  -5.338  -5.925  0.00  0.00    -0.070 N 
ATOM      3  C1  UNL d   1      -4.009  -3.986  -5.937  0.00  0.00    -0.004 A 
ATOM      4  C2  UNL d   1      -5.371  -3.780  -5.983  0.00  0.00    -0.047 A 
ATOM      5  C3  UNL d   1      -5.992  -5.052  -5.998  0.00  0.00    -0.047 A 
ATOM      6  C4  UNL d   1      -4.989  -5.998  -5.961  0.00  0.00    -0.004 A 
ENDROOT
TORSDOF 0
ENDMDL
