MODEL 1
REMARK minimizedAffinity 8.36469555
REMARK minimizedRMSD -1
REMARK  0 active torsions:
REMARK  status: ('A' for Active; 'I' for Inactive)
ROOT
ATOM      1  C   UNL d   1       0.883  -4.498  -0.477  0.00  0.00     0.172 C 
ATOM      2  N   UNL d   1       1.633  -4.538  -1.710  0.00  0.00    -0.070 N 
ATOM      3  C1  UNL d   1       1.118  -4.343  -2.964  0.00  0.00    -0.004 A 
ATOM      4  C2  UNL d   1       2.152  -4.463  -3.868  0.00  0.00    -0.047 A 
ATOM      5  C3  UNL d   1       3.328  -4.740  -3.132  0.00  0.00    -0.047 A 
ATOM      6  C4  UNL d   1       2.978  -4.781  -1.798  0.00  0.00    -0.004 A 
ENDROOT
TORSDOF 0
ENDMDL
