MODEL 1
REMARK minimizedAffinity 2.85512924
REMARK minimizedRMSD -1
REMARK  0 active torsions:
REMARK  status: ('A' for Active; 'I' for Inactive)
ROOT
ATOM      1  C   UNL d   1      -0.998  -4.225  -5.042  0.00  0.00     0.172 C 
ATOM      2  N   UNL d   1      -2.316  -4.668  -5.431  0.00  0.00    -0.070 N 
ATOM      3  C1  UNL d   1      -3.400  -3.858  -5.642  0.00  0.00    -0.004 A 
ATOM      4  C2  UNL d   1      -4.463  -4.660  -5.996  0.00  0.00    -0.047 A 
ATOM      5  C3  UNL d   1      -4.003  -5.998  -5.997  0.00  0.00    -0.047 A 
ATOM      6  C4  UNL d   1      -2.670  -5.974  -5.643  0.00  0.00    -0.004 A 
ENDROOT
TORSDOF 0
ENDMDL
