MODEL 1
REMARK minimizedAffinity 2.01452065
REMARK minimizedRMSD -1
REMARK  0 active torsions:
REMARK  status: ('A' for Active; 'I' for Inactive)
ROOT
ATOM      1  C   UNL d   1      -4.649  -2.392  -5.999  0.00  0.00     0.172 C 
ATOM      2  N   UNL d   1      -4.278  -3.782  -5.869  0.00  0.00    -0.070 N 
ATOM      3  C1  UNL d   1      -5.124  -4.850  -5.999  0.00  0.00    -0.004 A 
ATOM      4  C2  UNL d   1      -4.388  -5.998  -5.805  0.00  0.00    -0.047 A 
ATOM      5  C3  UNL d   1      -3.052  -5.607  -5.548  0.00  0.00    -0.047 A 
ATOM      6  C4  UNL d   1      -3.013  -4.229  -5.594  0.00  0.00    -0.004 A 
ENDROOT
TORSDOF 0
ENDMDL
