MODEL 1
REMARK minimizedAffinity 1.15922475
REMARK minimizedRMSD -1
REMARK  0 active torsions:
REMARK  status: ('A' for Active; 'I' for Inactive)
ROOT
ATOM      1  C   UNL d   1      -4.681  -2.194  -5.999  0.00  0.00     0.172 C 
ATOM      2  N   UNL d   1      -4.320  -3.592  -5.958  0.00  0.00    -0.070 N 
ATOM      3  C1  UNL d   1      -3.046  -4.086  -5.876  0.00  0.00    -0.004 A 
ATOM      4  C2  UNL d   1      -3.126  -5.461  -5.861  0.00  0.00    -0.047 A 
ATOM      5  C3  UNL d   1      -4.496  -5.806  -5.938  0.00  0.00    -0.047 A 
ATOM      6  C4  UNL d   1      -5.213  -4.630  -5.997  0.00  0.00    -0.004 A 
ENDROOT
TORSDOF 0
ENDMDL
