MODEL 1
REMARK minimizedAffinity 9.47975922
REMARK minimizedRMSD -1
REMARK  0 active torsions:
REMARK  status: ('A' for Active; 'I' for Inactive)
ROOT
ATOM      1  C   UNL d   1       0.916   3.889  -5.984  0.00  0.00    -0.002 A 
ATOM      2  C1  UNL d   1       0.901   5.277  -5.967  0.00  0.00     0.010 A 
ATOM      3  C2  UNL d   1       2.095   6.000  -5.927  0.00  0.00     0.041 A 
ATOM      4  C3  UNL d   1       3.316   5.297  -5.906  0.00  0.00    -0.075 A 
ATOM      5  S   UNL d   1       4.902   5.971  -5.857  0.00  0.00     0.015 SA
ATOM      6  C4  UNL d   1       5.637   4.433  -5.858  0.00  0.00     0.022 A 
ATOM      7  C5  UNL d   1       4.709   3.419  -5.895  0.00  0.00     0.026 A 
ATOM      8  C6  UNL d   1       3.357   3.900  -5.923  0.00  0.00    -0.082 A 
ATOM      9  C7  UNL d   1       2.129   3.196  -5.963  0.00  0.00     0.045 A 
ENDROOT
TORSDOF 0
ENDMDL
