MODEL 1
REMARK minimizedAffinity 6.96675682
REMARK minimizedRMSD -1
REMARK  0 active torsions:
REMARK  status: ('A' for Active; 'I' for Inactive)
ROOT
ATOM      1  C   UNL d   1      -2.620  -1.988  -4.904  0.00  0.00    -0.002 A 
ATOM      2  C1  UNL d   1      -1.908  -1.068  -5.660  0.00  0.00     0.010 A 
ATOM      3  C2  UNL d   1      -2.467   0.169  -5.985  0.00  0.00     0.041 A 
ATOM      4  C3  UNL d   1      -3.767   0.470  -5.531  0.00  0.00    -0.075 A 
ATOM      5  S   UNL d   1      -4.653   1.923  -5.806  0.00  0.00     0.015 SA
ATOM      6  C4  UNL d   1      -5.999   1.356  -4.926  0.00  0.00     0.022 A 
ATOM      7  C5  UNL d   1      -5.793   0.091  -4.428  0.00  0.00     0.026 A 
ATOM      8  C6  UNL d   1      -4.503  -0.440  -4.768  0.00  0.00    -0.082 A 
ATOM      9  C7  UNL d   1      -3.909  -1.686  -4.456  0.00  0.00     0.045 A 
ENDROOT
TORSDOF 0
ENDMDL
