MODEL 1
REMARK minimizedAffinity 11.6352005
REMARK minimizedRMSD -1
REMARK  1 active torsions:
REMARK  status: ('A' for Active; 'I' for Inactive)
REMARK    1  A    between atoms: C1_2  and  C2_3 
ROOT
ATOM      1  C2  UNL d   1       1.288  -1.121   1.162  0.00  0.00    -0.081 A 
ATOM      2  C3  UNL d   1       0.021  -0.621   1.488  0.00  0.00     0.006 A 
ATOM      3  C4  UNL d   1      -1.104  -1.008   0.756  0.00  0.00     0.002 A 
ATOM      4  C5  UNL d   1      -0.982  -1.906  -0.310  0.00  0.00    -0.080 A 
ATOM      5  C6  UNL d   1      -2.186  -2.353  -1.085  0.00  0.00     0.076 C 
ATOM      6  C7  UNL d   1       0.286  -2.392  -0.647  0.00  0.00     0.002 A 
ATOM      7  C8  UNL d   1       1.411  -2.005   0.084  0.00  0.00     0.006 A 
ENDROOT
BRANCH   1   8
ATOM      8  C1  UNL d   1       2.493  -0.756   1.990  0.00  0.00     0.054 C 
ATOM      9  C   UNL d   1       2.265  -1.063   3.464  0.00  0.00     0.018 C 
ENDBRANCH   1   8
TORSDOF 1
ENDMDL
