MODEL 1
REMARK minimizedAffinity 14.1641884
REMARK minimizedRMSD -1
REMARK  1 active torsions:
REMARK  status: ('A' for Active; 'I' for Inactive)
REMARK    1  A    between atoms: C1_2  and  C2_3 
ROOT
ATOM      1  C2  UNL d   1       4.561  -1.710   3.412  0.00  0.00    -0.081 A 
ATOM      2  C3  UNL d   1       4.515  -0.870   2.293  0.00  0.00     0.006 A 
ATOM      3  C4  UNL d   1       3.292  -0.390   1.817  0.00  0.00     0.002 A 
ATOM      4  C5  UNL d   1       2.097  -0.737   2.455  0.00  0.00    -0.080 A 
ATOM      5  C6  UNL d   1       0.780  -0.205   1.973  0.00  0.00     0.076 C 
ATOM      6  C7  UNL d   1       2.141  -1.591   3.563  0.00  0.00     0.002 A 
ATOM      7  C8  UNL d   1       3.363  -2.071   4.039  0.00  0.00     0.006 A 
ENDROOT
BRANCH   1   8
ATOM      8  C1  UNL d   1       5.883  -2.176   3.966  0.00  0.00     0.054 C 
ATOM      9  C   UNL d   1       5.984  -1.900   5.460  0.00  0.00     0.018 C 
ENDBRANCH   1   8
TORSDOF 1
ENDMDL
