MODEL 1
REMARK minimizedAffinity 8.32613754
REMARK minimizedRMSD -1
REMARK  1 active torsions:
REMARK  status: ('A' for Active; 'I' for Inactive)
REMARK    1  A    between atoms: C1_2  and  C2_3 
ROOT
ATOM      1  C2  UNL d   1       2.295  -1.392   4.186  0.00  0.00    -0.081 A 
ATOM      2  C3  UNL d   1       2.245  -1.217   2.797  0.00  0.00     0.006 A 
ATOM      3  C4  UNL d   1       2.269   0.065   2.243  0.00  0.00     0.002 A 
ATOM      4  C5  UNL d   1       2.352   1.192   3.066  0.00  0.00    -0.080 A 
ATOM      5  C6  UNL d   1       2.409   2.573   2.483  0.00  0.00     0.076 C 
ATOM      6  C7  UNL d   1       2.385   1.019   4.454  0.00  0.00     0.002 A 
ATOM      7  C8  UNL d   1       2.360  -0.262   5.009  0.00  0.00     0.006 A 
ENDROOT
BRANCH   1   8
ATOM      8  C1  UNL d   1       2.335  -2.775   4.784  0.00  0.00     0.054 C 
ATOM      9  C   UNL d   1       0.935  -3.350   4.941  0.00  0.00     0.018 C 
ENDBRANCH   1   8
TORSDOF 1
ENDMDL
