MODEL 1
REMARK minimizedAffinity 3.49347138
REMARK minimizedRMSD -1
REMARK  1 active torsions:
REMARK  status: ('A' for Active; 'I' for Inactive)
REMARK    1  A    between atoms: C1_2  and  C2_3 
ROOT
ATOM      1  C2  UNL d   1       4.670  -2.400   3.890  0.00  0.00    -0.081 A 
ATOM      2  C3  UNL d   1       4.791  -1.566   2.771  0.00  0.00     0.006 A 
ATOM      3  C4  UNL d   1       3.662  -0.965   2.211  0.00  0.00     0.002 A 
ATOM      4  C5  UNL d   1       2.395  -1.180   2.763  0.00  0.00    -0.080 A 
ATOM      5  C6  UNL d   1       1.178  -0.516   2.189  0.00  0.00     0.076 C 
ATOM      6  C7  UNL d   1       2.271  -2.027   3.870  0.00  0.00     0.002 A 
ATOM      7  C8  UNL d   1       3.400  -2.629   4.430  0.00  0.00     0.006 A 
ENDROOT
BRANCH   1   8
ATOM      8  C1  UNL d   1       5.893  -2.998   4.536  0.00  0.00     0.054 C 
ATOM      9  C   UNL d   1       5.999  -2.594   5.999  0.00  0.00     0.018 C 
ENDBRANCH   1   8
TORSDOF 1
ENDMDL
