MODEL 1
REMARK minimizedAffinity 6.65276766
REMARK minimizedRMSD -1
REMARK  1 active torsions:
REMARK  status: ('A' for Active; 'I' for Inactive)
REMARK    1  A    between atoms: C1_2  and  C2_3 
ROOT
ATOM      1  C2  UNL d   1       3.233  -2.498   4.829  0.00  0.00    -0.081 A 
ATOM      2  C3  UNL d   1       2.948  -3.445   3.838  0.00  0.00     0.006 A 
ATOM      3  C4  UNL d   1       2.182  -3.095   2.723  0.00  0.00     0.002 A 
ATOM      4  C5  UNL d   1       1.694  -1.792   2.578  0.00  0.00    -0.080 A 
ATOM      5  C6  UNL d   1       0.896  -1.396   1.372  0.00  0.00     0.076 C 
ATOM      6  C7  UNL d   1       1.963  -0.851   3.577  0.00  0.00     0.002 A 
ATOM      7  C8  UNL d   1       2.729  -1.200   4.692  0.00  0.00     0.006 A 
ENDROOT
BRANCH   1   8
ATOM      8  C1  UNL d   1       4.113  -2.855   6.000  0.00  0.00     0.054 C 
ATOM      9  C   UNL d   1       5.474  -2.182   5.894  0.00  0.00     0.018 C 
ENDBRANCH   1   8
TORSDOF 1
ENDMDL
