MODEL 1
REMARK minimizedAffinity 10.2926435
REMARK minimizedRMSD -1
REMARK  1 active torsions:
REMARK  status: ('A' for Active; 'I' for Inactive)
REMARK    1  A    between atoms: C1_2  and  C2_3 
ROOT
ATOM      1  C2  UNL d   1      -4.980   4.168   3.834  0.00  0.00    -0.077 A 
ATOM      2  C3  UNL d   1      -6.000   4.124   4.794  0.00  0.00     0.002 A 
ATOM      3  C4  UNL d   1      -5.993   5.009   5.874  0.00  0.00     0.002 A 
ATOM      4  C5  UNL d   1      -4.971   5.948   6.000  0.00  0.00    -0.004 A 
ATOM      5  C6  UNL d   1      -3.951   5.999   5.051  0.00  0.00     0.002 A 
ATOM      6  C7  UNL d   1      -3.955   5.113   3.972  0.00  0.00     0.002 A 
ENDROOT
BRANCH   1   7
ATOM      7  C1  UNL d   1      -5.012   3.246   2.643  0.00  0.00     0.055 C 
ATOM      8  C   UNL d   1      -4.876   4.020   1.340  0.00  0.00     0.019 C 
ENDBRANCH   1   7
TORSDOF 1
ENDMDL
