MODEL 1
REMARK minimizedAffinity 1.54309344
REMARK minimizedRMSD -1
REMARK  1 active torsions:
REMARK  status: ('A' for Active; 'I' for Inactive)
REMARK    1  A    between atoms: C1_2  and  C2_3 
ROOT
ATOM      1  C2  UNL d   1      -5.400   1.533  -2.398  0.00  0.00    -0.077 A 
ATOM      2  C3  UNL d   1      -5.465   2.608  -1.501  0.00  0.00     0.002 A 
ATOM      3  C4  UNL d   1      -4.869   2.515  -0.242  0.00  0.00     0.002 A 
ATOM      4  C5  UNL d   1      -4.200   1.351   0.129  0.00  0.00    -0.004 A 
ATOM      5  C6  UNL d   1      -4.131   0.275  -0.755  0.00  0.00     0.002 A 
ATOM      6  C7  UNL d   1      -4.727   0.366  -2.013  0.00  0.00     0.002 A 
ENDROOT
BRANCH   1   7
ATOM      7  C1  UNL d   1      -6.000   1.649  -3.775  0.00  0.00     0.055 C 
ATOM      8  C   UNL d   1      -6.000   0.308  -4.494  0.00  0.00     0.019 C 
ENDBRANCH   1   7
TORSDOF 1
ENDMDL
