MODEL 1
REMARK minimizedAffinity 4.5354476
REMARK minimizedRMSD -1
REMARK  1 active torsions:
REMARK  status: ('A' for Active; 'I' for Inactive)
REMARK    1  A    between atoms: C1_2  and  C2_3 
ROOT
ATOM      1  C2  UNL d   1       3.462   0.279   0.384  0.00  0.00    -0.077 A 
ATOM      2  C3  UNL d   1       4.748   0.748   0.684  0.00  0.00     0.002 A 
ATOM      3  C4  UNL d   1       5.618  -0.021   1.459  0.00  0.00     0.002 A 
ATOM      4  C5  UNL d   1       5.213  -1.266   1.936  0.00  0.00    -0.004 A 
ATOM      5  C6  UNL d   1       3.935  -1.741   1.645  0.00  0.00     0.002 A 
ATOM      6  C7  UNL d   1       3.064  -0.973   0.871  0.00  0.00     0.002 A 
ENDROOT
BRANCH   1   7
ATOM      7  C1  UNL d   1       2.540   1.085  -0.493  0.00  0.00     0.055 C 
ATOM      8  C   UNL d   1       1.700   0.186  -1.387  0.00  0.00     0.019 C 
ENDBRANCH   1   7
TORSDOF 1
ENDMDL
