MODEL 1
REMARK minimizedAffinity 8.37507153
REMARK minimizedRMSD -1
REMARK  1 active torsions:
REMARK  status: ('A' for Active; 'I' for Inactive)
REMARK    1  A    between atoms: C1_2  and  C2_3 
ROOT
ATOM      1  C2  UNL d   1       3.106   0.753  -0.500  0.00  0.00    -0.077 A 
ATOM      2  C3  UNL d   1       4.165   0.657   0.414  0.00  0.00     0.002 A 
ATOM      3  C4  UNL d   1       5.441   1.107   0.066  0.00  0.00     0.002 A 
ATOM      4  C5  UNL d   1       5.667   1.659  -1.193  0.00  0.00    -0.004 A 
ATOM      5  C6  UNL d   1       4.621   1.757  -2.109  0.00  0.00     0.002 A 
ATOM      6  C7  UNL d   1       3.346   1.307  -1.764  0.00  0.00     0.002 A 
ENDROOT
BRANCH   1   7
ATOM      7  C1  UNL d   1       1.719   0.313  -0.109  0.00  0.00     0.055 C 
ATOM      8  C   UNL d   1       0.659   1.209  -0.732  0.00  0.00     0.019 C 
ENDBRANCH   1   7
TORSDOF 1
ENDMDL
