MODEL 1
REMARK minimizedAffinity -1.17014408
REMARK minimizedRMSD -1
REMARK  1 active torsions:
REMARK  status: ('A' for Active; 'I' for Inactive)
REMARK    1  A    between atoms: C1_2  and  C2_3 
ROOT
ATOM      1  C2  UNL d   1       3.021   0.661  -0.501  0.00  0.00    -0.077 A 
ATOM      2  C3  UNL d   1       3.783   0.330   0.628  0.00  0.00     0.002 A 
ATOM      3  C4  UNL d   1       3.639  -0.918   1.236  0.00  0.00     0.002 A 
ATOM      4  C5  UNL d   1       2.738  -1.847   0.720  0.00  0.00    -0.004 A 
ATOM      5  C6  UNL d   1       1.974  -1.527  -0.402  0.00  0.00     0.002 A 
ATOM      6  C7  UNL d   1       2.116  -0.279  -1.010  0.00  0.00     0.002 A 
ENDROOT
BRANCH   1   7
ATOM      7  C1  UNL d   1       3.211   1.988  -1.188  0.00  0.00     0.055 C 
ATOM      8  C   UNL d   1       4.590   2.091  -1.823  0.00  0.00     0.019 C 
ENDBRANCH   1   7
TORSDOF 1
ENDMDL
