MODEL 1
REMARK minimizedAffinity 11.8327408
REMARK minimizedRMSD -1
REMARK  1 active torsions:
REMARK  status: ('A' for Active; 'I' for Inactive)
REMARK    1  A    between atoms: C1_2  and  C2_3 
ROOT
ATOM      1  C2  UNL d   1       2.291  -1.106  -0.874  0.00  0.00    -0.077 A 
ATOM      2  C3  UNL d   1       1.989   0.152  -1.415  0.00  0.00     0.002 A 
ATOM      3  C4  UNL d   1       2.285   1.316  -0.703  0.00  0.00     0.002 A 
ATOM      4  C5  UNL d   1       2.887   1.234   0.551  0.00  0.00    -0.004 A 
ATOM      5  C6  UNL d   1       3.189  -0.012   1.098  0.00  0.00     0.002 A 
ATOM      6  C7  UNL d   1       2.894  -1.177   0.389  0.00  0.00     0.002 A 
ENDROOT
BRANCH   1   7
ATOM      7  C1  UNL d   1       2.018  -2.361  -1.661  0.00  0.00     0.055 C 
ATOM      8  C   UNL d   1       2.309  -2.160  -3.142  0.00  0.00     0.019 C 
ENDBRANCH   1   7
TORSDOF 1
ENDMDL
