MODEL 1
REMARK minimizedAffinity -1.0160768
REMARK minimizedRMSD -1
REMARK  1 active torsions:
REMARK  status: ('A' for Active; 'I' for Inactive)
REMARK    1  A    between atoms: C1_2  and  C2_3 
ROOT
ATOM      1  C2  UNL d   1       2.718   2.601   4.787  0.00  0.00    -0.077 A 
ATOM      2  C3  UNL d   1       3.299   3.015   3.580  0.00  0.00     0.002 A 
ATOM      3  C4  UNL d   1       4.432   3.830   3.585  0.00  0.00     0.002 A 
ATOM      4  C5  UNL d   1       4.996   4.235   4.793  0.00  0.00    -0.004 A 
ATOM      5  C6  UNL d   1       4.424   3.831   5.999  0.00  0.00     0.002 A 
ATOM      6  C7  UNL d   1       3.291   3.016   5.996  0.00  0.00     0.002 A 
ENDROOT
BRANCH   1   7
ATOM      7  C1  UNL d   1       1.525   1.681   4.784  0.00  0.00     0.055 C 
ATOM      8  C   UNL d   1       0.781   1.744   3.458  0.00  0.00     0.019 C 
ENDBRANCH   1   7
TORSDOF 1
ENDMDL
