MODEL 1
REMARK minimizedAffinity 9.37203121
REMARK minimizedRMSD -1
REMARK  2 active torsions:
REMARK  status: ('A' for Active; 'I' for Inactive)
REMARK    1  A    between atoms: C2'_3  and  C1'_4 
REMARK    2  A    between atoms: C1'_4  and  C1_5 
ROOT
ATOM      1  C1  I4B d   1      -4.348   1.115   3.992  0.00  0.00    -0.075 A 
ATOM      2  C2  I4B d   1      -3.388   1.115   4.973  0.00  0.00     0.003 A 
ATOM      3  C3  I4B d   1      -3.419   2.090   6.000  0.00  0.00     0.002 A 
ATOM      4  C4  I4B d   1      -4.391   3.069   5.979  0.00  0.00    -0.004 A 
ATOM      5  C5  I4B d   1      -5.377   3.053   4.997  0.00  0.00     0.002 A 
ATOM      6  C6  I4B d   1      -5.363   2.062   4.004  0.00  0.00     0.003 A 
ENDROOT
BRANCH   1   7
ATOM      7  C1' I4B d   1      -4.267   0.091   2.904  0.00  0.00     0.060 C 
BRANCH   7   8
ATOM      8  C2' I4B d   1      -5.029  -1.136   3.360  0.00  0.00    -0.013 C 
ATOM      9  C4' I4B d   1      -6.000  -1.598   2.306  0.00  0.00     0.013 C 
ATOM     10  C3' I4B d   1      -4.030  -2.208   3.683  0.00  0.00     0.013 C 
ENDBRANCH   7   8
ENDBRANCH   1   7
TORSDOF 2
ENDMDL
