MODEL 1
REMARK minimizedAffinity 15.7411718
REMARK minimizedRMSD -1
REMARK  2 active torsions:
REMARK  status: ('A' for Active; 'I' for Inactive)
REMARK    1  A    between atoms: C2'_3  and  C1'_4 
REMARK    2  A    between atoms: C1'_4  and  C1_5 
ROOT
ATOM      1  C1  I4B d   1       0.343  -3.237  -2.364  0.00  0.00    -0.075 A 
ATOM      2  C2  I4B d   1       0.987  -4.007  -1.428  0.00  0.00     0.003 A 
ATOM      3  C3  I4B d   1       1.840  -3.403  -0.473  0.00  0.00     0.002 A 
ATOM      4  C4  I4B d   1       2.058  -2.041  -0.522  0.00  0.00    -0.004 A 
ATOM      5  C5  I4B d   1       1.385  -1.259  -1.457  0.00  0.00     0.002 A 
ATOM      6  C6  I4B d   1       0.513  -1.859  -2.376  0.00  0.00     0.003 A 
ENDROOT
BRANCH   1   7
ATOM      7  C1' I4B d   1      -0.525  -3.912  -3.378  0.00  0.00     0.060 C 
BRANCH   7   8
ATOM      8  C2' I4B d   1      -1.970  -3.650  -3.005  0.00  0.00    -0.013 C 
ATOM      9  C4' I4B d   1      -2.740  -3.084  -4.170  0.00  0.00     0.013 C 
ATOM     10  C3' I4B d   1      -2.569  -4.942  -2.537  0.00  0.00     0.013 C 
ENDBRANCH   7   8
ENDBRANCH   1   7
TORSDOF 2
ENDMDL
