MODEL 1
REMARK minimizedAffinity 10.8256445
REMARK minimizedRMSD -1
REMARK  2 active torsions:
REMARK  status: ('A' for Active; 'I' for Inactive)
REMARK    1  A    between atoms: C2'_3  and  C1'_4 
REMARK    2  A    between atoms: C1'_4  and  C1_5 
ROOT
ATOM      1  C1  I4B d   1      -1.832  -3.271  -3.213  0.00  0.00    -0.075 A 
ATOM      2  C2  I4B d   1      -0.561  -3.696  -2.919  0.00  0.00     0.003 A 
ATOM      3  C3  I4B d   1      -0.358  -4.930  -2.255  0.00  0.00     0.002 A 
ATOM      4  C4  I4B d   1      -1.449  -5.678  -1.862  0.00  0.00    -0.004 A 
ATOM      5  C5  I4B d   1      -2.736  -5.257  -2.182  0.00  0.00     0.002 A 
ATOM      6  C6  I4B d   1      -2.929  -4.052  -2.873  0.00  0.00     0.003 A 
ENDROOT
BRANCH   1   7
ATOM      7  C1' I4B d   1      -2.012  -1.947  -3.886  0.00  0.00     0.060 C 
BRANCH   7   8
ATOM      8  C2' I4B d   1      -1.538  -0.871  -2.930  0.00  0.00    -0.013 C 
ATOM      9  C4' I4B d   1      -0.034  -0.792  -2.900  0.00  0.00     0.013 C 
ATOM     10  C3' I4B d   1      -2.140   0.432  -3.366  0.00  0.00     0.013 C 
ENDBRANCH   7   8
ENDBRANCH   1   7
TORSDOF 2
ENDMDL
