MODEL 1
REMARK minimizedAffinity 10.9810915
REMARK minimizedRMSD -1
REMARK  2 active torsions:
REMARK  status: ('A' for Active; 'I' for Inactive)
REMARK    1  A    between atoms: C2'_3  and  C1'_4 
REMARK    2  A    between atoms: C1'_4  and  C1_5 
ROOT
ATOM      1  C1  I4B d   1      -1.653   0.226   2.381  0.00  0.00    -0.075 A 
ATOM      2  C2  I4B d   1      -1.369   1.532   2.695  0.00  0.00     0.003 A 
ATOM      3  C3  I4B d   1      -0.087   1.887   3.180  0.00  0.00     0.002 A 
ATOM      4  C4  I4B d   1       0.859   0.903   3.382  0.00  0.00    -0.004 A 
ATOM      5  C5  I4B d   1       0.578  -0.417   3.042  0.00  0.00     0.002 A 
ATOM      6  C6  I4B d   1      -0.682  -0.756   2.527  0.00  0.00     0.003 A 
ENDROOT
BRANCH   1   7
ATOM      7  C1' I4B d   1      -3.027  -0.118   1.902  0.00  0.00     0.060 C 
BRANCH   7   8
ATOM      8  C2' I4B d   1      -3.924  -0.254   3.116  0.00  0.00    -0.013 C 
ATOM      9  C4' I4B d   1      -3.458  -1.369   4.016  0.00  0.00     0.013 C 
ATOM     10  C3' I4B d   1      -3.926   1.060   3.839  0.00  0.00     0.013 C 
ENDBRANCH   7   8
ENDBRANCH   1   7
TORSDOF 2
ENDMDL
