MODEL 1
REMARK minimizedAffinity 14.0916567
REMARK minimizedRMSD -1
REMARK  2 active torsions:
REMARK  status: ('A' for Active; 'I' for Inactive)
REMARK    1  A    between atoms: C2'_3  and  C1'_4 
REMARK    2  A    between atoms: C1'_4  and  C1_5 
ROOT
ATOM      1  C1  I4B d   1      -1.945   0.573   2.813  0.00  0.00    -0.075 A 
ATOM      2  C2  I4B d   1      -1.443   1.842   2.670  0.00  0.00     0.003 A 
ATOM      3  C3  I4B d   1      -0.046   2.066   2.713  0.00  0.00     0.002 A 
ATOM      4  C4  I4B d   1       0.805   1.005   2.951  0.00  0.00    -0.004 A 
ATOM      5  C5  I4B d   1       0.296  -0.284   3.074  0.00  0.00     0.002 A 
ATOM      6  C6  I4B d   1      -1.087  -0.504   2.992  0.00  0.00     0.003 A 
ENDROOT
BRANCH   1   7
ATOM      7  C1' I4B d   1      -3.428   0.377   2.795  0.00  0.00     0.060 C 
BRANCH   7   8
ATOM      8  C2' I4B d   1      -3.706  -1.103   2.956  0.00  0.00    -0.013 C 
ATOM      9  C4' I4B d   1      -3.589  -1.527   4.397  0.00  0.00     0.013 C 
ATOM     10  C3' I4B d   1      -5.080  -1.377   2.421  0.00  0.00     0.013 C 
ENDBRANCH   7   8
ENDBRANCH   1   7
TORSDOF 2
ENDMDL
