MODEL 1
REMARK minimizedAffinity 2.33827138
REMARK minimizedRMSD -1
REMARK  2 active torsions:
REMARK  status: ('A' for Active; 'I' for Inactive)
REMARK    1  A    between atoms: C2'_3  and  C1'_4 
REMARK    2  A    between atoms: C1'_4  and  C1_5 
ROOT
ATOM      1  C1  I4B d   1      -2.983  -4.336  -4.190  0.00  0.00    -0.075 A 
ATOM      2  C2  I4B d   1      -2.385  -4.779  -3.037  0.00  0.00     0.003 A 
ATOM      3  C3  I4B d   1      -0.974  -4.851  -2.947  0.00  0.00     0.002 A 
ATOM      4  C4  I4B d   1      -0.205  -4.521  -4.045  0.00  0.00    -0.004 A 
ATOM      5  C5  I4B d   1      -0.812  -4.050  -5.206  0.00  0.00     0.002 A 
ATOM      6  C6  I4B d   1      -2.209  -3.945  -5.275  0.00  0.00     0.003 A 
ENDROOT
BRANCH   1   7
ATOM      7  C1' I4B d   1      -4.476  -4.303  -4.261  0.00  0.00     0.060 C 
BRANCH   7   8
ATOM      8  C2' I4B d   1      -4.878  -4.476  -5.712  0.00  0.00    -0.013 C 
ATOM      9  C4' I4B d   1      -5.289  -5.897  -5.998  0.00  0.00     0.013 C 
ATOM     10  C3' I4B d   1      -5.998  -3.521  -5.999  0.00  0.00     0.013 C 
ENDBRANCH   7   8
ENDBRANCH   1   7
TORSDOF 2
ENDMDL
