MODEL 1
REMARK minimizedAffinity 17.2277756
REMARK minimizedRMSD -1
REMARK  2 active torsions:
REMARK  status: ('A' for Active; 'I' for Inactive)
REMARK    1  A    between atoms: C2'_3  and  C1'_4 
REMARK    2  A    between atoms: C1'_4  and  C1_5 
ROOT
ATOM      1  C1  I4B d   1       0.636   1.118   3.546  0.00  0.00    -0.075 A 
ATOM      2  C2  I4B d   1       0.666  -0.143   3.005  0.00  0.00     0.003 A 
ATOM      3  C3  I4B d   1      -0.153  -0.462   1.895  0.00  0.00     0.002 A 
ATOM      4  C4  I4B d   1      -1.019   0.489   1.394  0.00  0.00    -0.004 A 
ATOM      5  C5  I4B d   1      -1.032   1.773   1.930  0.00  0.00     0.002 A 
ATOM      6  C6  I4B d   1      -0.191   2.094   3.005  0.00  0.00     0.003 A 
ENDROOT
BRANCH   1   7
ATOM      7  C1' I4B d   1       1.490   1.411   4.739  0.00  0.00     0.060 C 
BRANCH   7   8
ATOM      8  C2' I4B d   1       0.640   1.226   5.979  0.00  0.00    -0.013 C 
ATOM      9  C4' I4B d   1      -0.513   2.195   6.000  0.00  0.00     0.013 C 
ATOM     10  C3' I4B d   1       0.154  -0.193   6.000  0.00  0.00     0.013 C 
ENDBRANCH   7   8
ENDBRANCH   1   7
TORSDOF 2
ENDMDL
