MODEL 1
REMARK minimizedAffinity 7.06819296
REMARK minimizedRMSD -1
REMARK  2 active torsions:
REMARK  status: ('A' for Active; 'I' for Inactive)
REMARK    1  A    between atoms: C2'_3  and  C1'_4 
REMARK    2  A    between atoms: C1'_4  and  C1_5 
ROOT
ATOM      1  C1  I4B d   1      -2.254   0.612   2.181  0.00  0.00    -0.075 A 
ATOM      2  C2  I4B d   1      -2.095   1.689   3.017  0.00  0.00     0.003 A 
ATOM      3  C3  I4B d   1      -0.798   2.106   3.404  0.00  0.00     0.002 A 
ATOM      4  C4  I4B d   1       0.301   1.391   2.976  0.00  0.00    -0.004 A 
ATOM      5  C5  I4B d   1       0.140   0.313   2.110  0.00  0.00     0.002 A 
ATOM      6  C6  I4B d   1      -1.145  -0.072   1.700  0.00  0.00     0.003 A 
ENDROOT
BRANCH   1   7
ATOM      7  C1' I4B d   1      -3.639   0.178   1.819  0.00  0.00     0.060 C 
BRANCH   7   8
ATOM      8  C2' I4B d   1      -3.881  -1.180   2.444  0.00  0.00    -0.013 C 
ATOM      9  C4' I4B d   1      -3.855  -1.101   3.948  0.00  0.00     0.013 C 
ATOM     10  C3' I4B d   1      -5.204  -1.687   1.952  0.00  0.00     0.013 C 
ENDBRANCH   7   8
ENDBRANCH   1   7
TORSDOF 2
ENDMDL
