MODEL 1
REMARK minimizedAffinity 15.2510672
REMARK minimizedRMSD -1
REMARK  2 active torsions:
REMARK  status: ('A' for Active; 'I' for Inactive)
REMARK    1  A    between atoms: C2'_3  and  C1'_4 
REMARK    2  A    between atoms: C1'_4  and  C1_5 
ROOT
ATOM      1  C1  I4B d   1      -2.672  -0.603   2.786  0.00  0.00    -0.075 A 
ATOM      2  C2  I4B d   1      -2.721   0.759   2.624  0.00  0.00     0.003 A 
ATOM      3  C3  I4B d   1      -1.525   1.506   2.494  0.00  0.00     0.002 A 
ATOM      4  C4  I4B d   1      -0.308   0.860   2.582  0.00  0.00    -0.004 A 
ATOM      5  C5  I4B d   1      -0.260  -0.524   2.723  0.00  0.00     0.002 A 
ATOM      6  C6  I4B d   1      -1.449  -1.262   2.814  0.00  0.00     0.003 A 
ENDROOT
BRANCH   1   7
ATOM      7  C1' I4B d   1      -3.953  -1.356   2.953  0.00  0.00     0.060 C 
BRANCH   7   8
ATOM      8  C2' I4B d   1      -4.573  -1.533   1.582  0.00  0.00    -0.013 C 
ATOM      9  C4' I4B d   1      -6.000  -2.002   1.685  0.00  0.00     0.013 C 
ATOM     10  C3' I4B d   1      -4.484  -0.222   0.860  0.00  0.00     0.013 C 
ENDBRANCH   7   8
ENDBRANCH   1   7
TORSDOF 2
ENDMDL
