MODEL 1
REMARK minimizedAffinity 7.4012394
REMARK minimizedRMSD -1
REMARK  2 active torsions:
REMARK  status: ('A' for Active; 'I' for Inactive)
REMARK    1  A    between atoms: C2'_3  and  C1'_4 
REMARK    2  A    between atoms: C1'_4  and  C1_5 
ROOT
ATOM      1  C1  I4B d   1      -3.573  -4.032  -3.640  0.00  0.00    -0.075 A 
ATOM      2  C2  I4B d   1      -3.054  -5.097  -2.947  0.00  0.00     0.003 A 
ATOM      3  C3  I4B d   1      -1.683  -5.119  -2.595  0.00  0.00     0.002 A 
ATOM      4  C4  I4B d   1      -0.861  -4.087  -2.998  0.00  0.00    -0.004 A 
ATOM      5  C5  I4B d   1      -1.393  -2.997  -3.681  0.00  0.00     0.002 A 
ATOM      6  C6  I4B d   1      -2.760  -2.963  -3.994  0.00  0.00     0.003 A 
ENDROOT
BRANCH   1   7
ATOM      7  C1' I4B d   1      -5.018  -4.057  -4.024  0.00  0.00     0.060 C 
BRANCH   7   8
ATOM      8  C2' I4B d   1      -5.098  -4.121  -5.536  0.00  0.00    -0.013 C 
ATOM      9  C4' I4B d   1      -5.603  -5.462  -5.999  0.00  0.00     0.013 C 
ATOM     10  C3' I4B d   1      -5.999  -3.014  -5.999  0.00  0.00     0.013 C 
ENDBRANCH   7   8
ENDBRANCH   1   7
TORSDOF 2
ENDMDL
