MODEL 1
REMARK minimizedAffinity 3.45565701
REMARK minimizedRMSD -1
REMARK  2 active torsions:
REMARK  status: ('A' for Active; 'I' for Inactive)
REMARK    1  A    between atoms: C2'_3  and  C1'_4 
REMARK    2  A    between atoms: C1'_4  and  C1_5 
ROOT
ATOM      1  C1  I4B d   1       1.091  -4.240  -2.737  0.00  0.00    -0.075 A 
ATOM      2  C2  I4B d   1       2.307  -4.870  -2.654  0.00  0.00     0.003 A 
ATOM      3  C3  I4B d   1       3.321  -4.356  -1.810  0.00  0.00     0.002 A 
ATOM      4  C4  I4B d   1       3.095  -3.188  -1.110  0.00  0.00    -0.004 A 
ATOM      5  C5  I4B d   1       1.853  -2.563  -1.177  0.00  0.00     0.002 A 
ATOM      6  C6  I4B d   1       0.840  -3.098  -1.986  0.00  0.00     0.003 A 
ENDROOT
BRANCH   1   7
ATOM      7  C1' I4B d   1       0.055  -4.791  -3.663  0.00  0.00     0.060 C 
BRANCH   7   8
ATOM      8  C2' I4B d   1      -1.306  -4.372  -3.145  0.00  0.00    -0.013 C 
ATOM      9  C4' I4B d   1      -2.194  -3.899  -4.266  0.00  0.00     0.013 C 
ATOM     10  C3' I4B d   1      -1.911  -5.544  -2.432  0.00  0.00     0.013 C 
ENDBRANCH   7   8
ENDBRANCH   1   7
TORSDOF 2
ENDMDL
