MODEL 1
REMARK minimizedAffinity -2.21370697
REMARK minimizedRMSD -1
REMARK  0 active torsions:
REMARK  status: ('A' for Active; 'I' for Inactive)
ROOT
ATOM      1  O1  BZF d   1      -1.425  -1.383  -3.150  0.00  0.00    -0.204 OA
ATOM      2  C2  BZF d   1      -1.348  -1.526  -1.778  0.00  0.00     0.174 A 
ATOM      3  C3  BZF d   1      -1.795  -0.416  -1.156  0.00  0.00    -0.012 A 
ATOM      4  C3A BZF d   1      -2.261   0.441  -2.203  0.00  0.00    -0.107 A 
ATOM      5  C4  BZF d   1      -2.833   1.681  -2.218  0.00  0.00     0.055 A 
ATOM      6  C5  BZF d   1      -3.104   2.270  -3.412  0.00  0.00    -0.016 A 
ATOM      7  C6  BZF d   1      -2.811   1.651  -4.610  0.00  0.00     0.022 A 
ATOM      8  C7  BZF d   1      -2.248   0.418  -4.646  0.00  0.00     0.029 A 
ATOM      9  C7A BZF d   1      -2.004  -0.193  -3.441  0.00  0.00     0.058 A 
ENDROOT
TORSDOF 0
ENDMDL
