MODEL 1
REMARK minimizedAffinity 5.98739052
REMARK minimizedRMSD -1
REMARK  0 active torsions:
REMARK  status: ('A' for Active; 'I' for Inactive)
ROOT
ATOM      1  O1  BZF d   1       1.968   5.379  -0.420  0.00  0.00    -0.204 OA
ATOM      2  C2  BZF d   1       0.919   5.057  -1.259  0.00  0.00     0.174 A 
ATOM      3  C3  BZF d   1       0.155   4.086  -0.718  0.00  0.00    -0.012 A 
ATOM      4  C3A BZF d   1       0.711   3.847   0.578  0.00  0.00    -0.107 A 
ATOM      5  C4  BZF d   1       0.380   3.006   1.602  0.00  0.00     0.055 A 
ATOM      6  C5  BZF d   1       1.171   2.966   2.706  0.00  0.00    -0.016 A 
ATOM      7  C6  BZF d   1       2.302   3.748   2.818  0.00  0.00     0.022 A 
ATOM      8  C7  BZF d   1       2.668   4.601   1.831  0.00  0.00     0.029 A 
ATOM      9  C7A BZF d   1       1.853   4.668   0.727  0.00  0.00     0.058 A 
ENDROOT
TORSDOF 0
ENDMDL
