MODEL 1
REMARK minimizedAffinity -2.84549594
REMARK minimizedRMSD -1
REMARK  0 active torsions:
REMARK  status: ('A' for Active; 'I' for Inactive)
ROOT
ATOM      1  O1  BZF d   1      -6.000   3.023  -5.097  0.00  0.00    -0.204 OA
ATOM      2  C2  BZF d   1      -5.013   3.398  -5.987  0.00  0.00     0.174 A 
ATOM      3  C3  BZF d   1      -3.809   3.434  -5.380  0.00  0.00    -0.012 A 
ATOM      4  C3A BZF d   1      -4.045   2.968  -4.048  0.00  0.00    -0.107 A 
ATOM      5  C4  BZF d   1      -3.236   2.763  -2.968  0.00  0.00     0.055 A 
ATOM      6  C5  BZF d   1      -3.791   2.371  -1.791  0.00  0.00    -0.016 A 
ATOM      7  C6  BZF d   1      -5.151   2.179  -1.659  0.00  0.00     0.022 A 
ATOM      8  C7  BZF d   1      -5.993   2.364  -2.704  0.00  0.00     0.029 A 
ATOM      9  C7A BZF d   1      -5.431   2.729  -3.903  0.00  0.00     0.058 A 
ENDROOT
TORSDOF 0
ENDMDL
