MODEL 1
REMARK minimizedAffinity 6.99179411
REMARK minimizedRMSD -1
REMARK  0 active torsions:
REMARK  status: ('A' for Active; 'I' for Inactive)
ROOT
ATOM      1  O1  BZF d   1       1.742   0.370   0.014  0.00  0.00    -0.204 OA
ATOM      2  C2  BZF d   1       1.553  -0.086  -1.277  0.00  0.00     0.174 A 
ATOM      3  C3  BZF d   1       0.649   0.675  -1.926  0.00  0.00    -0.012 A 
ATOM      4  C3A BZF d   1       0.316   1.725  -1.012  0.00  0.00    -0.107 A 
ATOM      5  C4  BZF d   1      -0.518   2.804  -1.086  0.00  0.00     0.055 A 
ATOM      6  C5  BZF d   1      -0.672   3.595   0.008  0.00  0.00    -0.016 A 
ATOM      7  C6  BZF d   1      -0.013   3.334   1.192  0.00  0.00     0.022 A 
ATOM      8  C7  BZF d   1       0.828   2.279   1.311  0.00  0.00     0.029 A 
ATOM      9  C7A BZF d   1       1.011   1.496   0.197  0.00  0.00     0.058 A 
ENDROOT
TORSDOF 0
ENDMDL
