MODEL 1
REMARK minimizedAffinity 2.85371661
REMARK minimizedRMSD -1
REMARK  0 active torsions:
REMARK  status: ('A' for Active; 'I' for Inactive)
ROOT
ATOM      1  O1  BZF d   1      -0.812  -3.934  -0.981  0.00  0.00    -0.204 OA
ATOM      2  C2  BZF d   1       0.467  -3.621  -0.562  0.00  0.00     0.174 A 
ATOM      3  C3  BZF d   1       1.171  -3.048  -1.560  0.00  0.00    -0.012 A 
ATOM      4  C3A BZF d   1       0.247  -2.917  -2.644  0.00  0.00    -0.107 A 
ATOM      5  C4  BZF d   1       0.347  -2.405  -3.907  0.00  0.00     0.055 A 
ATOM      6  C5  BZF d   1      -0.720  -2.495  -4.742  0.00  0.00    -0.016 A 
ATOM      7  C6  BZF d   1      -1.900  -3.093  -4.351  0.00  0.00     0.022 A 
ATOM      8  C7  BZF d   1      -2.050  -3.610  -3.107  0.00  0.00     0.029 A 
ATOM      9  C7A BZF d   1      -0.984  -3.491  -2.249  0.00  0.00     0.058 A 
ENDROOT
TORSDOF 0
ENDMDL
