MODEL 1
REMARK minimizedAffinity -4.57299137
REMARK minimizedRMSD -1
REMARK  0 active torsions:
REMARK  status: ('A' for Active; 'I' for Inactive)
ROOT
ATOM      1  O1  BZF d   1      -4.126   3.662  -3.788  0.00  0.00    -0.204 OA
ATOM      2  C2  BZF d   1      -5.090   3.823  -2.812  0.00  0.00     0.174 A 
ATOM      3  C3  BZF d   1      -6.000   2.828  -2.869  0.00  0.00    -0.012 A 
ATOM      4  C3A BZF d   1      -5.526   1.944  -3.889  0.00  0.00    -0.107 A 
ATOM      5  C4  BZF d   1      -5.990   0.765  -4.399  0.00  0.00     0.055 A 
ATOM      6  C5  BZF d   1      -5.332   0.192  -5.441  0.00  0.00    -0.016 A 
ATOM      7  C6  BZF d   1      -4.212   0.772  -6.000  0.00  0.00     0.022 A 
ATOM      8  C7  BZF d   1      -3.712   1.938  -5.525  0.00  0.00     0.029 A 
ATOM      9  C7A BZF d   1      -4.355   2.503  -4.450  0.00  0.00     0.058 A 
ENDROOT
TORSDOF 0
ENDMDL
