MODEL 1
REMARK minimizedAffinity -2.70823622
REMARK minimizedRMSD -1
REMARK  0 active torsions:
REMARK  status: ('A' for Active; 'I' for Inactive)
ROOT
ATOM      1  O1  BZF d   1      -5.959   2.591  -5.958  0.00  0.00    -0.204 OA
ATOM      2  C2  BZF d   1      -5.212   3.754  -5.949  0.00  0.00     0.174 A 
ATOM      3  C3  BZF d   1      -3.894   3.476  -5.893  0.00  0.00    -0.012 A 
ATOM      4  C3A BZF d   1      -3.807   2.049  -5.957  0.00  0.00    -0.107 A 
ATOM      5  C4  BZF d   1      -2.761   1.172  -5.959  0.00  0.00     0.055 A 
ATOM      6  C5  BZF d   1      -3.018  -0.163  -5.957  0.00  0.00    -0.016 A 
ATOM      7  C6  BZF d   1      -4.308  -0.653  -5.949  0.00  0.00     0.022 A 
ATOM      8  C7  BZF d   1      -5.378   0.178  -5.953  0.00  0.00     0.029 A 
ATOM      9  C7A BZF d   1      -5.121   1.527  -5.987  0.00  0.00     0.058 A 
ENDROOT
TORSDOF 0
ENDMDL
