MODEL 1
REMARK minimizedAffinity 3.36517
REMARK minimizedRMSD -1
REMARK  0 active torsions:
REMARK  status: ('A' for Active; 'I' for Inactive)
ROOT
ATOM      1  O1  BZF d   1       0.684   2.979   1.039  0.00  0.00    -0.204 OA
ATOM      2  C2  BZF d   1      -0.178   3.484   0.085  0.00  0.00     0.174 A 
ATOM      3  C3  BZF d   1      -0.222   2.679  -0.996  0.00  0.00    -0.012 A 
ATOM      4  C3A BZF d   1       0.598   1.555  -0.660  0.00  0.00    -0.107 A 
ATOM      5  C4  BZF d   1       0.936   0.409  -1.321  0.00  0.00     0.055 A 
ATOM      6  C5  BZF d   1       1.817  -0.451  -0.745  0.00  0.00    -0.016 A 
ATOM      7  C6  BZF d   1       2.381  -0.194   0.488  0.00  0.00     0.022 A 
ATOM      8  C7  BZF d   1       2.072   0.927   1.184  0.00  0.00     0.029 A 
ATOM      9  C7A BZF d   1       1.158   1.782   0.618  0.00  0.00     0.058 A 
ENDROOT
TORSDOF 0
ENDMDL
