MODEL 1
REMARK minimizedAffinity 14.810791
REMARK minimizedRMSD -1
REMARK  0 active torsions:
REMARK  status: ('A' for Active; 'I' for Inactive)
ROOT
ATOM      1  O1  BZF d   1       1.973   4.133   0.111  0.00  0.00    -0.204 OA
ATOM      2  C2  BZF d   1       1.045   4.684  -0.752  0.00  0.00     0.174 A 
ATOM      3  C3  BZF d   1      -0.207   4.325  -0.401  0.00  0.00    -0.012 A 
ATOM      4  C3A BZF d   1      -0.058   3.574   0.807  0.00  0.00    -0.107 A 
ATOM      5  C4  BZF d   1      -0.944   2.962   1.647  0.00  0.00     0.055 A 
ATOM      6  C5  BZF d   1      -0.469   2.249   2.702  0.00  0.00    -0.016 A 
ATOM      7  C6  BZF d   1       0.883   2.123   2.944  0.00  0.00     0.022 A 
ATOM      8  C7  BZF d   1       1.800   2.716   2.141  0.00  0.00     0.029 A 
ATOM      9  C7A BZF d   1       1.322   3.465   1.093  0.00  0.00     0.058 A 
ENDROOT
TORSDOF 0
ENDMDL
