MODEL 1
REMARK minimizedAffinity 2.27956629
REMARK minimizedRMSD -1
REMARK  0 active torsions:
REMARK  status: ('A' for Active; 'I' for Inactive)
ROOT
ATOM      1  O1  BZF d   1       0.902   1.364  -1.557  0.00  0.00    -0.204 OA
ATOM      2  C2  BZF d   1       0.572   2.565  -0.958  0.00  0.00     0.174 A 
ATOM      3  C3  BZF d   1      -0.684   2.526  -0.468  0.00  0.00    -0.012 A 
ATOM      4  C3A BZF d   1      -1.137   1.188  -0.699  0.00  0.00    -0.107 A 
ATOM      5  C4  BZF d   1      -2.300   0.530  -0.421  0.00  0.00     0.055 A 
ATOM      6  C5  BZF d   1      -2.451  -0.753  -0.845  0.00  0.00    -0.016 A 
ATOM      7  C6  BZF d   1      -1.462  -1.404  -1.552  0.00  0.00     0.022 A 
ATOM      8  C7  BZF d   1      -0.289  -0.794  -1.848  0.00  0.00     0.029 A 
ATOM      9  C7A BZF d   1      -0.121   0.491  -1.393  0.00  0.00     0.058 A 
ENDROOT
TORSDOF 0
ENDMDL
