MODEL 1
REMARK minimizedAffinity 6.01479864
REMARK minimizedRMSD -1
REMARK  0 active torsions:
REMARK  status: ('A' for Active; 'I' for Inactive)
ROOT
ATOM      1  O1  BZF d   1      -5.601   3.761  -5.309  0.00  0.00    -0.204 OA
ATOM      2  C2  BZF d   1      -4.474   4.162  -6.000  0.00  0.00     0.174 A 
ATOM      3  C3  BZF d   1      -3.385   4.116  -5.206  0.00  0.00    -0.012 A 
ATOM      4  C3A BZF d   1      -3.846   3.570  -3.967  0.00  0.00    -0.107 A 
ATOM      5  C4  BZF d   1      -3.228   3.266  -2.787  0.00  0.00     0.055 A 
ATOM      6  C5  BZF d   1      -3.976   2.814  -1.747  0.00  0.00    -0.016 A 
ATOM      7  C6  BZF d   1      -5.343   2.660  -1.849  0.00  0.00     0.022 A 
ATOM      8  C7  BZF d   1      -6.000   2.943  -3.000  0.00  0.00     0.029 A 
ATOM      9  C7A BZF d   1      -5.242   3.369  -4.063  0.00  0.00     0.058 A 
ENDROOT
TORSDOF 0
ENDMDL
