MODEL 1
REMARK minimizedAffinity 13.2316427
REMARK minimizedRMSD -1
REMARK  0 active torsions:
REMARK  status: ('A' for Active; 'I' for Inactive)
ROOT
ATOM      1  C   UNL d   1      -0.381  -4.938  -4.025  0.00  0.00     0.124 A 
ATOM      2  C1  UNL d   1       0.088  -4.941  -2.718  0.00  0.00     0.062 A 
ATOM      3  C2  UNL d   1      -0.142  -3.847  -1.890  0.00  0.00     0.162 A 
ATOM      4  C3  UNL d   1      -0.847  -2.740  -2.364  0.00  0.00    -0.034 A 
ATOM      5  C4  UNL d   1      -1.315  -2.745  -3.680  0.00  0.00     0.162 A 
ATOM      6  C5  UNL d   1      -1.081  -3.841  -4.504  0.00  0.00     0.062 A 
ATOM      7  F   UNL d   1      -1.535  -3.837  -5.766  0.00  0.00    -0.097 F 
ATOM      8  F1  UNL d   1      -1.996  -1.698  -4.169  0.00  0.00    -0.096 F 
ATOM      9  I   UNL d   1      -1.194  -1.102  -1.129  0.00  0.00    -0.060 I 
ATOM     10  F2  UNL d   1       0.322  -3.876  -0.632  0.00  0.00    -0.096 F 
ATOM     11  F3  UNL d   1       0.767  -6.000  -2.253  0.00  0.00    -0.097 F 
ATOM     12  F4  UNL d   1      -0.156  -5.992  -4.820  0.00  0.00    -0.092 F 
ENDROOT
TORSDOF 0
ENDMDL
