MODEL 1
REMARK minimizedAffinity 9.2370348
REMARK minimizedRMSD -1
REMARK  0 active torsions:
REMARK  status: ('A' for Active; 'I' for Inactive)
ROOT
ATOM      1  C   UNL d   1       4.307   5.065  -4.107  0.00  0.00     0.124 A 
ATOM      2  C1  UNL d   1       4.738   4.586  -2.878  0.00  0.00     0.062 A 
ATOM      3  C2  UNL d   1       3.871   4.574  -1.789  0.00  0.00     0.162 A 
ATOM      4  C3  UNL d   1       2.564   5.041  -1.924  0.00  0.00    -0.034 A 
ATOM      5  C4  UNL d   1       2.138   5.523  -3.163  0.00  0.00     0.162 A 
ATOM      6  C5  UNL d   1       3.008   5.533  -4.249  0.00  0.00     0.062 A 
ATOM      7  F   UNL d   1       2.590   5.996  -5.436  0.00  0.00    -0.097 F 
ATOM      8  F1  UNL d   1       0.888   5.980  -3.328  0.00  0.00    -0.096 F 
ATOM      9  I   UNL d   1       1.265   5.024  -0.298  0.00  0.00    -0.060 I 
ATOM     10  F2  UNL d   1       4.314   4.105  -0.613  0.00  0.00    -0.096 F 
ATOM     11  F3  UNL d   1       5.992   4.134  -2.738  0.00  0.00    -0.097 F 
ATOM     12  F4  UNL d   1       5.143   5.077  -5.153  0.00  0.00    -0.092 F 
ENDROOT
TORSDOF 0
ENDMDL
