MODEL 1
REMARK minimizedAffinity 15.2188387
REMARK minimizedRMSD -1
REMARK  0 active torsions:
REMARK  status: ('A' for Active; 'I' for Inactive)
ROOT
ATOM      1  C   UNL d   1       2.560   5.067  -2.449  0.00  0.00     0.124 A 
ATOM      2  C1  UNL d   1       2.276   5.457  -3.751  0.00  0.00     0.062 A 
ATOM      3  C2  UNL d   1       3.249   5.352  -4.740  0.00  0.00     0.162 A 
ATOM      4  C3  UNL d   1       4.515   4.853  -4.433  0.00  0.00    -0.034 A 
ATOM      5  C4  UNL d   1       4.793   4.463  -3.121  0.00  0.00     0.162 A 
ATOM      6  C5  UNL d   1       3.817   4.571  -2.136  0.00  0.00     0.062 A 
ATOM      7  F   UNL d   1       4.093   4.193  -0.879  0.00  0.00    -0.097 F 
ATOM      8  F1  UNL d   1       5.999   3.979  -2.791  0.00  0.00    -0.096 F 
ATOM      9  I   UNL d   1       5.972   4.694  -5.910  0.00  0.00    -0.060 I 
ATOM     10  F2  UNL d   1       2.948   5.736  -5.990  0.00  0.00    -0.096 F 
ATOM     11  F3  UNL d   1       1.062   5.938  -4.056  0.00  0.00    -0.097 F 
ATOM     12  F4  UNL d   1       1.622   5.170  -1.498  0.00  0.00    -0.092 F 
ENDROOT
TORSDOF 0
ENDMDL
