MODEL 1
REMARK minimizedAffinity 6.60509348
REMARK minimizedRMSD -1
REMARK  0 active torsions:
REMARK  status: ('A' for Active; 'I' for Inactive)
ROOT
ATOM      1  C   UNL d   1       2.611   4.814  -2.082  0.00  0.00     0.124 A 
ATOM      2  C1  UNL d   1       3.878   4.255  -2.003  0.00  0.00     0.062 A 
ATOM      3  C2  UNL d   1       4.724   4.278  -3.108  0.00  0.00     0.162 A 
ATOM      4  C3  UNL d   1       4.305   4.864  -4.302  0.00  0.00    -0.034 A 
ATOM      5  C4  UNL d   1       3.029   5.424  -4.375  0.00  0.00     0.162 A 
ATOM      6  C5  UNL d   1       2.187   5.398  -3.268  0.00  0.00     0.062 A 
ATOM      7  F   UNL d   1       0.963   5.939  -3.346  0.00  0.00    -0.097 F 
ATOM      8  F1  UNL d   1       2.594   5.995  -5.508  0.00  0.00    -0.096 F 
ATOM      9  I   UNL d   1       5.567   4.900  -5.957  0.00  0.00    -0.060 I 
ATOM     10  F2  UNL d   1       5.944   3.729  -3.003  0.00  0.00    -0.096 F 
ATOM     11  F3  UNL d   1       4.290   3.689  -0.859  0.00  0.00    -0.097 F 
ATOM     12  F4  UNL d   1       1.799   4.790  -1.017  0.00  0.00    -0.092 F 
ENDROOT
TORSDOF 0
ENDMDL
