MODEL 1
REMARK minimizedAffinity 6.79744482
REMARK minimizedRMSD -1
REMARK  0 active torsions:
REMARK  status: ('A' for Active; 'I' for Inactive)
ROOT
ATOM      1  C   UNL d   1       3.682  -1.736  -1.923  0.00  0.00     0.124 A 
ATOM      2  C1  UNL d   1       3.442  -1.819  -3.288  0.00  0.00     0.062 A 
ATOM      3  C2  UNL d   1       2.149  -2.023  -3.760  0.00  0.00     0.162 A 
ATOM      4  C3  UNL d   1       1.085  -2.144  -2.867  0.00  0.00    -0.034 A 
ATOM      5  C4  UNL d   1       1.334  -2.060  -1.496  0.00  0.00     0.162 A 
ATOM      6  C5  UNL d   1       2.628  -1.856  -1.029  0.00  0.00     0.062 A 
ATOM      7  F   UNL d   1       2.858  -1.776   0.290  0.00  0.00    -0.097 F 
ATOM      8  F1  UNL d   1       0.334  -2.172  -0.609  0.00  0.00    -0.096 F 
ATOM      9  I   UNL d   1      -0.851  -2.449  -3.569  0.00  0.00    -0.060 I 
ATOM     10  F2  UNL d   1       1.947  -2.100  -5.084  0.00  0.00    -0.096 F 
ATOM     11  F3  UNL d   1       4.459  -1.704  -4.154  0.00  0.00    -0.097 F 
ATOM     12  F4  UNL d   1       4.928  -1.540  -1.472  0.00  0.00    -0.092 F 
ENDROOT
TORSDOF 0
ENDMDL
