MODEL 1
REMARK minimizedAffinity 15.5744143
REMARK minimizedRMSD -1
REMARK  0 active torsions:
REMARK  status: ('A' for Active; 'I' for Inactive)
ROOT
ATOM      1  C   UNL d   1       4.410   4.869  -4.378  0.00  0.00     0.124 A 
ATOM      2  C1  UNL d   1       3.148   5.423  -4.540  0.00  0.00     0.062 A 
ATOM      3  C2  UNL d   1       2.255   5.456  -3.473  0.00  0.00     0.162 A 
ATOM      4  C3  UNL d   1       2.622   4.934  -2.233  0.00  0.00    -0.034 A 
ATOM      5  C4  UNL d   1       3.893   4.377  -2.077  0.00  0.00     0.162 A 
ATOM      6  C5  UNL d   1       4.781   4.347  -3.147  0.00  0.00     0.062 A 
ATOM      7  F   UNL d   1       6.000   3.810  -2.988  0.00  0.00    -0.097 F 
ATOM      8  F1  UNL d   1       4.277   3.866  -0.898  0.00  0.00    -0.096 F 
ATOM      9  I   UNL d   1       1.290   4.982  -0.634  0.00  0.00    -0.060 I 
ATOM     10  F2  UNL d   1       1.042   5.998  -3.659  0.00  0.00    -0.096 F 
ATOM     11  F3  UNL d   1       2.787   5.928  -5.729  0.00  0.00    -0.097 F 
ATOM     12  F4  UNL d   1       5.267   4.837  -5.407  0.00  0.00    -0.092 F 
ENDROOT
TORSDOF 0
ENDMDL
