MODEL 1
REMARK minimizedAffinity 20.3795128
REMARK minimizedRMSD -1
REMARK  0 active torsions:
REMARK  status: ('A' for Active; 'I' for Inactive)
ROOT
ATOM      1  C   UNL d   1       0.207  -2.928  -1.055  0.00  0.00     0.124 A 
ATOM      2  C1  UNL d   1      -0.713  -2.136  -1.729  0.00  0.00     0.062 A 
ATOM      3  C2  UNL d   1      -1.400  -2.643  -2.828  0.00  0.00     0.162 A 
ATOM      4  C3  UNL d   1      -1.172  -3.949  -3.260  0.00  0.00    -0.034 A 
ATOM      5  C4  UNL d   1      -0.245  -4.739  -2.577  0.00  0.00     0.162 A 
ATOM      6  C5  UNL d   1       0.440  -4.228  -1.480  0.00  0.00     0.062 A 
ATOM      7  F   UNL d   1       1.328  -4.995  -0.830  0.00  0.00    -0.097 F 
ATOM      8  F1  UNL d   1      -0.001  -5.999  -2.966  0.00  0.00    -0.096 F 
ATOM      9  I   UNL d   1      -2.197  -4.710  -4.903  0.00  0.00    -0.060 I 
ATOM     10  F2  UNL d   1      -2.283  -1.855  -3.460  0.00  0.00    -0.096 F 
ATOM     11  F3  UNL d   1      -0.939  -0.879  -1.321  0.00  0.00    -0.097 F 
ATOM     12  F4  UNL d   1       0.868  -2.437   0.002  0.00  0.00    -0.092 F 
ENDROOT
TORSDOF 0
ENDMDL
