MODEL 1
REMARK minimizedAffinity 7.19797134
REMARK minimizedRMSD -1
REMARK  0 active torsions:
REMARK  status: ('A' for Active; 'I' for Inactive)
ROOT
ATOM      1  C   UNL d   1       4.353   4.893  -4.370  0.00  0.00     0.124 A 
ATOM      2  C1  UNL d   1       3.078   5.430  -4.483  0.00  0.00     0.062 A 
ATOM      3  C2  UNL d   1       2.215   5.419  -3.391  0.00  0.00     0.162 A 
ATOM      4  C3  UNL d   1       2.624   4.870  -2.175  0.00  0.00    -0.034 A 
ATOM      5  C4  UNL d   1       3.908   4.332  -2.070  0.00  0.00     0.162 A 
ATOM      6  C5  UNL d   1       4.767   4.345  -3.164  0.00  0.00     0.062 A 
ATOM      7  F   UNL d   1       5.999   3.827  -3.053  0.00  0.00    -0.097 F 
ATOM      8  F1  UNL d   1       4.334   3.797  -0.916  0.00  0.00    -0.096 F 
ATOM      9  I   UNL d   1       1.337   4.852  -0.540  0.00  0.00    -0.060 I 
ATOM     10  F2  UNL d   1       0.988   5.944  -3.529  0.00  0.00    -0.096 F 
ATOM     11  F3  UNL d   1       2.676   5.959  -5.647  0.00  0.00    -0.097 F 
ATOM     12  F4  UNL d   1       5.181   4.904  -5.422  0.00  0.00    -0.092 F 
ENDROOT
TORSDOF 0
ENDMDL
