MODEL 1
REMARK minimizedAffinity 1.19637334
REMARK minimizedRMSD -1
REMARK  0 active torsions:
REMARK  status: ('A' for Active; 'I' for Inactive)
ROOT
ATOM      1  C   UNL d   1       2.772   5.453  -2.433  0.00  0.00     0.124 A 
ATOM      2  C1  UNL d   1       3.947   4.894  -1.951  0.00  0.00     0.062 A 
ATOM      3  C2  UNL d   1       4.870   4.337  -2.831  0.00  0.00     0.162 A 
ATOM      4  C3  UNL d   1       4.622   4.336  -4.204  0.00  0.00    -0.034 A 
ATOM      5  C4  UNL d   1       3.437   4.899  -4.681  0.00  0.00     0.162 A 
ATOM      6  C5  UNL d   1       2.518   5.455  -3.797  0.00  0.00     0.062 A 
ATOM      7  F   UNL d   1       1.383   5.995  -4.265  0.00  0.00    -0.097 F 
ATOM      8  F1  UNL d   1       3.167   4.916  -5.995  0.00  0.00    -0.096 F 
ATOM      9  I   UNL d   1       5.999   3.504  -5.523  0.00  0.00    -0.060 I 
ATOM     10  F2  UNL d   1       5.997   3.804  -2.337  0.00  0.00    -0.096 F 
ATOM     11  F3  UNL d   1       4.195   4.891  -0.633  0.00  0.00    -0.097 F 
ATOM     12  F4  UNL d   1       1.885   5.988  -1.584  0.00  0.00    -0.092 F 
ENDROOT
TORSDOF 0
ENDMDL
