MODEL 1
REMARK minimizedAffinity 9.09934711
REMARK minimizedRMSD -1
REMARK  0 active torsions:
REMARK  status: ('A' for Active; 'I' for Inactive)
ROOT
ATOM      1  C   UNL d   1       4.415   4.810  -4.408  0.00  0.00     0.124 A 
ATOM      2  C1  UNL d   1       4.842   5.240  -3.159  0.00  0.00     0.062 A 
ATOM      3  C2  UNL d   1       4.075   4.976  -2.028  0.00  0.00     0.162 A 
ATOM      4  C3  UNL d   1       2.873   4.277  -2.140  0.00  0.00    -0.034 A 
ATOM      5  C4  UNL d   1       2.449   3.849  -3.399  0.00  0.00     0.162 A 
ATOM      6  C5  UNL d   1       3.219   4.116  -4.527  0.00  0.00     0.062 A 
ATOM      7  F   UNL d   1       2.805   3.700  -5.732  0.00  0.00    -0.097 F 
ATOM      8  F1  UNL d   1       1.299   3.175  -3.543  0.00  0.00    -0.096 F 
ATOM      9  I   UNL d   1       1.723   3.881  -0.451  0.00  0.00    -0.060 I 
ATOM     10  F2  UNL d   1       4.512   5.403  -0.834  0.00  0.00    -0.096 F 
ATOM     11  F3  UNL d   1       5.996   5.912  -3.042  0.00  0.00    -0.097 F 
ATOM     12  F4  UNL d   1       5.154   5.066  -5.495  0.00  0.00    -0.092 F 
ENDROOT
TORSDOF 0
ENDMDL
