MODEL 1
REMARK minimizedAffinity 7.99085617
REMARK minimizedRMSD -1
REMARK  0 active torsions:
REMARK  status: ('A' for Active; 'I' for Inactive)
ROOT
ATOM      1  C   UNL d   1       2.833   4.229  -4.256  0.00  0.00     0.124 A 
ATOM      2  C1  UNL d   1       2.583   4.091  -2.897  0.00  0.00     0.062 A 
ATOM      3  C2  UNL d   1       3.485   4.594  -1.965  0.00  0.00     0.162 A 
ATOM      4  C3  UNL d   1       4.647   5.240  -2.388  0.00  0.00    -0.034 A 
ATOM      5  C4  UNL d   1       4.892   5.374  -3.755  0.00  0.00     0.162 A 
ATOM      6  C5  UNL d   1       3.987   4.870  -4.683  0.00  0.00     0.062 A 
ATOM      7  F   UNL d   1       4.230   5.003  -5.995  0.00  0.00    -0.097 F 
ATOM      8  F1  UNL d   1       5.999   5.990  -4.196  0.00  0.00    -0.096 F 
ATOM      9  I   UNL d   1       6.000   5.993  -0.997  0.00  0.00    -0.060 I 
ATOM     10  F2  UNL d   1       3.218   4.447  -0.659  0.00  0.00    -0.096 F 
ATOM     11  F3  UNL d   1       1.469   3.471  -2.482  0.00  0.00    -0.097 F 
ATOM     12  F4  UNL d   1       1.963   3.743  -5.151  0.00  0.00    -0.092 F 
ENDROOT
TORSDOF 0
ENDMDL
