MODEL 1
REMARK minimizedAffinity 15.2997494
REMARK minimizedRMSD -1
REMARK  0 active torsions:
REMARK  status: ('A' for Active; 'I' for Inactive)
ROOT
ATOM      1  C   UNL d   1       1.017  -2.656  -4.794  0.00  0.00     0.124 A 
ATOM      2  C1  UNL d   1       1.810  -2.439  -3.676  0.00  0.00     0.062 A 
ATOM      3  C2  UNL d   1       1.226  -2.291  -2.421  0.00  0.00     0.162 A 
ATOM      4  C3  UNL d   1      -0.160  -2.362  -2.277  0.00  0.00    -0.034 A 
ATOM      5  C4  UNL d   1      -0.951  -2.579  -3.406  0.00  0.00     0.162 A 
ATOM      6  C5  UNL d   1      -0.363  -2.726  -4.658  0.00  0.00     0.062 A 
ATOM      7  F   UNL d   1      -1.131  -2.936  -5.737  0.00  0.00    -0.097 F 
ATOM      8  F1  UNL d   1      -2.286  -2.652  -3.303  0.00  0.00    -0.096 F 
ATOM      9  I   UNL d   1      -1.037  -2.142  -0.402  0.00  0.00    -0.060 I 
ATOM     10  F2  UNL d   1       2.017  -2.083  -1.358  0.00  0.00    -0.096 F 
ATOM     11  F3  UNL d   1       3.143  -2.370  -3.804  0.00  0.00    -0.097 F 
ATOM     12  F4  UNL d   1       1.581  -2.796  -6.000  0.00  0.00    -0.092 F 
ENDROOT
TORSDOF 0
ENDMDL
