MODEL 1
REMARK minimizedAffinity 13.4257812
REMARK minimizedRMSD -1
REMARK  0 active torsions:
REMARK  status: ('A' for Active; 'I' for Inactive)
ROOT
ATOM      1  C   UNL d   1      -2.904  -2.548  -1.419  0.00  0.00     0.124 A 
ATOM      2  C1  UNL d   1      -1.822  -2.357  -0.571  0.00  0.00     0.062 A 
ATOM      3  C2  UNL d   1      -0.536  -2.242  -1.091  0.00  0.00     0.162 A 
ATOM      4  C3  UNL d   1      -0.325  -2.317  -2.468  0.00  0.00    -0.034 A 
ATOM      5  C4  UNL d   1      -1.418  -2.511  -3.315  0.00  0.00     0.162 A 
ATOM      6  C5  UNL d   1      -2.701  -2.625  -2.789  0.00  0.00     0.062 A 
ATOM      7  F   UNL d   1      -3.745  -2.811  -3.610  0.00  0.00    -0.097 F 
ATOM      8  F1  UNL d   1      -1.251  -2.588  -4.643  0.00  0.00    -0.096 F 
ATOM      9  I   UNL d   1       1.596  -2.145  -3.250  0.00  0.00    -0.060 I 
ATOM     10  F2  UNL d   1       0.490  -2.057  -0.248  0.00  0.00    -0.096 F 
ATOM     11  F3  UNL d   1      -2.015  -2.283   0.754  0.00  0.00    -0.097 F 
ATOM     12  F4  UNL d   1      -4.140  -2.660  -0.915  0.00  0.00    -0.092 F 
ENDROOT
TORSDOF 0
ENDMDL
