MODEL 1
REMARK minimizedAffinity 6.06892157
REMARK minimizedRMSD -1
REMARK  0 active torsions:
REMARK  status: ('A' for Active; 'I' for Inactive)
ROOT
ATOM      1  C   UNL d   1       2.856   4.249  -1.921  0.00  0.00     0.124 A 
ATOM      2  C1  UNL d   1       4.002   4.979  -1.638  0.00  0.00     0.062 A 
ATOM      3  C2  UNL d   1       4.901   5.293  -2.653  0.00  0.00     0.162 A 
ATOM      4  C3  UNL d   1       4.657   4.877  -3.962  0.00  0.00    -0.034 A 
ATOM      5  C4  UNL d   1       3.503   4.142  -4.239  0.00  0.00     0.162 A 
ATOM      6  C5  UNL d   1       2.608   3.831  -3.221  0.00  0.00     0.062 A 
ATOM      7  F   UNL d   1       1.501   3.125  -3.496  0.00  0.00    -0.097 F 
ATOM      8  F1  UNL d   1       3.237   3.727  -5.487  0.00  0.00    -0.096 F 
ATOM      9  I   UNL d   1       5.998   5.345  -5.484  0.00  0.00    -0.060 I 
ATOM     10  F2  UNL d   1       6.000   6.000  -2.351  0.00  0.00    -0.096 F 
ATOM     11  F3  UNL d   1       4.245   5.383  -0.383  0.00  0.00    -0.097 F 
ATOM     12  F4  UNL d   1       1.994   3.947  -0.942  0.00  0.00    -0.092 F 
ENDROOT
TORSDOF 0
ENDMDL
