MODEL 1
REMARK minimizedAffinity 12.829031
REMARK minimizedRMSD -1
REMARK  0 active torsions:
REMARK  status: ('A' for Active; 'I' for Inactive)
ROOT
ATOM      1  C   UNL d   1       3.664  -2.752  -4.164  0.00  0.00     0.124 A 
ATOM      2  C1  UNL d   1       3.479  -4.063  -3.747  0.00  0.00     0.062 A 
ATOM      3  C2  UNL d   1       4.145  -4.540  -2.622  0.00  0.00     0.162 A 
ATOM      4  C3  UNL d   1       5.002  -3.705  -1.905  0.00  0.00    -0.034 A 
ATOM      5  C4  UNL d   1       5.183  -2.388  -2.331  0.00  0.00     0.162 A 
ATOM      6  C5  UNL d   1       4.515  -1.916  -3.455  0.00  0.00     0.062 A 
ATOM      7  F   UNL d   1       4.695  -0.649  -3.857  0.00  0.00    -0.097 F 
ATOM      8  F1  UNL d   1       6.000  -1.559  -1.664  0.00  0.00    -0.096 F 
ATOM      9  I   UNL d   1       6.000  -4.415  -0.222  0.00  0.00    -0.060 I 
ATOM     10  F2  UNL d   1       3.948  -5.811  -2.242  0.00  0.00    -0.096 F 
ATOM     11  F3  UNL d   1       2.657  -4.872  -4.431  0.00  0.00    -0.097 F 
ATOM     12  F4  UNL d   1       3.022  -2.295  -5.247  0.00  0.00    -0.092 F 
ENDROOT
TORSDOF 0
ENDMDL
