MODEL 1
REMARK minimizedAffinity 13.9161634
REMARK minimizedRMSD -1
REMARK  0 active torsions:
REMARK  status: ('A' for Active; 'I' for Inactive)
ROOT
ATOM      1  C   UNL d   1      -0.498  -2.055  -1.870  0.00  0.00     0.124 A 
ATOM      2  C1  UNL d   1       0.871  -2.278  -1.819  0.00  0.00     0.062 A 
ATOM      3  C2  UNL d   1       1.579  -2.554  -2.984  0.00  0.00     0.162 A 
ATOM      4  C3  UNL d   1       0.920  -2.609  -4.212  0.00  0.00    -0.034 A 
ATOM      5  C4  UNL d   1      -0.457  -2.384  -4.256  0.00  0.00     0.162 A 
ATOM      6  C5  UNL d   1      -1.161  -2.108  -3.088  0.00  0.00     0.062 A 
ATOM      7  F   UNL d   1      -2.483  -1.893  -3.139  0.00  0.00    -0.097 F 
ATOM      8  F1  UNL d   1      -1.123  -2.429  -5.420  0.00  0.00    -0.096 F 
ATOM      9  I   UNL d   1       1.975  -3.022  -5.958  0.00  0.00    -0.060 I 
ATOM     10  F2  UNL d   1       2.902  -2.766  -2.905  0.00  0.00    -0.096 F 
ATOM     11  F3  UNL d   1       1.513  -2.227  -0.643  0.00  0.00    -0.097 F 
ATOM     12  F4  UNL d   1      -1.177  -1.790  -0.746  0.00  0.00    -0.092 F 
ENDROOT
TORSDOF 0
ENDMDL
