MODEL 1
REMARK minimizedAffinity 9.8192482
REMARK minimizedRMSD -1
REMARK  0 active torsions:
REMARK  status: ('A' for Active; 'I' for Inactive)
ROOT
ATOM      1  C   UNL d   1      -0.022  -1.162   4.356  0.00  0.00     0.078 C 
ATOM      2  C1  UNL d   1      -1.334  -0.793   3.730  0.00  0.00    -0.077 A 
ATOM      3  C2  UNL d   1      -2.496  -1.523   4.006  0.00  0.00    -0.001 A 
ATOM      4  C3  UNL d   1      -3.708  -1.173   3.408  0.00  0.00     0.003 A 
ATOM      5  C4  UNL d   1      -3.769  -0.094   2.529  0.00  0.00    -0.005 A 
ATOM      6  C5  UNL d   1      -2.617   0.637   2.246  0.00  0.00     0.003 A 
ATOM      7  C6  UNL d   1      -1.404   0.289   2.843  0.00  0.00    -0.001 A 
ENDROOT
TORSDOF 0
ENDMDL
