MODEL 1
REMARK minimizedAffinity 3.44066501
REMARK minimizedRMSD -1
REMARK  0 active torsions:
REMARK  status: ('A' for Active; 'I' for Inactive)
ROOT
ATOM      1  C   UNL d   1       0.953  -0.632   0.017  0.00  0.00     0.078 C 
ATOM      2  C1  UNL d   1      -0.449  -0.233   0.370  0.00  0.00    -0.077 A 
ATOM      3  C2  UNL d   1      -1.482  -0.323  -0.571  0.00  0.00    -0.001 A 
ATOM      4  C3  UNL d   1      -2.781   0.060  -0.232  0.00  0.00     0.003 A 
ATOM      5  C4  UNL d   1      -3.058   0.537   1.047  0.00  0.00    -0.005 A 
ATOM      6  C5  UNL d   1      -2.036   0.633   1.990  0.00  0.00     0.003 A 
ATOM      7  C6  UNL d   1      -0.737   0.250   1.653  0.00  0.00    -0.001 A 
ENDROOT
TORSDOF 0
ENDMDL
