MODEL 1
REMARK minimizedAffinity 4.96684122
REMARK minimizedRMSD -1
REMARK  0 active torsions:
REMARK  status: ('A' for Active; 'I' for Inactive)
ROOT
ATOM      1  C   UNL d   1       1.009   0.147   0.654  0.00  0.00     0.078 C 
ATOM      2  C1  UNL d   1      -0.464   0.260   0.910  0.00  0.00    -0.077 A 
ATOM      3  C2  UNL d   1      -1.381   0.275  -0.148  0.00  0.00    -0.001 A 
ATOM      4  C3  UNL d   1      -2.749   0.391   0.105  0.00  0.00     0.003 A 
ATOM      5  C4  UNL d   1      -3.212   0.494   1.415  0.00  0.00    -0.005 A 
ATOM      6  C5  UNL d   1      -2.306   0.483   2.475  0.00  0.00     0.003 A 
ATOM      7  C6  UNL d   1      -0.938   0.367   2.224  0.00  0.00    -0.001 A 
ENDROOT
TORSDOF 0
ENDMDL
