MODEL 1
REMARK minimizedAffinity 4.81288671
REMARK minimizedRMSD -1
REMARK  0 active torsions:
REMARK  status: ('A' for Active; 'I' for Inactive)
ROOT
ATOM      1  C   UNL d   1      -1.773   0.675   2.462  0.00  0.00     0.078 C 
ATOM      2  C1  UNL d   1      -1.179   0.171   1.181  0.00  0.00    -0.077 A 
ATOM      3  C2  UNL d   1      -1.990  -0.135   0.081  0.00  0.00    -0.001 A 
ATOM      4  C3  UNL d   1      -1.425  -0.612  -1.102  0.00  0.00     0.003 A 
ATOM      5  C4  UNL d   1      -0.046  -0.789  -1.197  0.00  0.00    -0.005 A 
ATOM      6  C5  UNL d   1       0.769  -0.489  -0.108  0.00  0.00     0.003 A 
ATOM      7  C6  UNL d   1       0.206  -0.012   1.077  0.00  0.00    -0.001 A 
ENDROOT
TORSDOF 0
ENDMDL
