MODEL 1
REMARK minimizedAffinity 1.30774903
REMARK minimizedRMSD -1
REMARK  0 active torsions:
REMARK  status: ('A' for Active; 'I' for Inactive)
ROOT
ATOM      1  C   UNL d   1      -1.382   1.981   1.910  0.00  0.00     0.078 C 
ATOM      2  C1  UNL d   1      -1.678   0.657   2.551  0.00  0.00    -0.077 A 
ATOM      3  C2  UNL d   1      -2.890  -0.003   2.316  0.00  0.00    -0.001 A 
ATOM      4  C3  UNL d   1      -3.156  -1.229   2.926  0.00  0.00     0.003 A 
ATOM      5  C4  UNL d   1      -2.215  -1.806   3.777  0.00  0.00    -0.005 A 
ATOM      6  C5  UNL d   1      -1.007  -1.155   4.019  0.00  0.00     0.003 A 
ATOM      7  C6  UNL d   1      -0.739   0.071   3.409  0.00  0.00    -0.001 A 
ENDROOT
TORSDOF 0
ENDMDL
