MODEL 1
REMARK minimizedAffinity 0.84915328
REMARK minimizedRMSD -1
REMARK  0 active torsions:
REMARK  status: ('A' for Active; 'I' for Inactive)
ROOT
ATOM      1  C   UNL d   1       0.346  -1.173   4.120  0.00  0.00     0.078 C 
ATOM      2  C1  UNL d   1      -0.350  -0.802   2.845  0.00  0.00    -0.077 A 
ATOM      3  C2  UNL d   1       0.316  -0.866   1.615  0.00  0.00    -0.001 A 
ATOM      4  C3  UNL d   1      -0.341  -0.508   0.437  0.00  0.00     0.003 A 
ATOM      5  C4  UNL d   1      -1.668  -0.083   0.477  0.00  0.00    -0.005 A 
ATOM      6  C5  UNL d   1      -2.338  -0.014   1.697  0.00  0.00     0.003 A 
ATOM      7  C6  UNL d   1      -1.682  -0.371   2.876  0.00  0.00    -0.001 A 
ENDROOT
TORSDOF 0
ENDMDL
