MODEL 1
REMARK minimizedAffinity 3.4601841
REMARK minimizedRMSD -1
REMARK  0 active torsions:
REMARK  status: ('A' for Active; 'I' for Inactive)
ROOT
ATOM      1  C   UNL d   1      -0.036  -1.328   4.501  0.00  0.00     0.078 C 
ATOM      2  C1  UNL d   1      -0.648  -0.808   3.234  0.00  0.00    -0.077 A 
ATOM      3  C2  UNL d   1      -1.996  -0.434   3.184  0.00  0.00    -0.001 A 
ATOM      4  C3  UNL d   1      -2.554   0.038   1.995  0.00  0.00     0.003 A 
ATOM      5  C4  UNL d   1      -1.771   0.140   0.847  0.00  0.00    -0.005 A 
ATOM      6  C5  UNL d   1      -0.429  -0.231   0.886  0.00  0.00     0.003 A 
ATOM      7  C6  UNL d   1       0.131  -0.704   2.074  0.00  0.00    -0.001 A 
ENDROOT
TORSDOF 0
ENDMDL
