MODEL 1
REMARK minimizedAffinity -2.76842117
REMARK minimizedRMSD -1
REMARK  0 active torsions:
REMARK  status: ('A' for Active; 'I' for Inactive)
ROOT
ATOM      1  C   UNL d   1      -2.467  -1.406  -0.207  0.00  0.00     0.078 C 
ATOM      2  C1  UNL d   1      -1.788  -0.420   0.696  0.00  0.00    -0.077 A 
ATOM      3  C2  UNL d   1      -0.952   0.576   0.178  0.00  0.00    -0.001 A 
ATOM      4  C3  UNL d   1      -0.319   1.481   1.031  0.00  0.00     0.003 A 
ATOM      5  C4  UNL d   1      -0.514   1.398   2.408  0.00  0.00    -0.005 A 
ATOM      6  C5  UNL d   1      -1.343   0.409   2.934  0.00  0.00     0.003 A 
ATOM      7  C6  UNL d   1      -1.977  -0.497   2.082  0.00  0.00    -0.001 A 
ENDROOT
TORSDOF 0
ENDMDL
