MODEL 1
REMARK minimizedAffinity 4.53479815
REMARK minimizedRMSD -1
REMARK  1 active torsions:
REMARK  status: ('A' for Active; 'I' for Inactive)
REMARK    1  A    between atoms: C3_4  and  O_7 
ROOT
ATOM      1  C   UNL d   1      -1.494  -1.000   2.286  0.00  0.00    -0.033 A 
ATOM      2  C1  UNL d   1      -0.465  -1.888   1.967  0.00  0.00     0.039 A 
ATOM      3  C2  UNL d   1       0.818  -1.687   2.481  0.00  0.00    -0.080 A 
ATOM      4  C3  UNL d   1       1.058  -0.597   3.313  0.00  0.00     0.150 A 
ATOM      5  C4  UNL d   1       0.036   0.289   3.639  0.00  0.00    -0.007 A 
ATOM      6  C5  UNL d   1      -1.244   0.088   3.124  0.00  0.00     0.039 A 
ENDROOT
BRANCH   4   7
ATOM      7  O   UNL d   1       2.294  -0.358   3.836  0.00  0.00    -0.526 OA
ATOM      8  H5  UNL d   1       2.905  -1.035   3.502  0.00  0.00     0.418 HD
ENDBRANCH   4   7
TORSDOF 1
ENDMDL
