MODEL 1
REMARK minimizedAffinity 0.798933148
REMARK minimizedRMSD -1
REMARK  1 active torsions:
REMARK  status: ('A' for Active; 'I' for Inactive)
REMARK    1  A    between atoms: C3_4  and  O_7 
ROOT
ATOM      1  C   UNL d   1       1.708  -0.959  -1.401  0.00  0.00    -0.033 A 
ATOM      2  C1  UNL d   1       1.332   0.156  -2.152  0.00  0.00     0.039 A 
ATOM      3  C2  UNL d   1       1.801   1.425  -1.804  0.00  0.00    -0.080 A 
ATOM      4  C3  UNL d   1       2.645   1.564  -0.706  0.00  0.00     0.150 A 
ATOM      5  C4  UNL d   1       3.026   0.456   0.045  0.00  0.00    -0.007 A 
ATOM      6  C5  UNL d   1       2.556  -0.809  -0.304  0.00  0.00     0.039 A 
ENDROOT
BRANCH   4   7
ATOM      7  O   UNL d   1       3.124   2.782  -0.325  0.00  0.00    -0.526 OA
ATOM      8  H5  UNL d   1       2.754   3.457  -0.918  0.00  0.00     0.418 HD
ENDBRANCH   4   7
TORSDOF 1
ENDMDL
