MODEL 1
REMARK minimizedAffinity 4.78457308
REMARK minimizedRMSD -1
REMARK  1 active torsions:
REMARK  status: ('A' for Active; 'I' for Inactive)
REMARK    1  A    between atoms: C3_4  and  O_7 
ROOT
ATOM      1  C   UNL d   1       0.527  -1.516   2.515  0.00  0.00    -0.033 A 
ATOM      2  C1  UNL d   1      -0.560  -1.784   1.681  0.00  0.00     0.039 A 
ATOM      3  C2  UNL d   1      -1.722  -1.015   1.777  0.00  0.00    -0.080 A 
ATOM      4  C3  UNL d   1      -1.784   0.017   2.708  0.00  0.00     0.150 A 
ATOM      5  C4  UNL d   1      -0.703   0.292   3.540  0.00  0.00    -0.007 A 
ATOM      6  C5  UNL d   1       0.456  -0.477   3.444  0.00  0.00     0.039 A 
ENDROOT
BRANCH   4   7
ATOM      7  O   UNL d   1      -2.898   0.791   2.842  0.00  0.00    -0.526 OA
ATOM      8  H5  UNL d   1      -3.574   0.467   2.223  0.00  0.00     0.418 HD
ENDBRANCH   4   7
TORSDOF 1
ENDMDL
