MODEL 1
REMARK minimizedAffinity -0.899433494
REMARK minimizedRMSD -1
REMARK  1 active torsions:
REMARK  status: ('A' for Active; 'I' for Inactive)
REMARK    1  A    between atoms: C3_4  and  O_7 
ROOT
ATOM      1  C   UNL d   1       2.941   5.622   5.986  0.00  0.00    -0.033 A 
ATOM      2  C1  UNL d   1       3.458   4.917   4.897  0.00  0.00     0.039 A 
ATOM      3  C2  UNL d   1       2.631   4.583   3.823  0.00  0.00    -0.080 A 
ATOM      4  C3  UNL d   1       1.292   4.961   3.848  0.00  0.00     0.150 A 
ATOM      5  C4  UNL d   1       0.771   5.668   4.927  0.00  0.00    -0.007 A 
ATOM      6  C5  UNL d   1       1.598   5.999   6.000  0.00  0.00     0.039 A 
ENDROOT
BRANCH   4   7
ATOM      7  O   UNL d   1       0.445   4.654   2.825  0.00  0.00    -0.526 OA
ATOM      8  H5  UNL d   1       0.937   4.140   2.162  0.00  0.00     0.418 HD
ENDBRANCH   4   7
TORSDOF 1
ENDMDL
