MODEL 1
REMARK minimizedAffinity 1.27167809
REMARK minimizedRMSD -1
REMARK  1 active torsions:
REMARK  status: ('A' for Active; 'I' for Inactive)
REMARK    1  A    between atoms: C3_4  and  O_7 
ROOT
ATOM      1  C   UNL d   1       5.399  -5.999   5.370  0.00  0.00    -0.033 A 
ATOM      2  C1  UNL d   1       5.903  -4.860   6.000  0.00  0.00     0.039 A 
ATOM      3  C2  UNL d   1       5.300  -3.618   5.788  0.00  0.00    -0.080 A 
ATOM      4  C3  UNL d   1       4.195  -3.530   4.945  0.00  0.00     0.150 A 
ATOM      5  C4  UNL d   1       3.686  -4.662   4.318  0.00  0.00    -0.007 A 
ATOM      6  C5  UNL d   1       4.289  -5.901   4.530  0.00  0.00     0.039 A 
ENDROOT
BRANCH   4   7
ATOM      7  O   UNL d   1       3.577  -2.340   4.704  0.00  0.00    -0.526 OA
ATOM      8  H5  UNL d   1       4.055  -1.642   5.181  0.00  0.00     0.418 HD
ENDBRANCH   4   7
TORSDOF 1
ENDMDL
