MODEL 1
REMARK minimizedAffinity -3.82062125
REMARK minimizedRMSD -1
REMARK  1 active torsions:
REMARK  status: ('A' for Active; 'I' for Inactive)
REMARK    1  A    between atoms: C3_4  and  O_7 
ROOT
ATOM      1  C   UNL d   1      -2.049  -1.549  -2.576  0.00  0.00    -0.033 A 
ATOM      2  C1  UNL d   1      -1.519  -0.298  -2.254  0.00  0.00     0.039 A 
ATOM      3  C2  UNL d   1      -1.816   0.813  -3.046  0.00  0.00    -0.080 A 
ATOM      4  C3  UNL d   1      -2.643   0.660  -4.155  0.00  0.00     0.150 A 
ATOM      5  C4  UNL d   1      -3.177  -0.583  -4.480  0.00  0.00    -0.007 A 
ATOM      6  C5  UNL d   1      -2.879  -1.691  -3.688  0.00  0.00     0.039 A 
ENDROOT
BRANCH   4   7
ATOM      7  O   UNL d   1      -2.957   1.713  -4.961  0.00  0.00    -0.526 OA
ATOM      8  H5  UNL d   1      -2.494   2.502  -4.631  0.00  0.00     0.418 HD
ENDBRANCH   4   7
TORSDOF 1
ENDMDL
