MODEL 1
REMARK minimizedAffinity 3.7023952
REMARK minimizedRMSD -1
REMARK  1 active torsions:
REMARK  status: ('A' for Active; 'I' for Inactive)
REMARK    1  A    between atoms: C3_4  and  O_7 
ROOT
ATOM      1  C   UNL d   1      -4.120   3.838  -5.998  0.00  0.00    -0.033 A 
ATOM      2  C1  UNL d   1      -4.273   4.976  -5.203  0.00  0.00     0.039 A 
ATOM      3  C2  UNL d   1      -3.711   5.018  -3.926  0.00  0.00    -0.080 A 
ATOM      4  C3  UNL d   1      -2.997   3.918  -3.457  0.00  0.00     0.150 A 
ATOM      5  C4  UNL d   1      -2.837   2.783  -4.245  0.00  0.00    -0.007 A 
ATOM      6  C5  UNL d   1      -3.401   2.742  -5.520  0.00  0.00     0.039 A 
ENDROOT
BRANCH   4   7
ATOM      7  O   UNL d   1      -2.434   3.911  -2.215  0.00  0.00    -0.526 OA
ATOM      8  H5  UNL d   1      -2.651   4.749  -1.774  0.00  0.00     0.418 HD
ENDBRANCH   4   7
TORSDOF 1
ENDMDL
