MODEL 1
REMARK minimizedAffinity 1.10167587
REMARK minimizedRMSD -1
REMARK  1 active torsions:
REMARK  status: ('A' for Active; 'I' for Inactive)
REMARK    1  A    between atoms: C3_4  and  O_7 
ROOT
ATOM      1  C   UNL d   1       2.207  -0.002  -1.938  0.00  0.00    -0.033 A 
ATOM      2  C1  UNL d   1       3.149  -0.814  -1.302  0.00  0.00     0.039 A 
ATOM      3  C2  UNL d   1       2.809  -1.494  -0.132  0.00  0.00    -0.080 A 
ATOM      4  C3  UNL d   1       1.527  -1.356   0.392  0.00  0.00     0.150 A 
ATOM      5  C4  UNL d   1       0.582  -0.552  -0.238  0.00  0.00    -0.007 A 
ATOM      6  C5  UNL d   1       0.923   0.127  -1.407  0.00  0.00     0.039 A 
ENDROOT
BRANCH   4   7
ATOM      7  O   UNL d   1       1.151  -1.997   1.535  0.00  0.00    -0.526 OA
ATOM      8  H5  UNL d   1       1.914  -2.493   1.875  0.00  0.00     0.418 HD
ENDBRANCH   4   7
TORSDOF 1
ENDMDL
