MODEL 1
REMARK minimizedAffinity 2.23983598
REMARK minimizedRMSD -1
REMARK  1 active torsions:
REMARK  status: ('A' for Active; 'I' for Inactive)
REMARK    1  A    between atoms: C3_4  and  O_7 
ROOT
ATOM      1  C   UNL d   1       0.278  -1.104   2.222  0.00  0.00    -0.033 A 
ATOM      2  C1  UNL d   1      -0.926  -1.646   1.767  0.00  0.00     0.039 A 
ATOM      3  C2  UNL d   1      -2.108  -0.911   1.872  0.00  0.00    -0.080 A 
ATOM      4  C3  UNL d   1      -2.073   0.363   2.431  0.00  0.00     0.150 A 
ATOM      5  C4  UNL d   1      -0.877   0.911   2.882  0.00  0.00    -0.007 A 
ATOM      6  C5  UNL d   1       0.303   0.175   2.778  0.00  0.00     0.039 A 
ENDROOT
BRANCH   4   7
ATOM      7  O   UNL d   1      -3.202   1.117   2.559  0.00  0.00    -0.526 OA
ATOM      8  H5  UNL d   1      -3.956   0.599   2.232  0.00  0.00     0.418 HD
ENDBRANCH   4   7
TORSDOF 1
ENDMDL
