MODEL 1
REMARK minimizedAffinity 1.98154759
REMARK minimizedRMSD -1
REMARK  1 active torsions:
REMARK  status: ('A' for Active; 'I' for Inactive)
REMARK    1  A    between atoms: C3_4  and  O_7 
ROOT
ATOM      1  C   UNL d   1       0.432  -1.558   1.471  0.00  0.00    -0.033 A 
ATOM      2  C1  UNL d   1      -0.526  -1.579   0.456  0.00  0.00     0.039 A 
ATOM      3  C2  UNL d   1      -0.174  -1.221  -0.847  0.00  0.00    -0.080 A 
ATOM      4  C3  UNL d   1       1.138  -0.845  -1.121  0.00  0.00     0.150 A 
ATOM      5  C4  UNL d   1       2.099  -0.825  -0.115  0.00  0.00    -0.007 A 
ATOM      6  C5  UNL d   1       1.745  -1.182   1.185  0.00  0.00     0.039 A 
ENDROOT
BRANCH   4   7
ATOM      7  O   UNL d   1       1.528  -0.482  -2.376  0.00  0.00    -0.526 OA
ATOM      8  H5  UNL d   1       0.753  -0.516  -2.961  0.00  0.00     0.418 HD
ENDBRANCH   4   7
TORSDOF 1
ENDMDL
