MODEL 1
REMARK minimizedAffinity 5.90649891
REMARK minimizedRMSD -1
REMARK  1 active torsions:
REMARK  status: ('A' for Active; 'I' for Inactive)
REMARK    1  A    between atoms: C3_4  and  O_7 
ROOT
ATOM      1  C   UNL d   1       2.446  -2.033   0.135  0.00  0.00    -0.033 A 
ATOM      2  C1  UNL d   1       2.449  -2.844   1.271  0.00  0.00     0.039 A 
ATOM      3  C2  UNL d   1       1.735  -2.459   2.407  0.00  0.00    -0.080 A 
ATOM      4  C3  UNL d   1       1.023  -1.263   2.394  0.00  0.00     0.150 A 
ATOM      5  C4  UNL d   1       1.012  -0.452   1.264  0.00  0.00    -0.007 A 
ATOM      6  C5  UNL d   1       1.727  -0.838   0.130  0.00  0.00     0.039 A 
ENDROOT
BRANCH   4   7
ATOM      7  O   UNL d   1       0.315  -0.843   3.481  0.00  0.00    -0.526 OA
ATOM      8  H5  UNL d   1       0.437  -1.489   4.196  0.00  0.00     0.418 HD
ENDBRANCH   4   7
TORSDOF 1
ENDMDL
