MODEL 1
REMARK minimizedAffinity 0.933294415
REMARK minimizedRMSD -1
REMARK  1 active torsions:
REMARK  status: ('A' for Active; 'I' for Inactive)
REMARK    1  A    between atoms: C3_4  and  O_7 
ROOT
ATOM      1  C   UNL d   1       1.679  -1.077  -1.375  0.00  0.00    -0.033 A 
ATOM      2  C1  UNL d   1       2.331  -0.786  -0.174  0.00  0.00     0.039 A 
ATOM      3  C2  UNL d   1       2.672   0.533   0.134  0.00  0.00    -0.080 A 
ATOM      4  C3  UNL d   1       2.356   1.548  -0.764  0.00  0.00     0.150 A 
ATOM      5  C4  UNL d   1       1.704   1.265  -1.960  0.00  0.00    -0.007 A 
ATOM      6  C5  UNL d   1       1.365  -0.052  -2.266  0.00  0.00     0.039 A 
ENDROOT
BRANCH   4   7
ATOM      7  O   UNL d   1       2.674   2.849  -0.509  0.00  0.00    -0.526 OA
ATOM      8  H5  UNL d   1       3.147   2.890   0.339  0.00  0.00     0.418 HD
ENDBRANCH   4   7
TORSDOF 1
ENDMDL
