MODEL 1
REMARK minimizedAffinity -0.0619605891
REMARK minimizedRMSD -1
REMARK  1 active torsions:
REMARK  status: ('A' for Active; 'I' for Inactive)
REMARK    1  A    between atoms: C3_4  and  O_7 
ROOT
ATOM      1  C   UNL d   1       1.378  -0.913  -1.552  0.00  0.00    -0.033 A 
ATOM      2  C1  UNL d   1       2.223  -0.798  -0.446  0.00  0.00     0.039 A 
ATOM      3  C2  UNL d   1       2.617   0.463   0.006  0.00  0.00    -0.080 A 
ATOM      4  C3  UNL d   1       2.160   1.599  -0.656  0.00  0.00     0.150 A 
ATOM      5  C4  UNL d   1       1.315   1.492  -1.755  0.00  0.00    -0.007 A 
ATOM      6  C5  UNL d   1       0.923   0.232  -2.205  0.00  0.00     0.039 A 
ENDROOT
BRANCH   4   7
ATOM      7  O   UNL d   1       2.521   2.851  -0.255  0.00  0.00    -0.526 OA
ATOM      8  H5  UNL d   1       3.130   2.769   0.498  0.00  0.00     0.418 HD
ENDBRANCH   4   7
TORSDOF 1
ENDMDL
