MODEL 1
REMARK minimizedAffinity 12.2138624
REMARK minimizedRMSD -1
REMARK  0 active torsions:
REMARK  status: ('A' for Active; 'I' for Inactive)
ROOT
ATOM      1  N1  IND d   1       0.738   2.769  -0.292  0.00  0.00    -0.196 N 
ATOM      2  C2  IND d   1      -0.393   2.325   0.334  0.00  0.00     0.054 A 
ATOM      3  C3  IND d   1      -1.474   2.521  -0.454  0.00  0.00    -0.031 A 
ATOM      4  C4  IND d   1      -1.605   3.460  -2.848  0.00  0.00     0.051 A 
ATOM      5  C5  IND d   1      -0.838   4.031  -3.824  0.00  0.00    -0.031 A 
ATOM      6  C6  IND d   1       0.522   4.213  -3.670  0.00  0.00     0.015 A 
ATOM      7  C7  IND d   1       1.169   3.817  -2.534  0.00  0.00    -0.016 A 
ATOM      8  C8  IND d   1       0.393   3.242  -1.538  0.00  0.00    -0.047 A 
ATOM      9  C9  IND d   1      -0.994   3.094  -1.671  0.00  0.00    -0.096 A 
ATOM     10  HN1 IND d   1       1.532   2.755   0.038  0.00  0.00     0.298 HD
ENDROOT
TORSDOF 0
ENDMDL
