MODEL 1
REMARK minimizedAffinity 15.3279018
REMARK minimizedRMSD -1
REMARK  0 active torsions:
REMARK  status: ('A' for Active; 'I' for Inactive)
ROOT
ATOM      1  N1  IND d   1       0.480   3.512  -2.478  0.00  0.00    -0.196 N 
ATOM      2  C2  IND d   1      -0.770   2.989  -2.655  0.00  0.00     0.054 A 
ATOM      3  C3  IND d   1      -1.355   3.528  -3.748  0.00  0.00    -0.031 A 
ATOM      4  C4  IND d   1      -0.405   5.208  -5.451  0.00  0.00     0.051 A 
ATOM      5  C5  IND d   1       0.683   5.999  -5.691  0.00  0.00    -0.031 A 
ATOM      6  C6  IND d   1       1.783   5.999  -4.858  0.00  0.00     0.015 A 
ATOM      7  C7  IND d   1       1.840   5.196  -3.754  0.00  0.00    -0.016 A 
ATOM      8  C8  IND d   1       0.734   4.397  -3.503  0.00  0.00    -0.047 A 
ATOM      9  C9  IND d   1      -0.403   4.424  -4.321  0.00  0.00    -0.096 A 
ATOM     10  HN1 IND d   1       1.018   3.320  -1.835  0.00  0.00     0.298 HD
ENDROOT
TORSDOF 0
ENDMDL
