MODEL 1
REMARK minimizedAffinity 15.5946856
REMARK minimizedRMSD -1
REMARK  0 active torsions:
REMARK  status: ('A' for Active; 'I' for Inactive)
ROOT
ATOM      1  N1  IND d   1       1.441  -1.619   0.202  0.00  0.00    -0.196 N 
ATOM      2  C2  IND d   1       1.719  -2.247   1.384  0.00  0.00     0.054 A 
ATOM      3  C3  IND d   1       1.927  -3.567   1.178  0.00  0.00    -0.031 A 
ATOM      4  C4  IND d   1       1.963  -4.892  -1.029  0.00  0.00     0.051 A 
ATOM      5  C5  IND d   1       1.729  -4.759  -2.370  0.00  0.00    -0.031 A 
ATOM      6  C6  IND d   1       1.384  -3.548  -2.933  0.00  0.00     0.015 A 
ATOM      7  C7  IND d   1       1.269  -2.417  -2.175  0.00  0.00    -0.016 A 
ATOM      8  C8  IND d   1       1.499  -2.549  -0.813  0.00  0.00    -0.047 A 
ATOM      9  C9  IND d   1       1.808  -3.785  -0.229  0.00  0.00    -0.096 A 
ATOM     10  HN1 IND d   1       1.261  -0.784   0.108  0.00  0.00     0.298 HD
ENDROOT
TORSDOF 0
ENDMDL
