MODEL 1
REMARK minimizedAffinity 16.3996239
REMARK minimizedRMSD -1
REMARK  0 active torsions:
REMARK  status: ('A' for Active; 'I' for Inactive)
ROOT
ATOM      1  N1  IND d   1       0.945  -3.874  -5.905  0.00  0.00    -0.196 N 
ATOM      2  C2  IND d   1       1.486  -2.623  -6.000  0.00  0.00     0.054 A 
ATOM      3  C3  IND d   1       2.265  -2.363  -4.925  0.00  0.00    -0.031 A 
ATOM      4  C4  IND d   1       2.873  -3.886  -2.941  0.00  0.00     0.051 A 
ATOM      5  C5  IND d   1       2.593  -5.108  -2.395  0.00  0.00    -0.031 A 
ATOM      6  C6  IND d   1       1.734  -5.999  -3.005  0.00  0.00     0.015 A 
ATOM      7  C7  IND d   1       1.130  -5.706  -4.194  0.00  0.00    -0.016 A 
ATOM      8  C8  IND d   1       1.406  -4.464  -4.748  0.00  0.00    -0.047 A 
ATOM      9  C9  IND d   1       2.244  -3.538  -4.113  0.00  0.00    -0.096 A 
ATOM     10  HN1 IND d   1       0.408  -4.233  -6.472  0.00  0.00     0.298 HD
ENDROOT
TORSDOF 0
ENDMDL
