MODEL 1
REMARK minimizedAffinity 21.9711418
REMARK minimizedRMSD -1
REMARK  0 active torsions:
REMARK  status: ('A' for Active; 'I' for Inactive)
ROOT
ATOM      1  N1  IND d   1      -3.211   5.940   4.039  0.00  0.00    -0.196 N 
ATOM      2  C2  IND d   1      -4.218   5.957   4.962  0.00  0.00     0.054 A 
ATOM      3  C3  IND d   1      -5.421   5.969   4.346  0.00  0.00    -0.031 A 
ATOM      4  C4  IND d   1      -5.973   5.862   1.833  0.00  0.00     0.051 A 
ATOM      5  C5  IND d   1      -5.384   5.871   0.600  0.00  0.00    -0.031 A 
ATOM      6  C6  IND d   1      -4.013   5.902   0.447  0.00  0.00     0.015 A 
ATOM      7  C7  IND d   1      -3.176   5.913   1.526  0.00  0.00    -0.016 A 
ATOM      8  C8  IND d   1      -3.770   5.911   2.780  0.00  0.00    -0.047 A 
ATOM      9  C9  IND d   1      -5.161   5.922   2.942  0.00  0.00    -0.096 A 
ATOM     10  HN1 IND d   1      -2.369   5.947   4.214  0.00  0.00     0.298 HD
ENDROOT
TORSDOF 0
ENDMDL
