MODEL 1
REMARK minimizedAffinity 15.1953506
REMARK minimizedRMSD -1
REMARK  0 active torsions:
REMARK  status: ('A' for Active; 'I' for Inactive)
ROOT
ATOM      1  N1  IND d   1       0.738   2.822  -0.361  0.00  0.00    -0.196 N 
ATOM      2  C2  IND d   1      -0.078   2.093   0.459  0.00  0.00     0.054 A 
ATOM      3  C3  IND d   1      -1.258   1.843  -0.154  0.00  0.00    -0.031 A 
ATOM      4  C4  IND d   1      -2.024   2.447  -2.536  0.00  0.00     0.051 A 
ATOM      5  C5  IND d   1      -1.639   3.142  -3.648  0.00  0.00    -0.031 A 
ATOM      6  C6  IND d   1      -0.416   3.777  -3.723  0.00  0.00     0.015 A 
ATOM      7  C7  IND d   1       0.476   3.730  -2.689  0.00  0.00    -0.016 A 
ATOM      8  C8  IND d   1       0.085   3.031  -1.556  0.00  0.00    -0.047 A 
ATOM      9  C9  IND d   1      -1.172   2.421  -1.457  0.00  0.00    -0.096 A 
ATOM     10  HN1 IND d   1       1.526   3.103  -0.163  0.00  0.00     0.298 HD
ENDROOT
TORSDOF 0
ENDMDL
