MODEL 1
REMARK minimizedAffinity 16.5901012
REMARK minimizedRMSD -1
REMARK  0 active torsions:
REMARK  status: ('A' for Active; 'I' for Inactive)
ROOT
ATOM      1  N1  IND d   1       1.875   4.976   2.617  0.00  0.00    -0.196 N 
ATOM      2  C2  IND d   1       2.000   5.754   1.500  0.00  0.00     0.054 A 
ATOM      3  C3  IND d   1       1.376   5.174   0.450  0.00  0.00    -0.031 A 
ATOM      4  C4  IND d   1       0.000   3.000   0.364  0.00  0.00     0.051 A 
ATOM      5  C5  IND d   1      -0.367   1.926   1.125  0.00  0.00    -0.031 A 
ATOM      6  C6  IND d   1       0.000   1.813   2.451  0.00  0.00     0.015 A 
ATOM      7  C7  IND d   1       0.741   2.780   3.070  0.00  0.00    -0.016 A 
ATOM      8  C8  IND d   1       1.121   3.868   2.297  0.00  0.00    -0.047 A 
ATOM      9  C9  IND d   1       0.788   3.968   0.940  0.00  0.00    -0.096 A 
ATOM     10  HN1 IND d   1       2.211   5.150   3.389  0.00  0.00     0.298 HD
ENDROOT
TORSDOF 0
ENDMDL
