MODEL 1
REMARK minimizedAffinity 14.1509705
REMARK minimizedRMSD -1
REMARK  0 active torsions:
REMARK  status: ('A' for Active; 'I' for Inactive)
ROOT
ATOM      1  N1  IND d   1       0.700  -3.778  -2.509  0.00  0.00    -0.196 N 
ATOM      2  C2  IND d   1       1.249  -3.047  -1.493  0.00  0.00     0.054 A 
ATOM      3  C3  IND d   1       1.919  -1.982  -1.988  0.00  0.00    -0.031 A 
ATOM      4  C4  IND d   1       2.157  -1.190  -4.426  0.00  0.00     0.051 A 
ATOM      5  C5  IND d   1       1.861  -1.551  -5.710  0.00  0.00    -0.031 A 
ATOM      6  C6  IND d   1       1.145  -2.695  -5.998  0.00  0.00     0.015 A 
ATOM      7  C7  IND d   1       0.688  -3.518  -5.008  0.00  0.00    -0.016 A 
ATOM      8  C8  IND d   1       0.993  -3.158  -3.704  0.00  0.00    -0.047 A 
ATOM      9  C9  IND d   1       1.756  -2.021  -3.407  0.00  0.00    -0.096 A 
ATOM     10  HN1 IND d   1       0.247  -4.503  -2.418  0.00  0.00     0.298 HD
ENDROOT
TORSDOF 0
ENDMDL
