MODEL 1
REMARK minimizedAffinity 18.3763466
REMARK minimizedRMSD -1
REMARK  0 active torsions:
REMARK  status: ('A' for Active; 'I' for Inactive)
ROOT
ATOM      1  N1  IND d   1       3.825  -2.816  -5.678  0.00  0.00    -0.196 N 
ATOM      2  C2  IND d   1       4.493  -1.629  -5.792  0.00  0.00     0.054 A 
ATOM      3  C3  IND d   1       3.619  -0.612  -5.965  0.00  0.00    -0.031 A 
ATOM      4  C4  IND d   1       1.045  -0.655  -5.993  0.00  0.00     0.051 A 
ATOM      5  C5  IND d   1      -0.018  -1.513  -5.964  0.00  0.00    -0.031 A 
ATOM      6  C6  IND d   1       0.148  -2.876  -5.832  0.00  0.00     0.015 A 
ATOM      7  C7  IND d   1       1.389  -3.434  -5.714  0.00  0.00    -0.016 A 
ATOM      8  C8  IND d   1       2.472  -2.567  -5.750  0.00  0.00    -0.047 A 
ATOM      9  C9  IND d   1       2.311  -1.186  -5.925  0.00  0.00    -0.096 A 
ATOM     10  HN1 IND d   1       4.189  -3.589  -5.579  0.00  0.00     0.298 HD
ENDROOT
TORSDOF 0
ENDMDL
