MODEL 1
REMARK minimizedAffinity 25.2841892
REMARK minimizedRMSD -1
REMARK  0 active torsions:
REMARK  status: ('A' for Active; 'I' for Inactive)
ROOT
ATOM      1  N1  IND d   1      -3.430   5.791  -1.831  0.00  0.00    -0.196 N 
ATOM      2  C2  IND d   1      -4.510   5.783  -2.669  0.00  0.00     0.054 A 
ATOM      3  C3  IND d   1      -5.659   5.820  -1.957  0.00  0.00    -0.031 A 
ATOM      4  C4  IND d   1      -6.000   5.999   0.589  0.00  0.00     0.051 A 
ATOM      5  C5  IND d   1      -5.312   6.000   1.770  0.00  0.00    -0.031 A 
ATOM      6  C6  IND d   1      -3.935   5.932   1.812  0.00  0.00     0.015 A 
ATOM      7  C7  IND d   1      -3.189   5.873   0.669  0.00  0.00    -0.016 A 
ATOM      8  C8  IND d   1      -3.884   5.864  -0.532  0.00  0.00    -0.047 A 
ATOM      9  C9  IND d   1      -5.284   5.890  -0.580  0.00  0.00    -0.096 A 
ATOM     10  HN1 IND d   1      -2.606   5.755  -2.074  0.00  0.00     0.298 HD
ENDROOT
TORSDOF 0
ENDMDL
