MODEL 1
REMARK minimizedAffinity 13.4682283
REMARK minimizedRMSD -1
REMARK  0 active torsions:
REMARK  status: ('A' for Active; 'I' for Inactive)
ROOT
ATOM      1  N1  IND d   1      -3.617   5.976   2.736  0.00  0.00    -0.196 N 
ATOM      2  C2  IND d   1      -4.760   5.978   3.486  0.00  0.00     0.054 A 
ATOM      3  C3  IND d   1      -5.848   5.999   2.684  0.00  0.00    -0.031 A 
ATOM      4  C4  IND d   1      -5.988   5.930   0.114  0.00  0.00     0.051 A 
ATOM      5  C5  IND d   1      -5.208   5.958  -1.008  0.00  0.00    -0.031 A 
ATOM      6  C6  IND d   1      -3.831   5.992  -0.938  0.00  0.00     0.015 A 
ATOM      7  C7  IND d   1      -3.178   5.987   0.262  0.00  0.00    -0.016 A 
ATOM      8  C8  IND d   1      -3.966   5.965   1.404  0.00  0.00    -0.047 A 
ATOM      9  C9  IND d   1      -5.366   5.974   1.339  0.00  0.00    -0.096 A 
ATOM     10  HN1 IND d   1      -2.815   5.980   3.045  0.00  0.00     0.298 HD
ENDROOT
TORSDOF 0
ENDMDL
