MODEL 1
REMARK minimizedAffinity 11.7900915
REMARK minimizedRMSD -1
REMARK  0 active torsions:
REMARK  status: ('A' for Active; 'I' for Inactive)
ROOT
ATOM      1  N1  IND d   1       0.882  -3.563  -2.456  0.00  0.00    -0.196 N 
ATOM      2  C2  IND d   1       1.424  -2.761  -1.490  0.00  0.00     0.054 A 
ATOM      3  C3  IND d   1       2.015  -1.683  -2.051  0.00  0.00    -0.031 A 
ATOM      4  C4  IND d   1       2.126  -0.981  -4.526  0.00  0.00     0.051 A 
ATOM      5  C5  IND d   1       1.807  -1.412  -5.783  0.00  0.00    -0.031 A 
ATOM      6  C6  IND d   1       1.147  -2.605  -5.999  0.00  0.00     0.015 A 
ATOM      7  C7  IND d   1       0.771  -3.409  -4.961  0.00  0.00    -0.016 A 
ATOM      8  C8  IND d   1       1.100  -2.978  -3.684  0.00  0.00    -0.047 A 
ATOM      9  C9  IND d   1       1.807  -1.790  -3.461  0.00  0.00    -0.096 A 
ATOM     10  HN1 IND d   1       0.475  -4.308  -2.319  0.00  0.00     0.298 HD
ENDROOT
TORSDOF 0
ENDMDL
