MODEL 1
REMARK minimizedAffinity 10.2374306
REMARK minimizedRMSD -1
REMARK  0 active torsions:
REMARK  status: ('A' for Active; 'I' for Inactive)
ROOT
ATOM      1  N1  IND d   1       0.602   1.968   0.815  0.00  0.00    -0.196 N 
ATOM      2  C2  IND d   1      -0.554   1.328   1.164  0.00  0.00     0.054 A 
ATOM      3  C3  IND d   1      -1.571   1.725   0.367  0.00  0.00    -0.031 A 
ATOM      4  C4  IND d   1      -1.542   3.338  -1.639  0.00  0.00     0.051 A 
ATOM      5  C5  IND d   1      -0.724   4.197  -2.319  0.00  0.00    -0.031 A 
ATOM      6  C6  IND d   1       0.605   4.358  -1.984  0.00  0.00     0.015 A 
ATOM      7  C7  IND d   1       1.171   3.654  -0.959  0.00  0.00    -0.016 A 
ATOM      8  C8  IND d   1       0.342   2.787  -0.262  0.00  0.00    -0.047 A 
ATOM      9  C9  IND d   1      -1.018   2.651  -0.570  0.00  0.00    -0.096 A 
ATOM     10  HN1 IND d   1       1.364   1.875   1.203  0.00  0.00     0.298 HD
ENDROOT
TORSDOF 0
ENDMDL
