MODEL 1
REMARK minimizedAffinity 1.41380799
REMARK minimizedRMSD -1
REMARK  0 active torsions:
REMARK  status: ('A' for Active; 'I' for Inactive)
ROOT
ATOM      1  N1  IND d   1      -5.916  -4.442   0.909  0.00  0.00    -0.196 N 
ATOM      2  C2  IND d   1      -5.932  -3.080   0.790  0.00  0.00     0.054 A 
ATOM      3  C3  IND d   1      -5.992  -2.502   2.010  0.00  0.00    -0.031 A 
ATOM      4  C4  IND d   1      -5.971  -3.594   4.341  0.00  0.00     0.051 A 
ATOM      5  C5  IND d   1      -6.000  -4.813   4.960  0.00  0.00    -0.031 A 
ATOM      6  C6  IND d   1      -6.000  -5.993   4.246  0.00  0.00     0.015 A 
ATOM      7  C7  IND d   1      -5.959  -6.000   2.881  0.00  0.00    -0.016 A 
ATOM      8  C8  IND d   1      -5.936  -4.765   2.248  0.00  0.00    -0.047 A 
ATOM      9  C9  IND d   1      -5.979  -3.563   2.967  0.00  0.00    -0.096 A 
ATOM     10  HN1 IND d   1      -5.896  -5.003   0.258  0.00  0.00     0.298 HD
ENDROOT
TORSDOF 0
ENDMDL
