MODEL 1
REMARK minimizedAffinity 12.7466774
REMARK minimizedRMSD -1
REMARK  0 active torsions:
REMARK  status: ('A' for Active; 'I' for Inactive)
ROOT
ATOM      1  N1  IND d   1       0.197   1.837  -0.519  0.00  0.00    -0.196 N 
ATOM      2  C2  IND d   1      -0.412   1.738   0.701  0.00  0.00     0.054 A 
ATOM      3  C3  IND d   1      -0.715   2.966   1.177  0.00  0.00    -0.031 A 
ATOM      4  C4  IND d   1      -0.396   5.271   0.077  0.00  0.00     0.051 A 
ATOM      5  C5  IND d   1       0.150   5.875  -1.021  0.00  0.00    -0.031 A 
ATOM      6  C6  IND d   1       0.750   5.148  -2.029  0.00  0.00     0.015 A 
ATOM      7  C7  IND d   1       0.815   3.784  -1.982  0.00  0.00    -0.016 A 
ATOM      8  C8  IND d   1       0.268   3.169  -0.866  0.00  0.00    -0.047 A 
ATOM      9  C9  IND d   1      -0.304   3.904   0.181  0.00  0.00    -0.096 A 
ATOM     10  HN1 IND d   1       0.487   1.179  -0.990  0.00  0.00     0.298 HD
ENDROOT
TORSDOF 0
ENDMDL
