MODEL 1
REMARK minimizedAffinity 17.0145226
REMARK minimizedRMSD -1
REMARK  0 active torsions:
REMARK  status: ('A' for Active; 'I' for Inactive)
ROOT
ATOM      1  N1  IND d   1       0.398  -3.925  -2.674  0.00  0.00    -0.196 N 
ATOM      2  C2  IND d   1       1.115  -3.534  -1.578  0.00  0.00     0.054 A 
ATOM      3  C3  IND d   1       2.093  -2.673  -1.939  0.00  0.00    -0.031 A 
ATOM      4  C4  IND d   1       2.634  -1.690  -4.256  0.00  0.00     0.051 A 
ATOM      5  C5  IND d   1       2.277  -1.777  -5.573  0.00  0.00    -0.031 A 
ATOM      6  C6  IND d   1       1.254  -2.599  -5.999  0.00  0.00     0.015 A 
ATOM      7  C7  IND d   1       0.538  -3.359  -5.118  0.00  0.00    -0.016 A 
ATOM      8  C8  IND d   1       0.902  -3.279  -3.781  0.00  0.00    -0.047 A 
ATOM      9  C9  IND d   1       1.967  -2.479  -3.349  0.00  0.00    -0.096 A 
ATOM     10  HN1 IND d   1      -0.258  -4.482  -2.672  0.00  0.00     0.298 HD
ENDROOT
TORSDOF 0
ENDMDL
