MODEL 1
REMARK minimizedAffinity 17.1270008
REMARK minimizedRMSD -1
REMARK  0 active torsions:
REMARK  status: ('A' for Active; 'I' for Inactive)
ROOT
ATOM      1  N1  IND d   1      -2.161   5.067  -2.640  0.00  0.00    -0.196 N 
ATOM      2  C2  IND d   1      -1.963   3.960  -3.417  0.00  0.00     0.054 A 
ATOM      3  C3  IND d   1      -0.890   3.264  -2.979  0.00  0.00    -0.031 A 
ATOM      4  C4  IND d   1       0.624   3.702  -0.944  0.00  0.00     0.051 A 
ATOM      5  C5  IND d   1       0.859   4.613   0.048  0.00  0.00    -0.031 A 
ATOM      6  C6  IND d   1       0.082   5.743   0.199  0.00  0.00     0.015 A 
ATOM      7  C7  IND d   1      -0.971   6.000  -0.633  0.00  0.00    -0.016 A 
ATOM      8  C8  IND d   1      -1.208   5.081  -1.646  0.00  0.00    -0.047 A 
ATOM      9  C9  IND d   1      -0.396   3.954  -1.830  0.00  0.00    -0.096 A 
ATOM     10  HN1 IND d   1      -2.777   5.656  -2.754  0.00  0.00     0.298 HD
ENDROOT
TORSDOF 0
ENDMDL
