MODEL 1
REMARK minimizedAffinity 2.92648196
REMARK minimizedRMSD -1
REMARK  0 active torsions:
REMARK  status: ('A' for Active; 'I' for Inactive)
ROOT
ATOM      1  O1  BZF d   1      -2.913   0.368   1.101  0.00  0.00    -0.204 OA
ATOM      2  C2  BZF d   1      -2.792  -0.349   2.276  0.00  0.00     0.174 A 
ATOM      3  C3  BZF d   1      -3.744  -1.300   2.356  0.00  0.00    -0.012 A 
ATOM      4  C3A BZF d   1      -4.451  -1.231   1.114  0.00  0.00    -0.107 A 
ATOM      5  C4  BZF d   1      -5.497  -1.934   0.588  0.00  0.00     0.055 A 
ATOM      6  C5  BZF d   1      -5.997  -1.569  -0.621  0.00  0.00    -0.016 A 
ATOM      7  C6  BZF d   1      -5.479  -0.505  -1.330  0.00  0.00     0.022 A 
ATOM      8  C7  BZF d   1      -4.438   0.219  -0.852  0.00  0.00     0.029 A 
ATOM      9  C7A BZF d   1      -3.909  -0.168   0.355  0.00  0.00     0.058 A 
ENDROOT
TORSDOF 0
ENDMDL
