MODEL 1
REMARK minimizedAffinity 4.78316069
REMARK minimizedRMSD -1
REMARK  0 active torsions:
REMARK  status: ('A' for Active; 'I' for Inactive)
ROOT
ATOM      1  O1  BZF d   1       1.146  -5.000   5.931  0.00  0.00    -0.204 OA
ATOM      2  C2  BZF d   1       0.175  -5.983   5.929  0.00  0.00     0.174 A 
ATOM      3  C3  BZF d   1      -1.057  -5.438   6.000  0.00  0.00    -0.012 A 
ATOM      4  C3A BZF d   1      -0.846  -4.024   5.955  0.00  0.00    -0.107 A 
ATOM      5  C4  BZF d   1      -1.688  -2.949   5.974  0.00  0.00     0.055 A 
ATOM      6  C5  BZF d   1      -1.159  -1.697   5.991  0.00  0.00    -0.016 A 
ATOM      7  C6  BZF d   1       0.204  -1.484   5.996  0.00  0.00     0.022 A 
ATOM      8  C7  BZF d   1       1.078  -2.519   5.973  0.00  0.00     0.029 A 
ATOM      9  C7A BZF d   1       0.547  -3.785   5.922  0.00  0.00     0.058 A 
ENDROOT
TORSDOF 0
ENDMDL
