MODEL 1
REMARK minimizedAffinity 16.1830521
REMARK minimizedRMSD -1
REMARK  0 active torsions:
REMARK  status: ('A' for Active; 'I' for Inactive)
ROOT
ATOM      1  O1  BZF d   1      -3.824   1.345   0.680  0.00  0.00    -0.204 OA
ATOM      2  C2  BZF d   1      -3.753   0.032   0.258  0.00  0.00     0.174 A 
ATOM      3  C3  BZF d   1      -4.256  -0.099  -0.987  0.00  0.00    -0.012 A 
ATOM      4  C3A BZF d   1      -4.582   1.231  -1.402  0.00  0.00    -0.107 A 
ATOM      5  C4  BZF d   1      -5.103   1.755  -2.551  0.00  0.00     0.055 A 
ATOM      6  C5  BZF d   1      -5.368   3.086  -2.609  0.00  0.00    -0.016 A 
ATOM      7  C6  BZF d   1      -5.128   3.922  -1.537  0.00  0.00     0.022 A 
ATOM      8  C7  BZF d   1      -4.606   3.449  -0.379  0.00  0.00     0.029 A 
ATOM      9  C7A BZF d   1      -4.308   2.110  -0.329  0.00  0.00     0.058 A 
ENDROOT
TORSDOF 0
ENDMDL
