MODEL 1
REMARK minimizedAffinity 17.0149117
REMARK minimizedRMSD -1
REMARK  0 active torsions:
REMARK  status: ('A' for Active; 'I' for Inactive)
ROOT
ATOM      1  O1  BZF d   1      -4.838  -1.131  -2.063  0.00  0.00    -0.204 OA
ATOM      2  C2  BZF d   1      -6.000  -1.596  -1.479  0.00  0.00     0.174 A 
ATOM      3  C3  BZF d   1      -5.929  -1.505  -0.135  0.00  0.00    -0.012 A 
ATOM      4  C3A BZF d   1      -4.680  -0.862   0.133  0.00  0.00    -0.107 A 
ATOM      5  C4  BZF d   1      -4.049  -0.478   1.282  0.00  0.00     0.055 A 
ATOM      6  C5  BZF d   1      -2.803   0.059   1.204  0.00  0.00    -0.016 A 
ATOM      7  C6  BZF d   1      -2.158   0.223  -0.004  0.00  0.00     0.022 A 
ATOM      8  C7  BZF d   1      -2.746  -0.137  -1.171  0.00  0.00     0.029 A 
ATOM      9  C7A BZF d   1      -4.018  -0.651  -1.098  0.00  0.00     0.058 A 
ENDROOT
TORSDOF 0
ENDMDL
