MODEL 1
REMARK minimizedAffinity 12.4159813
REMARK minimizedRMSD -1
REMARK  0 active torsions:
REMARK  status: ('A' for Active; 'I' for Inactive)
ROOT
ATOM      1  O1  BZF d   1       2.526   3.015   2.959  0.00  0.00    -0.204 OA
ATOM      2  C2  BZF d   1       2.996   4.242   3.385  0.00  0.00     0.174 A 
ATOM      3  C3  BZF d   1       4.344   4.261   3.393  0.00  0.00    -0.012 A 
ATOM      4  C3A BZF d   1       4.742   2.996   2.856  0.00  0.00    -0.107 A 
ATOM      5  C4  BZF d   1       5.955   2.426   2.597  0.00  0.00     0.055 A 
ATOM      6  C5  BZF d   1       6.000   1.147   2.140  0.00  0.00    -0.016 A 
ATOM      7  C6  BZF d   1       4.853   0.409   1.936  0.00  0.00     0.022 A 
ATOM      8  C7  BZF d   1       3.626   0.933   2.173  0.00  0.00     0.029 A 
ATOM      9  C7A BZF d   1       3.576   2.237   2.604  0.00  0.00     0.058 A 
ENDROOT
TORSDOF 0
ENDMDL
