MODEL 1
REMARK minimizedAffinity 11.2544298
REMARK minimizedRMSD -1
REMARK  0 active torsions:
REMARK  status: ('A' for Active; 'I' for Inactive)
ROOT
ATOM      1  O1  BZF d   1      -5.353  -0.583   0.027  0.00  0.00    -0.204 OA
ATOM      2  C2  BZF d   1      -5.999  -0.689  -1.190  0.00  0.00     0.174 A 
ATOM      3  C3  BZF d   1      -5.109  -0.757  -2.200  0.00  0.00    -0.012 A 
ATOM      4  C3A BZF d   1      -3.825  -0.782  -1.569  0.00  0.00    -0.107 A 
ATOM      5  C4  BZF d   1      -2.547  -0.860  -2.044  0.00  0.00     0.055 A 
ATOM      6  C5  BZF d   1      -1.511  -0.787  -1.168  0.00  0.00    -0.016 A 
ATOM      7  C6  BZF d   1      -1.716  -0.631   0.187  0.00  0.00     0.022 A 
ATOM      8  C7  BZF d   1      -2.966  -0.554   0.706  0.00  0.00     0.029 A 
ATOM      9  C7A BZF d   1      -4.015  -0.661  -0.174  0.00  0.00     0.058 A 
ENDROOT
TORSDOF 0
ENDMDL
