MODEL 1
REMARK minimizedAffinity 9.19193935
REMARK minimizedRMSD -1
REMARK  0 active torsions:
REMARK  status: ('A' for Active; 'I' for Inactive)
ROOT
ATOM      1  C   UNL d   1      -3.214  -6.000  -4.787  0.00  0.00     0.078 C 
ATOM      2  C1  UNL d   1      -1.939  -5.347  -4.341  0.00  0.00    -0.077 A 
ATOM      3  C2  UNL d   1      -1.948  -4.082  -3.741  0.00  0.00    -0.001 A 
ATOM      4  C3  UNL d   1      -0.753  -3.483  -3.340  0.00  0.00     0.003 A 
ATOM      5  C4  UNL d   1       0.459  -4.140  -3.535  0.00  0.00    -0.005 A 
ATOM      6  C5  UNL d   1       0.479  -5.399  -4.133  0.00  0.00     0.003 A 
ATOM      7  C6  UNL d   1      -0.715  -6.000  -4.535  0.00  0.00    -0.001 A 
ENDROOT
TORSDOF 0
ENDMDL
