MODEL 1
REMARK minimizedAffinity 7.62059069
REMARK minimizedRMSD -1
REMARK  0 active torsions:
REMARK  status: ('A' for Active; 'I' for Inactive)
ROOT
ATOM      1  C   UNL d   1       3.925  -0.596   2.169  0.00  0.00     0.078 C 
ATOM      2  C1  UNL d   1       4.137   0.846   1.817  0.00  0.00    -0.077 A 
ATOM      3  C2  UNL d   1       5.245   1.552   2.300  0.00  0.00    -0.001 A 
ATOM      4  C3  UNL d   1       5.424   2.896   1.972  0.00  0.00     0.003 A 
ATOM      5  C4  UNL d   1       4.497   3.547   1.160  0.00  0.00    -0.005 A 
ATOM      6  C5  UNL d   1       3.390   2.854   0.676  0.00  0.00     0.003 A 
ATOM      7  C6  UNL d   1       3.209   1.509   1.003  0.00  0.00    -0.001 A 
ENDROOT
TORSDOF 0
ENDMDL
