MODEL 1
REMARK minimizedAffinity 5.38567162
REMARK minimizedRMSD -1
REMARK  0 active torsions:
REMARK  status: ('A' for Active; 'I' for Inactive)
ROOT
ATOM      1  C   UNL d   1      -4.483   0.553   0.008  0.00  0.00     0.078 C 
ATOM      2  C1  UNL d   1      -3.348   0.333   0.962  0.00  0.00    -0.077 A 
ATOM      3  C2  UNL d   1      -3.041   1.278   1.949  0.00  0.00    -0.001 A 
ATOM      4  C3  UNL d   1      -1.975   1.064   2.824  0.00  0.00     0.003 A 
ATOM      5  C4  UNL d   1      -1.207  -0.094   2.721  0.00  0.00    -0.005 A 
ATOM      6  C5  UNL d   1      -1.503  -1.039   1.742  0.00  0.00     0.003 A 
ATOM      7  C6  UNL d   1      -2.569  -0.827   0.865  0.00  0.00    -0.001 A 
ENDROOT
TORSDOF 0
ENDMDL
