MODEL 1
REMARK minimizedAffinity 8.4924345
REMARK minimizedRMSD -1
REMARK  0 active torsions:
REMARK  status: ('A' for Active; 'I' for Inactive)
ROOT
ATOM      1  C   UNL d   1       4.862  -1.970  -0.908  0.00  0.00     0.078 C 
ATOM      2  C1  UNL d   1       4.874  -3.371  -0.373  0.00  0.00    -0.077 A 
ATOM      3  C2  UNL d   1       5.999  -3.881   0.286  0.00  0.00    -0.001 A 
ATOM      4  C3  UNL d   1       6.000  -5.190   0.771  0.00  0.00     0.003 A 
ATOM      5  C4  UNL d   1       4.879  -6.000   0.601  0.00  0.00    -0.005 A 
ATOM      6  C5  UNL d   1       3.755  -5.501  -0.055  0.00  0.00     0.003 A 
ATOM      7  C6  UNL d   1       3.752  -4.193  -0.541  0.00  0.00    -0.001 A 
ENDROOT
TORSDOF 0
ENDMDL
