MODEL 1
REMARK minimizedAffinity 2.8184166
REMARK minimizedRMSD -1
REMARK  0 active torsions:
REMARK  status: ('A' for Active; 'I' for Inactive)
ROOT
ATOM      1  C   UNL d   1      -2.921   1.260   4.136  0.00  0.00     0.078 C 
ATOM      2  C1  UNL d   1      -2.281   0.243   3.239  0.00  0.00    -0.077 A 
ATOM      3  C2  UNL d   1      -2.877  -0.126   2.027  0.00  0.00    -0.001 A 
ATOM      4  C3  UNL d   1      -2.275  -1.082   1.207  0.00  0.00     0.003 A 
ATOM      5  C4  UNL d   1      -1.075  -1.678   1.590  0.00  0.00    -0.005 A 
ATOM      6  C5  UNL d   1      -0.476  -1.318   2.796  0.00  0.00     0.003 A 
ATOM      7  C6  UNL d   1      -1.076  -0.363   3.617  0.00  0.00    -0.001 A 
ENDROOT
TORSDOF 0
ENDMDL
