MODEL 1
REMARK minimizedAffinity 12.9058046
REMARK minimizedRMSD -1
REMARK  0 active torsions:
REMARK  status: ('A' for Active; 'I' for Inactive)
ROOT
ATOM      1  C   UNL d   1       2.220   2.626  -2.776  0.00  0.00     0.078 C 
ATOM      2  C1  UNL d   1       3.463   3.152  -3.429  0.00  0.00    -0.077 A 
ATOM      3  C2  UNL d   1       4.432   3.838  -2.687  0.00  0.00    -0.001 A 
ATOM      4  C3  UNL d   1       5.580   4.330  -3.310  0.00  0.00     0.003 A 
ATOM      5  C4  UNL d   1       5.769   4.144  -4.678  0.00  0.00    -0.005 A 
ATOM      6  C5  UNL d   1       4.809   3.465  -5.425  0.00  0.00     0.003 A 
ATOM      7  C6  UNL d   1       3.660   2.972  -4.804  0.00  0.00    -0.001 A 
ENDROOT
TORSDOF 0
ENDMDL
