MODEL 1
REMARK minimizedAffinity 9.40129375
REMARK minimizedRMSD -1
REMARK  0 active torsions:
REMARK  status: ('A' for Active; 'I' for Inactive)
ROOT
ATOM      1  C   UNL d   1      -5.095   0.709   0.971  0.00  0.00     0.078 C 
ATOM      2  C1  UNL d   1      -3.834   0.404   1.722  0.00  0.00    -0.077 A 
ATOM      3  C2  UNL d   1      -3.521   1.077   2.910  0.00  0.00    -0.001 A 
ATOM      4  C3  UNL d   1      -2.339   0.790   3.594  0.00  0.00     0.003 A 
ATOM      5  C4  UNL d   1      -1.458  -0.169   3.097  0.00  0.00    -0.005 A 
ATOM      6  C5  UNL d   1      -1.760  -0.842   1.915  0.00  0.00     0.003 A 
ATOM      7  C6  UNL d   1      -2.942  -0.557   1.230  0.00  0.00    -0.001 A 
ENDROOT
TORSDOF 0
ENDMDL
