MODEL 1
REMARK minimizedAffinity 6.99485874
REMARK minimizedRMSD -1
REMARK  0 active torsions:
REMARK  status: ('A' for Active; 'I' for Inactive)
ROOT
ATOM      1  C   UNL d   1      -4.807  -5.981   5.523  0.00  0.00     0.078 C 
ATOM      2  C1  UNL d   1      -4.478  -5.107   4.351  0.00  0.00    -0.077 A 
ATOM      3  C2  UNL d   1      -4.395  -5.636   3.057  0.00  0.00    -0.001 A 
ATOM      4  C3  UNL d   1      -4.078  -4.812   1.976  0.00  0.00     0.003 A 
ATOM      5  C4  UNL d   1      -3.841  -3.454   2.178  0.00  0.00    -0.005 A 
ATOM      6  C5  UNL d   1      -3.919  -2.918   3.462  0.00  0.00     0.003 A 
ATOM      7  C6  UNL d   1      -4.236  -3.741   4.544  0.00  0.00    -0.001 A 
ENDROOT
TORSDOF 0
ENDMDL
