MODEL 1
REMARK minimizedAffinity 10.100522
REMARK minimizedRMSD -1
REMARK  0 active torsions:
REMARK  status: ('A' for Active; 'I' for Inactive)
ROOT
ATOM      1  C   UNL d   1       2.399   1.512   0.432  0.00  0.00     0.078 C 
ATOM      2  C1  UNL d   1       3.653   2.296   0.682  0.00  0.00    -0.077 A 
ATOM      3  C2  UNL d   1       3.805   3.065   1.842  0.00  0.00    -0.001 A 
ATOM      4  C3  UNL d   1       4.973   3.797   2.056  0.00  0.00     0.003 A 
ATOM      5  C4  UNL d   1       6.000   3.768   1.114  0.00  0.00    -0.005 A 
ATOM      6  C5  UNL d   1       5.858   3.007  -0.045  0.00  0.00     0.003 A 
ATOM      7  C6  UNL d   1       4.689   2.274  -0.261  0.00  0.00    -0.001 A 
ENDROOT
TORSDOF 0
ENDMDL
