MODEL 1
REMARK minimizedAffinity 8.69412136
REMARK minimizedRMSD -1
REMARK  0 active torsions:
REMARK  status: ('A' for Active; 'I' for Inactive)
ROOT
ATOM      1  C   UNL d   1       4.238  -1.997  -1.010  0.00  0.00     0.078 C 
ATOM      2  C1  UNL d   1       4.498  -3.396  -0.537  0.00  0.00    -0.077 A 
ATOM      3  C2  UNL d   1       3.500  -4.377  -0.604  0.00  0.00    -0.001 A 
ATOM      4  C3  UNL d   1       3.753  -5.673  -0.151  0.00  0.00     0.003 A 
ATOM      5  C4  UNL d   1       5.002  -6.000   0.372  0.00  0.00    -0.005 A 
ATOM      6  C5  UNL d   1       6.000  -5.031   0.445  0.00  0.00     0.003 A 
ATOM      7  C6  UNL d   1       5.749  -3.734  -0.007  0.00  0.00    -0.001 A 
ENDROOT
TORSDOF 0
ENDMDL
