MODEL 1
REMARK minimizedAffinity 3.98626566
REMARK minimizedRMSD -1
REMARK  0 active torsions:
REMARK  status: ('A' for Active; 'I' for Inactive)
ROOT
ATOM      1  C   UNL d   1      -4.651   0.312   0.548  0.00  0.00     0.078 C 
ATOM      2  C1  UNL d   1      -3.451  -0.040   1.376  0.00  0.00    -0.077 A 
ATOM      3  C2  UNL d   1      -3.034   0.784   2.428  0.00  0.00    -0.001 A 
ATOM      4  C3  UNL d   1      -1.910   0.449   3.184  0.00  0.00     0.003 A 
ATOM      5  C4  UNL d   1      -1.193  -0.711   2.896  0.00  0.00    -0.005 A 
ATOM      6  C5  UNL d   1      -1.600  -1.537   1.850  0.00  0.00     0.003 A 
ATOM      7  C6  UNL d   1      -2.724  -1.203   1.092  0.00  0.00    -0.001 A 
ENDROOT
TORSDOF 0
ENDMDL
