MODEL 1
REMARK minimizedAffinity 10.7210894
REMARK minimizedRMSD -1
REMARK  0 active torsions:
REMARK  status: ('A' for Active; 'I' for Inactive)
ROOT
ATOM      1  C   UNL d   1      -3.223  -3.303   2.717  0.00  0.00     0.078 C 
ATOM      2  C1  UNL d   1      -3.969  -4.013   3.807  0.00  0.00    -0.077 A 
ATOM      3  C2  UNL d   1      -4.349  -5.353   3.666  0.00  0.00    -0.001 A 
ATOM      4  C3  UNL d   1      -5.052  -5.998   4.685  0.00  0.00     0.003 A 
ATOM      5  C4  UNL d   1      -5.382  -5.311   5.851  0.00  0.00    -0.005 A 
ATOM      6  C5  UNL d   1      -5.010  -3.976   5.999  0.00  0.00     0.003 A 
ATOM      7  C6  UNL d   1      -4.307  -3.329   4.982  0.00  0.00    -0.001 A 
ENDROOT
TORSDOF 0
ENDMDL
