MODEL 1
REMARK minimizedAffinity 11.7589703
REMARK minimizedRMSD -1
REMARK  0 active torsions:
REMARK  status: ('A' for Active; 'I' for Inactive)
ROOT
ATOM      1  C   UNL d   1      -1.614   5.346  -5.036  0.00  0.00     0.078 C 
ATOM      2  C1  UNL d   1      -2.263   5.436  -3.687  0.00  0.00    -0.077 A 
ATOM      3  C2  UNL d   1      -1.495   5.447  -2.517  0.00  0.00    -0.001 A 
ATOM      4  C3  UNL d   1      -2.112   5.521  -1.268  0.00  0.00     0.003 A 
ATOM      5  C4  UNL d   1      -3.502   5.583  -1.176  0.00  0.00    -0.005 A 
ATOM      6  C5  UNL d   1      -4.275   5.571  -2.336  0.00  0.00     0.003 A 
ATOM      7  C6  UNL d   1      -3.659   5.497  -3.586  0.00  0.00    -0.001 A 
ENDROOT
TORSDOF 0
ENDMDL
