MODEL 1
REMARK minimizedAffinity 10.3621645
REMARK minimizedRMSD -1
REMARK  0 active torsions:
REMARK  status: ('A' for Active; 'I' for Inactive)
ROOT
ATOM      1  C   UNL d   1      -2.355   1.048   4.344  0.00  0.00     0.078 C 
ATOM      2  C1  UNL d   1      -2.030   0.293   3.090  0.00  0.00    -0.077 A 
ATOM      3  C2  UNL d   1      -2.951   0.213   2.038  0.00  0.00    -0.001 A 
ATOM      4  C3  UNL d   1      -2.639  -0.501   0.879  0.00  0.00     0.003 A 
ATOM      5  C4  UNL d   1      -1.407  -1.141   0.763  0.00  0.00    -0.005 A 
ATOM      6  C5  UNL d   1      -0.485  -1.069   1.806  0.00  0.00     0.003 A 
ATOM      7  C6  UNL d   1      -0.796  -0.356   2.964  0.00  0.00    -0.001 A 
ENDROOT
TORSDOF 0
ENDMDL
