MODEL 1
REMARK minimizedAffinity 9.61101341
REMARK minimizedRMSD -1
REMARK  0 active torsions:
REMARK  status: ('A' for Active; 'I' for Inactive)
ROOT
ATOM      1  C   UNL d   1       6.000   4.657  -0.811  0.00  0.00     0.078 C 
ATOM      2  C1  UNL d   1       5.351   4.078  -2.033  0.00  0.00    -0.077 A 
ATOM      3  C2  UNL d   1       4.104   3.446  -1.956  0.00  0.00    -0.001 A 
ATOM      4  C3  UNL d   1       3.516   2.904  -3.100  0.00  0.00     0.003 A 
ATOM      5  C4  UNL d   1       4.168   2.987  -4.329  0.00  0.00    -0.005 A 
ATOM      6  C5  UNL d   1       5.410   3.613  -4.414  0.00  0.00     0.003 A 
ATOM      7  C6  UNL d   1       6.000   4.156  -3.271  0.00  0.00    -0.001 A 
ENDROOT
TORSDOF 0
ENDMDL
