MODEL 1
REMARK minimizedAffinity 11.2926407
REMARK minimizedRMSD -1
REMARK  0 active torsions:
REMARK  status: ('A' for Active; 'I' for Inactive)
ROOT
ATOM      1  C   UNL d   1       5.894   4.191   1.974  0.00  0.00     0.078 C 
ATOM      2  C1  UNL d   1       5.937   4.457   0.499  0.00  0.00    -0.077 A 
ATOM      3  C2  UNL d   1       5.942   5.766   0.003  0.00  0.00    -0.001 A 
ATOM      4  C3  UNL d   1       5.972   6.000  -1.373  0.00  0.00     0.003 A 
ATOM      5  C4  UNL d   1       5.998   4.928  -2.264  0.00  0.00    -0.005 A 
ATOM      6  C5  UNL d   1       5.991   3.622  -1.779  0.00  0.00     0.003 A 
ATOM      7  C6  UNL d   1       5.961   3.387  -0.404  0.00  0.00    -0.001 A 
ENDROOT
TORSDOF 0
ENDMDL
