MODEL 1
REMARK minimizedAffinity 12.2576809
REMARK minimizedRMSD -1
REMARK  0 active torsions:
REMARK  status: ('A' for Active; 'I' for Inactive)
ROOT
ATOM      1  C   UNL d   1       6.000   3.045   0.949  0.00  0.00     0.078 C 
ATOM      2  C1  UNL d   1       4.775   2.277   0.553  0.00  0.00    -0.077 A 
ATOM      3  C2  UNL d   1       3.526   2.573   1.113  0.00  0.00    -0.001 A 
ATOM      4  C3  UNL d   1       2.395   1.843   0.742  0.00  0.00     0.003 A 
ATOM      5  C4  UNL d   1       2.502   0.812  -0.190  0.00  0.00    -0.005 A 
ATOM      6  C5  UNL d   1       3.741   0.510  -0.751  0.00  0.00     0.003 A 
ATOM      7  C6  UNL d   1       4.873   1.238  -0.381  0.00  0.00    -0.001 A 
ENDROOT
TORSDOF 0
ENDMDL
