MODEL 1
REMARK minimizedAffinity 7.01589775
REMARK minimizedRMSD -1
REMARK  0 active torsions:
REMARK  status: ('A' for Active; 'I' for Inactive)
ROOT
ATOM      1  C   UNL d   1      -1.717  -5.548  -4.694  0.00  0.00     0.078 C 
ATOM      2  C1  UNL d   1      -3.202  -5.391  -4.829  0.00  0.00    -0.077 A 
ATOM      3  C2  UNL d   1      -3.898  -5.999  -5.881  0.00  0.00    -0.001 A 
ATOM      4  C3  UNL d   1      -5.280  -5.836  -6.000  0.00  0.00     0.003 A 
ATOM      5  C4  UNL d   1      -5.976  -5.065  -5.071  0.00  0.00    -0.005 A 
ATOM      6  C5  UNL d   1      -5.291  -4.455  -4.022  0.00  0.00     0.003 A 
ATOM      7  C6  UNL d   1      -3.910  -4.617  -3.902  0.00  0.00    -0.001 A 
ENDROOT
TORSDOF 0
ENDMDL
