MODEL 1
REMARK minimizedAffinity 2.07388592
REMARK minimizedRMSD -1
REMARK  2 active torsions:
REMARK  status: ('A' for Active; 'I' for Inactive)
REMARK    1  A    between atoms: C2'_3  and  C1'_4 
REMARK    2  A    between atoms: C1'_4  and  C1_5 
ROOT
ATOM      1  C1  I4B d   1       2.053  -1.763  -0.365  0.00  0.00    -0.075 A 
ATOM      2  C2  I4B d   1       2.858  -2.334  -1.319  0.00  0.00     0.003 A 
ATOM      3  C3  I4B d   1       3.934  -1.601  -1.875  0.00  0.00     0.002 A 
ATOM      4  C4  I4B d   1       4.137  -0.292  -1.487  0.00  0.00    -0.004 A 
ATOM      5  C5  I4B d   1       3.335   0.277  -0.503  0.00  0.00     0.002 A 
ATOM      6  C6  I4B d   1       2.293  -0.466   0.071  0.00  0.00     0.003 A 
ENDROOT
BRANCH   1   7
ATOM      7  C1' I4B d   1       0.905  -2.554   0.177  0.00  0.00     0.060 C 
BRANCH   7   8
ATOM      8  C2' I4B d   1       0.109  -3.086  -0.998  0.00  0.00    -0.013 C 
ATOM      9  C4' I4B d   1      -0.861  -4.152  -0.560  0.00  0.00     0.013 C 
ATOM     10  C3' I4B d   1      -0.605  -1.932  -1.635  0.00  0.00     0.013 C 
ENDBRANCH   7   8
ENDBRANCH   1   7
TORSDOF 2
ENDMDL
