MODEL 1
REMARK minimizedAffinity 11.8445683
REMARK minimizedRMSD -1
REMARK  2 active torsions:
REMARK  status: ('A' for Active; 'I' for Inactive)
REMARK    1  A    between atoms: C2'_3  and  C1'_4 
REMARK    2  A    between atoms: C1'_4  and  C1_5 
ROOT
ATOM      1  C1  I4B d   1      -0.116   1.736   0.870  0.00  0.00    -0.075 A 
ATOM      2  C2  I4B d   1      -0.631   2.667   1.738  0.00  0.00     0.003 A 
ATOM      3  C3  I4B d   1      -1.678   3.525   1.323  0.00  0.00     0.002 A 
ATOM      4  C4  I4B d   1      -2.143   3.452   0.026  0.00  0.00    -0.004 A 
ATOM      5  C5  I4B d   1      -1.636   2.492  -0.845  0.00  0.00     0.002 A 
ATOM      6  C6  I4B d   1      -0.624   1.620  -0.417  0.00  0.00     0.003 A 
ENDROOT
BRANCH   1   7
ATOM      7  C1' I4B d   1       1.013   0.869   1.330  0.00  0.00     0.060 C 
BRANCH   7   8
ATOM      8  C2' I4B d   1       1.793   0.431   0.108  0.00  0.00    -0.013 C 
ATOM      9  C4' I4B d   1       3.068   1.220  -0.036  0.00  0.00     0.013 C 
ATOM     10  C3' I4B d   1       2.077  -1.036   0.240  0.00  0.00     0.013 C 
ENDBRANCH   7   8
ENDBRANCH   1   7
TORSDOF 2
ENDMDL
