MODEL 1
REMARK minimizedAffinity 10.0871534
REMARK minimizedRMSD -1
REMARK  2 active torsions:
REMARK  status: ('A' for Active; 'I' for Inactive)
REMARK    1  A    between atoms: C2'_3  and  C1'_4 
REMARK    2  A    between atoms: C1'_4  and  C1_5 
ROOT
ATOM      1  C1  I4B d   1       2.217  -1.749  -0.324  0.00  0.00    -0.075 A 
ATOM      2  C2  I4B d   1       1.728  -2.708   0.528  0.00  0.00     0.003 A 
ATOM      3  C3  I4B d   1       0.730  -3.611   0.087  0.00  0.00     0.002 A 
ATOM      4  C4  I4B d   1       0.217  -3.488  -1.188  0.00  0.00    -0.004 A 
ATOM      5  C5  I4B d   1       0.730  -2.530  -2.057  0.00  0.00     0.002 A 
ATOM      6  C6  I4B d   1       1.745  -1.662  -1.627  0.00  0.00     0.003 A 
ENDROOT
BRANCH   1   7
ATOM      7  C1' I4B d   1       3.247  -0.791   0.185  0.00  0.00     0.060 C 
BRANCH   7   8
ATOM      8  C2' I4B d   1       2.946   0.573  -0.403  0.00  0.00    -0.013 C 
ATOM      9  C4' I4B d   1       1.794   1.231   0.310  0.00  0.00     0.013 C 
ATOM     10  C3' I4B d   1       4.190   1.404  -0.304  0.00  0.00     0.013 C 
ENDBRANCH   7   8
ENDBRANCH   1   7
TORSDOF 2
ENDMDL
