MODEL 1
REMARK minimizedAffinity 7.36065817
REMARK minimizedRMSD -1
REMARK  2 active torsions:
REMARK  status: ('A' for Active; 'I' for Inactive)
REMARK    1  A    between atoms: C2'_3  and  C1'_4 
REMARK    2  A    between atoms: C1'_4  and  C1_5 
ROOT
ATOM      1  C1  I4B d   1      -4.855   2.155  -3.499  0.00  0.00    -0.075 A 
ATOM      2  C2  I4B d   1      -5.411   2.138  -2.244  0.00  0.00     0.003 A 
ATOM      3  C3  I4B d   1      -5.999   3.309  -1.709  0.00  0.00     0.002 A 
ATOM      4  C4  I4B d   1      -5.965   4.481  -2.438  0.00  0.00    -0.004 A 
ATOM      5  C5  I4B d   1      -5.422   4.490  -3.719  0.00  0.00     0.002 A 
ATOM      6  C6  I4B d   1      -4.874   3.317  -4.259  0.00  0.00     0.003 A 
ENDROOT
BRANCH   1   7
ATOM      7  C1' I4B d   1      -4.213   0.908  -4.019  0.00  0.00     0.060 C 
BRANCH   7   8
ATOM      8  C2' I4B d   1      -2.713   1.126  -4.032  0.00  0.00    -0.013 C 
ATOM      9  C4' I4B d   1      -2.003   0.077  -3.217  0.00  0.00     0.013 C 
ATOM     10  C3' I4B d   1      -2.254   1.105  -5.460  0.00  0.00     0.013 C 
ENDBRANCH   7   8
ENDBRANCH   1   7
TORSDOF 2
ENDMDL
