MODEL 1
REMARK minimizedAffinity 2.27873969
REMARK minimizedRMSD -1
REMARK  2 active torsions:
REMARK  status: ('A' for Active; 'I' for Inactive)
REMARK    1  A    between atoms: C2'_3  and  C1'_4 
REMARK    2  A    between atoms: C1'_4  and  C1_5 
ROOT
ATOM      1  C1  I4B d   1      -0.014   0.829   2.305  0.00  0.00    -0.075 A 
ATOM      2  C2  I4B d   1       1.048   0.259   1.649  0.00  0.00     0.003 A 
ATOM      3  C3  I4B d   1       1.201   0.433   0.252  0.00  0.00     0.002 A 
ATOM      4  C4  I4B d   1       0.246   1.137  -0.453  0.00  0.00    -0.004 A 
ATOM      5  C5  I4B d   1      -0.818   1.733   0.217  0.00  0.00     0.002 A 
ATOM      6  C6  I4B d   1      -0.943   1.589   1.606  0.00  0.00     0.003 A 
ENDROOT
BRANCH   1   7
ATOM      7  C1' I4B d   1      -0.162   0.597   3.775  0.00  0.00     0.060 C 
BRANCH   7   8
ATOM      8  C2' I4B d   1       0.693  -0.597   4.148  0.00  0.00    -0.013 C 
ATOM      9  C4' I4B d   1       1.326  -0.412   5.502  0.00  0.00     0.013 C 
ATOM     10  C3' I4B d   1      -0.179  -1.817   4.120  0.00  0.00     0.013 C 
ENDBRANCH   7   8
ENDBRANCH   1   7
TORSDOF 2
ENDMDL
