MODEL 1
REMARK minimizedAffinity 4.30378628
REMARK minimizedRMSD -1
REMARK  2 active torsions:
REMARK  status: ('A' for Active; 'I' for Inactive)
REMARK    1  A    between atoms: C2'_3  and  C1'_4 
REMARK    2  A    between atoms: C1'_4  and  C1_5 
ROOT
ATOM      1  C1  I4B d   1       0.773   1.084   1.007  0.00  0.00    -0.075 A 
ATOM      2  C2  I4B d   1      -0.041   1.098   2.113  0.00  0.00     0.003 A 
ATOM      3  C3  I4B d   1      -1.427   1.352   1.974  0.00  0.00     0.002 A 
ATOM      4  C4  I4B d   1      -1.944   1.636   0.727  0.00  0.00    -0.004 A 
ATOM      5  C5  I4B d   1      -1.122   1.599  -0.395  0.00  0.00     0.002 A 
ATOM      6  C6  I4B d   1       0.243   1.309  -0.257  0.00  0.00     0.003 A 
ENDROOT
BRANCH   1   7
ATOM      7  C1' I4B d   1       2.238   0.844   1.193  0.00  0.00     0.060 C 
BRANCH   7   8
ATOM      8  C2' I4B d   1       2.859   0.666  -0.177  0.00  0.00    -0.013 C 
ATOM      9  C4' I4B d   1       4.254   1.233  -0.221  0.00  0.00     0.013 C 
ATOM     10  C3' I4B d   1       2.860  -0.799  -0.498  0.00  0.00     0.013 C 
ENDBRANCH   7   8
ENDBRANCH   1   7
TORSDOF 2
ENDMDL
