MODEL 1
REMARK minimizedAffinity -4.73242617
REMARK minimizedRMSD -1
REMARK  1 active torsions:
REMARK  status: ('A' for Active; 'I' for Inactive)
REMARK    1  A    between atoms: C1_2  and  C2_3 
ROOT
ATOM      1  C2  UNL d   1       0.273  -0.598   0.124  0.00  0.00    -0.073 A 
ATOM      2  C3  UNL d   1       1.502  -0.755   0.776  0.00  0.00    -0.002 A 
ATOM      3  C4  UNL d   1       1.667  -0.305   2.086  0.00  0.00     0.004 A 
ATOM      4  C5  UNL d   1       0.606   0.299   2.760  0.00  0.00    -0.004 A 
ATOM      5  C6  UNL d   1      -0.633   0.454   2.130  0.00  0.00    -0.075 A 
ATOM      6  C7  UNL d   1      -1.784   1.104   2.841  0.00  0.00     0.076 C 
ATOM      7  C8  UNL d   1      -0.790   0.002   0.813  0.00  0.00     0.001 A 
ENDROOT
BRANCH   1   8
ATOM      8  C1  UNL d   1       0.088  -1.088  -1.289  0.00  0.00     0.053 C 
ATOM      9  C   UNL d   1       1.019  -0.383  -2.263  0.00  0.00     0.018 C 
ENDBRANCH   1   8
TORSDOF 1
ENDMDL
