MODEL 1
REMARK minimizedAffinity -1.28083158
REMARK minimizedRMSD -1
REMARK  1 active torsions:
REMARK  status: ('A' for Active; 'I' for Inactive)
REMARK    1  A    between atoms: C1_2  and  C2_3 
ROOT
ATOM      1  C2  UNL d   1       0.524   0.014  -1.607  0.00  0.00    -0.073 A 
ATOM      2  C3  UNL d   1       1.383   0.934  -2.219  0.00  0.00    -0.002 A 
ATOM      3  C4  UNL d   1       1.384   1.082  -3.607  0.00  0.00     0.004 A 
ATOM      4  C5  UNL d   1       0.523   0.318  -4.395  0.00  0.00    -0.004 A 
ATOM      5  C6  UNL d   1      -0.351  -0.598  -3.801  0.00  0.00    -0.075 A 
ATOM      6  C7  UNL d   1      -1.282  -1.428  -4.635  0.00  0.00     0.076 C 
ATOM      7  C8  UNL d   1      -0.345  -0.742  -2.407  0.00  0.00     0.001 A 
ENDROOT
BRANCH   1   8
ATOM      8  C1  UNL d   1       0.514  -0.144  -0.108  0.00  0.00     0.053 C 
ATOM      9  C   UNL d   1      -0.768   0.387   0.513  0.00  0.00     0.018 C 
ENDBRANCH   1   8
TORSDOF 1
ENDMDL
