MODEL 1
REMARK minimizedAffinity -6.38238478
REMARK minimizedRMSD -1
REMARK  1 active torsions:
REMARK  status: ('A' for Active; 'I' for Inactive)
REMARK    1  A    between atoms: C1_2  and  C2_3 
ROOT
ATOM      1  C2  UNL d   1       0.149   0.698   2.155  0.00  0.00    -0.073 A 
ATOM      2  C3  UNL d   1      -1.237   0.670   2.349  0.00  0.00    -0.002 A 
ATOM      3  C4  UNL d   1      -2.081   0.217   1.334  0.00  0.00     0.004 A 
ATOM      4  C5  UNL d   1      -1.550  -0.218   0.120  0.00  0.00    -0.004 A 
ATOM      5  C6  UNL d   1      -0.167  -0.209  -0.088  0.00  0.00    -0.075 A 
ATOM      6  C7  UNL d   1       0.421  -0.672  -1.389  0.00  0.00     0.076 C 
ATOM      7  C8  UNL d   1       0.674   0.250   0.935  0.00  0.00     0.001 A 
ENDROOT
BRANCH   1   8
ATOM      8  C1  UNL d   1       1.065   1.180   3.250  0.00  0.00     0.053 C 
ATOM      9  C   UNL d   1       2.413   0.477   3.216  0.00  0.00     0.018 C 
ENDBRANCH   1   8
TORSDOF 1
ENDMDL
