MODEL 1
REMARK minimizedAffinity -4.7773881
REMARK minimizedRMSD -1
REMARK  1 active torsions:
REMARK  status: ('A' for Active; 'I' for Inactive)
REMARK    1  A    between atoms: C1_2  and  C2_3 
ROOT
ATOM      1  C2  UNL d   1      -0.182  -0.117  -0.362  0.00  0.00    -0.073 A 
ATOM      2  C3  UNL d   1      -1.529  -0.053  -0.737  0.00  0.00    -0.002 A 
ATOM      3  C4  UNL d   1      -2.479   0.482   0.134  0.00  0.00     0.004 A 
ATOM      4  C5  UNL d   1      -2.091   0.965   1.384  0.00  0.00    -0.004 A 
ATOM      5  C6  UNL d   1      -0.748   0.920   1.772  0.00  0.00    -0.075 A 
ATOM      6  C7  UNL d   1      -0.316   1.433   3.114  0.00  0.00     0.076 C 
ATOM      7  C8  UNL d   1       0.199   0.379   0.893  0.00  0.00     0.001 A 
ENDROOT
BRANCH   1   8
ATOM      8  C1  UNL d   1       0.847  -0.689  -1.302  0.00  0.00     0.053 C 
ATOM      9  C   UNL d   1       1.103   0.224  -2.491  0.00  0.00     0.018 C 
ENDBRANCH   1   8
TORSDOF 1
ENDMDL
