MODEL 1
REMARK minimizedAffinity -6.18798542
REMARK minimizedRMSD -1
REMARK  1 active torsions:
REMARK  status: ('A' for Active; 'I' for Inactive)
REMARK    1  A    between atoms: C1_2  and  C2_3 
ROOT
ATOM      1  C2  UNL d   1      -0.854   0.320   0.736  0.00  0.00    -0.073 A 
ATOM      2  C3  UNL d   1      -1.559   1.091   1.668  0.00  0.00    -0.002 A 
ATOM      3  C4  UNL d   1      -0.980   1.416   2.895  0.00  0.00     0.004 A 
ATOM      4  C5  UNL d   1       0.310   0.982   3.199  0.00  0.00    -0.004 A 
ATOM      5  C6  UNL d   1       1.035   0.221   2.276  0.00  0.00    -0.075 A 
ATOM      6  C7  UNL d   1       2.423  -0.255   2.589  0.00  0.00     0.076 C 
ATOM      7  C8  UNL d   1       0.445  -0.104   1.047  0.00  0.00     0.001 A 
ENDROOT
BRANCH   1   8
ATOM      8  C1  UNL d   1      -1.473  -0.029  -0.593  0.00  0.00     0.053 C 
ATOM      9  C   UNL d   1      -2.929   0.402  -0.675  0.00  0.00     0.018 C 
ENDBRANCH   1   8
TORSDOF 1
ENDMDL
