MODEL 1
REMARK minimizedAffinity -5.67410374
REMARK minimizedRMSD -1
REMARK  1 active torsions:
REMARK  status: ('A' for Active; 'I' for Inactive)
REMARK    1  A    between atoms: C1_2  and  C2_3 
ROOT
ATOM      1  C2  UNL d   1       0.555  -0.504   0.115  0.00  0.00    -0.073 A 
ATOM      2  C3  UNL d   1       1.710  -0.898   0.801  0.00  0.00    -0.002 A 
ATOM      3  C4  UNL d   1       1.964  -0.420   2.087  0.00  0.00     0.004 A 
ATOM      4  C5  UNL d   1       1.065   0.451   2.703  0.00  0.00    -0.004 A 
ATOM      5  C6  UNL d   1      -0.101   0.847   2.038  0.00  0.00    -0.075 A 
ATOM      6  C7  UNL d   1      -1.077   1.785   2.685  0.00  0.00     0.076 C 
ATOM      7  C8  UNL d   1      -0.347   0.365   0.746  0.00  0.00     0.001 A 
ENDROOT
BRANCH   1   8
ATOM      8  C1  UNL d   1       0.274  -1.022  -1.271  0.00  0.00     0.053 C 
ATOM      9  C   UNL d   1       0.976  -0.201  -2.341  0.00  0.00     0.018 C 
ENDBRANCH   1   8
TORSDOF 1
ENDMDL
