MODEL 1
REMARK minimizedAffinity -5.07600689
REMARK minimizedRMSD -1
REMARK  1 active torsions:
REMARK  status: ('A' for Active; 'I' for Inactive)
REMARK    1  A    between atoms: C1_2  and  C2_3 
ROOT
ATOM      1  C2  UNL d   1       0.510  -0.038   0.682  0.00  0.00    -0.073 A 
ATOM      2  C3  UNL d   1       1.735  -0.469   1.204  0.00  0.00    -0.002 A 
ATOM      3  C4  UNL d   1       2.100  -0.140   2.510  0.00  0.00     0.004 A 
ATOM      4  C5  UNL d   1       1.241   0.616   3.309  0.00  0.00    -0.004 A 
ATOM      5  C6  UNL d   1       0.008   1.045   2.810  0.00  0.00    -0.075 A 
ATOM      6  C7  UNL d   1      -0.926   1.860   3.655  0.00  0.00     0.076 C 
ATOM      7  C8  UNL d   1      -0.350   0.713   1.496  0.00  0.00     0.001 A 
ENDROOT
BRANCH   1   8
ATOM      8  C1  UNL d   1       0.110  -0.396  -0.726  0.00  0.00     0.053 C 
ATOM      9  C   UNL d   1       0.911  -1.571  -1.265  0.00  0.00     0.018 C 
ENDBRANCH   1   8
TORSDOF 1
ENDMDL
