MODEL 1
REMARK minimizedAffinity -5.26035309
REMARK minimizedRMSD -1
REMARK  1 active torsions:
REMARK  status: ('A' for Active; 'I' for Inactive)
REMARK    1  A    between atoms: C1_2  and  C2_3 
ROOT
ATOM      1  C2  UNL d   1       0.122   0.609   2.156  0.00  0.00    -0.073 A 
ATOM      2  C3  UNL d   1      -1.250   0.824   2.323  0.00  0.00    -0.002 A 
ATOM      3  C4  UNL d   1      -2.137   0.564   1.277  0.00  0.00     0.004 A 
ATOM      4  C5  UNL d   1      -1.662   0.081   0.058  0.00  0.00    -0.004 A 
ATOM      5  C6  UNL d   1      -0.296  -0.151  -0.125  0.00  0.00    -0.075 A 
ATOM      6  C7  UNL d   1       0.231  -0.668  -1.431  0.00  0.00     0.076 C 
ATOM      7  C8  UNL d   1       0.589   0.114   0.929  0.00  0.00     0.001 A 
ENDROOT
BRANCH   1   8
ATOM      8  C1  UNL d   1       1.083   0.881   3.284  0.00  0.00     0.053 C 
ATOM      9  C   UNL d   1       2.444   0.248   3.040  0.00  0.00     0.018 C 
ENDBRANCH   1   8
TORSDOF 1
ENDMDL
