MODEL 1
REMARK minimizedAffinity -3.88755488
REMARK minimizedRMSD -1
REMARK  0 active torsions:
REMARK  status: ('A' for Active; 'I' for Inactive)
ROOT
ATOM      1  C   UNL d   1       0.716  -0.992  -2.758  0.00  0.00     0.077 C 
ATOM      2  C1  UNL d   1       0.491  -0.121  -1.559  0.00  0.00    -0.074 A 
ATOM      3  C2  UNL d   1       1.369   0.925  -1.255  0.00  0.00    -0.005 A 
ATOM      4  C3  UNL d   1       1.142   1.733  -0.141  0.00  0.00     0.006 A 
ATOM      5  C4  UNL d   1       0.037   1.504   0.679  0.00  0.00    -0.005 A 
ATOM      6  C5  UNL d   1      -0.852   0.464   0.391  0.00  0.00    -0.074 A 
ATOM      7  C6  UNL d   1      -2.051   0.211   1.257  0.00  0.00     0.077 C 
ATOM      8  C7  UNL d   1      -0.621  -0.339  -0.734  0.00  0.00    -0.001 A 
ENDROOT
TORSDOF 0
ENDMDL
