MODEL 1
REMARK minimizedAffinity -2.94877911
REMARK minimizedRMSD -1
REMARK  0 active torsions:
REMARK  status: ('A' for Active; 'I' for Inactive)
ROOT
ATOM      1  C   UNL d   1       0.988  -3.151  -0.756  0.00  0.00     0.077 C 
ATOM      2  C1  UNL d   1       0.719  -1.698  -0.496  0.00  0.00    -0.074 A 
ATOM      3  C2  UNL d   1       1.390  -0.703  -1.214  0.00  0.00    -0.005 A 
ATOM      4  C3  UNL d   1       1.123   0.643  -0.968  0.00  0.00     0.006 A 
ATOM      5  C4  UNL d   1       0.183   1.008  -0.002  0.00  0.00    -0.005 A 
ATOM      6  C5  UNL d   1      -0.498   0.027   0.725  0.00  0.00    -0.074 A 
ATOM      7  C6  UNL d   1      -1.519   0.401   1.758  0.00  0.00     0.077 C 
ATOM      8  C7  UNL d   1      -0.229  -1.324   0.466  0.00  0.00    -0.001 A 
ENDROOT
TORSDOF 0
ENDMDL
