MODEL 1
REMARK minimizedAffinity -4.2004385
REMARK minimizedRMSD -1
REMARK  0 active torsions:
REMARK  status: ('A' for Active; 'I' for Inactive)
ROOT
ATOM      1  C   UNL d   1      -0.741   0.125   1.153  0.00  0.00     0.077 C 
ATOM      2  C1  UNL d   1       0.147   0.029  -0.052  0.00  0.00    -0.074 A 
ATOM      3  C2  UNL d   1       0.676   1.179  -0.648  0.00  0.00    -0.005 A 
ATOM      4  C3  UNL d   1       1.508   1.073  -1.763  0.00  0.00     0.006 A 
ATOM      5  C4  UNL d   1       1.819  -0.180  -2.292  0.00  0.00    -0.005 A 
ATOM      6  C5  UNL d   1       1.300  -1.340  -1.709  0.00  0.00    -0.074 A 
ATOM      7  C6  UNL d   1       1.631  -2.696  -2.259  0.00  0.00     0.077 C 
ATOM      8  C7  UNL d   1       0.470  -1.227  -0.585  0.00  0.00    -0.001 A 
ENDROOT
TORSDOF 0
ENDMDL
