MODEL 1
REMARK minimizedAffinity -3.93911791
REMARK minimizedRMSD -1
REMARK  0 active torsions:
REMARK  status: ('A' for Active; 'I' for Inactive)
ROOT
ATOM      1  C   UNL d   1       1.810  -2.943  -2.175  0.00  0.00     0.077 C 
ATOM      2  C1  UNL d   1       1.402  -1.557  -1.771  0.00  0.00    -0.074 A 
ATOM      3  C2  UNL d   1       1.897  -0.437  -2.446  0.00  0.00    -0.005 A 
ATOM      4  C3  UNL d   1       1.501   0.845  -2.065  0.00  0.00     0.006 A 
ATOM      5  C4  UNL d   1       0.609   1.020  -1.007  0.00  0.00    -0.005 A 
ATOM      6  C5  UNL d   1       0.103  -0.089  -0.320  0.00  0.00    -0.074 A 
ATOM      7  C6  UNL d   1      -0.865   0.080   0.813  0.00  0.00     0.077 C 
ATOM      8  C7  UNL d   1       0.500  -1.374  -0.714  0.00  0.00    -0.001 A 
ENDROOT
TORSDOF 0
ENDMDL
