MODEL 1
REMARK minimizedAffinity -1.11819983
REMARK minimizedRMSD -1
REMARK  0 active torsions:
REMARK  status: ('A' for Active; 'I' for Inactive)
ROOT
ATOM      1  C   UNL d   1       1.628  -0.214  -2.934  0.00  0.00     0.077 C 
ATOM      2  C1  UNL d   1       1.091   0.240  -1.609  0.00  0.00    -0.074 A 
ATOM      3  C2  UNL d   1       1.772   1.195  -0.847  0.00  0.00    -0.005 A 
ATOM      4  C3  UNL d   1       1.256   1.615   0.379  0.00  0.00     0.006 A 
ATOM      5  C4  UNL d   1       0.056   1.085   0.855  0.00  0.00    -0.005 A 
ATOM      6  C5  UNL d   1      -0.639   0.129   0.107  0.00  0.00    -0.074 A 
ATOM      7  C6  UNL d   1      -1.934  -0.444   0.600  0.00  0.00     0.077 C 
ATOM      8  C7  UNL d   1      -0.117  -0.283  -1.127  0.00  0.00    -0.001 A 
ENDROOT
TORSDOF 0
ENDMDL
