MODEL 1
REMARK minimizedAffinity -3.46703935
REMARK minimizedRMSD -1
REMARK  0 active torsions:
REMARK  status: ('A' for Active; 'I' for Inactive)
ROOT
ATOM      1  C   UNL d   1       0.864  -0.084  -1.772  0.00  0.00     0.077 C 
ATOM      2  C1  UNL d   1       0.181  -0.702  -0.588  0.00  0.00    -0.074 A 
ATOM      3  C2  UNL d   1       0.501  -1.996  -0.168  0.00  0.00    -0.005 A 
ATOM      4  C3  UNL d   1      -0.136  -2.554   0.940  0.00  0.00     0.006 A 
ATOM      5  C4  UNL d   1      -1.099  -1.824   1.638  0.00  0.00    -0.005 A 
ATOM      6  C5  UNL d   1      -1.432  -0.528   1.233  0.00  0.00    -0.074 A 
ATOM      7  C6  UNL d   1      -2.458   0.275   1.978  0.00  0.00     0.077 C 
ATOM      8  C7  UNL d   1      -0.782   0.029   0.123  0.00  0.00    -0.001 A 
ENDROOT
TORSDOF 0
ENDMDL
