MODEL 1
REMARK minimizedAffinity -5.26720619
REMARK minimizedRMSD -1
REMARK  0 active torsions:
REMARK  status: ('A' for Active; 'I' for Inactive)
ROOT
ATOM      1  C   UNL d   1       1.131  -1.894  -2.596  0.00  0.00     0.077 C 
ATOM      2  C1  UNL d   1       1.021  -0.701  -1.695  0.00  0.00    -0.074 A 
ATOM      3  C2  UNL d   1       1.863   0.404  -1.858  0.00  0.00    -0.005 A 
ATOM      4  C3  UNL d   1       1.742   1.511  -1.018  0.00  0.00     0.006 A 
ATOM      5  C4  UNL d   1       0.780   1.525  -0.008  0.00  0.00    -0.005 A 
ATOM      6  C5  UNL d   1      -0.072   0.430   0.170  0.00  0.00    -0.074 A 
ATOM      7  C6  UNL d   1      -1.119   0.432   1.244  0.00  0.00     0.077 C 
ATOM      8  C7  UNL d   1       0.051  -0.676  -0.683  0.00  0.00    -0.001 A 
ENDROOT
TORSDOF 0
ENDMDL
