MODEL 1
REMARK minimizedAffinity -2.35721803
REMARK minimizedRMSD -1
REMARK  0 active torsions:
REMARK  status: ('A' for Active; 'I' for Inactive)
ROOT
ATOM      1  C   UNL d   1       0.341   0.562  -0.882  0.00  0.00     0.077 C 
ATOM      2  C1  UNL d   1      -0.662   0.402   0.222  0.00  0.00    -0.074 A 
ATOM      3  C2  UNL d   1      -0.288  -0.130   1.460  0.00  0.00    -0.005 A 
ATOM      4  C3  UNL d   1      -1.229  -0.264   2.481  0.00  0.00     0.006 A 
ATOM      5  C4  UNL d   1      -2.551   0.131   2.274  0.00  0.00    -0.005 A 
ATOM      6  C5  UNL d   1      -2.943   0.665   1.042  0.00  0.00    -0.074 A 
ATOM      7  C6  UNL d   1      -4.358   1.104   0.806  0.00  0.00     0.077 C 
ATOM      8  C7  UNL d   1      -1.990   0.804   0.024  0.00  0.00    -0.001 A 
ENDROOT
TORSDOF 0
ENDMDL
