MODEL 1
REMARK minimizedAffinity -2.67252636
REMARK minimizedRMSD -1
REMARK  0 active torsions:
REMARK  status: ('A' for Active; 'I' for Inactive)
ROOT
ATOM      1  C   UNL d   1      -2.717   0.574   1.320  0.00  0.00     0.077 C 
ATOM      2  C1  UNL d   1      -1.409   0.333   0.626  0.00  0.00    -0.074 A 
ATOM      3  C2  UNL d   1      -0.568   1.398   0.289  0.00  0.00    -0.005 A 
ATOM      4  C3  UNL d   1       0.650   1.158  -0.348  0.00  0.00     0.006 A 
ATOM      5  C4  UNL d   1       1.037  -0.147  -0.655  0.00  0.00    -0.005 A 
ATOM      6  C5  UNL d   1       0.208  -1.225  -0.325  0.00  0.00    -0.074 A 
ATOM      7  C6  UNL d   1       0.614  -2.634  -0.639  0.00  0.00     0.077 C 
ATOM      8  C7  UNL d   1      -1.010  -0.976   0.321  0.00  0.00    -0.001 A 
ENDROOT
TORSDOF 0
ENDMDL
