MODEL 1
REMARK minimizedAffinity -3.65462375
REMARK minimizedRMSD -1
REMARK  0 active torsions:
REMARK  status: ('A' for Active; 'I' for Inactive)
ROOT
ATOM      1  C   UNL d   1      -1.569  -0.091   2.036  0.00  0.00     0.077 C 
ATOM      2  C1  UNL d   1      -0.648  -0.043   0.853  0.00  0.00    -0.074 A 
ATOM      3  C2  UNL d   1      -0.004   1.144   0.491  0.00  0.00    -0.005 A 
ATOM      4  C3  UNL d   1       0.857   1.171  -0.606  0.00  0.00     0.006 A 
ATOM      5  C4  UNL d   1       1.082   0.013  -1.351  0.00  0.00    -0.005 A 
ATOM      6  C5  UNL d   1       0.447  -1.184  -1.004  0.00  0.00    -0.074 A 
ATOM      7  C6  UNL d   1       0.686  -2.440  -1.788  0.00  0.00     0.077 C 
ATOM      8  C7  UNL d   1      -0.411  -1.204   0.104  0.00  0.00    -0.001 A 
ENDROOT
TORSDOF 0
ENDMDL
