MODEL 1
REMARK minimizedAffinity -4.64837027
REMARK minimizedRMSD -1
REMARK  0 active torsions:
REMARK  status: ('A' for Active; 'I' for Inactive)
ROOT
ATOM      1  C   UNL d   1       0.644  -2.725  -1.499  0.00  0.00     0.077 C 
ATOM      2  C1  UNL d   1       0.427  -1.321  -1.018  0.00  0.00    -0.074 A 
ATOM      3  C2  UNL d   1       0.959  -0.232  -1.716  0.00  0.00    -0.005 A 
ATOM      4  C3  UNL d   1       0.741   1.069  -1.261  0.00  0.00     0.006 A 
ATOM      5  C4  UNL d   1      -0.010   1.293  -0.107  0.00  0.00    -0.005 A 
ATOM      6  C5  UNL d   1      -0.550   0.216   0.604  0.00  0.00    -0.074 A 
ATOM      7  C6  UNL d   1      -1.368   0.440   1.841  0.00  0.00     0.077 C 
ATOM      8  C7  UNL d   1      -0.333  -1.087   0.137  0.00  0.00    -0.001 A 
ENDROOT
TORSDOF 0
ENDMDL
