MODEL 1
REMARK minimizedAffinity -3.57913828
REMARK minimizedRMSD -1
REMARK  0 active torsions:
REMARK  status: ('A' for Active; 'I' for Inactive)
ROOT
ATOM      1  C   UNL d   1       1.980   0.263  -3.379  0.00  0.00     0.077 C 
ATOM      2  C1  UNL d   1       1.198   0.158  -2.103  0.00  0.00    -0.074 A 
ATOM      3  C2  UNL d   1       0.204  -0.814  -1.947  0.00  0.00    -0.005 A 
ATOM      4  C3  UNL d   1      -0.508  -0.906  -0.751  0.00  0.00     0.006 A 
ATOM      5  C4  UNL d   1      -0.234  -0.028   0.299  0.00  0.00    -0.005 A 
ATOM      6  C5  UNL d   1       0.756   0.949   0.161  0.00  0.00    -0.074 A 
ATOM      7  C6  UNL d   1       1.070   1.894   1.283  0.00  0.00     0.077 C 
ATOM      8  C7  UNL d   1       1.473   1.030  -1.041  0.00  0.00    -0.001 A 
ENDROOT
TORSDOF 0
ENDMDL
