MODEL 1
REMARK minimizedAffinity -2.92823863
REMARK minimizedRMSD -1
REMARK  0 active torsions:
REMARK  status: ('A' for Active; 'I' for Inactive)
ROOT
ATOM      1  C   UNL d   1       2.277  -0.080  -3.395  0.00  0.00     0.077 C 
ATOM      2  C1  UNL d   1       1.491   0.015  -2.121  0.00  0.00    -0.074 A 
ATOM      3  C2  UNL d   1       0.551  -0.963  -1.782  0.00  0.00    -0.005 A 
ATOM      4  C3  UNL d   1      -0.165  -0.867  -0.589  0.00  0.00     0.006 A 
ATOM      5  C4  UNL d   1       0.052   0.207   0.276  0.00  0.00    -0.005 A 
ATOM      6  C5  UNL d   1       0.989   1.194  -0.046  0.00  0.00    -0.074 A 
ATOM      7  C6  UNL d   1       1.241   2.349   0.877  0.00  0.00     0.077 C 
ATOM      8  C7  UNL d   1       1.709   1.086  -1.243  0.00  0.00    -0.001 A 
ENDROOT
TORSDOF 0
ENDMDL
