MODEL 1
REMARK minimizedAffinity -2.54581571
REMARK minimizedRMSD -1
REMARK  0 active torsions:
REMARK  status: ('A' for Active; 'I' for Inactive)
ROOT
ATOM      1  C   UNL d   1       1.384  -0.630  -3.000  0.00  0.00     0.077 C 
ATOM      2  C1  UNL d   1       1.051  -0.028  -1.667  0.00  0.00    -0.074 A 
ATOM      3  C2  UNL d   1       1.448   1.274  -1.347  0.00  0.00    -0.005 A 
ATOM      4  C3  UNL d   1       1.122   1.824  -0.107  0.00  0.00     0.006 A 
ATOM      5  C4  UNL d   1       0.398   1.078   0.824  0.00  0.00    -0.005 A 
ATOM      6  C5  UNL d   1      -0.008  -0.225   0.521  0.00  0.00    -0.074 A 
ATOM      7  C6  UNL d   1      -0.796  -1.037   1.506  0.00  0.00     0.077 C 
ATOM      8  C7  UNL d   1       0.316  -0.768  -0.730  0.00  0.00    -0.001 A 
ENDROOT
TORSDOF 0
ENDMDL
