MODEL 1
REMARK minimizedAffinity -3.60717106
REMARK minimizedRMSD -1
REMARK  1 active torsions:
REMARK  status: ('A' for Active; 'I' for Inactive)
REMARK    1  A    between atoms: C1_2  and  C2_3 
ROOT
ATOM      1  C2  UNL d   1      -0.782   2.009   0.411  0.00  0.00    -0.073 A 
ATOM      2  C3  UNL d   1      -1.124   1.628   1.713  0.00  0.00    -0.002 A 
ATOM      3  C4  UNL d   1      -0.742   0.380   2.206  0.00  0.00     0.004 A 
ATOM      4  C5  UNL d   1      -0.010  -0.497   1.406  0.00  0.00    -0.004 A 
ATOM      5  C6  UNL d   1       0.352  -0.130   0.106  0.00  0.00    -0.075 A 
ATOM      6  C7  UNL d   1       1.137  -1.063  -0.769  0.00  0.00     0.076 C 
ATOM      7  C8  UNL d   1      -0.038   1.124  -0.383  0.00  0.00     0.001 A 
ENDROOT
BRANCH   1   8
ATOM      8  C1  UNL d   1      -1.186   3.358  -0.124  0.00  0.00     0.053 C 
ATOM      9  C   UNL d   1      -0.429   3.719  -1.392  0.00  0.00     0.018 C 
ENDBRANCH   1   8
TORSDOF 1
ENDMDL
