MODEL 1
REMARK minimizedAffinity -5.83044291
REMARK minimizedRMSD -1
REMARK  1 active torsions:
REMARK  status: ('A' for Active; 'I' for Inactive)
REMARK    1  A    between atoms: C1_2  and  C2_3 
ROOT
ATOM      1  C2  UNL d   1      -0.452   0.541   0.611  0.00  0.00    -0.073 A 
ATOM      2  C3  UNL d   1      -0.984   1.100   1.778  0.00  0.00    -0.002 A 
ATOM      3  C4  UNL d   1      -1.254   2.468   1.846  0.00  0.00     0.004 A 
ATOM      4  C5  UNL d   1      -1.001   3.288   0.746  0.00  0.00    -0.004 A 
ATOM      5  C6  UNL d   1      -0.481   2.746  -0.434  0.00  0.00    -0.075 A 
ATOM      6  C7  UNL d   1      -0.202   3.615  -1.625  0.00  0.00     0.076 C 
ATOM      7  C8  UNL d   1      -0.210   1.372  -0.493  0.00  0.00     0.001 A 
ENDROOT
BRANCH   1   8
ATOM      8  C1  UNL d   1      -0.165  -0.936   0.531  0.00  0.00     0.053 C 
ATOM      9  C   UNL d   1       0.544  -1.310  -0.760  0.00  0.00     0.018 C 
ENDBRANCH   1   8
TORSDOF 1
ENDMDL
