MODEL 1
REMARK minimizedAffinity -3.63513708
REMARK minimizedRMSD -1
REMARK  1 active torsions:
REMARK  status: ('A' for Active; 'I' for Inactive)
REMARK    1  A    between atoms: C1_2  and  C2_3 
ROOT
ATOM      1  C2  UNL d   1       0.217  -1.273   0.068  0.00  0.00    -0.073 A 
ATOM      2  C3  UNL d   1      -0.577  -0.985   1.185  0.00  0.00    -0.002 A 
ATOM      3  C4  UNL d   1      -0.842   0.338   1.539  0.00  0.00     0.004 A 
ATOM      4  C5  UNL d   1      -0.324   1.386   0.779  0.00  0.00    -0.004 A 
ATOM      5  C6  UNL d   1       0.461   1.119  -0.347  0.00  0.00    -0.075 A 
ATOM      6  C7  UNL d   1       1.028   2.235  -1.175  0.00  0.00     0.076 C 
ATOM      7  C8  UNL d   1       0.726  -0.212  -0.695  0.00  0.00     0.001 A 
ENDROOT
BRANCH   1   8
ATOM      8  C1  UNL d   1       0.501  -2.700  -0.322  0.00  0.00     0.053 C 
ATOM      9  C   UNL d   1       0.595  -2.870  -1.830  0.00  0.00     0.018 C 
ENDBRANCH   1   8
TORSDOF 1
ENDMDL
