MODEL 1
REMARK minimizedAffinity -5.23754644
REMARK minimizedRMSD -1
REMARK  1 active torsions:
REMARK  status: ('A' for Active; 'I' for Inactive)
REMARK    1  A    between atoms: C1_2  and  C2_3 
ROOT
ATOM      1  C2  UNL d   1       1.061  -1.503  -1.157  0.00  0.00    -0.073 A 
ATOM      2  C3  UNL d   1       0.886  -1.378  -2.540  0.00  0.00    -0.002 A 
ATOM      3  C4  UNL d   1       0.836  -2.513  -3.350  0.00  0.00     0.004 A 
ATOM      4  C5  UNL d   1       0.953  -3.784  -2.786  0.00  0.00    -0.004 A 
ATOM      5  C6  UNL d   1       1.116  -3.930  -1.405  0.00  0.00    -0.075 A 
ATOM      6  C7  UNL d   1       1.246  -5.289  -0.783  0.00  0.00     0.076 C 
ATOM      7  C8  UNL d   1       1.168  -2.785  -0.598  0.00  0.00     0.001 A 
ENDROOT
BRANCH   1   8
ATOM      8  C1  UNL d   1       1.110  -0.280  -0.278  0.00  0.00     0.053 C 
ATOM      9  C   UNL d   1      -0.096  -0.194   0.645  0.00  0.00     0.018 C 
ENDBRANCH   1   8
TORSDOF 1
ENDMDL
