MODEL 1
REMARK minimizedAffinity -5.238204
REMARK minimizedRMSD -1
REMARK  1 active torsions:
REMARK  status: ('A' for Active; 'I' for Inactive)
REMARK    1  A    between atoms: C1_2  and  C2_3 
ROOT
ATOM      1  C2  UNL d   1       0.503  -0.406  -0.684  0.00  0.00    -0.073 A 
ATOM      2  C3  UNL d   1       1.156   0.690  -1.258  0.00  0.00    -0.002 A 
ATOM      3  C4  UNL d   1       0.715   1.988  -1.001  0.00  0.00     0.004 A 
ATOM      4  C5  UNL d   1      -0.379   2.205  -0.163  0.00  0.00    -0.004 A 
ATOM      5  C6  UNL d   1      -1.038   1.123   0.430  0.00  0.00    -0.075 A 
ATOM      6  C7  UNL d   1      -2.217   1.339   1.333  0.00  0.00     0.076 C 
ATOM      7  C8  UNL d   1      -0.590  -0.178   0.165  0.00  0.00     0.001 A 
ENDROOT
BRANCH   1   8
ATOM      8  C1  UNL d   1       0.980  -1.810  -0.953  0.00  0.00     0.053 C 
ATOM      9  C   UNL d   1       0.259  -2.440  -2.134  0.00  0.00     0.018 C 
ENDBRANCH   1   8
TORSDOF 1
ENDMDL
