MODEL 1
REMARK minimizedAffinity -2.70496678
REMARK minimizedRMSD -1
REMARK  1 active torsions:
REMARK  status: ('A' for Active; 'I' for Inactive)
REMARK    1  A    between atoms: C1_2  and  C2_3 
ROOT
ATOM      1  C2  UNL d   1      -1.236   0.974   0.597  0.00  0.00    -0.073 A 
ATOM      2  C3  UNL d   1      -0.736  -0.263   1.020  0.00  0.00    -0.002 A 
ATOM      3  C4  UNL d   1       0.452  -0.763   0.486  0.00  0.00     0.004 A 
ATOM      4  C5  UNL d   1       1.156  -0.030  -0.470  0.00  0.00    -0.004 A 
ATOM      5  C6  UNL d   1       0.679   1.213  -0.897  0.00  0.00    -0.075 A 
ATOM      6  C7  UNL d   1       1.422   2.013  -1.926  0.00  0.00     0.076 C 
ATOM      7  C8  UNL d   1      -0.517   1.708  -0.358  0.00  0.00     0.001 A 
ENDROOT
BRANCH   1   8
ATOM      8  C1  UNL d   1      -2.515   1.521   1.175  0.00  0.00     0.053 C 
ATOM      9  C   UNL d   1      -2.371   2.972   1.608  0.00  0.00     0.018 C 
ENDBRANCH   1   8
TORSDOF 1
ENDMDL
