MODEL 1
REMARK minimizedAffinity -4.32795429
REMARK minimizedRMSD -1
REMARK  1 active torsions:
REMARK  status: ('A' for Active; 'I' for Inactive)
REMARK    1  A    between atoms: C1_2  and  C2_3 
ROOT
ATOM      1  C2  UNL d   1       0.111  -0.243   0.235  0.00  0.00    -0.073 A 
ATOM      2  C3  UNL d   1      -0.767  -0.089   1.314  0.00  0.00    -0.002 A 
ATOM      3  C4  UNL d   1      -1.344   1.153   1.581  0.00  0.00     0.004 A 
ATOM      4  C5  UNL d   1      -1.055   2.250   0.769  0.00  0.00    -0.004 A 
ATOM      5  C6  UNL d   1      -0.190   2.113  -0.321  0.00  0.00    -0.075 A 
ATOM      6  C7  UNL d   1       0.133   3.284  -1.202  0.00  0.00     0.076 C 
ATOM      7  C8  UNL d   1       0.388   0.863  -0.581  0.00  0.00     0.001 A 
ENDROOT
BRANCH   1   8
ATOM      8  C1  UNL d   1       0.732  -1.584  -0.061  0.00  0.00     0.053 C 
ATOM      9  C   UNL d   1       0.726  -1.899  -1.549  0.00  0.00     0.018 C 
ENDBRANCH   1   8
TORSDOF 1
ENDMDL
