MODEL 1
REMARK minimizedAffinity -5.47646523
REMARK minimizedRMSD -1
REMARK  1 active torsions:
REMARK  status: ('A' for Active; 'I' for Inactive)
REMARK    1  A    between atoms: C1_2  and  C2_3 
ROOT
ATOM      1  C2  UNL d   1      -0.962   1.211   0.744  0.00  0.00    -0.073 A 
ATOM      2  C3  UNL d   1      -0.431  -0.061   0.986  0.00  0.00    -0.002 A 
ATOM      3  C4  UNL d   1       0.681  -0.507   0.270  0.00  0.00     0.004 A 
ATOM      4  C5  UNL d   1       1.277   0.315  -0.686  0.00  0.00    -0.004 A 
ATOM      5  C6  UNL d   1       0.768   1.594  -0.933  0.00  0.00    -0.075 A 
ATOM      6  C7  UNL d   1       1.395   2.489  -1.961  0.00  0.00     0.076 C 
ATOM      7  C8  UNL d   1      -0.351   2.034  -0.213  0.00  0.00     0.001 A 
ENDROOT
BRANCH   1   8
ATOM      8  C1  UNL d   1      -2.159   1.700   1.518  0.00  0.00     0.053 C 
ATOM      9  C   UNL d   1      -2.207   3.218   1.596  0.00  0.00     0.018 C 
ENDBRANCH   1   8
TORSDOF 1
ENDMDL
