MODEL 1
REMARK minimizedAffinity 8.85399342
REMARK minimizedRMSD -1
REMARK  0 active torsions:
REMARK  status: ('A' for Active; 'I' for Inactive)
ROOT
ATOM      1  C2' OXE d   1      -2.371   0.036   3.797  0.00  0.00     0.078 C 
ATOM      2  C1' OXE d   1      -2.711  -1.986   1.879  0.00  0.00     0.078 C 
ATOM      3  C1  OXE d   1      -1.377  -1.896   2.578  0.00  0.00    -0.078 A 
ATOM      4  C2  OXE d   1      -1.204  -0.875   3.481  0.00  0.00    -0.078 A 
ATOM      5  C3  OXE d   1      -0.012  -0.780   4.194  0.00  0.00     0.003 A 
ATOM      6  C4  OXE d   1       1.065  -1.620   3.889  0.00  0.00    -0.002 A 
ATOM      7  C5  OXE d   1       0.924  -2.641   2.944  0.00  0.00    -0.002 A 
ATOM      8  C6  OXE d   1      -0.302  -2.820   2.311  0.00  0.00     0.003 A 
ENDROOT
TORSDOF 0
ENDMDL
