MODEL 1
REMARK minimizedAffinity 8.22758675
REMARK minimizedRMSD -1
REMARK  0 active torsions:
REMARK  status: ('A' for Active; 'I' for Inactive)
ROOT
ATOM      1  C2' OXE d   1      -4.098   0.874  -1.480  0.00  0.00     0.078 C 
ATOM      2  C1' OXE d   1      -2.801  -1.582  -1.070  0.00  0.00     0.078 C 
ATOM      3  C1  OXE d   1      -3.838  -1.508  -2.163  0.00  0.00    -0.078 A 
ATOM      4  C2  OXE d   1      -4.501  -0.315  -2.325  0.00  0.00    -0.078 A 
ATOM      5  C3  OXE d   1      -5.428  -0.177  -3.354  0.00  0.00     0.003 A 
ATOM      6  C4  OXE d   1      -5.802  -1.284  -4.125  0.00  0.00    -0.002 A 
ATOM      7  C5  OXE d   1      -5.167  -2.518  -3.950  0.00  0.00    -0.002 A 
ATOM      8  C6  OXE d   1      -4.155  -2.636  -3.003  0.00  0.00     0.003 A 
ENDROOT
TORSDOF 0
ENDMDL
