MODEL 1
REMARK minimizedAffinity 11.8784761
REMARK minimizedRMSD -1
REMARK  0 active torsions:
REMARK  status: ('A' for Active; 'I' for Inactive)
ROOT
ATOM      1  C2' OXE d   1       5.064  -1.207   1.038  0.00  0.00     0.078 C 
ATOM      2  C1' OXE d   1       3.101   0.673   0.336  0.00  0.00     0.078 C 
ATOM      3  C1  OXE d   1       2.640  -0.683   0.808  0.00  0.00    -0.078 A 
ATOM      4  C2  OXE d   1       3.607  -1.612   1.104  0.00  0.00    -0.078 A 
ATOM      5  C3  OXE d   1       3.237  -2.861   1.596  0.00  0.00     0.003 A 
ATOM      6  C4  OXE d   1       1.887  -3.231   1.645  0.00  0.00    -0.002 A 
ATOM      7  C5  OXE d   1       0.887  -2.313   1.310  0.00  0.00    -0.002 A 
ATOM      8  C6  OXE d   1       1.244  -1.024   0.931  0.00  0.00     0.003 A 
ENDROOT
TORSDOF 0
ENDMDL
