MODEL 1
REMARK minimizedAffinity 10.6628981
REMARK minimizedRMSD -1
REMARK  0 active torsions:
REMARK  status: ('A' for Active; 'I' for Inactive)
ROOT
ATOM      1  C2' OXE d   1      -4.518  -2.579  -2.740  0.00  0.00     0.078 C 
ATOM      2  C1' OXE d   1      -3.957  -0.002  -1.779  0.00  0.00     0.078 C 
ATOM      3  C1  OXE d   1      -3.888  -0.228  -3.269  0.00  0.00    -0.078 A 
ATOM      4  C2  OXE d   1      -4.118  -1.503  -3.726  0.00  0.00    -0.078 A 
ATOM      5  C3  OXE d   1      -4.120  -1.755  -5.095  0.00  0.00     0.003 A 
ATOM      6  C4  OXE d   1      -3.739  -0.756  -6.000  0.00  0.00    -0.002 A 
ATOM      7  C5  OXE d   1      -3.462   0.540  -5.552  0.00  0.00    -0.002 A 
ATOM      8  C6  OXE d   1      -3.573   0.831  -4.197  0.00  0.00     0.003 A 
ENDROOT
TORSDOF 0
ENDMDL
