MODEL 1
REMARK minimizedAffinity 14.9850054
REMARK minimizedRMSD -1
REMARK  0 active torsions:
REMARK  status: ('A' for Active; 'I' for Inactive)
ROOT
ATOM      1  C2' OXE d   1      -1.351  -1.654  -0.758  0.00  0.00     0.078 C 
ATOM      2  C1' OXE d   1       0.375  -1.944   1.437  0.00  0.00     0.078 C 
ATOM      3  C1  OXE d   1       0.738  -0.925   0.387  0.00  0.00    -0.078 A 
ATOM      4  C2  OXE d   1      -0.088  -0.822  -0.707  0.00  0.00    -0.078 A 
ATOM      5  C3  OXE d   1       0.171   0.140  -1.678  0.00  0.00     0.003 A 
ATOM      6  C4  OXE d   1       1.347   0.899  -1.629  0.00  0.00    -0.002 A 
ATOM      7  C5  OXE d   1       2.222   0.782  -0.544  0.00  0.00    -0.002 A 
ATOM      8  C6  OXE d   1       1.911  -0.093   0.491  0.00  0.00     0.003 A 
ENDROOT
TORSDOF 0
ENDMDL
