MODEL 1
REMARK minimizedAffinity 3.91903377
REMARK minimizedRMSD -1
REMARK  0 active torsions:
REMARK  status: ('A' for Active; 'I' for Inactive)
ROOT
ATOM      1  C   UNL d   1       1.971   1.280   1.359  0.00  0.00     0.023 A 
ATOM      2  C1  UNL d   1       2.296   0.794   0.092  0.00  0.00     0.003 A 
ATOM      3  C2  UNL d   1       1.311   0.694  -0.893  0.00  0.00     0.048 A 
ATOM      4  C3  UNL d   1       0.003   1.083  -0.604  0.00  0.00     0.023 A 
ATOM      5  C4  UNL d   1      -0.327   1.570   0.661  0.00  0.00     0.048 A 
ATOM      6  C5  UNL d   1       0.661   1.667   1.643  0.00  0.00     0.003 A 
ATOM      7  I   UNL d   1      -1.464   0.935  -2.069  0.00  0.00    -0.146 I 
ENDROOT
TORSDOF 0
ENDMDL
