MODEL 1
REMARK minimizedAffinity 10.5380754
REMARK minimizedRMSD -1
REMARK  0 active torsions:
REMARK  status: ('A' for Active; 'I' for Inactive)
ROOT
ATOM      1  C   UNL d   1       6.000   2.395  -0.433  0.00  0.00     0.023 A 
ATOM      2  C1  UNL d   1       5.964   1.484   0.623  0.00  0.00     0.003 A 
ATOM      3  C2  UNL d   1       5.071   0.411   0.591  0.00  0.00     0.048 A 
ATOM      4  C3  UNL d   1       4.216   0.255  -0.500  0.00  0.00     0.023 A 
ATOM      5  C4  UNL d   1       4.249   1.163  -1.559  0.00  0.00     0.048 A 
ATOM      6  C5  UNL d   1       5.143   2.235  -1.522  0.00  0.00     0.003 A 
ATOM      7  I   UNL d   1       2.886  -1.341  -0.549  0.00  0.00    -0.146 I 
ENDROOT
TORSDOF 0
ENDMDL
