MODEL 1
REMARK minimizedAffinity 13.2443438
REMARK minimizedRMSD -1
REMARK  0 active torsions:
REMARK  status: ('A' for Active; 'I' for Inactive)
ROOT
ATOM      1  C   UNL d   1      -4.201   3.763  -3.188  0.00  0.00     0.023 A 
ATOM      2  C1  UNL d   1      -3.437   3.054  -4.116  0.00  0.00     0.003 A 
ATOM      3  C2  UNL d   1      -3.952   1.899  -4.708  0.00  0.00     0.048 A 
ATOM      4  C3  UNL d   1      -5.231   1.460  -4.370  0.00  0.00     0.023 A 
ATOM      5  C4  UNL d   1      -5.999   2.167  -3.443  0.00  0.00     0.048 A 
ATOM      6  C5  UNL d   1      -5.480   3.320  -2.853  0.00  0.00     0.003 A 
ATOM      7  I   UNL d   1      -6.000  -0.259  -5.251  0.00  0.00    -0.146 I 
ENDROOT
TORSDOF 0
ENDMDL
