MODEL 1
REMARK minimizedAffinity 6.25429058
REMARK minimizedRMSD -1
REMARK  0 active torsions:
REMARK  status: ('A' for Active; 'I' for Inactive)
ROOT
ATOM      1  C   UNL d   1      -3.611   0.370  -5.023  0.00  0.00     0.023 A 
ATOM      2  C1  UNL d   1      -2.992   1.600  -5.244  0.00  0.00     0.003 A 
ATOM      3  C2  UNL d   1      -3.676   2.787  -4.973  0.00  0.00     0.048 A 
ATOM      4  C3  UNL d   1      -4.979   2.736  -4.479  0.00  0.00     0.023 A 
ATOM      5  C4  UNL d   1      -5.602   1.507  -4.255  0.00  0.00     0.048 A 
ATOM      6  C5  UNL d   1      -4.915   0.323  -4.529  0.00  0.00     0.003 A 
ATOM      7  I   UNL d   1      -6.000   4.500  -4.075  0.00  0.00    -0.146 I 
ENDROOT
TORSDOF 0
ENDMDL
