MODEL 1
REMARK minimizedAffinity 5.11537743
REMARK minimizedRMSD -1
REMARK  0 active torsions:
REMARK  status: ('A' for Active; 'I' for Inactive)
ROOT
ATOM      1  C   UNL d   1       0.090  -3.936  -0.723  0.00  0.00     0.023 A 
ATOM      2  C1  UNL d   1       0.282  -3.085  -1.811  0.00  0.00     0.003 A 
ATOM      3  C2  UNL d   1       1.302  -2.131  -1.780  0.00  0.00     0.048 A 
ATOM      4  C3  UNL d   1       2.126  -2.035  -0.659  0.00  0.00     0.023 A 
ATOM      5  C4  UNL d   1       1.937  -2.886   0.431  0.00  0.00     0.048 A 
ATOM      6  C5  UNL d   1       0.916  -3.837   0.396  0.00  0.00     0.003 A 
ATOM      7  I   UNL d   1       3.644  -0.617  -0.612  0.00  0.00    -0.146 I 
ENDROOT
TORSDOF 0
ENDMDL
