MODEL 1
REMARK minimizedAffinity 5.83623171
REMARK minimizedRMSD -1
REMARK  0 active torsions:
REMARK  status: ('A' for Active; 'I' for Inactive)
ROOT
ATOM      1  C   UNL d   1       5.996   2.490  -0.732  0.00  0.00     0.023 A 
ATOM      2  C1  UNL d   1       5.790   1.884   0.508  0.00  0.00     0.003 A 
ATOM      3  C2  UNL d   1       4.836   0.874   0.643  0.00  0.00     0.048 A 
ATOM      4  C3  UNL d   1       4.091   0.473  -0.466  0.00  0.00     0.023 A 
ATOM      5  C4  UNL d   1       4.294   1.076  -1.708  0.00  0.00     0.048 A 
ATOM      6  C5  UNL d   1       5.249   2.086  -1.838  0.00  0.00     0.003 A 
ATOM      7  I   UNL d   1       2.670  -1.031  -0.267  0.00  0.00    -0.146 I 
ENDROOT
TORSDOF 0
ENDMDL
