MODEL 1
REMARK minimizedAffinity 8.43789577
REMARK minimizedRMSD -1
REMARK  0 active torsions:
REMARK  status: ('A' for Active; 'I' for Inactive)
ROOT
ATOM      1  C   UNL d   1      -0.830   2.063   0.762  0.00  0.00     0.023 A 
ATOM      2  C1  UNL d   1      -0.781   1.514  -0.519  0.00  0.00     0.003 A 
ATOM      3  C2  UNL d   1       0.383   0.886  -0.967  0.00  0.00     0.048 A 
ATOM      4  C3  UNL d   1       1.493   0.809  -0.127  0.00  0.00     0.023 A 
ATOM      5  C4  UNL d   1       1.448   1.355   1.156  0.00  0.00     0.048 A 
ATOM      6  C5  UNL d   1       0.283   1.983   1.599  0.00  0.00     0.003 A 
ATOM      7  I   UNL d   1       3.227  -0.127  -0.791  0.00  0.00    -0.146 I 
ENDROOT
TORSDOF 0
ENDMDL
