MODEL 1
REMARK minimizedAffinity 4.31299496
REMARK minimizedRMSD -1
REMARK  0 active torsions:
REMARK  status: ('A' for Active; 'I' for Inactive)
ROOT
ATOM      1  C2' OXE d   1       3.105   1.929   1.568  0.00  0.00     0.078 C 
ATOM      2  C1' OXE d   1       0.703   2.607   0.283  0.00  0.00     0.078 C 
ATOM      3  C1  OXE d   1       1.739   3.690   0.455  0.00  0.00    -0.078 A 
ATOM      4  C2  OXE d   1       2.892   3.361   1.126  0.00  0.00    -0.078 A 
ATOM      5  C3  OXE d   1       3.903   4.307   1.265  0.00  0.00     0.003 A 
ATOM      6  C4  OXE d   1       3.694   5.632   0.862  0.00  0.00    -0.002 A 
ATOM      7  C5  OXE d   1       2.511   5.998   0.211  0.00  0.00    -0.002 A 
ATOM      8  C6  OXE d   1       1.543   5.031  -0.037  0.00  0.00     0.003 A 
ENDROOT
TORSDOF 0
ENDMDL
