MODEL 1
REMARK minimizedAffinity 1.1631304
REMARK minimizedRMSD -1
REMARK  0 active torsions:
REMARK  status: ('A' for Active; 'I' for Inactive)
ROOT
ATOM      1  C2' OXE d   1       2.216  -5.987  -5.993  0.00  0.00     0.078 C 
ATOM      2  C1' OXE d   1       4.893  -5.142  -5.993  0.00  0.00     0.078 C 
ATOM      3  C1  OXE d   1       4.165  -5.173  -4.673  0.00  0.00    -0.078 A 
ATOM      4  C2  OXE d   1       2.841  -5.543  -4.689  0.00  0.00    -0.078 A 
ATOM      5  C3  OXE d   1       2.138  -5.642  -3.491  0.00  0.00     0.003 A 
ATOM      6  C4  OXE d   1       2.721  -5.219  -2.290  0.00  0.00    -0.002 A 
ATOM      7  C5  OXE d   1       4.056  -4.801  -2.258  0.00  0.00    -0.002 A 
ATOM      8  C6  OXE d   1       4.803  -4.812  -3.431  0.00  0.00     0.003 A 
ENDROOT
TORSDOF 0
ENDMDL
