MODEL 1
REMARK minimizedAffinity 0.547535896
REMARK minimizedRMSD -1
REMARK  0 active torsions:
REMARK  status: ('A' for Active; 'I' for Inactive)
ROOT
ATOM      1  C2' OXE d   1       1.737  -5.956  -4.415  0.00  0.00     0.078 C 
ATOM      2  C1' OXE d   1       3.351  -5.785  -2.125  0.00  0.00     0.078 C 
ATOM      3  C1  OXE d   1       4.016  -5.617  -3.469  0.00  0.00    -0.078 A 
ATOM      4  C2  OXE d   1       3.226  -5.749  -4.586  0.00  0.00    -0.078 A 
ATOM      5  C3  OXE d   1       3.778  -5.549  -5.848  0.00  0.00     0.003 A 
ATOM      6  C4  OXE d   1       5.159  -5.368  -5.997  0.00  0.00    -0.002 A 
ATOM      7  C5  OXE d   1       5.987  -5.270  -4.874  0.00  0.00    -0.002 A 
ATOM      8  C6  OXE d   1       5.426  -5.350  -3.604  0.00  0.00     0.003 A 
ENDROOT
TORSDOF 0
ENDMDL
