MODEL 1
REMARK minimizedAffinity 4.23219824
REMARK minimizedRMSD -1
REMARK  0 active torsions:
REMARK  status: ('A' for Active; 'I' for Inactive)
ROOT
ATOM      1  C2' OXE d   1       4.068   4.781   1.144  0.00  0.00     0.078 C 
ATOM      2  C1' OXE d   1       4.464   2.017   1.435  0.00  0.00     0.078 C 
ATOM      3  C1  OXE d   1       3.068   2.499   1.130  0.00  0.00    -0.078 A 
ATOM      4  C2  OXE d   1       2.874   3.856   1.036  0.00  0.00    -0.078 A 
ATOM      5  C3  OXE d   1       1.617   4.351   0.702  0.00  0.00     0.003 A 
ATOM      6  C4  OXE d   1       0.517   3.490   0.613  0.00  0.00    -0.002 A 
ATOM      7  C5  OXE d   1       0.685   2.108   0.745  0.00  0.00    -0.002 A 
ATOM      8  C6  OXE d   1       1.958   1.594   0.961  0.00  0.00     0.003 A 
ENDROOT
TORSDOF 0
ENDMDL
