MODEL 1
REMARK minimizedAffinity 0.0578110367
REMARK minimizedRMSD -1
REMARK  0 active torsions:
REMARK  status: ('A' for Active; 'I' for Inactive)
ROOT
ATOM      1  C2' OXE d   1      -0.882   3.492   3.239  0.00  0.00     0.078 C 
ATOM      2  C1' OXE d   1      -1.151   2.826   0.525  0.00  0.00     0.078 C 
ATOM      3  C1  OXE d   1       0.201   2.636   1.165  0.00  0.00    -0.078 A 
ATOM      4  C2  OXE d   1       0.336   3.009   2.481  0.00  0.00    -0.078 A 
ATOM      5  C3  OXE d   1       1.547   2.803   3.136  0.00  0.00     0.003 A 
ATOM      6  C4  OXE d   1       2.671   2.365   2.425  0.00  0.00    -0.002 A 
ATOM      7  C5  OXE d   1       2.566   2.018   1.074  0.00  0.00    -0.002 A 
ATOM      8  C6  OXE d   1       1.331   2.107   0.442  0.00  0.00     0.003 A 
ENDROOT
TORSDOF 0
ENDMDL
