MODEL 1
REMARK minimizedAffinity 0.36245954
REMARK minimizedRMSD -1
REMARK  0 active torsions:
REMARK  status: ('A' for Active; 'I' for Inactive)
ROOT
ATOM      1  C2' OXE d   1       3.070  -5.990  -2.151  0.00  0.00     0.078 C 
ATOM      2  C1' OXE d   1       1.676  -5.993  -4.588  0.00  0.00     0.078 C 
ATOM      3  C1  OXE d   1       3.183  -5.980  -4.639  0.00  0.00    -0.078 A 
ATOM      4  C2  OXE d   1       3.856  -5.931  -3.443  0.00  0.00    -0.078 A 
ATOM      5  C3  OXE d   1       5.248  -5.973  -3.432  0.00  0.00     0.003 A 
ATOM      6  C4  OXE d   1       5.968  -5.908  -4.631  0.00  0.00    -0.002 A 
ATOM      7  C5  OXE d   1       5.301  -5.917  -5.861  0.00  0.00    -0.002 A 
ATOM      8  C6  OXE d   1       3.913  -5.995  -5.883  0.00  0.00     0.003 A 
ENDROOT
TORSDOF 0
ENDMDL
