MODEL 1
REMARK minimizedAffinity 0.698093116
REMARK minimizedRMSD -1
REMARK  0 active torsions:
REMARK  status: ('A' for Active; 'I' for Inactive)
ROOT
ATOM      1  C2' OXE d   1       1.708  -6.000  -4.795  0.00  0.00     0.078 C 
ATOM      2  C1' OXE d   1       3.047  -5.695  -2.347  0.00  0.00     0.078 C 
ATOM      3  C1  OXE d   1       3.869  -5.635  -3.611  0.00  0.00    -0.078 A 
ATOM      4  C2  OXE d   1       3.212  -5.832  -4.802  0.00  0.00    -0.078 A 
ATOM      5  C3  OXE d   1       3.914  -5.733  -6.000  0.00  0.00     0.003 A 
ATOM      6  C4  OXE d   1       5.306  -5.588  -5.996  0.00  0.00    -0.002 A 
ATOM      7  C5  OXE d   1       6.000  -5.425  -4.792  0.00  0.00    -0.002 A 
ATOM      8  C6  OXE d   1       5.292  -5.404  -3.596  0.00  0.00     0.003 A 
ENDROOT
TORSDOF 0
ENDMDL
