MODEL 1
REMARK minimizedAffinity 3.19396758
REMARK minimizedRMSD -1
REMARK  0 active torsions:
REMARK  status: ('A' for Active; 'I' for Inactive)
ROOT
ATOM      1  C2' OXE d   1       5.999   3.178   2.379  0.00  0.00     0.078 C 
ATOM      2  C1' OXE d   1       3.910   4.896   1.630  0.00  0.00     0.078 C 
ATOM      3  C1  OXE d   1       4.442   5.008   3.036  0.00  0.00    -0.078 A 
ATOM      4  C2  OXE d   1       5.433   4.132   3.409  0.00  0.00    -0.078 A 
ATOM      5  C3  OXE d   1       5.998   4.229   4.677  0.00  0.00     0.003 A 
ATOM      6  C4  OXE d   1       5.462   5.107   5.627  0.00  0.00    -0.002 A 
ATOM      7  C5  OXE d   1       4.426   5.981   5.280  0.00  0.00    -0.002 A 
ATOM      8  C6  OXE d   1       3.935   5.974   3.980  0.00  0.00     0.003 A 
ENDROOT
TORSDOF 0
ENDMDL
