MODEL 1
REMARK minimizedAffinity -3.06521058
REMARK minimizedRMSD -1
REMARK  0 active torsions:
REMARK  status: ('A' for Active; 'I' for Inactive)
ROOT
ATOM      1  C2' OXE d   1       4.017   3.760   1.727  0.00  0.00     0.078 C 
ATOM      2  C1' OXE d   1       3.797   1.239   0.512  0.00  0.00     0.078 C 
ATOM      3  C1  OXE d   1       2.525   1.931   0.932  0.00  0.00    -0.078 A 
ATOM      4  C2  OXE d   1       2.644   3.143   1.568  0.00  0.00    -0.078 A 
ATOM      5  C3  OXE d   1       1.499   3.849   1.927  0.00  0.00     0.003 A 
ATOM      6  C4  OXE d   1       0.234   3.266   1.785  0.00  0.00    -0.002 A 
ATOM      7  C5  OXE d   1       0.092   2.015   1.176  0.00  0.00    -0.002 A 
ATOM      8  C6  OXE d   1       1.222   1.354   0.706  0.00  0.00     0.003 A 
ENDROOT
TORSDOF 0
ENDMDL
