MODEL 1
REMARK minimizedAffinity 1.18475091
REMARK minimizedRMSD -1
REMARK  0 active torsions:
REMARK  status: ('A' for Active; 'I' for Inactive)
ROOT
ATOM      1  C2' OXE d   1       2.025  -5.603  -3.220  0.00  0.00     0.078 C 
ATOM      2  C1' OXE d   1       2.321  -5.998  -5.984  0.00  0.00     0.078 C 
ATOM      3  C1  OXE d   1       3.572  -5.817  -5.161  0.00  0.00    -0.078 A 
ATOM      4  C2  OXE d   1       3.415  -5.578  -3.817  0.00  0.00    -0.078 A 
ATOM      5  C3  OXE d   1       4.538  -5.458  -3.003  0.00  0.00     0.003 A 
ATOM      6  C4  OXE d   1       5.820  -5.425  -3.564  0.00  0.00    -0.002 A 
ATOM      7  C5  OXE d   1       6.000  -5.627  -4.937  0.00  0.00    -0.002 A 
ATOM      8  C6  OXE d   1       4.891  -5.866  -5.741  0.00  0.00     0.003 A 
ENDROOT
TORSDOF 0
ENDMDL
