MODEL 1
REMARK minimizedAffinity 0.592027783
REMARK minimizedRMSD -1
REMARK  0 active torsions:
REMARK  status: ('A' for Active; 'I' for Inactive)
ROOT
ATOM      1  C2' OXE d   1       1.973  -5.996  -5.706  0.00  0.00     0.078 C 
ATOM      2  C1' OXE d   1       2.297  -5.499  -2.962  0.00  0.00     0.078 C 
ATOM      3  C1  OXE d   1       3.541  -5.627  -3.805  0.00  0.00    -0.078 A 
ATOM      4  C2  OXE d   1       3.374  -5.916  -5.138  0.00  0.00    -0.078 A 
ATOM      5  C3  OXE d   1       4.486  -5.990  -5.972  0.00  0.00     0.003 A 
ATOM      6  C4  OXE d   1       5.779  -5.926  -5.437  0.00  0.00    -0.002 A 
ATOM      7  C5  OXE d   1       5.971  -5.671  -4.075  0.00  0.00    -0.002 A 
ATOM      8  C6  OXE d   1       4.865  -5.477  -3.255  0.00  0.00     0.003 A 
ENDROOT
TORSDOF 0
ENDMDL
