MODEL 1
REMARK minimizedAffinity 5.46809101
REMARK minimizedRMSD -1
REMARK  0 active torsions:
REMARK  status: ('A' for Active; 'I' for Inactive)
ROOT
ATOM      1  C2' OXE d   1       5.306  -5.047  -2.510  0.00  0.00     0.078 C 
ATOM      2  C1' OXE d   1       2.710  -5.989  -2.011  0.00  0.00     0.078 C 
ATOM      3  C1  OXE d   1       3.054  -5.590  -3.424  0.00  0.00    -0.078 A 
ATOM      4  C2  OXE d   1       4.312  -5.086  -3.650  0.00  0.00    -0.078 A 
ATOM      5  C3  OXE d   1       4.699  -4.754  -4.945  0.00  0.00     0.003 A 
ATOM      6  C4  OXE d   1       3.771  -4.784  -5.992  0.00  0.00    -0.002 A 
ATOM      7  C5  OXE d   1       2.472  -5.257  -5.776  0.00  0.00    -0.002 A 
ATOM      8  C6  OXE d   1       2.111  -5.703  -4.509  0.00  0.00     0.003 A 
ENDROOT
TORSDOF 0
ENDMDL
