MODEL 1
REMARK minimizedAffinity -0.382021487
REMARK minimizedRMSD -1
REMARK  0 active torsions:
REMARK  status: ('A' for Active; 'I' for Inactive)
ROOT
ATOM      1  C2' OXE d   1       1.798  -5.999  -4.801  0.00  0.00     0.078 C 
ATOM      2  C1' OXE d   1       2.989  -5.118  -2.417  0.00  0.00     0.078 C 
ATOM      3  C1  OXE d   1       3.853  -5.186  -3.651  0.00  0.00    -0.078 A 
ATOM      4  C2  OXE d   1       3.273  -5.663  -4.803  0.00  0.00    -0.078 A 
ATOM      5  C3  OXE d   1       4.011  -5.695  -5.983  0.00  0.00     0.003 A 
ATOM      6  C4  OXE d   1       5.377  -5.392  -5.974  0.00  0.00    -0.002 A 
ATOM      7  C5  OXE d   1       5.997  -4.942  -4.803  0.00  0.00    -0.002 A 
ATOM      8  C6  OXE d   1       5.240  -4.793  -3.645  0.00  0.00     0.003 A 
ENDROOT
TORSDOF 0
ENDMDL
