MODEL 1
REMARK minimizedAffinity -1.53755009
REMARK minimizedRMSD -1
REMARK  0 active torsions:
REMARK  status: ('A' for Active; 'I' for Inactive)
ROOT
ATOM      1  C2' OXE d   1       2.291  -5.964  -3.193  0.00  0.00     0.078 C 
ATOM      2  C1' OXE d   1       2.334  -5.937  -6.000  0.00  0.00     0.078 C 
ATOM      3  C1  OXE d   1       3.608  -5.587  -5.273  0.00  0.00    -0.078 A 
ATOM      4  C2  OXE d   1       3.565  -5.557  -3.900  0.00  0.00    -0.078 A 
ATOM      5  C3  OXE d   1       4.727  -5.294  -3.180  0.00  0.00     0.003 A 
ATOM      6  C4  OXE d   1       5.899  -4.909  -3.842  0.00  0.00    -0.002 A 
ATOM      7  C5  OXE d   1       5.953  -4.894  -5.239  0.00  0.00    -0.002 A 
ATOM      8  C6  OXE d   1       4.831  -5.271  -5.969  0.00  0.00     0.003 A 
ENDROOT
TORSDOF 0
ENDMDL
