MODEL 1
REMARK minimizedAffinity 1.92582011
REMARK minimizedRMSD -1
REMARK  0 active torsions:
REMARK  status: ('A' for Active; 'I' for Inactive)
ROOT
ATOM      1  C2' OXE d   1       5.359  -5.343  -6.000  0.00  0.00     0.078 C 
ATOM      2  C1' OXE d   1       2.627  -5.989  -6.000  0.00  0.00     0.078 C 
ATOM      3  C1  OXE d   1       3.307  -5.808  -4.666  0.00  0.00    -0.078 A 
ATOM      4  C2  OXE d   1       4.654  -5.538  -4.675  0.00  0.00    -0.078 A 
ATOM      5  C3  OXE d   1       5.319  -5.307  -3.474  0.00  0.00     0.003 A 
ATOM      6  C4  OXE d   1       4.663  -5.500  -2.252  0.00  0.00    -0.002 A 
ATOM      7  C5  OXE d   1       3.300  -5.814  -2.220  0.00  0.00    -0.002 A 
ATOM      8  C6  OXE d   1       2.599  -5.929  -3.416  0.00  0.00     0.003 A 
ENDROOT
TORSDOF 0
ENDMDL
