MODEL 1
REMARK minimizedAffinity 4.36200047
REMARK minimizedRMSD -1
REMARK  0 active torsions:
REMARK  status: ('A' for Active; 'I' for Inactive)
ROOT
ATOM      1  C2' OXE d   1       5.973  -5.834  -5.815  0.00  0.00     0.078 C 
ATOM      2  C1' OXE d   1       3.177  -5.998  -5.995  0.00  0.00     0.078 C 
ATOM      3  C1  OXE d   1       3.789  -5.911  -4.620  0.00  0.00    -0.078 A 
ATOM      4  C2  OXE d   1       5.160  -5.878  -4.539  0.00  0.00    -0.078 A 
ATOM      5  C3  OXE d   1       5.775  -5.742  -3.297  0.00  0.00     0.003 A 
ATOM      6  C4  OXE d   1       5.016  -5.794  -2.121  0.00  0.00    -0.002 A 
ATOM      7  C5  OXE d   1       3.620  -5.867  -2.180  0.00  0.00    -0.002 A 
ATOM      8  C6  OXE d   1       2.990  -5.883  -3.419  0.00  0.00     0.003 A 
ENDROOT
TORSDOF 0
ENDMDL
