MODEL 1
REMARK minimizedAffinity 1.11538339
REMARK minimizedRMSD -1
REMARK  0 active torsions:
REMARK  status: ('A' for Active; 'I' for Inactive)
ROOT
ATOM      1  C2' OXE d   1       2.008  -5.945  -5.894  0.00  0.00     0.078 C 
ATOM      2  C1' OXE d   1       4.798  -5.653  -5.999  0.00  0.00     0.078 C 
ATOM      3  C1  OXE d   1       4.124  -5.498  -4.658  0.00  0.00    -0.078 A 
ATOM      4  C2  OXE d   1       2.754  -5.596  -4.624  0.00  0.00    -0.078 A 
ATOM      5  C3  OXE d   1       2.087  -5.515  -3.405  0.00  0.00     0.003 A 
ATOM      6  C4  OXE d   1       2.783  -5.182  -2.237  0.00  0.00    -0.002 A 
ATOM      7  C5  OXE d   1       4.175  -5.039  -2.257  0.00  0.00    -0.002 A 
ATOM      8  C6  OXE d   1       4.863  -5.235  -3.448  0.00  0.00     0.003 A 
ENDROOT
TORSDOF 0
ENDMDL
