MODEL 1
REMARK minimizedAffinity -2.08566761
REMARK minimizedRMSD -1
REMARK  0 active torsions:
REMARK  status: ('A' for Active; 'I' for Inactive)
ROOT
ATOM      1  C2' OXE d   1       3.233  -5.230  -2.271  0.00  0.00     0.078 C 
ATOM      2  C1' OXE d   1       5.972  -5.841  -2.219  0.00  0.00     0.078 C 
ATOM      3  C1  OXE d   1       5.290  -5.781  -3.563  0.00  0.00    -0.078 A 
ATOM      4  C2  OXE d   1       3.940  -5.528  -3.576  0.00  0.00    -0.078 A 
ATOM      5  C3  OXE d   1       3.272  -5.407  -4.791  0.00  0.00     0.003 A 
ATOM      6  C4  OXE d   1       3.931  -5.694  -5.993  0.00  0.00    -0.002 A 
ATOM      7  C5  OXE d   1       5.298  -5.994  -5.999  0.00  0.00    -0.002 A 
ATOM      8  C6  OXE d   1       6.000  -5.999  -4.799  0.00  0.00     0.003 A 
ENDROOT
TORSDOF 0
ENDMDL
