MODEL 1
REMARK minimizedAffinity -0.738849938
REMARK minimizedRMSD -1
REMARK  0 active torsions:
REMARK  status: ('A' for Active; 'I' for Inactive)
ROOT
ATOM      1  C   UNL d   1      -0.900   1.409   2.693  0.00  0.00     0.023 A 
ATOM      2  C1  UNL d   1      -1.227   1.687   1.366  0.00  0.00     0.003 A 
ATOM      3  C2  UNL d   1      -0.805   0.831   0.347  0.00  0.00     0.048 A 
ATOM      4  C3  UNL d   1      -0.056  -0.303   0.663  0.00  0.00     0.023 A 
ATOM      5  C4  UNL d   1       0.273  -0.586   1.990  0.00  0.00     0.048 A 
ATOM      6  C5  UNL d   1      -0.151   0.274   3.005  0.00  0.00     0.003 A 
ATOM      7  I   UNL d   1       0.574  -1.579  -0.852  0.00  0.00    -0.146 I 
ENDROOT
TORSDOF 0
ENDMDL
