MODEL 1
REMARK minimizedAffinity -3.55190921
REMARK minimizedRMSD -1
REMARK  0 active torsions:
REMARK  status: ('A' for Active; 'I' for Inactive)
ROOT
ATOM      1  C   UNL d   1      -0.806   1.871  -0.439  0.00  0.00     0.023 A 
ATOM      2  C1  UNL d   1       0.291   1.630  -1.266  0.00  0.00     0.003 A 
ATOM      3  C2  UNL d   1       0.713   0.321  -1.505  0.00  0.00     0.048 A 
ATOM      4  C3  UNL d   1       0.032  -0.744  -0.915  0.00  0.00     0.023 A 
ATOM      5  C4  UNL d   1      -1.067  -0.508  -0.088  0.00  0.00     0.048 A 
ATOM      6  C5  UNL d   1      -1.484   0.803   0.149  0.00  0.00     0.003 A 
ATOM      7  I   UNL d   1       0.658  -2.694  -1.270  0.00  0.00    -0.146 I 
ENDROOT
TORSDOF 0
ENDMDL
