MODEL 1
REMARK minimizedAffinity -2.24788785
REMARK minimizedRMSD -1
REMARK  0 active torsions:
REMARK  status: ('A' for Active; 'I' for Inactive)
ROOT
ATOM      1  C   UNL d   1      -0.776   1.833  -0.468  0.00  0.00     0.023 A 
ATOM      2  C1  UNL d   1      -1.310   0.655   0.055  0.00  0.00     0.003 A 
ATOM      3  C2  UNL d   1      -0.657  -0.562  -0.152  0.00  0.00     0.048 A 
ATOM      4  C3  UNL d   1       0.530  -0.594  -0.883  0.00  0.00     0.023 A 
ATOM      5  C4  UNL d   1       1.069   0.582  -1.408  0.00  0.00     0.048 A 
ATOM      6  C5  UNL d   1       0.412   1.796  -1.198  0.00  0.00     0.003 A 
ATOM      7  I   UNL d   1       1.504  -2.404  -1.193  0.00  0.00    -0.146 I 
ENDROOT
TORSDOF 0
ENDMDL
