MODEL 1
REMARK minimizedAffinity -2.55816936
REMARK minimizedRMSD -1
REMARK  0 active torsions:
REMARK  status: ('A' for Active; 'I' for Inactive)
ROOT
ATOM      1  C   UNL d   1      -0.828   2.300  -0.735  0.00  0.00     0.023 A 
ATOM      2  C1  UNL d   1      -1.552   1.195  -0.289  0.00  0.00     0.003 A 
ATOM      3  C2  UNL d   1      -1.058  -0.095  -0.496  0.00  0.00     0.048 A 
ATOM      4  C3  UNL d   1       0.162  -0.271  -1.148  0.00  0.00     0.023 A 
ATOM      5  C4  UNL d   1       0.890   0.832  -1.595  0.00  0.00     0.048 A 
ATOM      6  C5  UNL d   1       0.392   2.119  -1.387  0.00  0.00     0.003 A 
ATOM      7  I   UNL d   1       0.900  -2.190  -1.457  0.00  0.00    -0.146 I 
ENDROOT
TORSDOF 0
ENDMDL
