MODEL 1
REMARK minimizedAffinity 1.43516362
REMARK minimizedRMSD -1
REMARK  0 active torsions:
REMARK  status: ('A' for Active; 'I' for Inactive)
ROOT
ATOM      1  C   UNL d   1       1.223  -0.969   0.473  0.00  0.00     0.023 A 
ATOM      2  C1  UNL d   1       0.900  -0.863   1.826  0.00  0.00     0.003 A 
ATOM      3  C2  UNL d   1      -0.083   0.036   2.243  0.00  0.00     0.048 A 
ATOM      4  C3  UNL d   1      -0.740   0.827   1.302  0.00  0.00     0.023 A 
ATOM      5  C4  UNL d   1      -0.421   0.725  -0.053  0.00  0.00     0.048 A 
ATOM      6  C5  UNL d   1       0.563  -0.175  -0.465  0.00  0.00     0.003 A 
ATOM      7  I   UNL d   1      -2.204   2.167   1.920  0.00  0.00    -0.146 I 
ENDROOT
TORSDOF 0
ENDMDL
