MODEL 1
REMARK minimizedAffinity 0.0732139647
REMARK minimizedRMSD -1
REMARK  0 active torsions:
REMARK  status: ('A' for Active; 'I' for Inactive)
ROOT
ATOM      1  C   UNL d   1      -2.227  -2.290   5.240  0.00  0.00     0.023 A 
ATOM      2  C1  UNL d   1      -1.922  -2.410   3.884  0.00  0.00     0.003 A 
ATOM      3  C2  UNL d   1      -2.939  -2.350   2.930  0.00  0.00     0.048 A 
ATOM      4  C3  UNL d   1      -4.260  -2.169   3.338  0.00  0.00     0.023 A 
ATOM      5  C4  UNL d   1      -4.571  -2.047   4.693  0.00  0.00     0.048 A 
ATOM      6  C5  UNL d   1      -3.550  -2.109   5.644  0.00  0.00     0.003 A 
ATOM      7  I   UNL d   1      -5.776  -2.079   1.919  0.00  0.00    -0.146 I 
ENDROOT
TORSDOF 0
ENDMDL
