MODEL 1
REMARK minimizedAffinity -0.118384659
REMARK minimizedRMSD -1
REMARK  0 active torsions:
REMARK  status: ('A' for Active; 'I' for Inactive)
ROOT
ATOM      1  C   UNL d   1       1.425  -0.091   0.066  0.00  0.00     0.023 A 
ATOM      2  C1  UNL d   1       2.251  -1.167  -0.261  0.00  0.00     0.003 A 
ATOM      3  C2  UNL d   1       1.769  -2.198  -1.069  0.00  0.00     0.048 A 
ATOM      4  C3  UNL d   1       0.460  -2.148  -1.548  0.00  0.00     0.023 A 
ATOM      5  C4  UNL d   1      -0.369  -1.073  -1.225  0.00  0.00     0.048 A 
ATOM      6  C5  UNL d   1       0.117  -0.044  -0.416  0.00  0.00     0.003 A 
ATOM      7  I   UNL d   1      -0.259  -3.682  -2.751  0.00  0.00    -0.146 I 
ENDROOT
TORSDOF 0
ENDMDL
