MODEL 1
REMARK minimizedAffinity -2.74756956
REMARK minimizedRMSD -1
REMARK  0 active torsions:
REMARK  status: ('A' for Active; 'I' for Inactive)
ROOT
ATOM      1  C   UNL d   1       0.121  -1.742  -1.515  0.00  0.00     0.023 A 
ATOM      2  C1  UNL d   1       0.924  -0.634  -1.244  0.00  0.00     0.003 A 
ATOM      3  C2  UNL d   1       0.644   0.181  -0.146  0.00  0.00     0.048 A 
ATOM      4  C3  UNL d   1      -0.441  -0.118   0.679  0.00  0.00     0.023 A 
ATOM      5  C4  UNL d   1      -1.246  -1.226   0.412  0.00  0.00     0.048 A 
ATOM      6  C5  UNL d   1      -0.963  -2.038  -0.688  0.00  0.00     0.003 A 
ATOM      7  I   UNL d   1      -0.860   1.094   2.314  0.00  0.00    -0.146 I 
ENDROOT
TORSDOF 0
ENDMDL
