MODEL 1
REMARK minimizedAffinity -1.88060725
REMARK minimizedRMSD -1
REMARK  0 active torsions:
REMARK  status: ('A' for Active; 'I' for Inactive)
ROOT
ATOM      1  C   UNL d   1      -0.892   1.428   2.420  0.00  0.00     0.023 A 
ATOM      2  C1  UNL d   1      -0.462   0.129   2.690  0.00  0.00     0.003 A 
ATOM      3  C2  UNL d   1      -0.202  -0.755   1.640  0.00  0.00     0.048 A 
ATOM      4  C3  UNL d   1      -0.375  -0.332   0.322  0.00  0.00     0.023 A 
ATOM      5  C4  UNL d   1      -0.804   0.967   0.047  0.00  0.00     0.048 A 
ATOM      6  C5  UNL d   1      -1.063   1.847   1.100  0.00  0.00     0.003 A 
ATOM      7  I   UNL d   1       0.010  -1.645  -1.242  0.00  0.00    -0.146 I 
ENDROOT
TORSDOF 0
ENDMDL
