MODEL 1
REMARK minimizedAffinity -3.98806024
REMARK minimizedRMSD -1
REMARK  0 active torsions:
REMARK  status: ('A' for Active; 'I' for Inactive)
ROOT
ATOM      1  C   UNL d   1       0.164  -0.216   0.904  0.00  0.00     0.023 A 
ATOM      2  C1  UNL d   1       1.273  -0.274   0.060  0.00  0.00     0.003 A 
ATOM      3  C2  UNL d   1       1.290  -1.169  -1.011  0.00  0.00     0.048 A 
ATOM      4  C3  UNL d   1       0.195  -2.002  -1.234  0.00  0.00     0.023 A 
ATOM      5  C4  UNL d   1      -0.918  -1.947  -0.392  0.00  0.00     0.048 A 
ATOM      6  C5  UNL d   1      -0.930  -1.051   0.678  0.00  0.00     0.003 A 
ATOM      7  I   UNL d   1       0.218  -3.335  -2.828  0.00  0.00    -0.146 I 
ENDROOT
TORSDOF 0
ENDMDL
