MODEL 1
REMARK minimizedAffinity -3.3723979
REMARK minimizedRMSD -1
REMARK  0 active torsions:
REMARK  status: ('A' for Active; 'I' for Inactive)
ROOT
ATOM      1  C   UNL d   1      -1.019   1.164   2.207  0.00  0.00     0.023 A 
ATOM      2  C1  UNL d   1      -0.285   0.033   2.565  0.00  0.00     0.003 A 
ATOM      3  C2  UNL d   1       0.227  -0.811   1.577  0.00  0.00     0.048 A 
ATOM      4  C3  UNL d   1       0.001  -0.517   0.232  0.00  0.00     0.023 A 
ATOM      5  C4  UNL d   1      -0.732   0.614  -0.131  0.00  0.00     0.048 A 
ATOM      6  C5  UNL d   1      -1.243   1.454   0.860  0.00  0.00     0.003 A 
ATOM      7  I   UNL d   1       0.762  -1.771  -1.240  0.00  0.00    -0.146 I 
ENDROOT
TORSDOF 0
ENDMDL
