MODEL 1
REMARK minimizedAffinity -3.10395122
REMARK minimizedRMSD -1
REMARK  0 active torsions:
REMARK  status: ('A' for Active; 'I' for Inactive)
ROOT
ATOM      1  C   UNL d   1      -1.069   1.158   1.188  0.00  0.00     0.023 A 
ATOM      2  C1  UNL d   1      -0.159   0.202   1.642  0.00  0.00     0.003 A 
ATOM      3  C2  UNL d   1       0.399  -0.712   0.746  0.00  0.00     0.048 A 
ATOM      4  C3  UNL d   1       0.045  -0.664  -0.602  0.00  0.00     0.023 A 
ATOM      5  C4  UNL d   1      -0.864   0.290  -1.060  0.00  0.00     0.048 A 
ATOM      6  C5  UNL d   1      -1.421   1.202  -0.161  0.00  0.00     0.003 A 
ATOM      7  I   UNL d   1       0.876  -2.024  -1.936  0.00  0.00    -0.146 I 
ENDROOT
TORSDOF 0
ENDMDL
