MODEL 1
REMARK minimizedAffinity -3.79074359
REMARK minimizedRMSD -1
REMARK  2 active torsions:
REMARK  status: ('A' for Active; 'I' for Inactive)
REMARK    1  A    between atoms: C2'_3  and  C1'_4 
REMARK    2  A    between atoms: C1'_4  and  C1_5 
ROOT
ATOM      1  C1  I4B d   1       0.009  -0.088  -0.093  0.00  0.00    -0.075 A 
ATOM      2  C2  I4B d   1      -0.677   1.097  -0.186  0.00  0.00     0.003 A 
ATOM      3  C3  I4B d   1      -1.395   1.594   0.929  0.00  0.00     0.002 A 
ATOM      4  C4  I4B d   1      -1.440   0.854   2.093  0.00  0.00    -0.004 A 
ATOM      5  C5  I4B d   1      -0.725  -0.336   2.192  0.00  0.00     0.002 A 
ATOM      6  C6  I4B d   1       0.015  -0.804   1.097  0.00  0.00     0.003 A 
ENDROOT
BRANCH   1   7
ATOM      7  C1' I4B d   1       0.730  -0.600  -1.300  0.00  0.00     0.060 C 
BRANCH   7   8
ATOM      8  C2' I4B d   1       0.459  -2.087  -1.410  0.00  0.00    -0.013 C 
ATOM      9  C4' I4B d   1      -0.022  -2.453  -2.789  0.00  0.00     0.013 C 
ATOM     10  C3' I4B d   1       1.724  -2.815  -1.066  0.00  0.00     0.013 C 
ENDBRANCH   7   8
ENDBRANCH   1   7
TORSDOF 2
ENDMDL
