MODEL 1
REMARK minimizedAffinity -5.22087479
REMARK minimizedRMSD -1
REMARK  2 active torsions:
REMARK  status: ('A' for Active; 'I' for Inactive)
REMARK    1  A    between atoms: C2'_3  and  C1'_4 
REMARK    2  A    between atoms: C1'_4  and  C1_5 
ROOT
ATOM      1  C1  I4B d   1       0.237  -0.252  -0.815  0.00  0.00    -0.075 A 
ATOM      2  C2  I4B d   1      -0.762  -0.431   0.110  0.00  0.00     0.003 A 
ATOM      3  C3  I4B d   1      -1.565   0.664   0.512  0.00  0.00     0.002 A 
ATOM      4  C4  I4B d   1      -1.304   1.921   0.004  0.00  0.00    -0.004 A 
ATOM      5  C5  I4B d   1      -0.306   2.095  -0.950  0.00  0.00     0.002 A 
ATOM      6  C6  I4B d   1       0.461   1.000  -1.372  0.00  0.00     0.003 A 
ENDROOT
BRANCH   1   7
ATOM      7  C1' I4B d   1       1.088  -1.423  -1.192  0.00  0.00     0.060 C 
BRANCH   7   8
ATOM      8  C2' I4B d   1       0.223  -2.398  -1.966  0.00  0.00    -0.013 C 
ATOM      9  C4' I4B d   1      -0.070  -1.886  -3.352  0.00  0.00     0.013 C 
ATOM     10  C3' I4B d   1       0.941  -3.714  -2.016  0.00  0.00     0.013 C 
ENDBRANCH   7   8
ENDBRANCH   1   7
TORSDOF 2
ENDMDL
