MODEL 1
REMARK minimizedAffinity -3.60267997
REMARK minimizedRMSD -1
REMARK  2 active torsions:
REMARK  status: ('A' for Active; 'I' for Inactive)
REMARK    1  A    between atoms: C2'_3  and  C1'_4 
REMARK    2  A    between atoms: C1'_4  and  C1_5 
ROOT
ATOM      1  C1  I4B d   1       0.783  -0.245  -0.503  0.00  0.00    -0.075 A 
ATOM      2  C2  I4B d   1       0.807   0.906  -1.251  0.00  0.00     0.003 A 
ATOM      3  C3  I4B d   1      -0.017   2.002  -0.899  0.00  0.00     0.002 A 
ATOM      4  C4  I4B d   1      -0.881   1.886   0.171  0.00  0.00    -0.004 A 
ATOM      5  C5  I4B d   1      -0.887   0.727   0.942  0.00  0.00     0.002 A 
ATOM      6  C6  I4B d   1      -0.041  -0.341   0.610  0.00  0.00     0.003 A 
ENDROOT
BRANCH   1   7
ATOM      7  C1' I4B d   1       1.643  -1.395  -0.923  0.00  0.00     0.060 C 
BRANCH   7   8
ATOM      8  C2' I4B d   1       0.734  -2.497  -1.428  0.00  0.00    -0.013 C 
ATOM      9  C4' I4B d   1       0.077  -2.110  -2.727  0.00  0.00     0.013 C 
ATOM     10  C3' I4B d   1       1.557  -3.740  -1.587  0.00  0.00     0.013 C 
ENDBRANCH   7   8
ENDBRANCH   1   7
TORSDOF 2
ENDMDL
