MODEL 1
REMARK minimizedAffinity -5.80894232
REMARK minimizedRMSD -1
REMARK  2 active torsions:
REMARK  status: ('A' for Active; 'I' for Inactive)
REMARK    1  A    between atoms: C2'_3  and  C1'_4 
REMARK    2  A    between atoms: C1'_4  and  C1_5 
ROOT
ATOM      1  C1  I4B d   1      -0.121  -0.742  -0.681  0.00  0.00    -0.075 A 
ATOM      2  C2  I4B d   1      -1.028  -1.374  -1.496  0.00  0.00     0.003 A 
ATOM      3  C3  I4B d   1      -0.664  -2.556  -2.185  0.00  0.00     0.002 A 
ATOM      4  C4  I4B d   1       0.623  -3.041  -2.071  0.00  0.00    -0.004 A 
ATOM      5  C5  I4B d   1       1.533  -2.412  -1.226  0.00  0.00     0.002 A 
ATOM      6  C6  I4B d   1       1.156  -1.263  -0.517  0.00  0.00     0.003 A 
ENDROOT
BRANCH   1   7
ATOM      7  C1' I4B d   1      -0.529   0.523   0.005  0.00  0.00     0.060 C 
BRANCH   7   8
ATOM      8  C2' I4B d   1      -1.532   0.166   1.083  0.00  0.00    -0.013 C 
ATOM      9  C4' I4B d   1      -0.861  -0.506   2.252  0.00  0.00     0.013 C 
ATOM     10  C3' I4B d   1      -2.223   1.428   1.508  0.00  0.00     0.013 C 
ENDBRANCH   7   8
ENDBRANCH   1   7
TORSDOF 2
ENDMDL
