MODEL 1
REMARK minimizedAffinity -4.68061113
REMARK minimizedRMSD -1
REMARK  2 active torsions:
REMARK  status: ('A' for Active; 'I' for Inactive)
REMARK    1  A    between atoms: C2'_3  and  C1'_4 
REMARK    2  A    between atoms: C1'_4  and  C1_5 
ROOT
ATOM      1  C1  I4B d   1       0.159  -0.328  -0.412  0.00  0.00    -0.075 A 
ATOM      2  C2  I4B d   1       0.621  -0.578   0.856  0.00  0.00     0.003 A 
ATOM      3  C3  I4B d   1      -0.047  -0.030   1.978  0.00  0.00     0.002 A 
ATOM      4  C4  I4B d   1      -1.134   0.796   1.785  0.00  0.00    -0.004 A 
ATOM      5  C5  I4B d   1      -1.615   1.030   0.500  0.00  0.00     0.002 A 
ATOM      6  C6  I4B d   1      -0.972   0.454  -0.605  0.00  0.00     0.003 A 
ENDROOT
BRANCH   1   7
ATOM      7  C1' I4B d   1       0.907  -0.896  -1.577  0.00  0.00     0.060 C 
BRANCH   7   8
ATOM      8  C2' I4B d   1       0.772  -2.404  -1.528  0.00  0.00    -0.013 C 
ATOM      9  C4' I4B d   1       0.325  -2.954  -2.857  0.00  0.00     0.013 C 
ATOM     10  C3' I4B d   1       2.099  -2.975  -1.125  0.00  0.00     0.013 C 
ENDBRANCH   7   8
ENDBRANCH   1   7
TORSDOF 2
ENDMDL
