MODEL 1
REMARK minimizedAffinity -3.53048253
REMARK minimizedRMSD -1
REMARK  2 active torsions:
REMARK  status: ('A' for Active; 'I' for Inactive)
REMARK    1  A    between atoms: C2'_3  and  C1'_4 
REMARK    2  A    between atoms: C1'_4  and  C1_5 
ROOT
ATOM      1  C1  I4B d   1       0.304  -0.154  -0.364  0.00  0.00    -0.075 A 
ATOM      2  C2  I4B d   1      -0.365   1.021  -0.600  0.00  0.00     0.003 A 
ATOM      3  C3  I4B d   1      -1.216   1.568   0.390  0.00  0.00     0.002 A 
ATOM      4  C4  I4B d   1      -1.408   0.885   1.574  0.00  0.00    -0.004 A 
ATOM      5  C5  I4B d   1      -0.712  -0.295   1.820  0.00  0.00     0.002 A 
ATOM      6  C6  I4B d   1       0.159  -0.812   0.850  0.00  0.00     0.003 A 
ENDROOT
BRANCH   1   7
ATOM      7  C1' I4B d   1       1.170  -0.720  -1.445  0.00  0.00     0.060 C 
BRANCH   7   8
ATOM      8  C2' I4B d   1       0.623  -2.084  -1.815  0.00  0.00    -0.013 C 
ATOM      9  C4' I4B d   1       0.124  -2.104  -3.236  0.00  0.00     0.013 C 
ATOM     10  C3' I4B d   1       1.715  -3.091  -1.610  0.00  0.00     0.013 C 
ENDBRANCH   7   8
ENDBRANCH   1   7
TORSDOF 2
ENDMDL
