MODEL 1
REMARK minimizedAffinity -5.51092434
REMARK minimizedRMSD -1
REMARK  2 active torsions:
REMARK  status: ('A' for Active; 'I' for Inactive)
REMARK    1  A    between atoms: C2'_3  and  C1'_4 
REMARK    2  A    between atoms: C1'_4  and  C1_5 
ROOT
ATOM      1  C1  I4B d   1       0.124  -0.011  -0.245  0.00  0.00    -0.075 A 
ATOM      2  C2  I4B d   1      -0.759   0.919  -0.734  0.00  0.00     0.003 A 
ATOM      3  C3  I4B d   1      -1.625   1.611   0.147  0.00  0.00     0.002 A 
ATOM      4  C4  I4B d   1      -1.610   1.307   1.493  0.00  0.00    -0.004 A 
ATOM      5  C5  I4B d   1      -0.698   0.381   1.989  0.00  0.00     0.002 A 
ATOM      6  C6  I4B d   1       0.183  -0.274   1.117  0.00  0.00     0.003 A 
ENDROOT
BRANCH   1   7
ATOM      7  C1' I4B d   1       1.002  -0.747  -1.208  0.00  0.00     0.060 C 
BRANCH   7   8
ATOM      8  C2' I4B d   1       0.487  -2.169  -1.315  0.00  0.00    -0.013 C 
ATOM      9  C4' I4B d   1      -0.015  -2.463  -2.704  0.00  0.00     0.013 C 
ATOM     10  C3' I4B d   1       1.604  -3.095  -0.935  0.00  0.00     0.013 C 
ENDBRANCH   7   8
ENDBRANCH   1   7
TORSDOF 2
ENDMDL
