MODEL 1
REMARK minimizedAffinity -4.27450228
REMARK minimizedRMSD -1
REMARK  2 active torsions:
REMARK  status: ('A' for Active; 'I' for Inactive)
REMARK    1  A    between atoms: C2'_3  and  C1'_4 
REMARK    2  A    between atoms: C1'_4  and  C1_5 
ROOT
ATOM      1  C1  I4B d   1       0.469  -0.541  -0.316  0.00  0.00    -0.075 A 
ATOM      2  C2  I4B d   1      -0.199   0.602  -0.678  0.00  0.00     0.003 A 
ATOM      3  C3  I4B d   1      -0.999   1.290   0.266  0.00  0.00     0.002 A 
ATOM      4  C4  I4B d   1      -1.143   0.776   1.539  0.00  0.00    -0.004 A 
ATOM      5  C5  I4B d   1      -0.447  -0.371   1.911  0.00  0.00     0.002 A 
ATOM      6  C6  I4B d   1       0.374  -1.027   0.982  0.00  0.00     0.003 A 
ENDROOT
BRANCH   1   7
ATOM      7  C1' I4B d   1       1.278  -1.260  -1.348  0.00  0.00     0.060 C 
BRANCH   7   8
ATOM      8  C2' I4B d   1       0.521  -2.510  -1.747  0.00  0.00    -0.013 C 
ATOM      9  C4' I4B d   1       0.112  -2.460  -3.195  0.00  0.00     0.013 C 
ATOM     10  C3' I4B d   1       1.403  -3.692  -1.474  0.00  0.00     0.013 C 
ENDBRANCH   7   8
ENDBRANCH   1   7
TORSDOF 2
ENDMDL
