MODEL 1
REMARK minimizedAffinity -3.98649406
REMARK minimizedRMSD -1
REMARK  2 active torsions:
REMARK  status: ('A' for Active; 'I' for Inactive)
REMARK    1  A    between atoms: C2'_3  and  C1'_4 
REMARK    2  A    between atoms: C1'_4  and  C1_5 
ROOT
ATOM      1  C1  I4B d   1       0.092   0.080  -0.150  0.00  0.00    -0.075 A 
ATOM      2  C2  I4B d   1       0.160  -0.241   1.183  0.00  0.00     0.003 A 
ATOM      3  C3  I4B d   1      -0.671   0.421   2.119  0.00  0.00     0.002 A 
ATOM      4  C4  I4B d   1      -1.514   1.425   1.688  0.00  0.00    -0.004 A 
ATOM      5  C5  I4B d   1      -1.598   1.733   0.333  0.00  0.00     0.002 A 
ATOM      6  C6  I4B d   1      -0.799   1.048  -0.594  0.00  0.00     0.003 A 
ENDROOT
BRANCH   1   7
ATOM      7  C1' I4B d   1       1.008  -0.616  -1.106  0.00  0.00     0.060 C 
BRANCH   7   8
ATOM      8  C2' I4B d   1       0.378  -1.944  -1.474  0.00  0.00    -0.013 C 
ATOM      9  C4' I4B d   1      -0.297  -1.873  -2.818  0.00  0.00     0.013 C 
ATOM     10  C3' I4B d   1       1.456  -2.987  -1.463  0.00  0.00     0.013 C 
ENDBRANCH   7   8
ENDBRANCH   1   7
TORSDOF 2
ENDMDL
