MODEL 1
REMARK minimizedAffinity -3.38429451
REMARK minimizedRMSD -1
REMARK  2 active torsions:
REMARK  status: ('A' for Active; 'I' for Inactive)
REMARK    1  A    between atoms: C2'_3  and  C1'_4 
REMARK    2  A    between atoms: C1'_4  and  C1_5 
ROOT
ATOM      1  C1  I4B d   1       0.137  -0.107   0.010  0.00  0.00    -0.075 A 
ATOM      2  C2  I4B d   1      -0.347   1.097  -0.437  0.00  0.00     0.003 A 
ATOM      3  C3  I4B d   1      -1.235   1.852   0.367  0.00  0.00     0.002 A 
ATOM      4  C4  I4B d   1      -1.648   1.345   1.583  0.00  0.00    -0.004 A 
ATOM      5  C5  I4B d   1      -1.138   0.135   2.045  0.00  0.00     0.002 A 
ATOM      6  C6  I4B d   1      -0.230  -0.590   1.259  0.00  0.00     0.003 A 
ENDROOT
BRANCH   1   7
ATOM      7  C1' I4B d   1       1.046  -0.894  -0.880  0.00  0.00     0.060 C 
BRANCH   7   8
ATOM      8  C2' I4B d   1       0.247  -2.038  -1.469  0.00  0.00    -0.013 C 
ATOM      9  C4' I4B d   1      -0.043  -1.805  -2.929  0.00  0.00     0.013 C 
ATOM     10  C3' I4B d   1       1.029  -3.301  -1.268  0.00  0.00     0.013 C 
ENDBRANCH   7   8
ENDBRANCH   1   7
TORSDOF 2
ENDMDL
