MODEL 1
REMARK minimizedAffinity -5.19653416
REMARK minimizedRMSD -1
REMARK  2 active torsions:
REMARK  status: ('A' for Active; 'I' for Inactive)
REMARK    1  A    between atoms: C2'_3  and  C1'_4 
REMARK    2  A    between atoms: C1'_4  and  C1_5 
ROOT
ATOM      1  C1  I4B d   1       0.006  -0.269  -0.063  0.00  0.00    -0.075 A 
ATOM      2  C2  I4B d   1      -0.267  -0.871   1.139  0.00  0.00     0.003 A 
ATOM      3  C3  I4B d   1      -1.075  -0.215   2.098  0.00  0.00     0.002 A 
ATOM      4  C4  I4B d   1      -1.545   1.056   1.836  0.00  0.00    -0.004 A 
ATOM      5  C5  I4B d   1      -1.286   1.656   0.607  0.00  0.00     0.002 A 
ATOM      6  C6  I4B d   1      -0.516   0.985  -0.354  0.00  0.00     0.003 A 
ENDROOT
BRANCH   1   7
ATOM      7  C1' I4B d   1       0.891  -0.977  -1.040  0.00  0.00     0.060 C 
BRANCH   7   8
ATOM      8  C2' I4B d   1       0.474  -2.433  -1.077  0.00  0.00    -0.013 C 
ATOM      9  C4' I4B d   1      -0.199  -2.775  -2.380  0.00  0.00     0.013 C 
ATOM     10  C3' I4B d   1       1.700  -3.271  -0.865  0.00  0.00     0.013 C 
ENDBRANCH   7   8
ENDBRANCH   1   7
TORSDOF 2
ENDMDL
