MODEL 1
REMARK minimizedAffinity 7.80199623
REMARK minimizedRMSD -1
REMARK  0 active torsions:
REMARK  status: ('A' for Active; 'I' for Inactive)
ROOT
ATOM      1  C   UNL d   1      -1.179  -0.144   2.164  0.00  0.00     0.124 A 
ATOM      2  C1  UNL d   1      -2.239   0.150   1.317  0.00  0.00     0.062 A 
ATOM      3  C2  UNL d   1      -2.069   0.092  -0.063  0.00  0.00     0.162 A 
ATOM      4  C3  UNL d   1      -0.834  -0.263  -0.606  0.00  0.00    -0.034 A 
ATOM      5  C4  UNL d   1       0.227  -0.557   0.252  0.00  0.00     0.162 A 
ATOM      6  C5  UNL d   1       0.052  -0.497   1.631  0.00  0.00     0.062 A 
ATOM      7  F   UNL d   1       1.077  -0.782   2.447  0.00  0.00    -0.097 F 
ATOM      8  F1  UNL d   1       1.428  -0.902  -0.236  0.00  0.00    -0.096 F 
ATOM      9  I   UNL d   1      -0.575  -0.351  -2.669  0.00  0.00    -0.060 I 
ATOM     10  F2  UNL d   1      -3.110   0.382  -0.858  0.00  0.00    -0.096 F 
ATOM     11  F3  UNL d   1      -3.430   0.493   1.829  0.00  0.00    -0.097 F 
ATOM     12  F4  UNL d   1      -1.346  -0.086   3.491  0.00  0.00    -0.092 F 
ENDROOT
TORSDOF 0
ENDMDL
