MODEL 1
REMARK minimizedAffinity 7.55122375
REMARK minimizedRMSD -1
REMARK  0 active torsions:
REMARK  status: ('A' for Active; 'I' for Inactive)
ROOT
ATOM      1  C   UNL d   1      -2.055  -0.389   2.107  0.00  0.00     0.124 A 
ATOM      2  C1  UNL d   1      -1.999  -0.086   0.754  0.00  0.00     0.062 A 
ATOM      3  C2  UNL d   1      -0.769   0.011   0.109  0.00  0.00     0.162 A 
ATOM      4  C3  UNL d   1       0.415  -0.196   0.816  0.00  0.00    -0.034 A 
ATOM      5  C4  UNL d   1       0.350  -0.499   2.177  0.00  0.00     0.162 A 
ATOM      6  C5  UNL d   1      -0.881  -0.595   2.817  0.00  0.00     0.062 A 
ATOM      7  F   UNL d   1      -0.933  -0.888   4.125  0.00  0.00    -0.097 F 
ATOM      8  F1  UNL d   1       1.470  -0.705   2.887  0.00  0.00    -0.096 F 
ATOM      9  I   UNL d   1       2.255  -0.052  -0.145  0.00  0.00    -0.060 I 
ATOM     10  F2  UNL d   1      -0.745   0.305  -1.200  0.00  0.00    -0.096 F 
ATOM     11  F3  UNL d   1      -3.132   0.115   0.066  0.00  0.00    -0.097 F 
ATOM     12  F4  UNL d   1      -3.239  -0.481   2.726  0.00  0.00    -0.092 F 
ENDROOT
TORSDOF 0
ENDMDL
