MODEL 1
REMARK minimizedAffinity 1.60887778
REMARK minimizedRMSD -1
REMARK  0 active torsions:
REMARK  status: ('A' for Active; 'I' for Inactive)
ROOT
ATOM      1  C   UNL d   1      -1.777  -0.701   0.275  0.00  0.00     0.124 A 
ATOM      2  C1  UNL d   1      -2.080   0.566   0.755  0.00  0.00     0.062 A 
ATOM      3  C2  UNL d   1      -1.059   1.468   1.042  0.00  0.00     0.162 A 
ATOM      4  C3  UNL d   1       0.274   1.108   0.849  0.00  0.00    -0.034 A 
ATOM      5  C4  UNL d   1       0.571  -0.168   0.367  0.00  0.00     0.162 A 
ATOM      6  C5  UNL d   1      -0.452  -1.067   0.081  0.00  0.00     0.062 A 
ATOM      7  F   UNL d   1      -0.158  -2.290  -0.382  0.00  0.00    -0.097 F 
ATOM      8  F1  UNL d   1       1.842  -0.548   0.169  0.00  0.00    -0.096 F 
ATOM      9  I   UNL d   1       1.803   2.454   1.277  0.00  0.00    -0.060 I 
ATOM     10  F2  UNL d   1      -1.381   2.686   1.504  0.00  0.00    -0.096 F 
ATOM     11  F3  UNL d   1      -3.358   0.922   0.943  0.00  0.00    -0.097 F 
ATOM     12  F4  UNL d   1      -2.760  -1.567   0.000  0.00  0.00    -0.092 F 
ENDROOT
TORSDOF 0
ENDMDL
