MODEL 1
REMARK minimizedAffinity 1.46820843
REMARK minimizedRMSD -1
REMARK  0 active torsions:
REMARK  status: ('A' for Active; 'I' for Inactive)
ROOT
ATOM      1  C   UNL d   1      -0.542  -1.136  -0.204  0.00  0.00     0.124 A 
ATOM      2  C1  UNL d   1       0.612  -1.185   0.567  0.00  0.00     0.062 A 
ATOM      3  C2  UNL d   1       0.557  -0.903   1.928  0.00  0.00     0.162 A 
ATOM      4  C3  UNL d   1      -0.657  -0.568   2.529  0.00  0.00    -0.034 A 
ATOM      5  C4  UNL d   1      -1.813  -0.519   1.747  0.00  0.00     0.162 A 
ATOM      6  C5  UNL d   1      -1.752  -0.803   0.387  0.00  0.00     0.062 A 
ATOM      7  F   UNL d   1      -2.868  -0.754  -0.356  0.00  0.00    -0.097 F 
ATOM      8  F1  UNL d   1      -2.996  -0.201   2.293  0.00  0.00    -0.096 F 
ATOM      9  I   UNL d   1      -0.744  -0.145   4.565  0.00  0.00    -0.060 I 
ATOM     10  F2  UNL d   1       1.687  -0.959   2.649  0.00  0.00    -0.096 F 
ATOM     11  F3  UNL d   1       1.783  -1.506  -0.002  0.00  0.00    -0.097 F 
ATOM     12  F4  UNL d   1      -0.485  -1.407  -1.514  0.00  0.00    -0.092 F 
ENDROOT
TORSDOF 0
ENDMDL
