MODEL 1
REMARK minimizedAffinity -3.3977108
REMARK minimizedRMSD -1
REMARK  0 active torsions:
REMARK  status: ('A' for Active; 'I' for Inactive)
ROOT
ATOM      1  C   UNL d   1      -1.923  -0.428   2.432  0.00  0.00     0.124 A 
ATOM      2  C1  UNL d   1      -0.847  -0.349   3.306  0.00  0.00     0.062 A 
ATOM      3  C2  UNL d   1       0.449  -0.233   2.812  0.00  0.00     0.162 A 
ATOM      4  C3  UNL d   1       0.677  -0.193   1.437  0.00  0.00    -0.034 A 
ATOM      5  C4  UNL d   1      -0.409  -0.274   0.564  0.00  0.00     0.162 A 
ATOM      6  C5  UNL d   1      -1.703  -0.390   1.062  0.00  0.00     0.062 A 
ATOM      7  F   UNL d   1      -2.740  -0.466   0.216  0.00  0.00    -0.097 F 
ATOM      8  F1  UNL d   1      -0.225  -0.239  -0.764  0.00  0.00    -0.096 F 
ATOM      9  I   UNL d   1       2.614  -0.019   0.695  0.00  0.00    -0.060 I 
ATOM     10  F2  UNL d   1       1.469  -0.158   3.680  0.00  0.00    -0.096 F 
ATOM     11  F3  UNL d   1      -1.057  -0.386   4.630  0.00  0.00    -0.097 F 
ATOM     12  F4  UNL d   1      -3.169  -0.541   2.910  0.00  0.00    -0.092 F 
ENDROOT
TORSDOF 0
ENDMDL
