MODEL 1
REMARK minimizedAffinity 4.61372519
REMARK minimizedRMSD -1
REMARK  0 active torsions:
REMARK  status: ('A' for Active; 'I' for Inactive)
ROOT
ATOM      1  C   UNL d   1      -2.546   0.106   1.792  0.00  0.00     0.124 A 
ATOM      2  C1  UNL d   1      -2.101   0.142   0.477  0.00  0.00     0.062 A 
ATOM      3  C2  UNL d   1      -0.774  -0.153   0.178  0.00  0.00     0.162 A 
ATOM      4  C3  UNL d   1       0.118  -0.489   1.196  0.00  0.00    -0.034 A 
ATOM      5  C4  UNL d   1      -0.336  -0.522   2.516  0.00  0.00     0.162 A 
ATOM      6  C5  UNL d   1      -1.663  -0.226   2.810  0.00  0.00     0.062 A 
ATOM      7  F   UNL d   1      -2.090  -0.261   4.080  0.00  0.00    -0.097 F 
ATOM      8  F1  UNL d   1       0.496  -0.840   3.519  0.00  0.00    -0.096 F 
ATOM      9  I   UNL d   1       2.103  -0.931   0.754  0.00  0.00    -0.060 I 
ATOM     10  F2  UNL d   1      -0.373  -0.111  -1.101  0.00  0.00    -0.096 F 
ATOM     11  F3  UNL d   1      -2.952   0.464  -0.508  0.00  0.00    -0.097 F 
ATOM     12  F4  UNL d   1      -3.823   0.392   2.076  0.00  0.00    -0.092 F 
ENDROOT
TORSDOF 0
ENDMDL
