MODEL 1
REMARK minimizedAffinity 6.44236994
REMARK minimizedRMSD -1
REMARK  0 active torsions:
REMARK  status: ('A' for Active; 'I' for Inactive)
ROOT
ATOM      1  C   UNL d   1      -2.315  -0.072   2.023  0.00  0.00     0.124 A 
ATOM      2  C1  UNL d   1      -1.980   0.099   0.687  0.00  0.00     0.062 A 
ATOM      3  C2  UNL d   1      -0.680  -0.149   0.255  0.00  0.00     0.162 A 
ATOM      4  C3  UNL d   1       0.294  -0.572   1.159  0.00  0.00    -0.034 A 
ATOM      5  C4  UNL d   1      -0.050  -0.740   2.501  0.00  0.00     0.162 A 
ATOM      6  C5  UNL d   1      -1.350  -0.491   2.929  0.00  0.00     0.062 A 
ATOM      7  F   UNL d   1      -1.672  -0.657   4.220  0.00  0.00    -0.097 F 
ATOM      8  F1  UNL d   1       0.862  -1.146   3.397  0.00  0.00    -0.096 F 
ATOM      9  I   UNL d   1       2.238  -0.943   0.515  0.00  0.00    -0.060 I 
ATOM     10  F2  UNL d   1      -0.385   0.025  -1.042  0.00  0.00    -0.096 F 
ATOM     11  F3  UNL d   1      -2.910   0.505  -0.189  0.00  0.00    -0.097 F 
ATOM     12  F4  UNL d   1      -3.566   0.168   2.437  0.00  0.00    -0.092 F 
ENDROOT
TORSDOF 0
ENDMDL
