MODEL 1
REMARK minimizedAffinity 10.0661697
REMARK minimizedRMSD -1
REMARK  0 active torsions:
REMARK  status: ('A' for Active; 'I' for Inactive)
ROOT
ATOM      1  C   UNL d   1      -2.950  -1.042   2.803  0.00  0.00     0.124 A 
ATOM      2  C1  UNL d   1      -2.844  -0.177   1.722  0.00  0.00     0.062 A 
ATOM      3  C2  UNL d   1      -1.594   0.271   1.305  0.00  0.00     0.162 A 
ATOM      4  C3  UNL d   1      -0.439  -0.146   1.968  0.00  0.00    -0.034 A 
ATOM      5  C4  UNL d   1      -0.555  -1.016   3.054  0.00  0.00     0.162 A 
ATOM      6  C5  UNL d   1      -1.806  -1.461   3.467  0.00  0.00     0.062 A 
ATOM      7  F   UNL d   1      -1.907  -2.297   4.511  0.00  0.00    -0.097 F 
ATOM      8  F1  UNL d   1       0.535  -1.437   3.714  0.00  0.00    -0.096 F 
ATOM      9  I   UNL d   1       1.432   0.521   1.347  0.00  0.00    -0.060 I 
ATOM     10  F2  UNL d   1      -1.520   1.107   0.259  0.00  0.00    -0.096 F 
ATOM     11  F3  UNL d   1      -3.948   0.229   1.079  0.00  0.00    -0.097 F 
ATOM     12  F4  UNL d   1      -4.154  -1.471   3.202  0.00  0.00    -0.092 F 
ENDROOT
TORSDOF 0
ENDMDL
