MODEL 1
REMARK minimizedAffinity 1.82372546
REMARK minimizedRMSD -1
REMARK  0 active torsions:
REMARK  status: ('A' for Active; 'I' for Inactive)
ROOT
ATOM      1  C   UNL d   1      -1.906  -0.362   2.368  0.00  0.00     0.124 A 
ATOM      2  C1  UNL d   1      -0.719  -0.625   3.038  0.00  0.00     0.062 A 
ATOM      3  C2  UNL d   1       0.485  -0.662   2.342  0.00  0.00     0.162 A 
ATOM      4  C3  UNL d   1       0.510  -0.436   0.966  0.00  0.00    -0.034 A 
ATOM      5  C4  UNL d   1      -0.688  -0.173   0.298  0.00  0.00     0.162 A 
ATOM      6  C5  UNL d   1      -1.889  -0.136   0.998  0.00  0.00     0.062 A 
ATOM      7  F   UNL d   1      -3.034   0.118   0.349  0.00  0.00    -0.097 F 
ATOM      8  F1  UNL d   1      -0.700   0.050  -1.025  0.00  0.00    -0.096 F 
ATOM      9  I   UNL d   1       2.309  -0.491  -0.079  0.00  0.00    -0.060 I 
ATOM     10  F2  UNL d   1       1.616  -0.919   3.016  0.00  0.00    -0.096 F 
ATOM     11  F3  UNL d   1      -0.733  -0.844   4.361  0.00  0.00    -0.097 F 
ATOM     12  F4  UNL d   1      -3.063  -0.327   3.040  0.00  0.00    -0.092 F 
ENDROOT
TORSDOF 0
ENDMDL
