MODEL 1
REMARK minimizedAffinity 7.0263319
REMARK minimizedRMSD -1
REMARK  0 active torsions:
REMARK  status: ('A' for Active; 'I' for Inactive)
ROOT
ATOM      1  C   UNL d   1       3.946   1.613  -1.934  0.00  0.00     0.124 A 
ATOM      2  C1  UNL d   1       3.741   1.339  -0.589  0.00  0.00     0.062 A 
ATOM      3  C2  UNL d   1       2.538   0.783  -0.163  0.00  0.00     0.162 A 
ATOM      4  C3  UNL d   1       1.531   0.496  -1.084  0.00  0.00    -0.034 A 
ATOM      5  C4  UNL d   1       1.743   0.776  -2.435  0.00  0.00     0.162 A 
ATOM      6  C5  UNL d   1       2.947   1.332  -2.855  0.00  0.00     0.062 A 
ATOM      7  F   UNL d   1       3.144   1.597  -4.155  0.00  0.00    -0.097 F 
ATOM      8  F1  UNL d   1       0.796   0.513  -3.347  0.00  0.00    -0.096 F 
ATOM      9  I   UNL d   1      -0.270  -0.335  -0.452  0.00  0.00    -0.060 I 
ATOM     10  F2  UNL d   1       2.368   0.528   1.143  0.00  0.00    -0.096 F 
ATOM     11  F3  UNL d   1       4.704   1.611   0.304  0.00  0.00    -0.097 F 
ATOM     12  F4  UNL d   1       5.104   2.149  -2.340  0.00  0.00    -0.092 F 
ENDROOT
TORSDOF 0
ENDMDL
