MODEL 1
REMARK minimizedAffinity -2.01205039
REMARK minimizedRMSD -1
REMARK  0 active torsions:
REMARK  status: ('A' for Active; 'I' for Inactive)
ROOT
ATOM      1  C   UNL d   1       1.425  -0.588   2.862  0.00  0.00    -0.002 A 
ATOM      2  C1  UNL d   1       0.315  -1.396   2.658  0.00  0.00     0.010 A 
ATOM      3  C2  UNL d   1      -0.485  -1.230   1.526  0.00  0.00     0.041 A 
ATOM      4  C3  UNL d   1      -0.147  -0.231   0.592  0.00  0.00    -0.075 A 
ATOM      5  S   UNL d   1      -0.980   0.153  -0.867  0.00  0.00     0.015 SA
ATOM      6  C4  UNL d   1       0.118   1.397  -1.255  0.00  0.00     0.022 A 
ATOM      7  C5  UNL d   1       1.102   1.531  -0.304  0.00  0.00     0.026 A 
ATOM      8  C6  UNL d   1       0.966   0.594   0.776  0.00  0.00    -0.082 A 
ATOM      9  C7  UNL d   1       1.757   0.402   1.934  0.00  0.00     0.045 A 
ENDROOT
TORSDOF 0
ENDMDL
