MODEL 1
REMARK minimizedAffinity -2.36430645
REMARK minimizedRMSD -1
REMARK  0 active torsions:
REMARK  status: ('A' for Active; 'I' for Inactive)
ROOT
ATOM      1  C   UNL d   1      -3.887  -1.314  -0.499  0.00  0.00    -0.002 A 
ATOM      2  C1  UNL d   1      -3.558  -1.395  -1.845  0.00  0.00     0.010 A 
ATOM      3  C2  UNL d   1      -2.273  -1.067  -2.283  0.00  0.00     0.041 A 
ATOM      4  C3  UNL d   1      -1.315  -0.654  -1.337  0.00  0.00    -0.075 A 
ATOM      5  S   UNL d   1       0.321  -0.203  -1.642  0.00  0.00     0.015 SA
ATOM      6  C4  UNL d   1       0.622   0.107   0.007  0.00  0.00     0.022 A 
ATOM      7  C5  UNL d   1      -0.488  -0.122   0.785  0.00  0.00     0.026 A 
ATOM      8  C6  UNL d   1      -1.622  -0.565   0.024  0.00  0.00    -0.082 A 
ATOM      9  C7  UNL d   1      -2.933  -0.903   0.437  0.00  0.00     0.045 A 
ENDROOT
TORSDOF 0
ENDMDL
