MODEL 1
REMARK minimizedAffinity -0.889543951
REMARK minimizedRMSD -1
REMARK  0 active torsions:
REMARK  status: ('A' for Active; 'I' for Inactive)
ROOT
ATOM      1  N1  IND d   1       0.090  -1.691   0.359  0.00  0.00    -0.196 N 
ATOM      2  C2  IND d   1      -1.099  -1.058   0.124  0.00  0.00     0.054 A 
ATOM      3  C3  IND d   1      -0.917   0.280   0.071  0.00  0.00    -0.031 A 
ATOM      4  C4  IND d   1       1.261   1.642   0.239  0.00  0.00     0.051 A 
ATOM      5  C5  IND d   1       2.598   1.509   0.489  0.00  0.00    -0.031 A 
ATOM      6  C6  IND d   1       3.180   0.278   0.711  0.00  0.00     0.015 A 
ATOM      7  C7  IND d   1       2.444  -0.873   0.679  0.00  0.00    -0.016 A 
ATOM      8  C8  IND d   1       1.085  -0.741   0.432  0.00  0.00    -0.047 A 
ATOM      9  C9  IND d   1       0.482   0.510   0.249  0.00  0.00    -0.096 A 
ATOM     10  HN1 IND d   1       0.198  -2.540   0.447  0.00  0.00     0.298 HD
ENDROOT
TORSDOF 0
ENDMDL
