MODEL 1
REMARK minimizedAffinity -2.42700672
REMARK minimizedRMSD -1
REMARK  0 active torsions:
REMARK  status: ('A' for Active; 'I' for Inactive)
ROOT
ATOM      1  N1  IND d   1       0.446  -2.020   1.781  0.00  0.00    -0.196 N 
ATOM      2  C2  IND d   1       1.517  -2.241   2.602  0.00  0.00     0.054 A 
ATOM      3  C3  IND d   1       2.365  -1.188   2.562  0.00  0.00    -0.031 A 
ATOM      4  C4  IND d   1       2.143   1.044   1.299  0.00  0.00     0.051 A 
ATOM      5  C5  IND d   1       1.355   1.694   0.391  0.00  0.00    -0.031 A 
ATOM      6  C6  IND d   1       0.199   1.129  -0.108  0.00  0.00     0.015 A 
ATOM      7  C7  IND d   1      -0.220  -0.108   0.293  0.00  0.00    -0.016 A 
ATOM      8  C8  IND d   1       0.582  -0.774   1.209  0.00  0.00    -0.047 A 
ATOM      9  C9  IND d   1       1.778  -0.224   1.687  0.00  0.00    -0.096 A 
ATOM     10  HN1 IND d   1      -0.202  -2.568   1.644  0.00  0.00     0.298 HD
ENDROOT
TORSDOF 0
ENDMDL
