MODEL 1
REMARK minimizedAffinity -4.71785164
REMARK minimizedRMSD -1
REMARK  0 active torsions:
REMARK  status: ('A' for Active; 'I' for Inactive)
ROOT
ATOM      1  N1  IND d   1      -0.109  -0.493   0.225  0.00  0.00    -0.196 N 
ATOM      2  C2  IND d   1      -0.312   0.819  -0.100  0.00  0.00     0.054 A 
ATOM      3  C3  IND d   1       0.723   1.576   0.328  0.00  0.00    -0.031 A 
ATOM      4  C4  IND d   1       2.903   0.856   1.493  0.00  0.00     0.051 A 
ATOM      5  C5  IND d   1       3.527  -0.234   2.031  0.00  0.00    -0.031 A 
ATOM      6  C6  IND d   1       2.962  -1.492   1.992  0.00  0.00     0.015 A 
ATOM      7  C7  IND d   1       1.750  -1.709   1.400  0.00  0.00    -0.016 A 
ATOM      8  C8  IND d   1       1.110  -0.604   0.858  0.00  0.00    -0.047 A 
ATOM      9  C9  IND d   1       1.659   0.682   0.933  0.00  0.00    -0.096 A 
ATOM     10  HN1 IND d   1      -0.651  -1.140   0.061  0.00  0.00     0.298 HD
ENDROOT
TORSDOF 0
ENDMDL
