MODEL 1
REMARK minimizedAffinity 0.0982690305
REMARK minimizedRMSD -1
REMARK  0 active torsions:
REMARK  status: ('A' for Active; 'I' for Inactive)
ROOT
ATOM      1  N1  IND d   1       0.117  -0.112  -0.254  0.00  0.00    -0.196 N 
ATOM      2  C2  IND d   1      -1.097   0.494  -0.422  0.00  0.00     0.054 A 
ATOM      3  C3  IND d   1      -1.171   1.617   0.328  0.00  0.00    -0.031 A 
ATOM      4  C4  IND d   1       0.619   2.703   1.825  0.00  0.00     0.051 A 
ATOM      5  C5  IND d   1       1.875   2.499   2.324  0.00  0.00    -0.031 A 
ATOM      6  C6  IND d   1       2.626   1.394   1.979  0.00  0.00     0.015 A 
ATOM      7  C7  IND d   1       2.150   0.452   1.111  0.00  0.00    -0.016 A 
ATOM      8  C8  IND d   1       0.872   0.653   0.608  0.00  0.00    -0.047 A 
ATOM      9  C9  IND d   1       0.089   1.751   0.987  0.00  0.00    -0.096 A 
ATOM     10  HN1 IND d   1       0.366  -0.846  -0.624  0.00  0.00     0.298 HD
ENDROOT
TORSDOF 0
ENDMDL
