MODEL 1
REMARK minimizedAffinity 3.70279217
REMARK minimizedRMSD -1
REMARK  0 active torsions:
REMARK  status: ('A' for Active; 'I' for Inactive)
ROOT
ATOM      1  N1  IND d   1       2.893   0.484   2.931  0.00  0.00    -0.196 N 
ATOM      2  C2  IND d   1       2.606   1.809   3.107  0.00  0.00     0.054 A 
ATOM      3  C3  IND d   1       1.581   2.179   2.307  0.00  0.00    -0.031 A 
ATOM      4  C4  IND d   1       0.160   0.750   0.704  0.00  0.00     0.051 A 
ATOM      5  C5  IND d   1       0.066  -0.507   0.178  0.00  0.00    -0.031 A 
ATOM      6  C6  IND d   1       0.925  -1.520   0.552  0.00  0.00     0.015 A 
ATOM      7  C7  IND d   1       1.908  -1.315   1.479  0.00  0.00    -0.016 A 
ATOM      8  C8  IND d   1       2.011  -0.037   2.010  0.00  0.00    -0.047 A 
ATOM      9  C9  IND d   1       1.168   1.006   1.603  0.00  0.00    -0.096 A 
ATOM     10  HN1 IND d   1       3.519   0.049   3.328  0.00  0.00     0.298 HD
ENDROOT
TORSDOF 0
ENDMDL
