MODEL 1
REMARK minimizedAffinity 6.36293268
REMARK minimizedRMSD -1
REMARK  0 active torsions:
REMARK  status: ('A' for Active; 'I' for Inactive)
ROOT
ATOM      1  C   UNL d   1       0.343   5.272  -1.527  0.00  0.00     0.172 C 
ATOM      2  N   UNL d   1       0.115   4.015  -0.854  0.00  0.00    -0.070 N 
ATOM      3  C1  UNL d   1       0.801   2.852  -1.081  0.00  0.00    -0.004 A 
ATOM      4  C2  UNL d   1       0.287   1.888  -0.241  0.00  0.00    -0.047 A 
ATOM      5  C3  UNL d   1      -0.744   2.492   0.516  0.00  0.00    -0.047 A 
ATOM      6  C4  UNL d   1      -0.829   3.810   0.117  0.00  0.00    -0.004 A 
ENDROOT
TORSDOF 0
ENDMDL
