MODEL 1
REMARK minimizedAffinity 4.66450596
REMARK minimizedRMSD -1
REMARK  0 active torsions:
REMARK  status: ('A' for Active; 'I' for Inactive)
ROOT
ATOM      1  C   UNL d   1      -2.401  -5.656  -5.557  0.00  0.00     0.172 C 
ATOM      2  N   UNL d   1      -3.780  -5.777  -5.142  0.00  0.00    -0.070 N 
ATOM      3  C1  UNL d   1      -4.226  -5.783  -3.848  0.00  0.00    -0.004 A 
ATOM      4  C2  UNL d   1      -5.598  -5.915  -3.876  0.00  0.00    -0.047 A 
ATOM      5  C3  UNL d   1      -5.989  -5.993  -5.233  0.00  0.00    -0.047 A 
ATOM      6  C4  UNL d   1      -4.843  -5.905  -5.996  0.00  0.00    -0.004 A 
ENDROOT
TORSDOF 0
ENDMDL
