MODEL 1
REMARK minimizedAffinity 3.89151144
REMARK minimizedRMSD -1
REMARK  0 active torsions:
REMARK  status: ('A' for Active; 'I' for Inactive)
ROOT
ATOM      1  C   UNL d   1      -2.307  -5.520  -4.326  0.00  0.00     0.172 C 
ATOM      2  N   UNL d   1      -3.686  -5.629  -4.740  0.00  0.00    -0.070 N 
ATOM      3  C1  UNL d   1      -4.163  -5.382  -6.000  0.00  0.00    -0.004 A 
ATOM      4  C2  UNL d   1      -5.524  -5.599  -5.986  0.00  0.00    -0.047 A 
ATOM      5  C3  UNL d   1      -5.877  -5.989  -4.672  0.00  0.00    -0.047 A 
ATOM      6  C4  UNL d   1      -4.720  -6.000  -3.922  0.00  0.00    -0.004 A 
ENDROOT
TORSDOF 0
ENDMDL
