MODEL 1
REMARK minimizedAffinity 0.998202741
REMARK minimizedRMSD -1
REMARK  0 active torsions:
REMARK  status: ('A' for Active; 'I' for Inactive)
ROOT
ATOM      1  C   UNL d   1      -5.357  -2.332  -6.000  0.00  0.00     0.172 C 
ATOM      2  N   UNL d   1      -5.085  -3.743  -5.854  0.00  0.00    -0.070 N 
ATOM      3  C1  UNL d   1      -6.000  -4.751  -5.999  0.00  0.00    -0.004 A 
ATOM      4  C2  UNL d   1      -5.349  -5.946  -5.781  0.00  0.00    -0.047 A 
ATOM      5  C3  UNL d   1      -3.996  -5.645  -5.493  0.00  0.00    -0.047 A 
ATOM      6  C4  UNL d   1      -3.861  -4.274  -5.545  0.00  0.00    -0.004 A 
ENDROOT
TORSDOF 0
ENDMDL
