MODEL 1
REMARK minimizedAffinity 3.13032246
REMARK minimizedRMSD -1
REMARK  0 active torsions:
REMARK  status: ('A' for Active; 'I' for Inactive)
ROOT
ATOM      1  C   UNL d   1      -5.884  -5.759  -5.996  0.00  0.00     0.172 C 
ATOM      2  N   UNL d   1      -4.553  -5.240  -5.781  0.00  0.00    -0.070 N 
ATOM      3  C1  UNL d   1      -3.452  -5.981  -5.443  0.00  0.00    -0.004 A 
ATOM      4  C2  UNL d   1      -2.382  -5.119  -5.331  0.00  0.00    -0.047 A 
ATOM      5  C3  UNL d   1      -2.857  -3.816  -5.610  0.00  0.00    -0.047 A 
ATOM      6  C4  UNL d   1      -4.204  -3.920  -5.885  0.00  0.00    -0.004 A 
ENDROOT
TORSDOF 0
ENDMDL
