MODEL 1
REMARK minimizedAffinity 1.27067876
REMARK minimizedRMSD -1
REMARK  0 active torsions:
REMARK  status: ('A' for Active; 'I' for Inactive)
ROOT
ATOM      1  C   UNL d   1      -2.102  -5.615  -4.395  0.00  0.00     0.172 C 
ATOM      2  N   UNL d   1      -3.365  -5.185  -4.947  0.00  0.00    -0.070 N 
ATOM      3  C1  UNL d   1      -3.582  -4.023  -5.637  0.00  0.00    -0.004 A 
ATOM      4  C2  UNL d   1      -4.912  -3.984  -5.993  0.00  0.00    -0.047 A 
ATOM      5  C3  UNL d   1      -5.517  -5.164  -5.498  0.00  0.00    -0.047 A 
ATOM      6  C4  UNL d   1      -4.537  -5.890  -4.855  0.00  0.00    -0.004 A 
ENDROOT
TORSDOF 0
ENDMDL
