MODEL 1
REMARK minimizedAffinity 2.71896362
REMARK minimizedRMSD -1
REMARK  0 active torsions:
REMARK  status: ('A' for Active; 'I' for Inactive)
ROOT
ATOM      1  C   UNL d   1       1.236   4.096  -1.609  0.00  0.00     0.172 C 
ATOM      2  N   UNL d   1       0.437   3.207  -0.798  0.00  0.00    -0.070 N 
ATOM      3  C1  UNL d   1      -0.926   3.091  -0.847  0.00  0.00    -0.004 A 
ATOM      4  C2  UNL d   1      -1.303   2.141   0.078  0.00  0.00    -0.047 A 
ATOM      5  C3  UNL d   1      -0.125   1.670   0.705  0.00  0.00    -0.047 A 
ATOM      6  C4  UNL d   1       0.938   2.347   0.144  0.00  0.00    -0.004 A 
ENDROOT
TORSDOF 0
ENDMDL
