MODEL 1
REMARK minimizedAffinity 12.283267
REMARK minimizedRMSD -1
REMARK  0 active torsions:
REMARK  status: ('A' for Active; 'I' for Inactive)
ROOT
ATOM      1  C   UNL d   1       4.134   5.999  -0.443  0.00  0.00     0.172 C 
ATOM      2  N   UNL d   1       3.068   5.384  -1.198  0.00  0.00    -0.070 N 
ATOM      3  C1  UNL d   1       2.603   4.108  -1.029  0.00  0.00    -0.004 A 
ATOM      4  C2  UNL d   1       1.587   3.904  -1.937  0.00  0.00    -0.047 A 
ATOM      5  C3  UNL d   1       1.436   5.100  -2.679  0.00  0.00    -0.047 A 
ATOM      6  C4  UNL d   1       2.366   6.000  -2.201  0.00  0.00    -0.004 A 
ENDROOT
TORSDOF 0
ENDMDL
