MODEL 1
REMARK minimizedAffinity 4.62851906
REMARK minimizedRMSD -1
REMARK  0 active torsions:
REMARK  status: ('A' for Active; 'I' for Inactive)
ROOT
ATOM      1  C   UNL d   1       0.524   1.751   1.658  0.00  0.00     0.172 C 
ATOM      2  N   UNL d   1       0.382   2.611   0.507  0.00  0.00    -0.070 N 
ATOM      3  C1  UNL d   1       1.401   3.267  -0.131  0.00  0.00    -0.004 A 
ATOM      4  C2  UNL d   1       0.856   3.980  -1.177  0.00  0.00    -0.047 A 
ATOM      5  C3  UNL d   1      -0.539   3.745  -1.167  0.00  0.00    -0.047 A 
ATOM      6  C4  UNL d   1      -0.806   2.895  -0.115  0.00  0.00    -0.004 A 
ENDROOT
TORSDOF 0
ENDMDL
