MODEL 1
REMARK minimizedAffinity -6.36131859
REMARK minimizedRMSD -1
REMARK  0 active torsions:
REMARK  status: ('A' for Active; 'I' for Inactive)
ROOT
ATOM      1  C   UNL d   1      -1.976  -0.066  -4.308  0.00  0.00     0.020 A 
ATOM      2  C1  UNL d   1      -1.259   1.120  -4.149  0.00  0.00     0.020 A 
ATOM      3  C2  UNL d   1      -0.618   1.391  -2.939  0.00  0.00     0.034 A 
ATOM      4  C3  UNL d   1      -0.691   0.476  -1.882  0.00  0.00     0.017 A 
ATOM      5  C4  UNL d   1      -1.411  -0.713  -2.042  0.00  0.00     0.017 A 
ATOM      6  C5  UNL d   1      -2.051  -0.980  -3.256  0.00  0.00     0.034 A 
ATOM      7 Cl   UNL d   1      -1.547  -1.891  -0.784  0.00  0.00    -0.070 Cl
ATOM      8 Cl1  UNL d   1       0.127   0.877  -0.414  0.00  0.00    -0.070 Cl
ENDROOT
TORSDOF 0
ENDMDL
