MODEL 1
REMARK minimizedAffinity -7.12909269
REMARK minimizedRMSD -1
REMARK  1 active torsions:
REMARK  status: ('A' for Active; 'I' for Inactive)
REMARK    1  A    between atoms: C1_2  and  C2_3 
ROOT
ATOM      1  C2  UNL d   1      -1.376  -0.810  -1.966  0.00  0.00    -0.076 A 
ATOM      2  C3  UNL d   1      -2.038  -1.120  -3.166  0.00  0.00     0.004 A 
ATOM      3  C4  UNL d   1      -2.031  -0.232  -4.240  0.00  0.00    -0.003 A 
ATOM      4  C5  UNL d   1      -1.361   0.982  -4.132  0.00  0.00     0.000 A 
ATOM      5  C6  UNL d   1      -0.683   1.299  -2.955  0.00  0.00     0.000 A 
ATOM      6  C7  UNL d   1      -0.667   0.407  -1.868  0.00  0.00    -0.073 A 
ATOM      7  C8  UNL d   1       0.075   0.803  -0.621  0.00  0.00     0.078 C 
ENDROOT
BRANCH   1   8
ATOM      8  C1  UNL d   1      -1.440  -1.800  -0.826  0.00  0.00     0.053 C 
ATOM      9  C   UNL d   1      -2.853  -1.985  -0.294  0.00  0.00     0.018 C 
ENDBRANCH   1   8
TORSDOF 1
ENDMDL
