MODEL 1
REMARK minimizedAffinity -5.4141221
REMARK minimizedRMSD -1
REMARK  0 active torsions:
REMARK  status: ('A' for Active; 'I' for Inactive)
ROOT
ATOM      1  C1  BNZ d   1      -1.438  -0.508  -1.965  0.00  0.00     0.000 A 
ATOM      2  C2  BNZ d   1      -0.789   0.698  -1.928  0.00  0.00     0.000 A 
ATOM      3  C3  BNZ d   1      -0.727   1.494  -3.037  0.00  0.00     0.000 A 
ATOM      4  C4  BNZ d   1      -1.276   1.066  -4.192  0.00  0.00     0.000 A 
ATOM      5  C5  BNZ d   1      -1.925  -0.151  -4.248  0.00  0.00     0.000 A 
ATOM      6  C6  BNZ d   1      -2.021  -0.932  -3.120  0.00  0.00     0.000 A 
ENDROOT
TORSDOF 0
ENDMDL
