MODEL 1
REMARK minimizedAffinity -7.0392766
REMARK minimizedRMSD -1
REMARK  0 active torsions:
REMARK  status: ('A' for Active; 'I' for Inactive)
ROOT
ATOM      1  O1  BZF d   1      -1.059  -1.209  -0.818  0.00  0.00    -0.204 OA
ATOM      2  C2  BZF d   1      -1.632  -2.400  -1.221  0.00  0.00     0.174 A 
ATOM      3  C3  BZF d   1      -2.091  -2.305  -2.486  0.00  0.00    -0.012 A 
ATOM      4  C3A BZF d   1      -1.704  -1.002  -2.931  0.00  0.00    -0.107 A 
ATOM      5  C4  BZF d   1      -1.860  -0.327  -4.108  0.00  0.00     0.055 A 
ATOM      6  C5  BZF d   1      -1.430   0.960  -4.193  0.00  0.00    -0.016 A 
ATOM      7  C6  BZF d   1      -0.845   1.602  -3.122  0.00  0.00     0.022 A 
ATOM      8  C7  BZF d   1      -0.664   0.972  -1.936  0.00  0.00     0.029 A 
ATOM      9  C7A BZF d   1      -1.068  -0.339  -1.856  0.00  0.00     0.058 A 
ENDROOT
TORSDOF 0
ENDMDL
