MODEL 1
REMARK minimizedAffinity -7.10171127
REMARK minimizedRMSD -1
REMARK  0 active torsions:
REMARK  status: ('A' for Active; 'I' for Inactive)
ROOT
ATOM      1  N1  IND d   1      -1.047  -1.271  -0.813  0.00  0.00    -0.196 N 
ATOM      2  C2  IND d   1      -1.652  -2.411  -1.263  0.00  0.00     0.054 A 
ATOM      3  C3  IND d   1      -2.088  -2.243  -2.532  0.00  0.00    -0.031 A 
ATOM      4  C4  IND d   1      -1.826  -0.215  -4.096  0.00  0.00     0.051 A 
ATOM      5  C5  IND d   1      -1.377   1.075  -4.121  0.00  0.00    -0.031 A 
ATOM      6  C6  IND d   1      -0.781   1.661  -3.023  0.00  0.00     0.015 A 
ATOM      7  C7  IND d   1      -0.600   0.971  -1.857  0.00  0.00    -0.016 A 
ATOM      8  C8  IND d   1      -1.061  -0.338  -1.827  0.00  0.00    -0.047 A 
ATOM      9  C9  IND d   1      -1.706  -0.924  -2.924  0.00  0.00    -0.096 A 
ATOM     10  HN1 IND d   1      -0.715  -1.155  -0.029  0.00  0.00     0.298 HD
ENDROOT
TORSDOF 0
ENDMDL
