MODEL 1
REMARK minimizedAffinity -7.19238901
REMARK minimizedRMSD -1
REMARK  0 active torsions:
REMARK  status: ('A' for Active; 'I' for Inactive)
ROOT
ATOM      1  C   UNL d   1      -1.083   0.787  -3.597  0.00  0.00     0.124 A 
ATOM      2  C1  UNL d   1      -0.368   1.164  -2.468  0.00  0.00     0.062 A 
ATOM      3  C2  UNL d   1      -0.452   0.409  -1.302  0.00  0.00     0.162 A 
ATOM      4  C3  UNL d   1      -1.254  -0.731  -1.258  0.00  0.00    -0.034 A 
ATOM      5  C4  UNL d   1      -1.972  -1.103  -2.396  0.00  0.00     0.162 A 
ATOM      6  C5  UNL d   1      -1.884  -0.346  -3.559  0.00  0.00     0.062 A 
ATOM      7  F   UNL d   1      -2.576  -0.711  -4.648  0.00  0.00    -0.097 F 
ATOM      8  F1  UNL d   1      -2.753  -2.194  -2.388  0.00  0.00    -0.096 F 
ATOM      9  I   UNL d   1      -1.383  -1.862   0.485  0.00  0.00    -0.060 I 
ATOM     10  F2  UNL d   1       0.250   0.797  -0.227  0.00  0.00    -0.096 F 
ATOM     11  F3  UNL d   1       0.406   2.258  -2.502  0.00  0.00    -0.097 F 
ATOM     12  F4  UNL d   1      -1.001   1.515  -4.717  0.00  0.00    -0.092 F 
ENDROOT
TORSDOF 0
ENDMDL
