MODEL 1
REMARK minimizedAffinity -6.04477215
REMARK minimizedRMSD -1
REMARK  0 active torsions:
REMARK  status: ('A' for Active; 'I' for Inactive)
ROOT
ATOM      1  C   UNL d   1      -1.286   1.119  -4.186  0.00  0.00     0.023 A 
ATOM      2  C1  UNL d   1      -0.686   1.566  -3.009  0.00  0.00     0.003 A 
ATOM      3  C2  UNL d   1      -0.703   0.763  -1.867  0.00  0.00     0.048 A 
ATOM      4  C3  UNL d   1      -1.322  -0.486  -1.908  0.00  0.00     0.023 A 
ATOM      5  C4  UNL d   1      -1.923  -0.937  -3.084  0.00  0.00     0.048 A 
ATOM      6  C5  UNL d   1      -1.904  -0.131  -4.224  0.00  0.00     0.003 A 
ATOM      7  I   UNL d   1      -1.349  -1.682  -0.209  0.00  0.00    -0.146 I 
ENDROOT
TORSDOF 0
ENDMDL
