MODEL 1
REMARK minimizedAffinity -6.34151554
REMARK minimizedRMSD -1
REMARK  0 active torsions:
REMARK  status: ('A' for Active; 'I' for Inactive)
ROOT
ATOM      1  C   UNL d   1      -2.174  -2.491  -0.987  0.00  0.00     0.077 C 
ATOM      2  C1  UNL d   1      -1.505  -1.201  -1.357  0.00  0.00    -0.074 A 
ATOM      3  C2  UNL d   1      -0.622  -0.571  -0.475  0.00  0.00    -0.005 A 
ATOM      4  C3  UNL d   1       0.001   0.624  -0.836  0.00  0.00     0.006 A 
ATOM      5  C4  UNL d   1      -0.254   1.200  -2.082  0.00  0.00    -0.005 A 
ATOM      6  C5  UNL d   1      -1.133   0.584  -2.977  0.00  0.00    -0.074 A 
ATOM      7  C6  UNL d   1      -1.410   1.184  -4.323  0.00  0.00     0.077 C 
ATOM      8  C7  UNL d   1      -1.750  -0.620  -2.609  0.00  0.00    -0.001 A 
ENDROOT
TORSDOF 0
ENDMDL
