MODEL 1
REMARK minimizedAffinity -6.87952089
REMARK minimizedRMSD -1
REMARK  0 active torsions:
REMARK  status: ('A' for Active; 'I' for Inactive)
ROOT
ATOM      1  C2' OXE d   1      -0.714  -0.800  -0.347  0.00  0.00     0.078 C 
ATOM      2  C1' OXE d   1      -1.957  -2.498  -2.205  0.00  0.00     0.078 C 
ATOM      3  C1  OXE d   1      -1.616  -1.098  -2.650  0.00  0.00    -0.078 A 
ATOM      4  C2  OXE d   1      -1.050  -0.259  -1.720  0.00  0.00    -0.078 A 
ATOM      5  C3  OXE d   1      -0.666   1.025  -2.094  0.00  0.00     0.003 A 
ATOM      6  C4  OXE d   1      -0.990   1.521  -3.362  0.00  0.00    -0.002 A 
ATOM      7  C5  OXE d   1      -1.601   0.696  -4.312  0.00  0.00    -0.002 A 
ATOM      8  C6  OXE d   1      -1.882  -0.626  -3.987  0.00  0.00     0.003 A 
ENDROOT
TORSDOF 0
ENDMDL
