MODEL 1
REMARK minimizedAffinity -6.15768194
REMARK minimizedRMSD -1
REMARK  0 active torsions:
REMARK  status: ('A' for Active; 'I' for Inactive)
ROOT
ATOM      1  C4' PXY d   1      -1.192  -1.921   0.674  0.00  0.00     0.077 C 
ATOM      2  C1' PXY d   1      -1.329   1.126  -4.236  0.00  0.00     0.077 C 
ATOM      3  C1  PXY d   1      -1.281   0.331  -2.946  0.00  0.00    -0.082 A 
ATOM      4  C2  PXY d   1      -2.033  -0.750  -2.815  0.00  0.00     0.003 A 
ATOM      5  C3  PXY d   1      -2.026  -1.462  -1.643  0.00  0.00     0.003 A 
ATOM      6  C4  PXY d   1      -1.201  -1.094  -0.614  0.00  0.00    -0.082 A 
ATOM      7  C5  PXY d   1      -0.423   0.002  -0.744  0.00  0.00     0.003 A 
ATOM      8  C6  PXY d   1      -0.476   0.734  -1.926  0.00  0.00     0.003 A 
ENDROOT
TORSDOF 0
ENDMDL
