MODEL 1
REMARK minimizedAffinity -5.72359467
REMARK minimizedRMSD -1
REMARK  1 active torsions:
REMARK  status: ('A' for Active; 'I' for Inactive)
REMARK    1  A    between atoms: C3_4  and  O_7 
ROOT
ATOM      1  C   UNL d   1      -1.279   1.092  -4.155  0.00  0.00    -0.033 A 
ATOM      2  C1  UNL d   1      -1.901  -0.158  -4.172  0.00  0.00     0.039 A 
ATOM      3  C2  UNL d   1      -1.914  -0.949  -3.022  0.00  0.00    -0.080 A 
ATOM      4  C3  UNL d   1      -1.304  -0.478  -1.862  0.00  0.00     0.150 A 
ATOM      5  C4  UNL d   1      -0.687   0.768  -1.837  0.00  0.00    -0.007 A 
ATOM      6  C5  UNL d   1      -0.674   1.556  -2.987  0.00  0.00     0.039 A 
ENDROOT
BRANCH   4   7
ATOM      7  O   UNL d   1      -1.288  -1.216  -0.716  0.00  0.00    -0.526 OA
ATOM      8  H5  UNL d   1      -1.726  -2.065  -0.890  0.00  0.00     0.418 HD
ENDBRANCH   4   7
TORSDOF 1
ENDMDL
