MODEL 1
REMARK minimizedAffinity -6.12456465
REMARK minimizedRMSD -1
REMARK  0 active torsions:
REMARK  status: ('A' for Active; 'I' for Inactive)
ROOT
ATOM      1  C   UNL d   1       0.066   0.791  -0.665  0.00  0.00     0.078 C 
ATOM      2  C1  UNL d   1      -0.676   0.461  -1.925  0.00  0.00    -0.077 A 
ATOM      3  C2  UNL d   1      -1.425  -0.717  -2.034  0.00  0.00    -0.001 A 
ATOM      4  C3  UNL d   1      -2.102  -1.017  -3.217  0.00  0.00     0.003 A 
ATOM      5  C4  UNL d   1      -2.037  -0.143  -4.301  0.00  0.00    -0.005 A 
ATOM      6  C5  UNL d   1      -1.293   1.031  -4.203  0.00  0.00     0.003 A 
ATOM      7  C6  UNL d   1      -0.615   1.332  -3.021  0.00  0.00    -0.001 A 
ENDROOT
TORSDOF 0
ENDMDL
