MODEL 1
REMARK minimizedAffinity 4.05103493
REMARK minimizedRMSD -1
REMARK  0 active torsions:
REMARK  status: ('A' for Active; 'I' for Inactive)
ROOT
ATOM      1  O1  BZF d   1       1.811  -0.612   3.328  0.00  0.00    -0.204 OA
ATOM      2  C2  BZF d   1       1.042  -1.087   4.373  0.00  0.00     0.174 A 
ATOM      3  C3  BZF d   1      -0.107  -0.388   4.477  0.00  0.00    -0.012 A 
ATOM      4  C3A BZF d   1      -0.093   0.525   3.375  0.00  0.00    -0.107 A 
ATOM      5  C4  BZF d   1      -0.969   1.474   2.931  0.00  0.00     0.055 A 
ATOM      6  C5  BZF d   1      -0.624   2.244   1.866  0.00  0.00    -0.016 A 
ATOM      7  C6  BZF d   1       0.589   2.097   1.226  0.00  0.00     0.022 A 
ATOM      8  C7  BZF d   1       1.488   1.166   1.627  0.00  0.00     0.029 A 
ATOM      9  C7A BZF d   1       1.129   0.363   2.682  0.00  0.00     0.058 A 
ENDROOT
TORSDOF 0
ENDMDL
