MODEL 1
REMARK minimizedAffinity 3.517869
REMARK minimizedRMSD -1
REMARK  0 active torsions:
REMARK  status: ('A' for Active; 'I' for Inactive)
ROOT
ATOM      1  O1  BZF d   1      -0.380   2.680  -1.659  0.00  0.00    -0.204 OA
ATOM      2  C2  BZF d   1      -0.230   1.518  -2.391  0.00  0.00     0.174 A 
ATOM      3  C3  BZF d   1       0.216   0.514  -1.609  0.00  0.00    -0.012 A 
ATOM      4  C3A BZF d   1       0.265   1.060  -0.287  0.00  0.00    -0.107 A 
ATOM      5  C4  BZF d   1       0.614   0.546   0.929  0.00  0.00     0.055 A 
ATOM      6  C5  BZF d   1       0.623   1.363   2.014  0.00  0.00    -0.016 A 
ATOM      7  C6  BZF d   1       0.293   2.700   1.919  0.00  0.00     0.022 A 
ATOM      8  C7  BZF d   1      -0.064   3.254   0.735  0.00  0.00     0.029 A 
ATOM      9  C7A BZF d   1      -0.106   2.423  -0.357  0.00  0.00     0.058 A 
ENDROOT
TORSDOF 0
ENDMDL
