MODEL 1
REMARK minimizedAffinity 8.80717659
REMARK minimizedRMSD -1
REMARK  0 active torsions:
REMARK  status: ('A' for Active; 'I' for Inactive)
ROOT
ATOM      1  O1  BZF d   1      -1.443   0.296  -1.770  0.00  0.00    -0.204 OA
ATOM      2  C2  BZF d   1      -0.295   0.972  -2.138  0.00  0.00     0.174 A 
ATOM      3  C3  BZF d   1      -0.580   2.243  -2.487  0.00  0.00    -0.012 A 
ATOM      4  C3A BZF d   1      -1.980   2.397  -2.239  0.00  0.00    -0.107 A 
ATOM      5  C4  BZF d   1      -2.849   3.442  -2.375  0.00  0.00     0.055 A 
ATOM      6  C5  BZF d   1      -4.168   3.243  -2.116  0.00  0.00    -0.016 A 
ATOM      7  C6  BZF d   1      -4.653   2.013  -1.724  0.00  0.00     0.022 A 
ATOM      8  C7  BZF d   1      -3.829   0.947  -1.570  0.00  0.00     0.029 A 
ATOM      9  C7A BZF d   1      -2.491   1.154  -1.800  0.00  0.00     0.058 A 
ENDROOT
TORSDOF 0
ENDMDL
