MODEL 1
REMARK minimizedAffinity 11.4830503
REMARK minimizedRMSD -1
REMARK  0 active torsions:
REMARK  status: ('A' for Active; 'I' for Inactive)
ROOT
ATOM      1  O1  BZF d   1       1.470  -0.669   2.870  0.00  0.00    -0.204 OA
ATOM      2  C2  BZF d   1       0.868  -1.003   4.068  0.00  0.00     0.174 A 
ATOM      3  C3  BZF d   1      -0.009  -0.050   4.445  0.00  0.00    -0.012 A 
ATOM      4  C3A BZF d   1      -0.018   0.898   3.372  0.00  0.00    -0.107 A 
ATOM      5  C4  BZF d   1      -0.702   2.059   3.152  0.00  0.00     0.055 A 
ATOM      6  C5  BZF d   1      -0.428   2.786   2.037  0.00  0.00    -0.016 A 
ATOM      7  C6  BZF d   1       0.526   2.384   1.125  0.00  0.00     0.022 A 
ATOM      8  C7  BZF d   1       1.226   1.236   1.298  0.00  0.00     0.029 A 
ATOM      9  C7A BZF d   1       0.928   0.483   2.407  0.00  0.00     0.058 A 
ENDROOT
TORSDOF 0
ENDMDL
