MODEL 1
REMARK minimizedAffinity 2.16671753
REMARK minimizedRMSD -1
REMARK  0 active torsions:
REMARK  status: ('A' for Active; 'I' for Inactive)
ROOT
ATOM      1  O1  BZF d   1       0.605   0.219  -2.072  0.00  0.00    -0.204 OA
ATOM      2  C2  BZF d   1       0.168   1.492  -1.762  0.00  0.00     0.174 A 
ATOM      3  C3  BZF d   1      -1.155   1.492  -1.500  0.00  0.00    -0.012 A 
ATOM      4  C3A BZF d   1      -1.552   0.119  -1.566  0.00  0.00    -0.107 A 
ATOM      5  C4  BZF d   1      -2.743  -0.523  -1.382  0.00  0.00     0.055 A 
ATOM      6  C5  BZF d   1      -2.809  -1.864  -1.592  0.00  0.00    -0.016 A 
ATOM      7  C6  BZF d   1      -1.707  -2.592  -1.989  0.00  0.00     0.022 A 
ATOM      8  C7  BZF d   1      -0.503  -2.000  -2.179  0.00  0.00     0.029 A 
ATOM      9  C7A BZF d   1      -0.425  -0.650  -1.936  0.00  0.00     0.058 A 
ENDROOT
TORSDOF 0
ENDMDL
