MODEL 1
REMARK minimizedAffinity 3.09745145
REMARK minimizedRMSD -1
REMARK  0 active torsions:
REMARK  status: ('A' for Active; 'I' for Inactive)
ROOT
ATOM      1  O1  BZF d   1      -0.387  -0.319   3.568  0.00  0.00    -0.204 OA
ATOM      2  C2  BZF d   1       0.990  -0.407   3.618  0.00  0.00     0.174 A 
ATOM      3  C3  BZF d   1       1.559   0.632   2.972  0.00  0.00    -0.012 A 
ATOM      4  C3A BZF d   1       0.470   1.466   2.569  0.00  0.00    -0.107 A 
ATOM      5  C4  BZF d   1       0.395   2.655   1.901  0.00  0.00     0.055 A 
ATOM      6  C5  BZF d   1      -0.827   3.169   1.602  0.00  0.00    -0.016 A 
ATOM      7  C6  BZF d   1      -1.993   2.519   1.950  0.00  0.00     0.022 A 
ATOM      8  C7  BZF d   1      -1.969   1.340   2.617  0.00  0.00     0.029 A 
ATOM      9  C7A BZF d   1      -0.737   0.834   2.950  0.00  0.00     0.058 A 
ENDROOT
TORSDOF 0
ENDMDL
