MODEL 1
REMARK minimizedAffinity 9.46412659
REMARK minimizedRMSD -1
REMARK  0 active torsions:
REMARK  status: ('A' for Active; 'I' for Inactive)
ROOT
ATOM      1  O1  BZF d   1       0.641   0.163  -1.826  0.00  0.00    -0.204 OA
ATOM      2  C2  BZF d   1      -0.352   0.705  -2.618  0.00  0.00     0.174 A 
ATOM      3  C3  BZF d   1      -1.122   1.553  -1.907  0.00  0.00    -0.012 A 
ATOM      4  C3A BZF d   1      -0.519   1.611  -0.610  0.00  0.00    -0.107 A 
ATOM      5  C4  BZF d   1      -0.816   2.296   0.533  0.00  0.00     0.055 A 
ATOM      6  C5  BZF d   1      -0.071   2.074   1.648  0.00  0.00    -0.016 A 
ATOM      7  C6  BZF d   1       0.973   1.172   1.656  0.00  0.00     0.022 A 
ATOM      8  C7  BZF d   1       1.308   0.473   0.544  0.00  0.00     0.029 A 
ATOM      9  C7A BZF d   1       0.578   0.719  -0.593  0.00  0.00     0.058 A 
ENDROOT
TORSDOF 0
ENDMDL
