MODEL 1
REMARK minimizedAffinity 6.3080368
REMARK minimizedRMSD -1
REMARK  0 active torsions:
REMARK  status: ('A' for Active; 'I' for Inactive)
ROOT
ATOM      1  O1  BZF d   1      -0.710   0.891  -1.032  0.00  0.00    -0.204 OA
ATOM      2  C2  BZF d   1      -1.002   1.763  -2.063  0.00  0.00     0.174 A 
ATOM      3  C3  BZF d   1      -1.538   2.905  -1.585  0.00  0.00    -0.012 A 
ATOM      4  C3A BZF d   1      -1.498   2.773  -0.161  0.00  0.00    -0.107 A 
ATOM      5  C4  BZF d   1      -1.874   3.588   0.868  0.00  0.00     0.055 A 
ATOM      6  C5  BZF d   1      -1.770   3.132   2.144  0.00  0.00    -0.016 A 
ATOM      7  C6  BZF d   1      -1.299   1.866   2.426  0.00  0.00     0.022 A 
ATOM      8  C7  BZF d   1      -0.909   1.024   1.439  0.00  0.00     0.029 A 
ATOM      9  C7A BZF d   1      -0.982   1.494   0.150  0.00  0.00     0.058 A 
ENDROOT
TORSDOF 0
ENDMDL
