MODEL 1
REMARK minimizedAffinity -3.17174983
REMARK minimizedRMSD -1
REMARK  0 active torsions:
REMARK  status: ('A' for Active; 'I' for Inactive)
ROOT
ATOM      1  O1  BZF d   1      -5.251  -2.155   2.246  0.00  0.00    -0.204 OA
ATOM      2  C2  BZF d   1      -5.624  -1.032   1.533  0.00  0.00     0.174 A 
ATOM      3  C3  BZF d   1      -5.890  -0.004   2.364  0.00  0.00    -0.012 A 
ATOM      4  C3A BZF d   1      -5.580  -0.490   3.674  0.00  0.00    -0.107 A 
ATOM      5  C4  BZF d   1      -5.625   0.072   4.918  0.00  0.00     0.055 A 
ATOM      6  C5  BZF d   1      -5.327  -0.695   6.000  0.00  0.00    -0.016 A 
ATOM      7  C6  BZF d   1      -4.986  -2.026   5.875  0.00  0.00     0.022 A 
ATOM      8  C7  BZF d   1      -4.924  -2.626   4.661  0.00  0.00     0.029 A 
ATOM      9  C7A BZF d   1      -5.192  -1.845   3.563  0.00  0.00     0.058 A 
ENDROOT
TORSDOF 0
ENDMDL
