MODEL 1
REMARK minimizedAffinity 6.31681728
REMARK minimizedRMSD -1
REMARK  0 active torsions:
REMARK  status: ('A' for Active; 'I' for Inactive)
ROOT
ATOM      1  O1  BZF d   1       0.347  -0.170  -2.743  0.00  0.00    -0.204 OA
ATOM      2  C2  BZF d   1       0.652   0.611  -1.645  0.00  0.00     0.174 A 
ATOM      3  C3  BZF d   1      -0.472   1.042  -1.037  0.00  0.00    -0.012 A 
ATOM      4  C3A BZF d   1      -1.547   0.420  -1.749  0.00  0.00    -0.107 A 
ATOM      5  C4  BZF d   1      -2.905   0.446  -1.609  0.00  0.00     0.055 A 
ATOM      6  C5  BZF d   1      -3.675  -0.213  -2.514  0.00  0.00    -0.016 A 
ATOM      7  C6  BZF d   1      -3.121  -0.904  -3.573  0.00  0.00     0.022 A 
ATOM      8  C7  BZF d   1      -1.778  -0.962  -3.750  0.00  0.00     0.029 A 
ATOM      9  C7A BZF d   1      -0.997  -0.324  -2.818  0.00  0.00     0.058 A 
ENDROOT
TORSDOF 0
ENDMDL
