MODEL 1
REMARK minimizedAffinity 7.57350397
REMARK minimizedRMSD -1
REMARK  0 active torsions:
REMARK  status: ('A' for Active; 'I' for Inactive)
ROOT
ATOM      1  O1  BZF d   1       0.970   2.191   2.842  0.00  0.00    -0.204 OA
ATOM      2  C2  BZF d   1       0.854   3.318   2.052  0.00  0.00     0.174 A 
ATOM      3  C3  BZF d   1       0.676   2.979   0.759  0.00  0.00    -0.012 A 
ATOM      4  C3A BZF d   1       0.588   1.551   0.753  0.00  0.00    -0.107 A 
ATOM      5  C4  BZF d   1       0.396   0.626  -0.234  0.00  0.00     0.055 A 
ATOM      6  C5  BZF d   1       0.435  -0.695   0.082  0.00  0.00    -0.016 A 
ATOM      7  C6  BZF d   1       0.667  -1.126   1.372  0.00  0.00     0.022 A 
ATOM      8  C7  BZF d   1       0.858  -0.246   2.385  0.00  0.00     0.029 A 
ATOM      9  C7A BZF d   1       0.787   1.090   2.074  0.00  0.00     0.058 A 
ENDROOT
TORSDOF 0
ENDMDL
