MODEL 1
REMARK minimizedAffinity -1.49663138
REMARK minimizedRMSD -1
REMARK  0 active torsions:
REMARK  status: ('A' for Active; 'I' for Inactive)
ROOT
ATOM      1  O1  BZF d   1       0.818  -0.339  -0.430  0.00  0.00    -0.204 OA
ATOM      2  C2  BZF d   1       0.897  -1.192   0.655  0.00  0.00     0.174 A 
ATOM      3  C3  BZF d   1       0.912  -0.497   1.810  0.00  0.00    -0.012 A 
ATOM      4  C3A BZF d   1       0.745   0.872   1.428  0.00  0.00    -0.107 A 
ATOM      5  C4  BZF d   1       0.665   2.040   2.131  0.00  0.00     0.055 A 
ATOM      6  C5  BZF d   1       0.576   3.214   1.452  0.00  0.00    -0.016 A 
ATOM      7  C6  BZF d   1       0.570   3.258   0.073  0.00  0.00     0.022 A 
ATOM      8  C7  BZF d   1       0.643   2.125  -0.667  0.00  0.00     0.029 A 
ATOM      9  C7A BZF d   1       0.700   0.935   0.016  0.00  0.00     0.058 A 
ENDROOT
TORSDOF 0
ENDMDL
