MODEL 1
REMARK minimizedAffinity -1.72434139
REMARK minimizedRMSD -1
REMARK  0 active torsions:
REMARK  status: ('A' for Active; 'I' for Inactive)
ROOT
ATOM      1  C   UNL d   1      -0.254  -0.894   2.687  0.00  0.00     0.172 C 
ATOM      2  N   UNL d   1      -0.126  -0.622   1.274  0.00  0.00    -0.070 N 
ATOM      3  C1  UNL d   1      -1.072  -0.019   0.489  0.00  0.00    -0.004 A 
ATOM      4  C2  UNL d   1      -0.570   0.057  -0.793  0.00  0.00    -0.047 A 
ATOM      5  C3  UNL d   1       0.721  -0.522  -0.777  0.00  0.00    -0.047 A 
ATOM      6  C4  UNL d   1       0.971  -0.934   0.515  0.00  0.00    -0.004 A 
ENDROOT
TORSDOF 0
ENDMDL
