MODEL 1
REMARK minimizedAffinity -3.33045936
REMARK minimizedRMSD -1
REMARK  0 active torsions:
REMARK  status: ('A' for Active; 'I' for Inactive)
ROOT
ATOM      1  C   UNL d   1      -0.398   0.225  -1.079  0.00  0.00     0.172 C 
ATOM      2  N   UNL d   1      -0.064  -0.331   0.212  0.00  0.00    -0.070 N 
ATOM      3  C1  UNL d   1       1.097  -0.987   0.522  0.00  0.00    -0.004 A 
ATOM      4  C2  UNL d   1       1.031  -1.359   1.847  0.00  0.00    -0.047 A 
ATOM      5  C3  UNL d   1      -0.214  -0.912   2.350  0.00  0.00    -0.047 A 
ATOM      6  C4  UNL d   1      -0.872  -0.279   1.317  0.00  0.00    -0.004 A 
ENDROOT
TORSDOF 0
ENDMDL
