MODEL 1
REMARK minimizedAffinity -1.77379203
REMARK minimizedRMSD -1
REMARK  0 active torsions:
REMARK  status: ('A' for Active; 'I' for Inactive)
ROOT
ATOM      1  C   UNL d   1      -0.690   1.232   0.623  0.00  0.00     0.172 C 
ATOM      2  N   UNL d   1      -0.562   1.910  -0.646  0.00  0.00    -0.070 N 
ATOM      3  C1  UNL d   1      -0.349   1.306  -1.856  0.00  0.00    -0.004 A 
ATOM      4  C2  UNL d   1      -0.288   2.293  -2.816  0.00  0.00    -0.047 A 
ATOM      5  C3  UNL d   1      -0.470   3.534  -2.160  0.00  0.00    -0.047 A 
ATOM      6  C4  UNL d   1      -0.637   3.267  -0.817  0.00  0.00    -0.004 A 
ENDROOT
TORSDOF 0
ENDMDL
