MODEL 1
REMARK minimizedAffinity -1.52147651
REMARK minimizedRMSD -1
REMARK  0 active torsions:
REMARK  status: ('A' for Active; 'I' for Inactive)
ROOT
ATOM      1  C   UNL d   1       1.826  -2.511   1.853  0.00  0.00     0.172 C 
ATOM      2  N   UNL d   1       0.862  -1.537   1.398  0.00  0.00    -0.070 N 
ATOM      3  C1  UNL d   1      -0.135  -0.984   2.157  0.00  0.00    -0.004 A 
ATOM      4  C2  UNL d   1      -0.835  -0.105   1.360  0.00  0.00    -0.047 A 
ATOM      5  C3  UNL d   1      -0.239  -0.131   0.077  0.00  0.00    -0.047 A 
ATOM      6  C4  UNL d   1       0.808  -1.026   0.128  0.00  0.00    -0.004 A 
ENDROOT
TORSDOF 0
ENDMDL
