MODEL 1
REMARK minimizedAffinity -2.03471327
REMARK minimizedRMSD -1
REMARK  0 active torsions:
REMARK  status: ('A' for Active; 'I' for Inactive)
ROOT
ATOM      1  C   UNL d   1      -0.556   0.921  -0.951  0.00  0.00     0.172 C 
ATOM      2  N   UNL d   1      -0.413   0.107   0.234  0.00  0.00    -0.070 N 
ATOM      3  C1  UNL d   1      -1.008   0.347   1.444  0.00  0.00    -0.004 A 
ATOM      4  C2  UNL d   1      -0.623  -0.653   2.309  0.00  0.00    -0.047 A 
ATOM      5  C3  UNL d   1       0.234  -1.525   1.596  0.00  0.00    -0.047 A 
ATOM      6  C4  UNL d   1       0.347  -1.030   0.313  0.00  0.00    -0.004 A 
ENDROOT
TORSDOF 0
ENDMDL
