MODEL 1
REMARK minimizedAffinity -1.8712765
REMARK minimizedRMSD -1
REMARK  0 active torsions:
REMARK  status: ('A' for Active; 'I' for Inactive)
ROOT
ATOM      1  C   UNL d   1      -1.129   1.662  -1.886  0.00  0.00     0.172 C 
ATOM      2  N   UNL d   1      -0.847   0.719  -0.830  0.00  0.00    -0.070 N 
ATOM      3  C1  UNL d   1      -1.464   0.680   0.392  0.00  0.00    -0.004 A 
ATOM      4  C2  UNL d   1      -0.915  -0.360   1.110  0.00  0.00    -0.047 A 
ATOM      5  C3  UNL d   1       0.066  -0.968   0.291  0.00  0.00    -0.047 A 
ATOM      6  C4  UNL d   1       0.088  -0.280  -0.904  0.00  0.00    -0.004 A 
ENDROOT
TORSDOF 0
ENDMDL
