MODEL 1
REMARK minimizedAffinity -2.34128857
REMARK minimizedRMSD -1
REMARK  0 active torsions:
REMARK  status: ('A' for Active; 'I' for Inactive)
ROOT
ATOM      1  C   UNL d   1       2.119  -2.107  -0.059  0.00  0.00     0.172 C 
ATOM      2  N   UNL d   1       0.921  -1.383   0.299  0.00  0.00    -0.070 N 
ATOM      3  C1  UNL d   1      -0.035  -0.941  -0.575  0.00  0.00    -0.004 A 
ATOM      4  C2  UNL d   1      -1.012  -0.300   0.157  0.00  0.00    -0.047 A 
ATOM      5  C3  UNL d   1      -0.628  -0.359   1.518  0.00  0.00    -0.047 A 
ATOM      6  C4  UNL d   1       0.572  -1.035   1.577  0.00  0.00    -0.004 A 
ENDROOT
TORSDOF 0
ENDMDL
