MODEL 1
REMARK minimizedAffinity 6.57776737
REMARK minimizedRMSD -1
REMARK  1 active torsions:
REMARK  status: ('A' for Active; 'I' for Inactive)
REMARK    1  A    between atoms: N_2  and  C1_3 
ROOT
ATOM      1  C1  UNL d   1       1.542   0.425   3.522  0.00  0.00     0.143 A 
ATOM      2  C2  UNL d   1       2.242  -0.601   2.879  0.00  0.00    -0.057 A 
ATOM      3  C3  UNL d   1       1.570  -1.653   2.245  0.00  0.00     0.033 A 
ATOM      4  C4  UNL d   1       0.180  -1.712   2.268  0.00  0.00    -0.042 A 
ATOM      5  C5  UNL d   1      -0.536  -0.717   2.923  0.00  0.00     0.033 A 
ATOM      6  C6  UNL d   1       0.141   0.335   3.548  0.00  0.00    -0.057 A 
ENDROOT
BRANCH   1   7
ATOM      7  N   UNL d   1       2.154   1.445   4.254  0.00  0.00    -0.732 N 
ATOM      8  C   UNL d   1       2.228   2.790   3.725  0.00  0.00     0.284 C 
ATOM      9  H3  UNL d   1       1.930   1.400   5.245  0.00  0.00     0.395 HD
ENDBRANCH   1   7
TORSDOF 1
ENDMDL
