MODEL 1
REMARK minimizedAffinity -2.59891462
REMARK minimizedRMSD -1
REMARK  1 active torsions:
REMARK  status: ('A' for Active; 'I' for Inactive)
REMARK    1  A    between atoms: N_2  and  C1_3 
ROOT
ATOM      1  C1  UNL d   1      -0.196  -0.708   1.071  0.00  0.00     0.143 A 
ATOM      2  C2  UNL d   1      -0.063  -1.512   2.208  0.00  0.00    -0.057 A 
ATOM      3  C3  UNL d   1       1.066  -1.423   3.031  0.00  0.00     0.033 A 
ATOM      4  C4  UNL d   1       2.098  -0.546   2.715  0.00  0.00    -0.042 A 
ATOM      5  C5  UNL d   1       1.998   0.245   1.576  0.00  0.00     0.033 A 
ATOM      6  C6  UNL d   1       0.865   0.157   0.761  0.00  0.00    -0.057 A 
ENDROOT
BRANCH   1   7
ATOM      7  N   UNL d   1      -1.249  -0.819   0.159  0.00  0.00    -0.732 N 
ATOM      8  C   UNL d   1      -2.604  -1.030   0.619  0.00  0.00     0.284 C 
ATOM      9  H3  UNL d   1      -1.169  -0.156  -0.609  0.00  0.00     0.395 HD
ENDBRANCH   1   7
TORSDOF 1
ENDMDL
