MODEL 1
REMARK minimizedAffinity -1.1734333
REMARK minimizedRMSD -1
REMARK  1 active torsions:
REMARK  status: ('A' for Active; 'I' for Inactive)
REMARK    1  A    between atoms: N_2  and  C1_3 
ROOT
ATOM      1  C1  UNL d   1       0.188  -0.818  -0.437  0.00  0.00     0.143 A 
ATOM      2  C2  UNL d   1      -0.981  -0.482  -1.129  0.00  0.00    -0.057 A 
ATOM      3  C3  UNL d   1      -2.155  -0.140  -0.447  0.00  0.00     0.033 A 
ATOM      4  C4  UNL d   1      -2.189  -0.157   0.943  0.00  0.00    -0.042 A 
ATOM      5  C5  UNL d   1      -1.046  -0.512   1.651  0.00  0.00     0.033 A 
ATOM      6  C6  UNL d   1       0.125  -0.846   0.965  0.00  0.00    -0.057 A 
ENDROOT
BRANCH   1   7
ATOM      7  N   UNL d   1       1.359  -1.262  -1.058  0.00  0.00    -0.732 N 
ATOM      8  C   UNL d   1       2.541  -0.427  -1.084  0.00  0.00     0.284 C 
ATOM      9  H3  UNL d   1       1.547  -2.244  -0.874  0.00  0.00     0.395 HD
ENDBRANCH   1   7
TORSDOF 1
ENDMDL
