MODEL 1
REMARK minimizedAffinity -0.800801873
REMARK minimizedRMSD -1
REMARK  1 active torsions:
REMARK  status: ('A' for Active; 'I' for Inactive)
REMARK    1  A    between atoms: N_2  and  C1_3 
ROOT
ATOM      1  C1  UNL d   1       0.526  -3.848   2.104  0.00  0.00     0.143 A 
ATOM      2  C2  UNL d   1       0.575  -2.464   1.901  0.00  0.00    -0.057 A 
ATOM      3  C3  UNL d   1      -0.465  -1.630   2.328  0.00  0.00     0.033 A 
ATOM      4  C4  UNL d   1      -1.590  -2.170   2.943  0.00  0.00    -0.042 A 
ATOM      5  C5  UNL d   1      -1.671  -3.545   3.133  0.00  0.00     0.033 A 
ATOM      6  C6  UNL d   1      -0.627  -4.372   2.709  0.00  0.00    -0.057 A 
ENDROOT
BRANCH   1   7
ATOM      7  N   UNL d   1       1.482  -4.740   1.614  0.00  0.00    -0.732 N 
ATOM      8  C   UNL d   1       2.332  -4.373   0.501  0.00  0.00     0.284 C 
ATOM      9  H3  UNL d   1       1.964  -5.240   2.357  0.00  0.00     0.395 HD
ENDBRANCH   1   7
TORSDOF 1
ENDMDL
