MODEL 1
REMARK minimizedAffinity 0.894540071
REMARK minimizedRMSD -1
REMARK  1 active torsions:
REMARK  status: ('A' for Active; 'I' for Inactive)
REMARK    1  A    between atoms: N_2  and  C1_3 
ROOT
ATOM      1  C1  UNL d   1       2.261  -4.052   1.417  0.00  0.00     0.143 A 
ATOM      2  C2  UNL d   1       1.189  -4.882   1.760  0.00  0.00    -0.057 A 
ATOM      3  C3  UNL d   1      -0.033  -4.350   2.189  0.00  0.00     0.033 A 
ATOM      4  C4  UNL d   1      -0.195  -2.974   2.312  0.00  0.00    -0.042 A 
ATOM      5  C5  UNL d   1       0.866  -2.130   2.000  0.00  0.00     0.033 A 
ATOM      6  C6  UNL d   1       2.081  -2.668   1.566  0.00  0.00    -0.057 A 
ENDROOT
BRANCH   1   7
ATOM      7  N   UNL d   1       3.532  -4.523   1.078  0.00  0.00    -0.732 N 
ATOM      8  C   UNL d   1       3.695  -5.537   0.059  0.00  0.00     0.284 C 
ATOM      9  H3  UNL d   1       4.224  -3.778   1.037  0.00  0.00     0.395 HD
ENDBRANCH   1   7
TORSDOF 1
ENDMDL
