MODEL 1
REMARK minimizedAffinity 5.20062637
REMARK minimizedRMSD -1
REMARK  1 active torsions:
REMARK  status: ('A' for Active; 'I' for Inactive)
REMARK    1  A    between atoms: N_2  and  C1_3 
ROOT
ATOM      1  C1  UNL d   1      -0.392  -1.537   2.431  0.00  0.00     0.143 A 
ATOM      2  C2  UNL d   1      -1.225  -2.381   3.173  0.00  0.00    -0.057 A 
ATOM      3  C3  UNL d   1      -0.947  -3.747   3.302  0.00  0.00     0.033 A 
ATOM      4  C4  UNL d   1       0.158  -4.301   2.664  0.00  0.00    -0.042 A 
ATOM      5  C5  UNL d   1       0.986  -3.486   1.900  0.00  0.00     0.033 A 
ATOM      6  C6  UNL d   1       0.707  -2.121   1.781  0.00  0.00    -0.057 A 
ENDROOT
BRANCH   1   7
ATOM      7  N   UNL d   1      -0.669  -0.191   2.184  0.00  0.00    -0.732 N 
ATOM      8  C   UNL d   1      -1.376   0.209   0.986  0.00  0.00     0.284 C 
ATOM      9  H3  UNL d   1      -0.960   0.306   3.023  0.00  0.00     0.395 HD
ENDBRANCH   1   7
TORSDOF 1
ENDMDL
