MODEL 1
REMARK minimizedAffinity -2.85842633
REMARK minimizedRMSD -1
REMARK  1 active torsions:
REMARK  status: ('A' for Active; 'I' for Inactive)
REMARK    1  A    between atoms: N_2  and  C1_3 
ROOT
ATOM      1  C1  UNL d   1       1.406  -2.365   1.695  0.00  0.00     0.143 A 
ATOM      2  C2  UNL d   1       1.305  -1.738   0.448  0.00  0.00    -0.057 A 
ATOM      3  C3  UNL d   1       0.275  -0.830   0.173  0.00  0.00     0.033 A 
ATOM      4  C4  UNL d   1      -0.692  -0.554   1.134  0.00  0.00    -0.042 A 
ATOM      5  C5  UNL d   1      -0.626  -1.185   2.372  0.00  0.00     0.033 A 
ATOM      6  C6  UNL d   1       0.409  -2.085   2.643  0.00  0.00    -0.057 A 
ENDROOT
BRANCH   1   7
ATOM      7  N   UNL d   1       2.349  -3.350   1.996  0.00  0.00    -0.732 N 
ATOM      8  C   UNL d   1       2.665  -4.386   1.035  0.00  0.00     0.284 C 
ATOM      9  H3  UNL d   1       3.159  -2.977   2.486  0.00  0.00     0.395 HD
ENDBRANCH   1   7
TORSDOF 1
ENDMDL
