MODEL 1
REMARK minimizedAffinity -0.464299679
REMARK minimizedRMSD -1
REMARK  1 active torsions:
REMARK  status: ('A' for Active; 'I' for Inactive)
REMARK    1  A    between atoms: N_2  and  C1_3 
ROOT
ATOM      1  C1  UNL d   1      -0.040  -0.749   0.502  0.00  0.00     0.143 A 
ATOM      2  C2  UNL d   1       0.911   0.275   0.438  0.00  0.00    -0.057 A 
ATOM      3  C3  UNL d   1       1.762   0.544   1.517  0.00  0.00     0.033 A 
ATOM      4  C4  UNL d   1       1.658  -0.191   2.693  0.00  0.00    -0.042 A 
ATOM      5  C5  UNL d   1       0.704  -1.197   2.788  0.00  0.00     0.033 A 
ATOM      6  C6  UNL d   1      -0.139  -1.465   1.706  0.00  0.00    -0.057 A 
ENDROOT
BRANCH   1   7
ATOM      7  N   UNL d   1      -0.981  -1.000  -0.499  0.00  0.00    -0.732 N 
ATOM      8  C   UNL d   1      -2.222  -1.678  -0.190  0.00  0.00     0.284 C 
ATOM      9  H3  UNL d   1      -1.084  -0.218  -1.141  0.00  0.00     0.395 HD
ENDBRANCH   1   7
TORSDOF 1
ENDMDL
