MODEL 1
REMARK minimizedAffinity 14.1569805
REMARK minimizedRMSD -1
REMARK  0 active torsions:
REMARK  status: ('A' for Active; 'I' for Inactive)
ROOT
ATOM      1  C   UNL d   1      -4.009  -0.641  -0.734  0.00  0.00    -0.002 A 
ATOM      2  C1  UNL d   1      -4.252  -1.594  -1.712  0.00  0.00     0.010 A 
ATOM      3  C2  UNL d   1      -3.394  -2.685  -1.869  0.00  0.00     0.041 A 
ATOM      4  C3  UNL d   1      -2.278  -2.803  -1.017  0.00  0.00    -0.075 A 
ATOM      5  S   UNL d   1      -1.092  -4.054  -1.024  0.00  0.00     0.015 SA
ATOM      6  C4  UNL d   1      -0.236  -3.352   0.271  0.00  0.00     0.022 A 
ATOM      7  C5  UNL d   1      -0.826  -2.191   0.711  0.00  0.00     0.026 A 
ATOM      8  C6  UNL d   1      -2.013  -1.855  -0.024  0.00  0.00    -0.082 A 
ATOM      9  C7  UNL d   1      -2.901  -0.761   0.110  0.00  0.00     0.045 A 
ENDROOT
TORSDOF 0
ENDMDL
