MODEL 1
REMARK minimizedAffinity 16.9021854
REMARK minimizedRMSD -1
REMARK  0 active torsions:
REMARK  status: ('A' for Active; 'I' for Inactive)
ROOT
ATOM      1  C   UNL d   1      -1.631  -6.000  -1.137  0.00  0.00    -0.002 A 
ATOM      2  C1  UNL d   1      -2.966  -5.665  -0.953  0.00  0.00     0.010 A 
ATOM      3  C2  UNL d   1      -3.322  -4.405  -0.467  0.00  0.00     0.041 A 
ATOM      4  C3  UNL d   1      -2.304  -3.478  -0.168  0.00  0.00    -0.075 A 
ATOM      5  S   UNL d   1      -2.503  -1.876   0.437  0.00  0.00     0.015 SA
ATOM      6  C4  UNL d   1      -0.822  -1.597   0.465  0.00  0.00     0.022 A 
ATOM      7  C5  UNL d   1      -0.111  -2.689   0.027  0.00  0.00     0.026 A 
ATOM      8  C6  UNL d   1      -0.954  -3.791  -0.346  0.00  0.00    -0.082 A 
ATOM      9  C7  UNL d   1      -0.625  -5.077  -0.839  0.00  0.00     0.045 A 
ENDROOT
TORSDOF 0
ENDMDL
