MODEL 1
REMARK minimizedAffinity 16.6830215
REMARK minimizedRMSD -1
REMARK  0 active torsions:
REMARK  status: ('A' for Active; 'I' for Inactive)
ROOT
ATOM      1  C   UNL d   1      -5.557   1.594  -1.337  0.00  0.00    -0.002 A 
ATOM      2  C1  UNL d   1      -5.017   2.712  -0.716  0.00  0.00     0.010 A 
ATOM      3  C2  UNL d   1      -4.011   2.576   0.242  0.00  0.00     0.041 A 
ATOM      4  C3  UNL d   1      -3.550   1.285   0.568  0.00  0.00    -0.075 A 
ATOM      5  S   UNL d   1      -2.325   0.876   1.710  0.00  0.00     0.015 SA
ATOM      6  C4  UNL d   1      -2.489  -0.792   1.400  0.00  0.00     0.022 A 
ATOM      7  C5  UNL d   1      -3.450  -1.048   0.451  0.00  0.00     0.026 A 
ATOM      8  C6  UNL d   1      -4.077   0.144  -0.045  0.00  0.00    -0.082 A 
ATOM      9  C7  UNL d   1      -5.097   0.315  -1.012  0.00  0.00     0.045 A 
ENDROOT
TORSDOF 0
ENDMDL
