MODEL 1
REMARK minimizedAffinity 12.1952553
REMARK minimizedRMSD -1
REMARK  0 active torsions:
REMARK  status: ('A' for Active; 'I' for Inactive)
ROOT
ATOM      1  C   UNL d   1      -2.744  -0.345   1.497  0.00  0.00    -0.002 A 
ATOM      2  C1  UNL d   1      -1.905  -0.878   2.464  0.00  0.00     0.010 A 
ATOM      3  C2  UNL d   1      -2.379  -1.828   3.371  0.00  0.00     0.041 A 
ATOM      4  C3  UNL d   1      -3.724  -2.238   3.287  0.00  0.00    -0.075 A 
ATOM      5  S   UNL d   1      -4.525  -3.389   4.290  0.00  0.00     0.015 SA
ATOM      6  C4  UNL d   1      -6.000  -3.201   3.457  0.00  0.00     0.022 A 
ATOM      7  C5  UNL d   1      -5.902  -2.285   2.436  0.00  0.00     0.026 A 
ATOM      8  C6  UNL d   1      -4.589  -1.716   2.321  0.00  0.00    -0.082 A 
ATOM      9  C7  UNL d   1      -4.078  -0.754   1.416  0.00  0.00     0.045 A 
ENDROOT
TORSDOF 0
ENDMDL
