MODEL 1
REMARK minimizedAffinity 8.25619125
REMARK minimizedRMSD -1
REMARK  0 active torsions:
REMARK  status: ('A' for Active; 'I' for Inactive)
ROOT
ATOM      1  C   UNL d   1       5.580   1.992   3.347  0.00  0.00    -0.002 A 
ATOM      2  C1  UNL d   1       4.632   2.580   2.521  0.00  0.00     0.010 A 
ATOM      3  C2  UNL d   1       4.081   3.821   2.844  0.00  0.00     0.041 A 
ATOM      4  C3  UNL d   1       4.505   4.470   4.021  0.00  0.00    -0.075 A 
ATOM      5  S   UNL d   1       3.969   5.996   4.617  0.00  0.00     0.015 SA
ATOM      6  C4  UNL d   1       4.987   5.905   5.980  0.00  0.00     0.022 A 
ATOM      7  C5  UNL d   1       5.725   4.745   5.997  0.00  0.00     0.026 A 
ATOM      8  C6  UNL d   1       5.459   3.899   4.867  0.00  0.00    -0.082 A 
ATOM      9  C7  UNL d   1       5.998   2.639   4.513  0.00  0.00     0.045 A 
ENDROOT
TORSDOF 0
ENDMDL
