MODEL 1
REMARK minimizedAffinity 16.4532681
REMARK minimizedRMSD -1
REMARK  0 active torsions:
REMARK  status: ('A' for Active; 'I' for Inactive)
ROOT
ATOM      1  C   UNL d   1       5.853   4.814   3.873  0.00  0.00    -0.002 A 
ATOM      2  C1  UNL d   1       6.000   3.461   4.144  0.00  0.00     0.010 A 
ATOM      3  C2  UNL d   1       5.128   2.526   3.583  0.00  0.00     0.041 A 
ATOM      4  C3  UNL d   1       4.098   2.977   2.735  0.00  0.00    -0.075 A 
ATOM      5  S   UNL d   1       2.913   2.014   1.935  0.00  0.00     0.015 SA
ATOM      6  C4  UNL d   1       2.185   3.375   1.214  0.00  0.00     0.022 A 
ATOM      7  C5  UNL d   1       2.817   4.545   1.564  0.00  0.00     0.026 A 
ATOM      8  C6  UNL d   1       3.930   4.335   2.446  0.00  0.00    -0.082 A 
ATOM      9  C7  UNL d   1       4.830   5.258   3.031  0.00  0.00     0.045 A 
ENDROOT
TORSDOF 0
ENDMDL
