MODEL 1
REMARK minimizedAffinity 2.82918954
REMARK minimizedRMSD -1
REMARK  0 active torsions:
REMARK  status: ('A' for Active; 'I' for Inactive)
ROOT
ATOM      1  C   UNL d   1       0.606  -3.357   0.971  0.00  0.00    -0.002 A 
ATOM      2  C1  UNL d   1       0.598  -4.708   1.289  0.00  0.00     0.010 A 
ATOM      3  C2  UNL d   1      -0.296  -5.579   0.664  0.00  0.00     0.041 A 
ATOM      4  C3  UNL d   1      -1.188  -5.066  -0.298  0.00  0.00    -0.075 A 
ATOM      5  S   UNL d   1      -2.370  -5.945  -1.193  0.00  0.00     0.015 SA
ATOM      6  C4  UNL d   1      -2.892  -4.549  -2.020  0.00  0.00     0.022 A 
ATOM      7  C5  UNL d   1      -2.192  -3.430  -1.634  0.00  0.00     0.026 A 
ATOM      8  C6  UNL d   1      -1.198  -3.709  -0.636  0.00  0.00    -0.082 A 
ATOM      9  C7  UNL d   1      -0.281  -2.851   0.017  0.00  0.00     0.045 A 
ENDROOT
TORSDOF 0
ENDMDL
