MODEL 1
REMARK minimizedAffinity 6.90628386
REMARK minimizedRMSD -1
REMARK  0 active torsions:
REMARK  status: ('A' for Active; 'I' for Inactive)
ROOT
ATOM      1  C   UNL d   1      -1.951  -4.145  -1.135  0.00  0.00    -0.002 A 
ATOM      2  C1  UNL d   1      -2.660  -3.066  -0.627  0.00  0.00     0.010 A 
ATOM      3  C2  UNL d   1      -1.994  -2.001  -0.017  0.00  0.00     0.041 A 
ATOM      4  C3  UNL d   1      -0.588  -2.038   0.072  0.00  0.00    -0.075 A 
ATOM      5  S   UNL d   1       0.441  -0.847   0.775  0.00  0.00     0.015 SA
ATOM      6  C4  UNL d   1       1.846  -1.741   0.416  0.00  0.00     0.022 A 
ATOM      7  C5  UNL d   1       1.556  -2.923  -0.224  0.00  0.00     0.026 A 
ATOM      8  C6  UNL d   1       0.148  -3.113  -0.433  0.00  0.00    -0.082 A 
ATOM      9  C7  UNL d   1      -0.556  -4.178  -1.045  0.00  0.00     0.045 A 
ENDROOT
TORSDOF 0
ENDMDL
