MODEL 1
REMARK minimizedAffinity 10.7095928
REMARK minimizedRMSD -1
REMARK  0 active torsions:
REMARK  status: ('A' for Active; 'I' for Inactive)
ROOT
ATOM      1  C   UNL d   1      -2.769  -1.775  -0.001  0.00  0.00    -0.002 A 
ATOM      2  C1  UNL d   1      -3.592  -2.371  -0.946  0.00  0.00     0.010 A 
ATOM      3  C2  UNL d   1      -3.221  -3.572  -1.554  0.00  0.00     0.041 A 
ATOM      4  C3  UNL d   1      -1.998  -4.171  -1.191  0.00  0.00    -0.075 A 
ATOM      5  S   UNL d   1      -1.339  -5.642  -1.803  0.00  0.00     0.015 SA
ATOM      6  C4  UNL d   1       0.050  -5.514  -0.823  0.00  0.00     0.022 A 
ATOM      7  C5  UNL d   1       0.028  -4.382  -0.043  0.00  0.00     0.026 A 
ATOM      8  C6  UNL d   1      -1.153  -3.590  -0.241  0.00  0.00    -0.082 A 
ATOM      9  C7  UNL d   1      -1.557  -2.372   0.357  0.00  0.00     0.045 A 
ENDROOT
TORSDOF 0
ENDMDL
