MODEL 1
REMARK minimizedAffinity 11.7454109
REMARK minimizedRMSD -1
REMARK  1 active torsions:
REMARK  status: ('A' for Active; 'I' for Inactive)
REMARK    1  A    between atoms: C1_2  and  C2_3 
ROOT
ATOM      1  C2  UNL d   1       3.548   0.672  -0.556  0.00  0.00    -0.081 A 
ATOM      2  C3  UNL d   1       2.494  -0.084  -1.083  0.00  0.00     0.006 A 
ATOM      3  C4  UNL d   1       1.973  -1.166  -0.369  0.00  0.00     0.002 A 
ATOM      4  C5  UNL d   1       2.491  -1.505   0.885  0.00  0.00    -0.080 A 
ATOM      5  C6  UNL d   1       1.921  -2.645   1.675  0.00  0.00     0.076 C 
ATOM      6  C7  UNL d   1       3.555  -0.760   1.404  0.00  0.00     0.002 A 
ATOM      7  C8  UNL d   1       4.077   0.322   0.691  0.00  0.00     0.006 A 
ENDROOT
BRANCH   1   8
ATOM      8  C1  UNL d   1       4.069   1.879  -1.293  0.00  0.00     0.054 C 
ATOM      9  C   UNL d   1       5.575   2.022  -1.128  0.00  0.00     0.018 C 
ENDBRANCH   1   8
TORSDOF 1
ENDMDL
