MODEL 1
REMARK minimizedAffinity 11.7652044
REMARK minimizedRMSD -1
REMARK  1 active torsions:
REMARK  status: ('A' for Active; 'I' for Inactive)
REMARK    1  A    between atoms: C1_2  and  C2_3 
ROOT
ATOM      1  C2  UNL d   1       3.799   2.264   0.603  0.00  0.00    -0.081 A 
ATOM      2  C3  UNL d   1       4.831   3.203   0.720  0.00  0.00     0.006 A 
ATOM      3  C4  UNL d   1       5.030   3.891   1.919  0.00  0.00     0.002 A 
ATOM      4  C5  UNL d   1       4.206   3.646   3.023  0.00  0.00    -0.080 A 
ATOM      5  C6  UNL d   1       4.428   4.356   4.326  0.00  0.00     0.076 C 
ATOM      6  C7  UNL d   1       3.164   2.720   2.902  0.00  0.00     0.002 A 
ATOM      7  C8  UNL d   1       2.965   2.033   1.702  0.00  0.00     0.006 A 
ENDROOT
BRANCH   1   8
ATOM      8  C1  UNL d   1       3.623   1.473  -0.668  0.00  0.00     0.054 C 
ATOM      9  C   UNL d   1       2.923   0.148  -0.403  0.00  0.00     0.018 C 
ENDBRANCH   1   8
TORSDOF 1
ENDMDL
