MODEL 1
REMARK minimizedAffinity 15.4702005
REMARK minimizedRMSD -1
REMARK  1 active torsions:
REMARK  status: ('A' for Active; 'I' for Inactive)
REMARK    1  A    between atoms: C1_2  and  C2_3 
ROOT
ATOM      1  C2  UNL d   1      -5.993   5.228   3.504  0.00  0.00    -0.081 A 
ATOM      2  C3  UNL d   1      -5.965   3.829   3.450  0.00  0.00     0.006 A 
ATOM      3  C4  UNL d   1      -5.903   3.168   2.220  0.00  0.00     0.002 A 
ATOM      4  C5  UNL d   1      -5.860   3.895   1.026  0.00  0.00    -0.080 A 
ATOM      5  C6  UNL d   1      -5.763   3.199  -0.299  0.00  0.00     0.076 C 
ATOM      6  C7  UNL d   1      -5.906   5.292   1.078  0.00  0.00     0.002 A 
ATOM      7  C8  UNL d   1      -5.969   5.953   2.307  0.00  0.00     0.006 A 
ENDROOT
BRANCH   1   8
ATOM      8  C1  UNL d   1      -5.995   5.944   4.830  0.00  0.00     0.054 C 
ATOM      9  C   UNL d   1      -5.995   4.959   5.990  0.00  0.00     0.018 C 
ENDBRANCH   1   8
TORSDOF 1
ENDMDL
