MODEL 1
REMARK minimizedAffinity 16.5309849
REMARK minimizedRMSD -1
REMARK  1 active torsions:
REMARK  status: ('A' for Active; 'I' for Inactive)
REMARK    1  A    between atoms: C1_2  and  C2_3 
ROOT
ATOM      1  C2  UNL d   1      -3.939   1.070   0.074  0.00  0.00    -0.081 A 
ATOM      2  C3  UNL d   1      -3.217   0.650  -1.050  0.00  0.00     0.006 A 
ATOM      3  C4  UNL d   1      -3.880   0.315  -2.233  0.00  0.00     0.002 A 
ATOM      4  C5  UNL d   1      -5.274   0.401  -2.314  0.00  0.00    -0.080 A 
ATOM      5  C6  UNL d   1      -5.996   0.073  -3.588  0.00  0.00     0.076 C 
ATOM      6  C7  UNL d   1      -5.997   0.804  -1.186  0.00  0.00     0.002 A 
ATOM      7  C8  UNL d   1      -5.335   1.138  -0.003  0.00  0.00     0.006 A 
ENDROOT
BRANCH   1   8
ATOM      8  C1  UNL d   1      -3.223   1.494   1.330  0.00  0.00     0.054 C 
ATOM      9  C   UNL d   1      -3.750   2.826   1.845  0.00  0.00     0.018 C 
ENDBRANCH   1   8
TORSDOF 1
ENDMDL
