MODEL 1
REMARK minimizedAffinity 0.675358117
REMARK minimizedRMSD -1
REMARK  1 active torsions:
REMARK  status: ('A' for Active; 'I' for Inactive)
REMARK    1  A    between atoms: C1_2  and  C2_3 
ROOT
ATOM      1  C2  UNL d   1       3.222   1.017  -0.749  0.00  0.00    -0.081 A 
ATOM      2  C3  UNL d   1       3.808   0.735   0.491  0.00  0.00     0.006 A 
ATOM      3  C4  UNL d   1       3.492  -0.442   1.173  0.00  0.00     0.002 A 
ATOM      4  C5  UNL d   1       2.591  -1.361   0.623  0.00  0.00    -0.080 A 
ATOM      5  C6  UNL d   1       2.266  -2.643   1.330  0.00  0.00     0.076 C 
ATOM      6  C7  UNL d   1       1.992  -1.071  -0.607  0.00  0.00     0.002 A 
ATOM      7  C8  UNL d   1       2.307   0.106  -1.289  0.00  0.00     0.006 A 
ENDROOT
BRANCH   1   8
ATOM      8  C1  UNL d   1       3.610   2.255  -1.516  0.00  0.00     0.054 C 
ATOM      9  C   UNL d   1       5.102   2.276  -1.815  0.00  0.00     0.018 C 
ENDBRANCH   1   8
TORSDOF 1
ENDMDL
