MODEL 1
REMARK minimizedAffinity -5.10491657
REMARK minimizedRMSD -1
REMARK  0 active torsions:
REMARK  status: ('A' for Active; 'I' for Inactive)
ROOT
ATOM      1  C1  DEN d   1      -0.457   0.209  -0.814  0.00  0.00     0.130 A 
ATOM      2  C2  DEN d   1       0.931   0.662  -0.757  0.00  0.00    -0.031 A 
ATOM      3  C3  DEN d   1       1.309   0.799   0.663  0.00  0.00     0.027 A 
ATOM      4  C4  DEN d   1      -0.110   0.353   2.771  0.00  0.00     0.027 A 
ATOM      5  C5  DEN d   1      -1.350  -0.036   3.227  0.00  0.00    -0.003 A 
ATOM      6  C6  DEN d   1      -2.381  -0.334   2.377  0.00  0.00     0.001 A 
ATOM      7  C7  DEN d   1      -2.177  -0.293   1.023  0.00  0.00     0.017 A 
ATOM      8  C8  DEN d   1      -0.932   0.105   0.554  0.00  0.00    -0.094 A 
ATOM      9  C9  DEN d   1       0.102   0.391   1.431  0.00  0.00    -0.072 A 
ENDROOT
TORSDOF 0
ENDMDL
