MODEL 1
REMARK minimizedAffinity -5.72853327
REMARK minimizedRMSD -1
REMARK  0 active torsions:
REMARK  status: ('A' for Active; 'I' for Inactive)
ROOT
ATOM      1  C1  DEN d   1       1.203   0.258   0.341  0.00  0.00     0.130 A 
ATOM      2  C2  DEN d   1       0.717   0.470  -1.020  0.00  0.00    -0.031 A 
ATOM      3  C3  DEN d   1      -0.759   0.426  -0.989  0.00  0.00     0.027 A 
ATOM      4  C4  DEN d   1      -2.331   0.057   1.022  0.00  0.00     0.027 A 
ATOM      5  C5  DEN d   1      -2.382  -0.180   2.378  0.00  0.00    -0.003 A 
ATOM      6  C6  DEN d   1      -1.251  -0.320   3.138  0.00  0.00     0.001 A 
ATOM      7  C7  DEN d   1      -0.019  -0.179   2.555  0.00  0.00     0.017 A 
ATOM      8  C8  DEN d   1       0.040   0.052   1.187  0.00  0.00    -0.094 A 
ATOM      9  C9  DEN d   1      -1.114   0.203   0.438  0.00  0.00    -0.072 A 
ENDROOT
TORSDOF 0
ENDMDL
