MODEL 1
REMARK minimizedAffinity -1.21587253
REMARK minimizedRMSD -1
REMARK  0 active torsions:
REMARK  status: ('A' for Active; 'I' for Inactive)
ROOT
ATOM      1  C1  DEN d   1      -0.900  -0.124  -0.647  0.00  0.00     0.130 A 
ATOM      2  C2  DEN d   1       0.065   0.123   0.420  0.00  0.00    -0.031 A 
ATOM      3  C3  DEN d   1       1.419  -0.091  -0.129  0.00  0.00     0.027 A 
ATOM      4  C4  DEN d   1       2.111  -0.774  -2.518  0.00  0.00     0.027 A 
ATOM      5  C5  DEN d   1       1.643  -1.107  -3.770  0.00  0.00    -0.003 A 
ATOM      6  C6  DEN d   1       0.305  -1.168  -4.058  0.00  0.00     0.001 A 
ATOM      7  C7  DEN d   1      -0.612  -0.849  -3.092  0.00  0.00     0.017 A 
ATOM      8  C8  DEN d   1      -0.148  -0.519  -1.825  0.00  0.00    -0.094 A 
ATOM      9  C9  DEN d   1       1.208  -0.451  -1.558  0.00  0.00    -0.072 A 
ENDROOT
TORSDOF 0
ENDMDL
