MODEL 1
REMARK minimizedAffinity -3.47822499
REMARK minimizedRMSD -1
REMARK  0 active torsions:
REMARK  status: ('A' for Active; 'I' for Inactive)
ROOT
ATOM      1  C1  DEN d   1      -0.823  -0.215  -0.209  0.00  0.00     0.130 A 
ATOM      2  C2  DEN d   1       0.133   0.465   0.661  0.00  0.00    -0.031 A 
ATOM      3  C3  DEN d   1       1.420   0.555  -0.058  0.00  0.00     0.027 A 
ATOM      4  C4  DEN d   1       2.020  -0.283  -2.422  0.00  0.00     0.027 A 
ATOM      5  C5  DEN d   1       1.541  -0.933  -3.538  0.00  0.00    -0.003 A 
ATOM      6  C6  DEN d   1       0.261  -1.416  -3.608  0.00  0.00     0.001 A 
ATOM      7  C7  DEN d   1      -0.599  -1.215  -2.561  0.00  0.00     0.017 A 
ATOM      8  C8  DEN d   1      -0.121  -0.567  -1.429  0.00  0.00    -0.094 A 
ATOM      9  C9  DEN d   1       1.173  -0.076  -1.382  0.00  0.00    -0.072 A 
ENDROOT
TORSDOF 0
ENDMDL
