MODEL 1
REMARK minimizedAffinity -4.8128686
REMARK minimizedRMSD -1
REMARK  0 active torsions:
REMARK  status: ('A' for Active; 'I' for Inactive)
ROOT
ATOM      1  C1  DEN d   1      -2.602   1.053   0.064  0.00  0.00     0.130 A 
ATOM      2  C2  DEN d   1      -3.260   1.064   1.368  0.00  0.00    -0.031 A 
ATOM      3  C3  DEN d   1      -2.217   0.958   2.407  0.00  0.00     0.027 A 
ATOM      4  C4  DEN d   1       0.341   0.785   2.125  0.00  0.00     0.027 A 
ATOM      5  C5  DEN d   1       1.368   0.726   1.210  0.00  0.00    -0.003 A 
ATOM      6  C6  DEN d   1       1.144   0.737  -0.141  0.00  0.00     0.001 A 
ATOM      7  C7  DEN d   1      -0.136   0.855  -0.616  0.00  0.00     0.017 A 
ATOM      8  C8  DEN d   1      -1.178   0.908   0.302  0.00  0.00    -0.094 A 
ATOM      9  C9  DEN d   1      -0.929   0.907   1.664  0.00  0.00    -0.072 A 
ENDROOT
TORSDOF 0
ENDMDL
