MODEL 1
REMARK minimizedAffinity -2.56147981
REMARK minimizedRMSD -1
REMARK  0 active torsions:
REMARK  status: ('A' for Active; 'I' for Inactive)
ROOT
ATOM      1  C1  DEN d   1      -2.920   0.497   0.145  0.00  0.00     0.130 A 
ATOM      2  C2  DEN d   1      -3.444   0.610   1.503  0.00  0.00    -0.031 A 
ATOM      3  C3  DEN d   1      -2.297   0.635   2.434  0.00  0.00     0.027 A 
ATOM      4  C4  DEN d   1       0.224   0.515   1.905  0.00  0.00     0.027 A 
ATOM      5  C5  DEN d   1       1.156   0.401   0.897  0.00  0.00    -0.003 A 
ATOM      6  C6  DEN d   1       0.796   0.278  -0.419  0.00  0.00     0.001 A 
ATOM      7  C7  DEN d   1      -0.529   0.311  -0.766  0.00  0.00     0.017 A 
ATOM      8  C8  DEN d   1      -1.474   0.418   0.245  0.00  0.00    -0.094 A 
ATOM      9  C9  DEN d   1      -1.090   0.554   1.569  0.00  0.00    -0.072 A 
ENDROOT
TORSDOF 0
ENDMDL
