MODEL 1
REMARK minimizedAffinity -0.0432076603
REMARK minimizedRMSD -1
REMARK  0 active torsions:
REMARK  status: ('A' for Active; 'I' for Inactive)
ROOT
ATOM      1  C1  DEN d   1       0.739   0.648   0.756  0.00  0.00     0.130 A 
ATOM      2  C2  DEN d   1       0.403   0.138  -0.571  0.00  0.00    -0.031 A 
ATOM      3  C3  DEN d   1      -1.062  -0.039  -0.635  0.00  0.00     0.027 A 
ATOM      4  C4  DEN d   1      -2.833   0.427   1.181  0.00  0.00     0.027 A 
ATOM      5  C5  DEN d   1      -3.028   0.857   2.475  0.00  0.00    -0.003 A 
ATOM      6  C6  DEN d   1      -1.987   1.212   3.291  0.00  0.00     0.001 A 
ATOM      7  C7  DEN d   1      -0.706   1.187   2.807  0.00  0.00     0.017 A 
ATOM      8  C8  DEN d   1      -0.501   0.748   1.505  0.00  0.00    -0.094 A 
ATOM      9  C9  DEN d   1      -1.567   0.404   0.692  0.00  0.00    -0.072 A 
ENDROOT
TORSDOF 0
ENDMDL
