MODEL 1
REMARK minimizedAffinity -0.15631479
REMARK minimizedRMSD -1
REMARK  0 active torsions:
REMARK  status: ('A' for Active; 'I' for Inactive)
ROOT
ATOM      1  C1  DEN d   1       1.522   0.493  -0.150  0.00  0.00     0.130 A 
ATOM      2  C2  DEN d   1       0.300   0.256   0.615  0.00  0.00    -0.031 A 
ATOM      3  C3  DEN d   1      -0.633  -0.505  -0.240  0.00  0.00     0.027 A 
ATOM      4  C4  DEN d   1      -0.304  -1.340  -2.659  0.00  0.00     0.027 A 
ATOM      5  C5  DEN d   1       0.564  -1.370  -3.727  0.00  0.00    -0.003 A 
ATOM      6  C6  DEN d   1       1.789  -0.758  -3.691  0.00  0.00     0.001 A 
ATOM      7  C7  DEN d   1       2.198  -0.127  -2.546  0.00  0.00     0.017 A 
ATOM      8  C8  DEN d   1       1.325  -0.085  -1.467  0.00  0.00    -0.094 A 
ATOM      9  C9  DEN d   1       0.096  -0.721  -1.519  0.00  0.00    -0.072 A 
ENDROOT
TORSDOF 0
ENDMDL
