MODEL 1
REMARK minimizedAffinity -0.799053729
REMARK minimizedRMSD -1
REMARK  0 active torsions:
REMARK  status: ('A' for Active; 'I' for Inactive)
ROOT
ATOM      1  C1  DEN d   1      -1.044  -0.336  -0.799  0.00  0.00     0.130 A 
ATOM      2  C2  DEN d   1      -0.325   0.476   0.180  0.00  0.00    -0.031 A 
ATOM      3  C3  DEN d   1       1.047   0.688  -0.324  0.00  0.00     0.027 A 
ATOM      4  C4  DEN d   1       2.120  -0.152  -2.513  0.00  0.00     0.027 A 
ATOM      5  C5  DEN d   1       1.907  -0.888  -3.658  0.00  0.00    -0.003 A 
ATOM      6  C6  DEN d   1       0.716  -1.515  -3.911  0.00  0.00     0.001 A 
ATOM      7  C7  DEN d   1      -0.324  -1.380  -3.029  0.00  0.00     0.017 A 
ATOM      8  C8  DEN d   1      -0.114  -0.645  -1.869  0.00  0.00    -0.094 A 
ATOM      9  C9  DEN d   1       1.094  -0.009  -1.637  0.00  0.00    -0.072 A 
ENDROOT
TORSDOF 0
ENDMDL
