MODEL 1
REMARK minimizedAffinity -2.02001643
REMARK minimizedRMSD -1
REMARK  0 active torsions:
REMARK  status: ('A' for Active; 'I' for Inactive)
ROOT
ATOM      1  C1  DEN d   1       0.599   0.015  -0.277  0.00  0.00     0.130 A 
ATOM      2  C2  DEN d   1       1.694  -0.201   0.664  0.00  0.00    -0.031 A 
ATOM      3  C3  DEN d   1       1.153  -0.071   2.032  0.00  0.00     0.027 A 
ATOM      4  C4  DEN d   1      -1.263   0.437   2.780  0.00  0.00     0.027 A 
ATOM      5  C5  DEN d   1      -2.540   0.709   2.341  0.00  0.00    -0.003 A 
ATOM      6  C6  DEN d   1      -2.851   0.802   1.010  0.00  0.00     0.001 A 
ATOM      7  C7  DEN d   1      -1.881   0.576   0.069  0.00  0.00     0.017 A 
ATOM      8  C8  DEN d   1      -0.589   0.309   0.504  0.00  0.00    -0.094 A 
ATOM      9  C9  DEN d   1      -0.298   0.207   1.854  0.00  0.00    -0.072 A 
ENDROOT
TORSDOF 0
ENDMDL
