MODEL 1
REMARK minimizedAffinity -3.805861
REMARK minimizedRMSD -1
REMARK  0 active torsions:
REMARK  status: ('A' for Active; 'I' for Inactive)
ROOT
ATOM      1  C1  DEN d   1       1.171  -0.126  -0.594  0.00  0.00     0.130 A 
ATOM      2  C2  DEN d   1       0.246   0.148  -1.690  0.00  0.00    -0.031 A 
ATOM      3  C3  DEN d   1      -1.076   0.453  -1.107  0.00  0.00     0.027 A 
ATOM      4  C4  DEN d   1      -1.775   0.534   1.374  0.00  0.00     0.027 A 
ATOM      5  C5  DEN d   1      -1.339   0.363   2.670  0.00  0.00    -0.003 A 
ATOM      6  C6  DEN d   1      -0.055  -0.013   2.964  0.00  0.00     0.001 A 
ATOM      7  C7  DEN d   1       0.851  -0.186   1.951  0.00  0.00     0.017 A 
ATOM      8  C8  DEN d   1       0.417  -0.023   0.642  0.00  0.00    -0.094 A 
ATOM      9  C9  DEN d   1      -0.882   0.369   0.366  0.00  0.00    -0.072 A 
ENDROOT
TORSDOF 0
ENDMDL
