MODEL 1
REMARK minimizedAffinity -3.62516403
REMARK minimizedRMSD -1
REMARK  0 active torsions:
REMARK  status: ('A' for Active; 'I' for Inactive)
ROOT
ATOM      1  C   UNL d   1      -2.783  -1.507   3.282  0.00  0.00     0.020 A 
ATOM      2  C1  UNL d   1      -2.482  -0.627   4.322  0.00  0.00     0.020 A 
ATOM      3  C2  UNL d   1      -1.839   0.582   4.049  0.00  0.00     0.034 A 
ATOM      4  C3  UNL d   1      -1.494   0.915   2.734  0.00  0.00     0.017 A 
ATOM      5  C4  UNL d   1      -1.797   0.031   1.691  0.00  0.00     0.017 A 
ATOM      6  C5  UNL d   1      -2.441  -1.178   1.970  0.00  0.00     0.034 A 
ATOM      7 Cl   UNL d   1      -1.403   0.373   0.043  0.00  0.00    -0.070 Cl
ATOM      8 Cl1  UNL d   1      -0.700   2.426   2.470  0.00  0.00    -0.070 Cl
ENDROOT
TORSDOF 0
ENDMDL
