MODEL 1
REMARK minimizedAffinity 1.42859674
REMARK minimizedRMSD -1
REMARK  0 active torsions:
REMARK  status: ('A' for Active; 'I' for Inactive)
ROOT
ATOM      1  C   UNL d   1       0.796   1.211   0.582  0.00  0.00     0.020 A 
ATOM      2  C1  UNL d   1       1.422   2.005  -0.377  0.00  0.00     0.020 A 
ATOM      3  C2  UNL d   1       1.528   1.556  -1.695  0.00  0.00     0.034 A 
ATOM      4  C3  UNL d   1       1.006   0.309  -2.058  0.00  0.00     0.017 A 
ATOM      5  C4  UNL d   1       0.377  -0.488  -1.095  0.00  0.00     0.017 A 
ATOM      6  C5  UNL d   1       0.274  -0.033   0.224  0.00  0.00     0.034 A 
ATOM      7 Cl   UNL d   1      -0.291  -2.038  -1.466  0.00  0.00    -0.070 Cl
ATOM      8 Cl1  UNL d   1       1.172  -0.183  -3.706  0.00  0.00    -0.070 Cl
ENDROOT
TORSDOF 0
ENDMDL
