MODEL 1
REMARK minimizedAffinity -1.4609462
REMARK minimizedRMSD -1
REMARK  0 active torsions:
REMARK  status: ('A' for Active; 'I' for Inactive)
ROOT
ATOM      1  C   UNL d   1      -1.027  -0.113  -0.716  0.00  0.00     0.020 A 
ATOM      2  C1  UNL d   1      -1.388   1.233  -0.765  0.00  0.00     0.020 A 
ATOM      3  C2  UNL d   1      -0.409   2.223  -0.650  0.00  0.00     0.034 A 
ATOM      4  C3  UNL d   1       0.935   1.868  -0.485  0.00  0.00     0.017 A 
ATOM      5  C4  UNL d   1       1.295   0.517  -0.436  0.00  0.00     0.017 A 
ATOM      6  C5  UNL d   1       0.312  -0.470  -0.552  0.00  0.00     0.034 A 
ATOM      7 Cl   UNL d   1       2.933   0.001  -0.234  0.00  0.00    -0.070 Cl
ATOM      8 Cl1  UNL d   1       2.092   3.144  -0.350  0.00  0.00    -0.070 Cl
ENDROOT
TORSDOF 0
ENDMDL
