MODEL 1
REMARK minimizedAffinity -0.27007848
REMARK minimizedRMSD -1
REMARK  0 active torsions:
REMARK  status: ('A' for Active; 'I' for Inactive)
ROOT
ATOM      1  C   UNL d   1      -1.706   0.316   0.138  0.00  0.00     0.020 A 
ATOM      2  C1  UNL d   1      -1.121  -0.945   0.251  0.00  0.00     0.020 A 
ATOM      3  C2  UNL d   1       0.092  -1.211  -0.390  0.00  0.00     0.034 A 
ATOM      4  C3  UNL d   1       0.722  -0.216  -1.145  0.00  0.00     0.017 A 
ATOM      5  C4  UNL d   1       0.133   1.049  -1.258  0.00  0.00     0.017 A 
ATOM      6  C5  UNL d   1      -1.080   1.310  -0.614  0.00  0.00     0.034 A 
ATOM      7 Cl   UNL d   1       0.852   2.328  -2.172  0.00  0.00    -0.070 Cl
ATOM      8 Cl1  UNL d   1       2.219  -0.615  -1.910  0.00  0.00    -0.070 Cl
ENDROOT
TORSDOF 0
ENDMDL
