MODEL 1
REMARK minimizedAffinity 2.38845563
REMARK minimizedRMSD -1
REMARK  0 active torsions:
REMARK  status: ('A' for Active; 'I' for Inactive)
ROOT
ATOM      1  C   UNL d   1       5.621   0.555   5.617  0.00  0.00     0.020 A 
ATOM      2  C1  UNL d   1       4.874   0.341   4.459  0.00  0.00     0.020 A 
ATOM      3  C2  UNL d   1       4.462   1.427   3.684  0.00  0.00     0.034 A 
ATOM      4  C3  UNL d   1       4.796   2.732   4.065  0.00  0.00     0.017 A 
ATOM      5  C4  UNL d   1       5.546   2.945   5.227  0.00  0.00     0.017 A 
ATOM      6  C5  UNL d   1       5.956   1.855   6.000  0.00  0.00     0.034 A 
ATOM      7 Cl   UNL d   1       5.996   4.526   5.761  0.00  0.00    -0.070 Cl
ATOM      8 Cl1  UNL d   1       4.253   4.027   3.058  0.00  0.00    -0.070 Cl
ENDROOT
TORSDOF 0
ENDMDL
