MODEL 1
REMARK minimizedAffinity -3.30270147
REMARK minimizedRMSD -1
REMARK  0 active torsions:
REMARK  status: ('A' for Active; 'I' for Inactive)
ROOT
ATOM      1  C   UNL d   1       2.053  -1.147  -1.758  0.00  0.00     0.020 A 
ATOM      2  C1  UNL d   1       1.273  -1.765  -0.781  0.00  0.00     0.020 A 
ATOM      3  C2  UNL d   1       0.174  -1.095  -0.239  0.00  0.00     0.034 A 
ATOM      4  C3  UNL d   1      -0.148   0.196  -0.673  0.00  0.00     0.017 A 
ATOM      5  C4  UNL d   1       0.635   0.815  -1.654  0.00  0.00     0.017 A 
ATOM      6  C5  UNL d   1       1.735   0.140  -2.193  0.00  0.00     0.034 A 
ATOM      7 Cl   UNL d   1       0.300   2.406  -2.240  0.00  0.00    -0.070 Cl
ATOM      8 Cl1  UNL d   1      -1.522   0.964   0.041  0.00  0.00    -0.070 Cl
ENDROOT
TORSDOF 0
ENDMDL
