MODEL 1
REMARK minimizedAffinity -3.65385413
REMARK minimizedRMSD -1
REMARK  0 active torsions:
REMARK  status: ('A' for Active; 'I' for Inactive)
ROOT
ATOM      1  C   UNL d   1       1.667  -2.112  -0.366  0.00  0.00     0.020 A 
ATOM      2  C1  UNL d   1       2.798  -1.435  -0.821  0.00  0.00     0.020 A 
ATOM      3  C2  UNL d   1       2.714  -0.082  -1.157  0.00  0.00     0.034 A 
ATOM      4  C3  UNL d   1       1.497   0.598  -1.039  0.00  0.00     0.017 A 
ATOM      5  C4  UNL d   1       0.362  -0.082  -0.582  0.00  0.00     0.017 A 
ATOM      6  C5  UNL d   1       0.452  -1.437  -0.247  0.00  0.00     0.034 A 
ATOM      7 Cl   UNL d   1      -1.175   0.690  -0.410  0.00  0.00    -0.070 Cl
ATOM      8 Cl1  UNL d   1       1.466   2.270  -1.472  0.00  0.00    -0.070 Cl
ENDROOT
TORSDOF 0
ENDMDL
