MODEL 1
REMARK minimizedAffinity -5.43549538
REMARK minimizedRMSD -1
REMARK  0 active torsions:
REMARK  status: ('A' for Active; 'I' for Inactive)
ROOT
ATOM      1  C   UNL d   1       2.129  -1.126  -0.984  0.00  0.00     0.020 A 
ATOM      2  C1  UNL d   1       3.082  -0.406  -1.705  0.00  0.00     0.020 A 
ATOM      3  C2  UNL d   1       2.775   0.867  -2.191  0.00  0.00     0.034 A 
ATOM      4  C3  UNL d   1       1.512   1.424  -1.957  0.00  0.00     0.017 A 
ATOM      5  C4  UNL d   1       0.557   0.701  -1.234  0.00  0.00     0.017 A 
ATOM      6  C5  UNL d   1       0.869  -0.573  -0.750  0.00  0.00     0.034 A 
ATOM      7 Cl   UNL d   1      -1.022   1.322  -0.905  0.00  0.00    -0.070 Cl
ATOM      8 Cl1  UNL d   1       1.202   3.002  -2.587  0.00  0.00    -0.070 Cl
ENDROOT
TORSDOF 0
ENDMDL
