MODEL 1
REMARK minimizedAffinity -4.35678768
REMARK minimizedRMSD -1
REMARK  0 active torsions:
REMARK  status: ('A' for Active; 'I' for Inactive)
ROOT
ATOM      1  C   UNL d   1       3.153  -0.871  -1.503  0.00  0.00     0.020 A 
ATOM      2  C1  UNL d   1       2.996   0.388  -0.924  0.00  0.00     0.020 A 
ATOM      3  C2  UNL d   1       1.764   0.758  -0.382  0.00  0.00     0.034 A 
ATOM      4  C3  UNL d   1       0.683  -0.132  -0.417  0.00  0.00     0.017 A 
ATOM      5  C4  UNL d   1       0.842  -1.395  -0.998  0.00  0.00     0.017 A 
ATOM      6  C5  UNL d   1       2.079  -1.760  -1.540  0.00  0.00     0.034 A 
ATOM      7 Cl   UNL d   1      -0.444  -2.546  -1.079  0.00  0.00    -0.070 Cl
ATOM      8 Cl1  UNL d   1      -0.812   0.392   0.273  0.00  0.00    -0.070 Cl
ENDROOT
TORSDOF 0
ENDMDL
