MODEL 1
REMARK minimizedAffinity -3.90749216
REMARK minimizedRMSD -1
REMARK  0 active torsions:
REMARK  status: ('A' for Active; 'I' for Inactive)
ROOT
ATOM      1  C   UNL d   1       2.981  -1.213  -1.191  0.00  0.00     0.020 A 
ATOM      2  C1  UNL d   1       2.104  -1.962  -0.407  0.00  0.00     0.020 A 
ATOM      3  C2  UNL d   1       0.821  -1.480  -0.140  0.00  0.00     0.034 A 
ATOM      4  C3  UNL d   1       0.412  -0.245  -0.657  0.00  0.00     0.017 A 
ATOM      5  C4  UNL d   1       1.293   0.505  -1.444  0.00  0.00     0.017 A 
ATOM      6  C5  UNL d   1       2.576   0.018  -1.708  0.00  0.00     0.034 A 
ATOM      7 Cl   UNL d   1       0.859   2.037  -2.117  0.00  0.00    -0.070 Cl
ATOM      8 Cl1  UNL d   1      -1.189   0.289  -0.287  0.00  0.00    -0.070 Cl
ENDROOT
TORSDOF 0
ENDMDL
