MODEL 1
REMARK minimizedAffinity -3.80497408
REMARK minimizedRMSD -1
REMARK  0 active torsions:
REMARK  status: ('A' for Active; 'I' for Inactive)
ROOT
ATOM      1  C   UNL d   1      -2.366   2.079   2.616  0.00  0.00     0.020 A 
ATOM      2  C1  UNL d   1      -1.354   2.250   1.672  0.00  0.00     0.020 A 
ATOM      3  C2  UNL d   1      -0.841   1.145   0.990  0.00  0.00     0.034 A 
ATOM      4  C3  UNL d   1      -1.339  -0.137   1.251  0.00  0.00     0.017 A 
ATOM      5  C4  UNL d   1      -2.355  -0.308   2.198  0.00  0.00     0.017 A 
ATOM      6  C5  UNL d   1      -2.865   0.803   2.878  0.00  0.00     0.034 A 
ATOM      7 Cl   UNL d   1      -3.021  -1.858   2.574  0.00  0.00    -0.070 Cl
ATOM      8 Cl1  UNL d   1      -0.659  -1.458   0.370  0.00  0.00    -0.070 Cl
ENDROOT
TORSDOF 0
ENDMDL
