MODEL 1
REMARK minimizedAffinity 5.96724987
REMARK minimizedRMSD -1
REMARK  0 active torsions:
REMARK  status: ('A' for Active; 'I' for Inactive)
ROOT
ATOM      1  C   UNL d   1      -1.040   2.530   3.141  0.00  0.00     0.020 A 
ATOM      2  C1  UNL d   1      -1.089   2.135   4.477  0.00  0.00     0.020 A 
ATOM      3  C2  UNL d   1      -1.458   0.829   4.806  0.00  0.00     0.034 A 
ATOM      4  C3  UNL d   1      -1.780  -0.087   3.798  0.00  0.00     0.017 A 
ATOM      5  C4  UNL d   1      -1.730   0.311   2.457  0.00  0.00     0.017 A 
ATOM      6  C5  UNL d   1      -1.360   1.620   2.133  0.00  0.00     0.034 A 
ATOM      7 Cl   UNL d   1      -2.113  -0.762   1.157  0.00  0.00    -0.070 Cl
ATOM      8 Cl1  UNL d   1      -2.228  -1.685   4.277  0.00  0.00    -0.070 Cl
ENDROOT
TORSDOF 0
ENDMDL
