MODEL 1
REMARK minimizedAffinity -0.58844161
REMARK minimizedRMSD -1
REMARK  0 active torsions:
REMARK  status: ('A' for Active; 'I' for Inactive)
ROOT
ATOM      1  C   UNL d   1      -2.898  -0.759   4.403  0.00  0.00     0.020 A 
ATOM      2  C1  UNL d   1      -2.606  -1.731   3.447  0.00  0.00     0.020 A 
ATOM      3  C2  UNL d   1      -1.987  -1.368   2.249  0.00  0.00     0.034 A 
ATOM      4  C3  UNL d   1      -1.659  -0.030   2.004  0.00  0.00     0.017 A 
ATOM      5  C4  UNL d   1      -1.953   0.946   2.964  0.00  0.00     0.017 A 
ATOM      6  C5  UNL d   1      -2.573   0.577   4.162  0.00  0.00     0.034 A 
ATOM      7 Cl   UNL d   1      -1.578   2.617   2.732  0.00  0.00    -0.070 Cl
ATOM      8 Cl1  UNL d   1      -0.894   0.348   0.501  0.00  0.00    -0.070 Cl
ENDROOT
TORSDOF 0
ENDMDL
