MODEL 1
REMARK minimizedAffinity -4.95172453
REMARK minimizedRMSD -1
REMARK  0 active torsions:
REMARK  status: ('A' for Active; 'I' for Inactive)
ROOT
ATOM      1  C   UNL d   1      -3.944  -1.733   3.794  0.00  0.00     0.020 A 
ATOM      2  C1  UNL d   1      -4.396  -0.495   4.250  0.00  0.00     0.020 A 
ATOM      3  C2  UNL d   1      -3.862   0.681   3.720  0.00  0.00     0.034 A 
ATOM      4  C3  UNL d   1      -2.874   0.623   2.731  0.00  0.00     0.017 A 
ATOM      5  C4  UNL d   1      -2.421  -0.620   2.274  0.00  0.00     0.017 A 
ATOM      6  C5  UNL d   1      -2.958  -1.795   2.808  0.00  0.00     0.034 A 
ATOM      7 Cl   UNL d   1      -1.204  -0.772   1.056  0.00  0.00    -0.070 Cl
ATOM      8 Cl1  UNL d   1      -2.259   2.118   2.120  0.00  0.00    -0.070 Cl
ENDROOT
TORSDOF 0
ENDMDL
