MODEL 1
REMARK minimizedAffinity -5.30773067
REMARK minimizedRMSD -1
REMARK  0 active torsions:
REMARK  status: ('A' for Active; 'I' for Inactive)
ROOT
ATOM      1  C   UNL d   1       3.090   1.608  -2.608  0.00  0.00     0.020 A 
ATOM      2  C1  UNL d   1       3.831   0.464  -2.315  0.00  0.00     0.020 A 
ATOM      3  C2  UNL d   1       3.248  -0.580  -1.593  0.00  0.00     0.034 A 
ATOM      4  C3  UNL d   1       1.920  -0.481  -1.162  0.00  0.00     0.017 A 
ATOM      5  C4  UNL d   1       1.177   0.668  -1.457  0.00  0.00     0.017 A 
ATOM      6  C5  UNL d   1       1.766   1.710  -2.180  0.00  0.00     0.034 A 
ATOM      7 Cl   UNL d   1      -0.467   0.862  -0.958  0.00  0.00    -0.070 Cl
ATOM      8 Cl1  UNL d   1       1.263  -1.810  -0.274  0.00  0.00    -0.070 Cl
ENDROOT
TORSDOF 0
ENDMDL
