MODEL 1
REMARK minimizedAffinity 0.117984042
REMARK minimizedRMSD -1
REMARK  0 active torsions:
REMARK  status: ('A' for Active; 'I' for Inactive)
ROOT
ATOM      1  C   UNL d   1       0.115  -1.414  -0.183  0.00  0.00     0.020 A 
ATOM      2  C1  UNL d   1       1.063  -2.021  -1.006  0.00  0.00     0.020 A 
ATOM      3  C2  UNL d   1       1.513  -1.365  -2.153  0.00  0.00     0.034 A 
ATOM      4  C3  UNL d   1       1.015  -0.099  -2.482  0.00  0.00     0.017 A 
ATOM      5  C4  UNL d   1       0.064   0.510  -1.655  0.00  0.00     0.017 A 
ATOM      6  C5  UNL d   1      -0.384  -0.151  -0.507  0.00  0.00     0.034 A 
ATOM      7 Cl   UNL d   1      -0.597   2.070  -1.995  0.00  0.00    -0.070 Cl
ATOM      8 Cl1  UNL d   1       1.617   0.654  -3.916  0.00  0.00    -0.070 Cl
ENDROOT
TORSDOF 0
ENDMDL
