MODEL 1
REMARK minimizedAffinity -4.16105318
REMARK minimizedRMSD -1
REMARK  0 active torsions:
REMARK  status: ('A' for Active; 'I' for Inactive)
ROOT
ATOM      1  C   UNL d   1      -1.537   2.280   2.260  0.00  0.00     0.020 A 
ATOM      2  C1  UNL d   1      -2.123   1.921   3.473  0.00  0.00     0.020 A 
ATOM      3  C2  UNL d   1      -2.512   0.599   3.696  0.00  0.00     0.034 A 
ATOM      4  C3  UNL d   1      -2.315  -0.370   2.705  0.00  0.00     0.017 A 
ATOM      5  C4  UNL d   1      -1.726  -0.009   1.488  0.00  0.00     0.017 A 
ATOM      6  C5  UNL d   1      -1.339   1.317   1.270  0.00  0.00     0.034 A 
ATOM      7 Cl   UNL d   1      -1.451  -1.148   0.218  0.00  0.00    -0.070 Cl
ATOM      8 Cl1  UNL d   1      -2.820  -1.986   3.050  0.00  0.00    -0.070 Cl
ENDROOT
TORSDOF 0
ENDMDL
