MODEL 1
REMARK minimizedAffinity -1.81764472
REMARK minimizedRMSD -1
REMARK  0 active torsions:
REMARK  status: ('A' for Active; 'I' for Inactive)
ROOT
ATOM      1  C1  BNZ d   1       2.718   0.031  -3.283  0.00  0.00     0.000 A 
ATOM      2  C2  BNZ d   1       1.489   0.564  -2.999  0.00  0.00     0.000 A 
ATOM      3  C3  BNZ d   1       0.364  -0.211  -3.044  0.00  0.00     0.000 A 
ATOM      4  C4  BNZ d   1       0.463  -1.504  -3.411  0.00  0.00     0.000 A 
ATOM      5  C5  BNZ d   1       1.694  -2.054  -3.710  0.00  0.00     0.000 A 
ATOM      6  C6  BNZ d   1       2.830  -1.281  -3.626  0.00  0.00     0.000 A 
ENDROOT
TORSDOF 0
ENDMDL
