MODEL 1
REMARK minimizedAffinity -1.94620407
REMARK minimizedRMSD -1
REMARK  0 active torsions:
REMARK  status: ('A' for Active; 'I' for Inactive)
ROOT
ATOM      1  C1  BNZ d   1       0.295   0.328  -1.852  0.00  0.00     0.000 A 
ATOM      2  C2  BNZ d   1       1.517   0.068  -2.412  0.00  0.00     0.000 A 
ATOM      3  C3  BNZ d   1       1.670  -0.939  -3.323  0.00  0.00     0.000 A 
ATOM      4  C4  BNZ d   1       0.610  -1.710  -3.643  0.00  0.00     0.000 A 
ATOM      5  C5  BNZ d   1      -0.626  -1.466  -3.080  0.00  0.00     0.000 A 
ATOM      6  C6  BNZ d   1      -0.785  -0.427  -2.193  0.00  0.00     0.000 A 
ENDROOT
TORSDOF 0
ENDMDL
