MODEL 1
REMARK minimizedAffinity -2.36563134
REMARK minimizedRMSD -1
REMARK  0 active torsions:
REMARK  status: ('A' for Active; 'I' for Inactive)
ROOT
ATOM      1  C1  BNZ d   1       0.742   0.302   1.293  0.00  0.00     0.000 A 
ATOM      2  C2  BNZ d   1       0.285   0.534   2.563  0.00  0.00     0.000 A 
ATOM      3  C3  BNZ d   1      -1.054   0.646   2.816  0.00  0.00     0.000 A 
ATOM      4  C4  BNZ d   1      -1.930   0.565   1.794  0.00  0.00     0.000 A 
ATOM      5  C5  BNZ d   1      -1.485   0.340   0.507  0.00  0.00     0.000 A 
ATOM      6  C6  BNZ d   1      -0.139   0.190   0.262  0.00  0.00     0.000 A 
ENDROOT
TORSDOF 0
ENDMDL
