MODEL 1
REMARK minimizedAffinity -3.54840207
REMARK minimizedRMSD -1
REMARK  0 active torsions:
REMARK  status: ('A' for Active; 'I' for Inactive)
ROOT
ATOM      1  C1  BNZ d   1       0.744   0.193   0.127  0.00  0.00     0.000 A 
ATOM      2  C2  BNZ d   1       0.555   0.524  -1.189  0.00  0.00     0.000 A 
ATOM      3  C3  BNZ d   1      -0.682   0.874  -1.652  0.00  0.00     0.000 A 
ATOM      4  C4  BNZ d   1      -1.735   0.855  -0.810  0.00  0.00     0.000 A 
ATOM      5  C5  BNZ d   1      -1.563   0.515   0.517  0.00  0.00     0.000 A 
ATOM      6  C6  BNZ d   1      -0.309   0.200   0.989  0.00  0.00     0.000 A 
ENDROOT
TORSDOF 0
ENDMDL
