MODEL 1
REMARK minimizedAffinity -2.1645124
REMARK minimizedRMSD -1
REMARK  0 active torsions:
REMARK  status: ('A' for Active; 'I' for Inactive)
ROOT
ATOM      1  C1  BNZ d   1       1.004   1.429  -0.945  0.00  0.00     0.000 A 
ATOM      2  C2  BNZ d   1       1.873   1.522   0.109  0.00  0.00     0.000 A 
ATOM      3  C3  BNZ d   1       1.696   0.762   1.232  0.00  0.00     0.000 A 
ATOM      4  C4  BNZ d   1       0.629  -0.058   1.315  0.00  0.00     0.000 A 
ATOM      5  C5  BNZ d   1      -0.262  -0.156   0.265  0.00  0.00     0.000 A 
ATOM      6  C6  BNZ d   1      -0.059   0.581  -0.879  0.00  0.00     0.000 A 
ENDROOT
TORSDOF 0
ENDMDL
