MODEL 1
REMARK minimizedAffinity -1.58065069
REMARK minimizedRMSD -1
REMARK  0 active torsions:
REMARK  status: ('A' for Active; 'I' for Inactive)
ROOT
ATOM      1  C1  BNZ d   1      -0.757   0.467  -1.392  0.00  0.00     0.000 A 
ATOM      2  C2  BNZ d   1      -0.937   0.680  -0.051  0.00  0.00     0.000 A 
ATOM      3  C3  BNZ d   1       0.082   0.465   0.835  0.00  0.00     0.000 A 
ATOM      4  C4  BNZ d   1       1.265   0.001   0.384  0.00  0.00     0.000 A 
ATOM      5  C5  BNZ d   1       1.459  -0.227  -0.964  0.00  0.00     0.000 A 
ATOM      6  C6  BNZ d   1       0.444   0.027  -1.857  0.00  0.00     0.000 A 
ENDROOT
TORSDOF 0
ENDMDL
