MODEL 1
REMARK minimizedAffinity -0.927944124
REMARK minimizedRMSD -1
REMARK  0 active torsions:
REMARK  status: ('A' for Active; 'I' for Inactive)
ROOT
ATOM      1  C1  BNZ d   1       0.040  -0.956  -2.900  0.00  0.00     0.000 A 
ATOM      2  C2  BNZ d   1       0.966   0.033  -2.696  0.00  0.00     0.000 A 
ATOM      3  C3  BNZ d   1       2.260  -0.125  -3.107  0.00  0.00     0.000 A 
ATOM      4  C4  BNZ d   1       2.636  -1.284  -3.684  0.00  0.00     0.000 A 
ATOM      5  C5  BNZ d   1       1.717  -2.294  -3.888  0.00  0.00     0.000 A 
ATOM      6  C6  BNZ d   1       0.406  -2.117  -3.508  0.00  0.00     0.000 A 
ENDROOT
TORSDOF 0
ENDMDL
