MODEL 1
REMARK minimizedAffinity -3.35665822
REMARK minimizedRMSD -1
REMARK  0 active torsions:
REMARK  status: ('A' for Active; 'I' for Inactive)
ROOT
ATOM      1  C1  BNZ d   1       0.868   0.218   1.029  0.00  0.00     0.000 A 
ATOM      2  C2  BNZ d   1       0.091   0.246  -0.097  0.00  0.00     0.000 A 
ATOM      3  C3  BNZ d   1      -1.247   0.514  -0.018  0.00  0.00     0.000 A 
ATOM      4  C4  BNZ d   1      -1.813   0.714   1.190  0.00  0.00     0.000 A 
ATOM      5  C5  BNZ d   1      -1.044   0.680   2.336  0.00  0.00     0.000 A 
ATOM      6  C6  BNZ d   1       0.310   0.449   2.249  0.00  0.00     0.000 A 
ENDROOT
TORSDOF 0
ENDMDL
