MODEL 1
REMARK minimizedAffinity -2.20486093
REMARK minimizedRMSD -1
REMARK  0 active torsions:
REMARK  status: ('A' for Active; 'I' for Inactive)
ROOT
ATOM      1  C1  BNZ d   1      -0.793   2.510   3.427  0.00  0.00     0.000 A 
ATOM      2  C2  BNZ d   1      -1.652   1.487   3.125  0.00  0.00     0.000 A 
ATOM      3  C3  BNZ d   1      -1.178   0.283   2.684  0.00  0.00     0.000 A 
ATOM      4  C4  BNZ d   1       0.148   0.116   2.508  0.00  0.00     0.000 A 
ATOM      5  C5  BNZ d   1       1.027   1.141   2.799  0.00  0.00     0.000 A 
ATOM      6  C6  BNZ d   1       0.549   2.339   3.280  0.00  0.00     0.000 A 
ENDROOT
TORSDOF 0
ENDMDL
