MODEL 1
REMARK minimizedAffinity -3.3449223
REMARK minimizedRMSD -1
REMARK  0 active torsions:
REMARK  status: ('A' for Active; 'I' for Inactive)
ROOT
ATOM      1  C1  BNZ d   1       0.812   0.395   1.031  0.00  0.00     0.000 A 
ATOM      2  C2  BNZ d   1       0.344   0.458  -0.255  0.00  0.00     0.000 A 
ATOM      3  C3  BNZ d   1      -0.990   0.614  -0.507  0.00  0.00     0.000 A 
ATOM      4  C4  BNZ d   1      -1.858   0.665   0.524  0.00  0.00     0.000 A 
ATOM      5  C5  BNZ d   1      -1.403   0.594   1.826  0.00  0.00     0.000 A 
ATOM      6  C6  BNZ d   1      -0.055   0.477   2.076  0.00  0.00     0.000 A 
ENDROOT
TORSDOF 0
ENDMDL
