MODEL 1
REMARK minimizedAffinity -2.66097093
REMARK minimizedRMSD -1
REMARK  0 active torsions:
REMARK  status: ('A' for Active; 'I' for Inactive)
ROOT
ATOM      1  C1  BNZ d   1       0.467   0.096   0.550  0.00  0.00     0.000 A 
ATOM      2  C2  BNZ d   1       1.265  -0.130   1.640  0.00  0.00     0.000 A 
ATOM      3  C3  BNZ d   1       0.750  -0.087   2.905  0.00  0.00     0.000 A 
ATOM      4  C4  BNZ d   1      -0.551   0.221   3.082  0.00  0.00     0.000 A 
ATOM      5  C5  BNZ d   1      -1.366   0.460   1.994  0.00  0.00     0.000 A 
ATOM      6  C6  BNZ d   1      -0.854   0.377   0.720  0.00  0.00     0.000 A 
ENDROOT
TORSDOF 0
ENDMDL
