MODEL 1
REMARK minimizedAffinity -1.59877145
REMARK minimizedRMSD -1
REMARK  0 active torsions:
REMARK  status: ('A' for Active; 'I' for Inactive)
ROOT
ATOM      1  C1  BNZ d   1       1.376   0.181  -2.346  0.00  0.00     0.000 A 
ATOM      2  C2  BNZ d   1       1.714  -0.436  -3.521  0.00  0.00     0.000 A 
ATOM      3  C3  BNZ d   1       1.420  -1.754  -3.729  0.00  0.00     0.000 A 
ATOM      4  C4  BNZ d   1       0.826  -2.464  -2.748  0.00  0.00     0.000 A 
ATOM      5  C5  BNZ d   1       0.487  -1.859  -1.554  0.00  0.00     0.000 A 
ATOM      6  C6  BNZ d   1       0.749  -0.521  -1.363  0.00  0.00     0.000 A 
ENDROOT
TORSDOF 0
ENDMDL
