MODEL 1
REMARK minimizedAffinity -2.85504055
REMARK minimizedRMSD -1
REMARK  0 active torsions:
REMARK  status: ('A' for Active; 'I' for Inactive)
ROOT
ATOM      1  C1  BNZ d   1      -1.396   0.463  -0.164  0.00  0.00     0.000 A 
ATOM      2  C2  BNZ d   1      -0.034   0.323  -0.194  0.00  0.00     0.000 A 
ATOM      3  C3  BNZ d   1       0.694   0.300   0.963  0.00  0.00     0.000 A 
ATOM      4  C4  BNZ d   1       0.064   0.457   2.145  0.00  0.00     0.000 A 
ATOM      5  C5  BNZ d   1      -1.308   0.608   2.192  0.00  0.00     0.000 A 
ATOM      6  C6  BNZ d   1      -2.041   0.591   1.028  0.00  0.00     0.000 A 
ENDROOT
TORSDOF 0
ENDMDL
