MODEL 1
REMARK minimizedAffinity -2.18814373
REMARK minimizedRMSD -1
REMARK  0 active torsions:
REMARK  status: ('A' for Active; 'I' for Inactive)
ROOT
ATOM      1  C1  BNZ d   1       1.299  -0.060   0.434  0.00  0.00     0.000 A 
ATOM      2  C2  BNZ d   1       1.402  -0.181  -0.926  0.00  0.00     0.000 A 
ATOM      3  C3  BNZ d   1       0.288  -0.143  -1.718  0.00  0.00     0.000 A 
ATOM      4  C4  BNZ d   1      -0.928  -0.024  -1.147  0.00  0.00     0.000 A 
ATOM      5  C5  BNZ d   1      -1.048   0.091   0.224  0.00  0.00     0.000 A 
ATOM      6  C6  BNZ d   1       0.078   0.091   1.015  0.00  0.00     0.000 A 
ENDROOT
TORSDOF 0
ENDMDL
