MODEL 1
REMARK minimizedAffinity -3.38246441
REMARK minimizedRMSD -1
REMARK  0 active torsions:
REMARK  status: ('A' for Active; 'I' for Inactive)
ROOT
ATOM      1  C1  BNZ d   1       0.377   0.335   1.943  0.00  0.00     0.000 A 
ATOM      2  C2  BNZ d   1       1.298   0.403   0.932  0.00  0.00     0.000 A 
ATOM      3  C3  BNZ d   1       0.900   0.542  -0.369  0.00  0.00     0.000 A 
ATOM      4  C4  BNZ d   1      -0.416   0.572  -0.660  0.00  0.00     0.000 A 
ATOM      5  C5  BNZ d   1      -1.357   0.495   0.348  0.00  0.00     0.000 A 
ATOM      6  C6  BNZ d   1      -0.952   0.394   1.659  0.00  0.00     0.000 A 
ENDROOT
TORSDOF 0
ENDMDL
