MODEL 1
REMARK minimizedAffinity -2.54114652
REMARK minimizedRMSD -1
REMARK  0 active torsions:
REMARK  status: ('A' for Active; 'I' for Inactive)
ROOT
ATOM      1  C1  BNZ d   1       0.565   0.736  -1.329  0.00  0.00     0.000 A 
ATOM      2  C2  BNZ d   1       0.866   1.017  -0.023  0.00  0.00     0.000 A 
ATOM      3  C3  BNZ d   1       0.857   0.032   0.925  0.00  0.00     0.000 A 
ATOM      4  C4  BNZ d   1       0.508  -1.222   0.574  0.00  0.00     0.000 A 
ATOM      5  C5  BNZ d   1       0.192  -1.520  -0.736  0.00  0.00     0.000 A 
ATOM      6  C6  BNZ d   1       0.240  -0.534  -1.695  0.00  0.00     0.000 A 
ENDROOT
TORSDOF 0
ENDMDL
