MODEL 1
REMARK minimizedAffinity -2.01642776
REMARK minimizedRMSD -1
REMARK  0 active torsions:
REMARK  status: ('A' for Active; 'I' for Inactive)
ROOT
ATOM      1  C4' PXY d   1      -2.459  -1.004  -4.950  0.00  0.00     0.077 C 
ATOM      2  C1' PXY d   1       2.469   1.054  -2.737  0.00  0.00     0.077 C 
ATOM      3  C1  PXY d   1       1.177   0.504  -3.309  0.00  0.00    -0.082 A 
ATOM      4  C2  PXY d   1       0.806   0.845  -4.533  0.00  0.00     0.003 A 
ATOM      5  C3  PXY d   1      -0.375   0.383  -5.054  0.00  0.00     0.003 A 
ATOM      6  C4  PXY d   1      -1.158  -0.480  -4.335  0.00  0.00    -0.082 A 
ATOM      7  C5  PXY d   1      -0.781  -0.841  -3.090  0.00  0.00     0.003 A 
ATOM      8  C6  PXY d   1       0.400  -0.328  -2.564  0.00  0.00     0.003 A 
ENDROOT
TORSDOF 0
ENDMDL
