MODEL 1
REMARK minimizedAffinity -4.15042162
REMARK minimizedRMSD -1
REMARK  0 active torsions:
REMARK  status: ('A' for Active; 'I' for Inactive)
ROOT
ATOM      1  C4' PXY d   1      -1.256   0.791   2.615  0.00  0.00     0.077 C 
ATOM      2  C1' PXY d   1       0.787  -1.111  -2.447  0.00  0.00     0.077 C 
ATOM      3  C1  PXY d   1       0.240  -0.608  -1.126  0.00  0.00    -0.082 A 
ATOM      4  C2  PXY d   1       1.074  -0.318  -0.141  0.00  0.00     0.003 A 
ATOM      5  C3  PXY d   1       0.595   0.107   1.072  0.00  0.00     0.003 A 
ATOM      6  C4  PXY d   1      -0.749   0.289   1.260  0.00  0.00    -0.082 A 
ATOM      7  C5  PXY d   1      -1.606   0.006   0.257  0.00  0.00     0.003 A 
ATOM      8  C6  PXY d   1      -1.102  -0.464  -0.953  0.00  0.00     0.003 A 
ENDROOT
TORSDOF 0
ENDMDL
