MODEL 1
REMARK minimizedAffinity -4.26146984
REMARK minimizedRMSD -1
REMARK  0 active torsions:
REMARK  status: ('A' for Active; 'I' for Inactive)
ROOT
ATOM      1  C4' PXY d   1      -0.357  -1.127  -1.383  0.00  0.00     0.077 C 
ATOM      2  C1' PXY d   1      -0.534   1.768   3.617  0.00  0.00     0.077 C 
ATOM      3  C1  PXY d   1      -0.477   1.016   2.302  0.00  0.00    -0.082 A 
ATOM      4  C2  PXY d   1      -1.569   0.431   1.836  0.00  0.00     0.003 A 
ATOM      5  C3  PXY d   1      -1.527  -0.280   0.664  0.00  0.00     0.003 A 
ATOM      6  C4  PXY d   1      -0.370  -0.349  -0.065  0.00  0.00    -0.082 A 
ATOM      7  C5  PXY d   1       0.745   0.255   0.399  0.00  0.00     0.003 A 
ATOM      8  C6  PXY d   1       0.692   0.937   1.611  0.00  0.00     0.003 A 
ENDROOT
TORSDOF 0
ENDMDL
