MODEL 1
REMARK minimizedAffinity -2.6499598
REMARK minimizedRMSD -1
REMARK  0 active torsions:
REMARK  status: ('A' for Active; 'I' for Inactive)
ROOT
ATOM      1  C4' PXY d   1      -0.995   2.230   3.398  0.00  0.00     0.077 C 
ATOM      2  C1' PXY d   1       0.988  -1.207  -0.806  0.00  0.00     0.077 C 
ATOM      3  C1  PXY d   1       0.456  -0.305   0.290  0.00  0.00    -0.082 A 
ATOM      4  C2  PXY d   1       1.302   0.397   1.027  0.00  0.00     0.003 A 
ATOM      5  C3  PXY d   1       0.840   1.193   2.044  0.00  0.00     0.003 A 
ATOM      6  C4  PXY d   1      -0.504   1.313   2.274  0.00  0.00    -0.082 A 
ATOM      7  C5  PXY d   1      -1.374   0.609   1.519  0.00  0.00     0.003 A 
ATOM      8  C6  PXY d   1      -0.883  -0.225   0.518  0.00  0.00     0.003 A 
ENDROOT
TORSDOF 0
ENDMDL
