MODEL 1
REMARK minimizedAffinity -4.16650105
REMARK minimizedRMSD -1
REMARK  0 active torsions:
REMARK  status: ('A' for Active; 'I' for Inactive)
ROOT
ATOM      1  C4' PXY d   1      -0.957   1.485   3.077  0.00  0.00     0.077 C 
ATOM      2  C1' PXY d   1       0.871  -1.187  -1.711  0.00  0.00     0.077 C 
ATOM      3  C1  PXY d   1       0.380  -0.483  -0.461  0.00  0.00    -0.082 A 
ATOM      4  C2  PXY d   1       1.256   0.007   0.400  0.00  0.00     0.003 A 
ATOM      5  C3  PXY d   1       0.830   0.618   1.551  0.00  0.00     0.003 A 
ATOM      6  C4  PXY d   1      -0.507   0.776   1.797  0.00  0.00    -0.082 A 
ATOM      7  C5  PXY d   1      -1.408   0.287   0.918  0.00  0.00     0.003 A 
ATOM      8  C6  PXY d   1      -0.955  -0.366  -0.224  0.00  0.00     0.003 A 
ENDROOT
TORSDOF 0
ENDMDL
