MODEL 1
REMARK minimizedAffinity -4.17219782
REMARK minimizedRMSD -1
REMARK  0 active torsions:
REMARK  status: ('A' for Active; 'I' for Inactive)
ROOT
ATOM      1  C4' PXY d   1       0.844  -0.571  -1.909  0.00  0.00     0.077 C 
ATOM      2  C1' PXY d   1      -1.322   1.039   3.203  0.00  0.00     0.077 C 
ATOM      3  C1  PXY d   1      -0.765   0.611   1.859  0.00  0.00    -0.082 A 
ATOM      4  C2  PXY d   1       0.542   0.473   1.707  0.00  0.00     0.003 A 
ATOM      5  C3  PXY d   1       1.064   0.118   0.490  0.00  0.00     0.003 A 
ATOM      6  C4  PXY d   1       0.237  -0.150  -0.568  0.00  0.00    -0.082 A 
ATOM      7  C5  PXY d   1      -1.098  -0.021  -0.418  0.00  0.00     0.003 A 
ATOM      8  C6  PXY d   1      -1.606   0.380   0.815  0.00  0.00     0.003 A 
ENDROOT
TORSDOF 0
ENDMDL
