MODEL 1
REMARK minimizedAffinity -3.90189004
REMARK minimizedRMSD -1
REMARK  0 active torsions:
REMARK  status: ('A' for Active; 'I' for Inactive)
ROOT
ATOM      1  C4' PXY d   1       2.324   2.493  -3.665  0.00  0.00     0.077 C 
ATOM      2  C1' PXY d   1      -1.621  -1.529  -4.960  0.00  0.00     0.077 C 
ATOM      3  C1  PXY d   1      -0.595  -0.470  -4.611  0.00  0.00    -0.082 A 
ATOM      4  C2  PXY d   1       0.264  -0.063  -5.531  0.00  0.00     0.003 A 
ATOM      5  C3  PXY d   1       1.220   0.871  -5.223  0.00  0.00     0.003 A 
ATOM      6  C4  PXY d   1       1.264   1.432  -3.975  0.00  0.00    -0.082 A 
ATOM      7  C5  PXY d   1       0.384   1.030  -3.034  0.00  0.00     0.003 A 
ATOM      8  C6  PXY d   1      -0.552   0.051  -3.355  0.00  0.00     0.003 A 
ENDROOT
TORSDOF 0
ENDMDL
