MODEL 1
REMARK minimizedAffinity -4.75744295
REMARK minimizedRMSD -1
REMARK  0 active torsions:
REMARK  status: ('A' for Active; 'I' for Inactive)
ROOT
ATOM      1  C4' PXY d   1      -0.602   1.769   3.464  0.00  0.00     0.077 C 
ATOM      2  C1' PXY d   1      -0.358  -1.101  -1.548  0.00  0.00     0.077 C 
ATOM      3  C1  PXY d   1      -0.434  -0.345  -0.236  0.00  0.00    -0.082 A 
ATOM      4  C2  PXY d   1       0.678   0.085   0.337  0.00  0.00     0.003 A 
ATOM      5  C3  PXY d   1       0.630   0.742   1.539  0.00  0.00     0.003 A 
ATOM      6  C4  PXY d   1      -0.574   1.010   2.134  0.00  0.00    -0.082 A 
ATOM      7  C5  PXY d   1      -1.714   0.584   1.551  0.00  0.00     0.003 A 
ATOM      8  C6  PXY d   1      -1.641  -0.118   0.351  0.00  0.00     0.003 A 
ENDROOT
TORSDOF 0
ENDMDL
