MODEL 1
REMARK minimizedAffinity -4.83287096
REMARK minimizedRMSD -1
REMARK  0 active torsions:
REMARK  status: ('A' for Active; 'I' for Inactive)
ROOT
ATOM      1  C4' PXY d   1       0.047  -0.365  -1.953  0.00  0.00     0.077 C 
ATOM      2  C1' PXY d   1      -0.762   1.617   3.417  0.00  0.00     0.077 C 
ATOM      3  C1  PXY d   1      -0.538   1.103   2.008  0.00  0.00    -0.082 A 
ATOM      4  C2  PXY d   1      -1.578   0.786   1.255  0.00  0.00     0.003 A 
ATOM      5  C3  PXY d   1      -1.393   0.290  -0.010  0.00  0.00     0.003 A 
ATOM      6  C4  PXY d   1      -0.132   0.167  -0.528  0.00  0.00    -0.082 A 
ATOM      7  C5  PXY d   1       0.934   0.498   0.231  0.00  0.00     0.003 A 
ATOM      8  C6  PXY d   1       0.727   0.961   1.527  0.00  0.00     0.003 A 
ENDROOT
TORSDOF 0
ENDMDL
