MODEL 1
REMARK minimizedAffinity -4.92009115
REMARK minimizedRMSD -1
REMARK  0 active torsions:
REMARK  status: ('A' for Active; 'I' for Inactive)
ROOT
ATOM      1  C4' PXY d   1       1.177  -0.817  -1.256  0.00  0.00     0.077 C 
ATOM      2  C1' PXY d   1      -0.340   0.829   4.074  0.00  0.00     0.077 C 
ATOM      3  C1  PXY d   1       0.071   0.397   2.680  0.00  0.00    -0.082 A 
ATOM      4  C2  PXY d   1      -0.716   0.671   1.652  0.00  0.00     0.003 A 
ATOM      5  C3  PXY d   1      -0.376   0.260   0.389  0.00  0.00     0.003 A 
ATOM      6  C4  PXY d   1       0.808  -0.392   0.168  0.00  0.00    -0.082 A 
ATOM      7  C5  PXY d   1       1.621  -0.666   1.210  0.00  0.00     0.003 A 
ATOM      8  C6  PXY d   1       1.238  -0.276   2.490  0.00  0.00     0.003 A 
ENDROOT
TORSDOF 0
ENDMDL
