MODEL 1
REMARK minimizedAffinity -0.106163949
REMARK minimizedRMSD -1
REMARK  1 active torsions:
REMARK  status: ('A' for Active; 'I' for Inactive)
REMARK    1  A    between atoms: C3_4  and  O_7 
ROOT
ATOM      1  C   UNL d   1       1.133  -0.659  -0.293  0.00  0.00    -0.033 A 
ATOM      2  C1  UNL d   1       0.071   0.218  -0.519  0.00  0.00     0.039 A 
ATOM      3  C2  UNL d   1      -0.285   1.152   0.455  0.00  0.00    -0.080 A 
ATOM      4  C3  UNL d   1       0.429   1.200   1.649  0.00  0.00     0.150 A 
ATOM      5  C4  UNL d   1       1.492   0.333   1.879  0.00  0.00    -0.007 A 
ATOM      6  C5  UNL d   1       1.845  -0.601   0.905  0.00  0.00     0.039 A 
ENDROOT
BRANCH   4   7
ATOM      7  O   UNL d   1       0.116   2.092   2.631  0.00  0.00    -0.526 OA
ATOM      8  H5  UNL d   1      -0.657   2.607   2.345  0.00  0.00     0.418 HD
ENDBRANCH   4   7
TORSDOF 1
ENDMDL
