MODEL 1
REMARK minimizedAffinity -4.23285675
REMARK minimizedRMSD -1
REMARK  1 active torsions:
REMARK  status: ('A' for Active; 'I' for Inactive)
REMARK    1  A    between atoms: C3_4  and  O_7 
ROOT
ATOM      1  C   UNL d   1       0.588   1.036   0.712  0.00  0.00    -0.033 A 
ATOM      2  C1  UNL d   1      -0.266   0.168   0.029  0.00  0.00     0.039 A 
ATOM      3  C2  UNL d   1      -1.421  -0.311   0.650  0.00  0.00    -0.080 A 
ATOM      4  C3  UNL d   1      -1.711   0.086   1.952  0.00  0.00     0.150 A 
ATOM      5  C4  UNL d   1      -0.867   0.953   2.638  0.00  0.00    -0.007 A 
ATOM      6  C5  UNL d   1       0.286   1.430   2.016  0.00  0.00     0.039 A 
ENDROOT
BRANCH   4   7
ATOM      7  O   UNL d   1      -2.824  -0.359   2.602  0.00  0.00    -0.526 OA
ATOM      8  H5  UNL d   1      -3.297  -0.973   2.016  0.00  0.00     0.418 HD
ENDBRANCH   4   7
TORSDOF 1
ENDMDL
