MODEL 1
REMARK minimizedAffinity -3.33150291
REMARK minimizedRMSD -1
REMARK  1 active torsions:
REMARK  status: ('A' for Active; 'I' for Inactive)
REMARK    1  A    between atoms: C3_4  and  O_7 
ROOT
ATOM      1  C   UNL d   1      -0.452  -0.612  -5.151  0.00  0.00    -0.033 A 
ATOM      2  C1  UNL d   1       0.100   0.356  -5.993  0.00  0.00     0.039 A 
ATOM      3  C2  UNL d   1       1.156   1.152  -5.546  0.00  0.00    -0.080 A 
ATOM      4  C3  UNL d   1       1.650   0.972  -4.258  0.00  0.00     0.150 A 
ATOM      5  C4  UNL d   1       1.108   0.007  -3.415  0.00  0.00    -0.007 A 
ATOM      6  C5  UNL d   1       0.053  -0.787  -3.862  0.00  0.00     0.039 A 
ENDROOT
BRANCH   4   7
ATOM      7  O   UNL d   1       2.677   1.729  -3.775  0.00  0.00    -0.526 OA
ATOM      8  H5  UNL d   1       2.931   2.372  -4.458  0.00  0.00     0.418 HD
ENDBRANCH   4   7
TORSDOF 1
ENDMDL
