MODEL 1
REMARK minimizedAffinity 0.894249916
REMARK minimizedRMSD -1
REMARK  1 active torsions:
REMARK  status: ('A' for Active; 'I' for Inactive)
REMARK    1  A    between atoms: C3_4  and  O_7 
ROOT
ATOM      1  C   UNL d   1      -1.600   0.416   0.873  0.00  0.00    -0.033 A 
ATOM      2  C1  UNL d   1      -1.367   0.498   2.247  0.00  0.00     0.039 A 
ATOM      3  C2  UNL d   1      -0.089   0.255   2.755  0.00  0.00    -0.080 A 
ATOM      4  C3  UNL d   1       0.945  -0.067   1.880  0.00  0.00     0.150 A 
ATOM      5  C4  UNL d   1       0.720  -0.146   0.509  0.00  0.00    -0.007 A 
ATOM      6  C5  UNL d   1      -0.557   0.096   0.004  0.00  0.00     0.039 A 
ENDROOT
BRANCH   4   7
ATOM      7  O   UNL d   1       2.207  -0.317   2.329  0.00  0.00    -0.526 OA
ATOM      8  H5  UNL d   1       2.207  -0.254   3.299  0.00  0.00     0.418 HD
ENDBRANCH   4   7
TORSDOF 1
ENDMDL
