MODEL 1
REMARK minimizedAffinity 7.5258379
REMARK minimizedRMSD -1
REMARK  1 active torsions:
REMARK  status: ('A' for Active; 'I' for Inactive)
REMARK    1  A    between atoms: N_2  and  C1_3 
ROOT
ATOM      1  C1  UNL d   1      -4.718   1.920   4.089  0.00  0.00     0.143 A 
ATOM      2  C2  UNL d   1      -5.472   0.745   3.996  0.00  0.00    -0.057 A 
ATOM      3  C3  UNL d   1      -4.948  -0.409   3.400  0.00  0.00     0.033 A 
ATOM      4  C4  UNL d   1      -3.667  -0.398   2.859  0.00  0.00    -0.042 A 
ATOM      5  C5  UNL d   1      -2.909   0.766   2.917  0.00  0.00     0.033 A 
ATOM      6  C6  UNL d   1      -3.436   1.912   3.520  0.00  0.00    -0.057 A 
ENDROOT
BRANCH   1   7
ATOM      7  N   UNL d   1      -5.219   3.128   4.581  0.00  0.00    -0.732 N 
ATOM      8  C   UNL d   1      -5.155   3.430   5.995  0.00  0.00     0.284 C 
ATOM      9  H3  UNL d   1      -4.995   3.916   3.977  0.00  0.00     0.395 HD
ENDBRANCH   1   7
TORSDOF 1
ENDMDL
