MODEL 1
REMARK minimizedAffinity 12.5024824
REMARK minimizedRMSD -1
REMARK  1 active torsions:
REMARK  status: ('A' for Active; 'I' for Inactive)
REMARK    1  A    between atoms: N_2  and  C1_3 
ROOT
ATOM      1  C1  UNL d   1      -3.564  -3.461  -4.273  0.00  0.00     0.143 A 
ATOM      2  C2  UNL d   1      -2.392  -2.699  -4.335  0.00  0.00    -0.057 A 
ATOM      3  C3  UNL d   1      -1.263  -3.041  -3.580  0.00  0.00     0.033 A 
ATOM      4  C4  UNL d   1      -1.297  -4.137  -2.725  0.00  0.00    -0.042 A 
ATOM      5  C5  UNL d   1      -2.459  -4.894  -2.629  0.00  0.00     0.033 A 
ATOM      6  C6  UNL d   1      -3.581  -4.552  -3.390  0.00  0.00    -0.057 A 
ENDROOT
BRANCH   1   7
ATOM      7  N   UNL d   1      -4.751  -3.116  -4.924  0.00  0.00    -0.732 N 
ATOM      8  C   UNL d   1      -5.267  -3.935  -6.000  0.00  0.00     0.284 C 
ATOM      9  H3  UNL d   1      -5.463  -2.778  -4.281  0.00  0.00     0.395 HD
ENDBRANCH   1   7
TORSDOF 1
ENDMDL
