MODEL 1
REMARK minimizedAffinity 12.165122
REMARK minimizedRMSD -1
REMARK  1 active torsions:
REMARK  status: ('A' for Active; 'I' for Inactive)
REMARK    1  A    between atoms: N_2  and  C1_3 
ROOT
ATOM      1  C1  UNL d   1       2.488  -3.565  -1.362  0.00  0.00     0.143 A 
ATOM      2  C2  UNL d   1       2.981  -4.793  -0.906  0.00  0.00    -0.057 A 
ATOM      3  C3  UNL d   1       2.587  -5.999  -1.498  0.00  0.00     0.033 A 
ATOM      4  C4  UNL d   1       1.667  -6.000  -2.542  0.00  0.00    -0.042 A 
ATOM      5  C5  UNL d   1       1.145  -4.794  -2.995  0.00  0.00     0.033 A 
ATOM      6  C6  UNL d   1       1.547  -3.592  -2.404  0.00  0.00    -0.057 A 
ENDROOT
BRANCH   1   7
ATOM      7  N   UNL d   1       2.766  -2.340  -0.751  0.00  0.00    -0.732 N 
ATOM      8  C   UNL d   1       2.491  -1.095  -1.436  0.00  0.00     0.284 C 
ATOM      9  H3  UNL d   1       2.520  -2.334   0.236  0.00  0.00     0.395 HD
ENDBRANCH   1   7
TORSDOF 1
ENDMDL
