MODEL 1
REMARK minimizedAffinity 7.82008266
REMARK minimizedRMSD -1
REMARK  1 active torsions:
REMARK  status: ('A' for Active; 'I' for Inactive)
REMARK    1  A    between atoms: N_2  and  C1_3 
ROOT
ATOM      1  C1  UNL d   1      -2.162  -2.668  -3.419  0.00  0.00     0.143 A 
ATOM      2  C2  UNL d   1      -2.412  -1.307  -3.213  0.00  0.00    -0.057 A 
ATOM      3  C3  UNL d   1      -1.365  -0.392  -3.052  0.00  0.00     0.033 A 
ATOM      4  C4  UNL d   1      -0.044  -0.828  -3.065  0.00  0.00    -0.042 A 
ATOM      5  C5  UNL d   1       0.228  -2.180  -3.243  0.00  0.00     0.033 A 
ATOM      6  C6  UNL d   1      -0.822  -3.088  -3.410  0.00  0.00    -0.057 A 
ENDROOT
BRANCH   1   7
ATOM      7  N   UNL d   1      -3.161  -3.641  -3.487  0.00  0.00    -0.732 N 
ATOM      8  C   UNL d   1      -3.093  -4.827  -2.660  0.00  0.00     0.284 C 
ATOM      9  H3  UNL d   1      -4.093  -3.238  -3.558  0.00  0.00     0.395 HD
ENDBRANCH   1   7
TORSDOF 1
ENDMDL
