MODEL 1
REMARK minimizedAffinity 9.86566162
REMARK minimizedRMSD -1
REMARK  1 active torsions:
REMARK  status: ('A' for Active; 'I' for Inactive)
REMARK    1  A    between atoms: N_2  and  C1_3 
ROOT
ATOM      1  C1  UNL d   1      -3.108  -3.385  -4.305  0.00  0.00     0.143 A 
ATOM      2  C2  UNL d   1      -3.002  -4.132  -3.127  0.00  0.00    -0.057 A 
ATOM      3  C3  UNL d   1      -1.763  -4.598  -2.671  0.00  0.00     0.033 A 
ATOM      4  C4  UNL d   1      -0.607  -4.350  -3.404  0.00  0.00    -0.042 A 
ATOM      5  C5  UNL d   1      -0.692  -3.631  -4.591  0.00  0.00     0.033 A 
ATOM      6  C6  UNL d   1      -1.931  -3.162  -5.038  0.00  0.00    -0.057 A 
ENDROOT
BRANCH   1   7
ATOM      7  N   UNL d   1      -4.322  -2.978  -4.862  0.00  0.00    -0.732 N 
ATOM      8  C   UNL d   1      -4.884  -3.677  -5.998  0.00  0.00     0.284 C 
ATOM      9  H3  UNL d   1      -5.006  -2.718  -4.155  0.00  0.00     0.395 HD
ENDBRANCH   1   7
TORSDOF 1
ENDMDL
