MODEL 1
REMARK minimizedAffinity 3.89998889
REMARK minimizedRMSD -1
REMARK  1 active torsions:
REMARK  status: ('A' for Active; 'I' for Inactive)
REMARK    1  A    between atoms: N_2  and  C1_3 
ROOT
ATOM      1  C1  UNL d   1      -3.938  -3.590  -4.157  0.00  0.00     0.143 A 
ATOM      2  C2  UNL d   1      -3.841  -4.781  -3.428  0.00  0.00    -0.057 A 
ATOM      3  C3  UNL d   1      -2.663  -5.127  -2.755  0.00  0.00     0.033 A 
ATOM      4  C4  UNL d   1      -1.548  -4.299  -2.823  0.00  0.00    -0.042 A 
ATOM      5  C5  UNL d   1      -1.612  -3.123  -3.562  0.00  0.00     0.033 A 
ATOM      6  C6  UNL d   1      -2.794  -2.780  -4.226  0.00  0.00    -0.057 A 
ENDROOT
BRANCH   1   7
ATOM      7  N   UNL d   1      -5.048  -3.238  -4.928  0.00  0.00    -0.732 N 
ATOM      8  C   UNL d   1      -5.553  -4.135  -5.946  0.00  0.00     0.284 C 
ATOM      9  H3  UNL d   1      -5.773  -2.781  -4.380  0.00  0.00     0.395 HD
ENDBRANCH   1   7
TORSDOF 1
ENDMDL
