MODEL 1
REMARK minimizedAffinity 12.5500326
REMARK minimizedRMSD -1
REMARK  1 active torsions:
REMARK  status: ('A' for Active; 'I' for Inactive)
REMARK    1  A    between atoms: N_2  and  C1_3 
ROOT
ATOM      1  C1  UNL d   1       0.427   0.721   3.469  0.00  0.00     0.143 A 
ATOM      2  C2  UNL d   1       0.118   2.080   3.582  0.00  0.00    -0.057 A 
ATOM      3  C3  UNL d   1       0.009   2.699   4.833  0.00  0.00     0.033 A 
ATOM      4  C4  UNL d   1       0.179   1.959   5.999  0.00  0.00    -0.042 A 
ATOM      5  C5  UNL d   1       0.462   0.600   5.911  0.00  0.00     0.033 A 
ATOM      6  C6  UNL d   1       0.576  -0.010   4.658  0.00  0.00    -0.057 A 
ENDROOT
BRANCH   1   7
ATOM      7  N   UNL d   1       0.452   0.027   2.257  0.00  0.00    -0.732 N 
ATOM      8  C   UNL d   1       0.103  -1.377   2.204  0.00  0.00     0.284 C 
ATOM      9  H3  UNL d   1       0.079   0.577   1.486  0.00  0.00     0.395 HD
ENDBRANCH   1   7
TORSDOF 1
ENDMDL
