MODEL 1
REMARK minimizedAffinity 16.2379856
REMARK minimizedRMSD -1
REMARK  1 active torsions:
REMARK  status: ('A' for Active; 'I' for Inactive)
REMARK    1  A    between atoms: N_2  and  C1_3 
ROOT
ATOM      1  C1  UNL d   1      -4.561  -0.790   2.050  0.00  0.00     0.143 A 
ATOM      2  C2  UNL d   1      -3.798   0.202   1.425  0.00  0.00    -0.057 A 
ATOM      3  C3  UNL d   1      -2.769   0.864   2.105  0.00  0.00     0.033 A 
ATOM      4  C4  UNL d   1      -2.503   0.564   3.437  0.00  0.00    -0.042 A 
ATOM      5  C5  UNL d   1      -3.265  -0.400   4.087  0.00  0.00     0.033 A 
ATOM      6  C6  UNL d   1      -4.287  -1.062   3.400  0.00  0.00    -0.057 A 
ENDROOT
BRANCH   1   7
ATOM      7  N   UNL d   1      -5.662  -1.414   1.458  0.00  0.00    -0.732 N 
ATOM      8  C   UNL d   1      -5.984  -2.791   1.769  0.00  0.00     0.284 C 
ATOM      9  H3  UNL d   1      -6.471  -0.801   1.400  0.00  0.00     0.395 HD
ENDBRANCH   1   7
TORSDOF 1
ENDMDL
