MODEL 1
REMARK minimizedAffinity -0.638438284
REMARK minimizedRMSD -1
REMARK  1 active torsions:
REMARK  status: ('A' for Active; 'I' for Inactive)
REMARK    1  A    between atoms: N_2  and  C1_3 
ROOT
ATOM      1  C1  UNL d   1      -1.583  -4.288  -4.154  0.00  0.00     0.143 A 
ATOM      2  C2  UNL d   1      -2.178  -3.891  -5.356  0.00  0.00    -0.057 A 
ATOM      3  C3  UNL d   1      -3.554  -4.036  -5.568  0.00  0.00     0.033 A 
ATOM      4  C4  UNL d   1      -4.358  -4.610  -4.589  0.00  0.00    -0.042 A 
ATOM      5  C5  UNL d   1      -3.784  -5.036  -3.396  0.00  0.00     0.033 A 
ATOM      6  C6  UNL d   1      -2.410  -4.882  -3.188  0.00  0.00    -0.057 A 
ENDROOT
BRANCH   1   7
ATOM      7  N   UNL d   1      -0.206  -4.261  -3.922  0.00  0.00    -0.732 N 
ATOM      8  C   UNL d   1       0.420  -5.262  -3.085  0.00  0.00     0.284 C 
ATOM      9  H3  UNL d   1       0.325  -4.027  -4.758  0.00  0.00     0.395 HD
ENDBRANCH   1   7
TORSDOF 1
ENDMDL
