MODEL 1
REMARK minimizedAffinity 8.71217155
REMARK minimizedRMSD -1
REMARK  1 active torsions:
REMARK  status: ('A' for Active; 'I' for Inactive)
REMARK    1  A    between atoms: N_2  and  C1_3 
ROOT
ATOM      1  C1  UNL d   1      -4.041  -4.050  -3.675  0.00  0.00     0.143 A 
ATOM      2  C2  UNL d   1      -4.367  -5.185  -2.924  0.00  0.00    -0.057 A 
ATOM      3  C3  UNL d   1      -3.410  -5.828  -2.129  0.00  0.00     0.033 A 
ATOM      4  C4  UNL d   1      -2.100  -5.363  -2.093  0.00  0.00    -0.042 A 
ATOM      5  C5  UNL d   1      -1.748  -4.251  -2.850  0.00  0.00     0.033 A 
ATOM      6  C6  UNL d   1      -2.709  -3.610  -3.638  0.00  0.00    -0.057 A 
ENDROOT
BRANCH   1   7
ATOM      7  N   UNL d   1      -4.922  -3.425  -4.561  0.00  0.00    -0.732 N 
ATOM      8  C   UNL d   1      -5.539  -4.172  -5.636  0.00  0.00     0.284 C 
ATOM      9  H3  UNL d   1      -5.549  -2.776  -4.092  0.00  0.00     0.395 HD
ENDBRANCH   1   7
TORSDOF 1
ENDMDL
