MODEL 1
REMARK minimizedAffinity 1.673666
REMARK minimizedRMSD -1
REMARK  1 active torsions:
REMARK  status: ('A' for Active; 'I' for Inactive)
REMARK    1  A    between atoms: N_2  and  C1_3 
ROOT
ATOM      1  C1  UNL d   1      -3.260  -3.872  -4.395  0.00  0.00     0.143 A 
ATOM      2  C2  UNL d   1      -1.974  -3.404  -4.687  0.00  0.00    -0.057 A 
ATOM      3  C3  UNL d   1      -0.851  -3.896  -4.013  0.00  0.00     0.033 A 
ATOM      4  C4  UNL d   1      -0.996  -4.849  -3.010  0.00  0.00    -0.042 A 
ATOM      5  C5  UNL d   1      -2.267  -5.311  -2.685  0.00  0.00     0.033 A 
ATOM      6  C6  UNL d   1      -3.384  -4.820  -3.366  0.00  0.00    -0.057 A 
ENDROOT
BRANCH   1   7
ATOM      7  N   UNL d   1      -4.425  -3.351  -4.961  0.00  0.00    -0.732 N 
ATOM      8  C   UNL d   1      -5.128  -4.074  -5.999  0.00  0.00     0.284 C 
ATOM      9  H3  UNL d   1      -5.035  -2.921  -4.269  0.00  0.00     0.395 HD
ENDBRANCH   1   7
TORSDOF 1
ENDMDL
