MODEL 1
REMARK minimizedAffinity -1.04708374
REMARK minimizedRMSD -1
REMARK  1 active torsions:
REMARK  status: ('A' for Active; 'I' for Inactive)
REMARK    1  A    between atoms: N_2  and  C1_3 
ROOT
ATOM      1  C1  UNL d   1      -3.762  -4.071  -5.043  0.00  0.00     0.143 A 
ATOM      2  C2  UNL d   1      -2.530  -3.751  -5.624  0.00  0.00    -0.057 A 
ATOM      3  C3  UNL d   1      -1.325  -4.007  -4.958  0.00  0.00     0.033 A 
ATOM      4  C4  UNL d   1      -1.332  -4.562  -3.683  0.00  0.00    -0.042 A 
ATOM      5  C5  UNL d   1      -2.546  -4.865  -3.076  0.00  0.00     0.033 A 
ATOM      6  C6  UNL d   1      -3.746  -4.614  -3.749  0.00  0.00    -0.057 A 
ENDROOT
BRANCH   1   7
ATOM      7  N   UNL d   1      -4.997  -3.751  -5.613  0.00  0.00    -0.732 N 
ATOM      8  C   UNL d   1      -5.924  -4.794  -5.997  0.00  0.00     0.284 C 
ATOM      9  H3  UNL d   1      -5.435  -2.949  -5.165  0.00  0.00     0.395 HD
ENDBRANCH   1   7
TORSDOF 1
ENDMDL
