MODEL 1
REMARK minimizedAffinity 9.79881477
REMARK minimizedRMSD -1
REMARK  1 active torsions:
REMARK  status: ('A' for Active; 'I' for Inactive)
REMARK    1  A    between atoms: N_2  and  C1_3 
ROOT
ATOM      1  C1  UNL d   1      -2.006   0.673   2.780  0.00  0.00     0.143 A 
ATOM      2  C2  UNL d   1      -1.342   1.898   2.651  0.00  0.00    -0.057 A 
ATOM      3  C3  UNL d   1       0.052   1.981   2.742  0.00  0.00     0.033 A 
ATOM      4  C4  UNL d   1       0.808   0.841   2.992  0.00  0.00    -0.042 A 
ATOM      5  C5  UNL d   1       0.168  -0.383   3.149  0.00  0.00     0.033 A 
ATOM      6  C6  UNL d   1      -1.224  -0.461   3.050  0.00  0.00    -0.057 A 
ENDROOT
BRANCH   1   7
ATOM      7  N   UNL d   1      -3.396   0.539   2.797  0.00  0.00    -0.732 N 
ATOM      8  C   UNL d   1      -4.055  -0.432   1.950  0.00  0.00     0.284 C 
ATOM      9  H3  UNL d   1      -3.780   0.599   3.738  0.00  0.00     0.395 HD
ENDBRANCH   1   7
TORSDOF 1
ENDMDL
