MODEL 1
REMARK minimizedAffinity 0.326142162
REMARK minimizedRMSD -1
REMARK  1 active torsions:
REMARK  status: ('A' for Active; 'I' for Inactive)
REMARK    1  A    between atoms: N_2  and  C1_3 
ROOT
ATOM      1  C1  UNL d   1       1.807  -4.098  -2.463  0.00  0.00     0.143 A 
ATOM      2  C2  UNL d   1       1.395  -2.907  -1.857  0.00  0.00    -0.057 A 
ATOM      3  C3  UNL d   1       2.204  -2.251  -0.920  0.00  0.00     0.033 A 
ATOM      4  C4  UNL d   1       3.431  -2.793  -0.552  0.00  0.00    -0.042 A 
ATOM      5  C5  UNL d   1       3.850  -3.989  -1.124  0.00  0.00     0.033 A 
ATOM      6  C6  UNL d   1       3.041  -4.635  -2.063  0.00  0.00    -0.057 A 
ENDROOT
BRANCH   1   7
ATOM      7  N   UNL d   1       1.006  -4.849  -3.327  0.00  0.00    -0.732 N 
ATOM      8  C   UNL d   1      -0.401  -4.546  -3.477  0.00  0.00     0.284 C 
ATOM      9  H3  UNL d   1       1.478  -5.071  -4.201  0.00  0.00     0.395 HD
ENDBRANCH   1   7
TORSDOF 1
ENDMDL
