MODEL 1
REMARK minimizedAffinity -4.15022993
REMARK minimizedRMSD -1
REMARK  0 active torsions:
REMARK  status: ('A' for Active; 'I' for Inactive)
ROOT
ATOM      1  C2' OXE d   1       0.954   1.266   2.451  0.00  0.00     0.078 C 
ATOM      2  C1' OXE d   1       0.362   1.592  -0.273  0.00  0.00     0.078 C 
ATOM      3  C1  OXE d   1      -0.319   0.467   0.465  0.00  0.00    -0.078 A 
ATOM      4  C2  OXE d   1       0.012   0.286   1.786  0.00  0.00    -0.078 A 
ATOM      5  C3  OXE d   1      -0.628  -0.703   2.528  0.00  0.00     0.003 A 
ATOM      6  C4  OXE d   1      -1.490  -1.612   1.903  0.00  0.00    -0.002 A 
ATOM      7  C5  OXE d   1      -1.811  -1.470   0.549  0.00  0.00    -0.002 A 
ATOM      8  C6  OXE d   1      -1.268  -0.412  -0.173  0.00  0.00     0.003 A 
ENDROOT
TORSDOF 0
ENDMDL
