MODEL 1
REMARK minimizedAffinity -5.35527277
REMARK minimizedRMSD -1
REMARK  0 active torsions:
REMARK  status: ('A' for Active; 'I' for Inactive)
ROOT
ATOM      1  C2' OXE d   1      -2.344   0.909  -1.001  0.00  0.00     0.078 C 
ATOM      2  C1' OXE d   1       0.211  -0.080  -1.614  0.00  0.00     0.078 C 
ATOM      3  C1  OXE d   1      -0.116   0.174  -0.163  0.00  0.00    -0.078 A 
ATOM      4  C2  OXE d   1      -1.352   0.703   0.123  0.00  0.00    -0.078 A 
ATOM      5  C3  OXE d   1      -1.724   0.905   1.449  0.00  0.00     0.003 A 
ATOM      6  C4  OXE d   1      -0.797   0.721   2.482  0.00  0.00    -0.002 A 
ATOM      7  C5  OXE d   1       0.480   0.221   2.208  0.00  0.00    -0.002 A 
ATOM      8  C6  OXE d   1       0.822  -0.097   0.898  0.00  0.00     0.003 A 
ENDROOT
TORSDOF 0
ENDMDL
