MODEL 1
REMARK minimizedAffinity -2.54609942
REMARK minimizedRMSD -1
REMARK  0 active torsions:
REMARK  status: ('A' for Active; 'I' for Inactive)
ROOT
ATOM      1  C2' OXE d   1       0.513   0.650  -1.462  0.00  0.00     0.078 C 
ATOM      2  C1' OXE d   1      -2.189   0.981  -0.776  0.00  0.00     0.078 C 
ATOM      3  C1  OXE d   1      -1.197   0.795   0.344  0.00  0.00    -0.078 A 
ATOM      4  C2  OXE d   1       0.116   0.587  -0.002  0.00  0.00    -0.078 A 
ATOM      5  C3  OXE d   1       1.081   0.465   0.994  0.00  0.00     0.003 A 
ATOM      6  C4  OXE d   1       0.705   0.397   2.341  0.00  0.00    -0.002 A 
ATOM      7  C5  OXE d   1      -0.633   0.567   2.713  0.00  0.00    -0.002 A 
ATOM      8  C6  OXE d   1      -1.588   0.809   1.732  0.00  0.00     0.003 A 
ENDROOT
TORSDOF 0
ENDMDL
