MODEL 1
REMARK minimizedAffinity -4.84989834
REMARK minimizedRMSD -1
REMARK  0 active torsions:
REMARK  status: ('A' for Active; 'I' for Inactive)
ROOT
ATOM      1  C2' OXE d   1      -3.127  -0.439   1.512  0.00  0.00     0.078 C 
ATOM      2  C1' OXE d   1      -1.324  -1.001   3.589  0.00  0.00     0.078 C 
ATOM      3  C1  OXE d   1      -0.795  -0.281   2.374  0.00  0.00    -0.078 A 
ATOM      4  C2  OXE d   1      -1.674  -0.052   1.343  0.00  0.00    -0.078 A 
ATOM      5  C3  OXE d   1      -1.251   0.657   0.222  0.00  0.00     0.003 A 
ATOM      6  C4  OXE d   1       0.097   1.003   0.069  0.00  0.00    -0.002 A 
ATOM      7  C5  OXE d   1       1.017   0.743   1.090  0.00  0.00    -0.002 A 
ATOM      8  C6  OXE d   1       0.579   0.142   2.265  0.00  0.00     0.003 A 
ENDROOT
TORSDOF 0
ENDMDL
