MODEL 1
REMARK minimizedAffinity 1.6956557
REMARK minimizedRMSD -1
REMARK  0 active torsions:
REMARK  status: ('A' for Active; 'I' for Inactive)
ROOT
ATOM      1  C2' OXE d   1      -2.945   1.434   2.332  0.00  0.00     0.078 C 
ATOM      2  C1' OXE d   1      -2.676   0.991  -0.427  0.00  0.00     0.078 C 
ATOM      3  C1  OXE d   1      -1.434   0.900   0.425  0.00  0.00    -0.078 A 
ATOM      4  C2  OXE d   1      -1.567   1.164   1.767  0.00  0.00    -0.078 A 
ATOM      5  C3  OXE d   1      -0.464   1.041   2.607  0.00  0.00     0.003 A 
ATOM      6  C4  OXE d   1       0.809   0.801   2.074  0.00  0.00    -0.002 A 
ATOM      7  C5  OXE d   1       0.973   0.568   0.705  0.00  0.00    -0.002 A 
ATOM      8  C6  OXE d   1      -0.142   0.571  -0.126  0.00  0.00     0.003 A 
ENDROOT
TORSDOF 0
ENDMDL
