MODEL 1
REMARK minimizedAffinity -3.34221172
REMARK minimizedRMSD -1
REMARK  0 active torsions:
REMARK  status: ('A' for Active; 'I' for Inactive)
ROOT
ATOM      1  C2' OXE d   1       0.138   0.329  -0.610  0.00  0.00     0.078 C 
ATOM      2  C1' OXE d   1      -2.644   0.618  -0.371  0.00  0.00     0.078 C 
ATOM      3  C1  OXE d   1      -1.831   0.560   0.899  0.00  0.00    -0.078 A 
ATOM      4  C2  OXE d   1      -0.475   0.372   0.773  0.00  0.00    -0.078 A 
ATOM      5  C3  OXE d   1       0.328   0.366   1.910  0.00  0.00     0.003 A 
ATOM      6  C4  OXE d   1      -0.249   0.396   3.186  0.00  0.00    -0.002 A 
ATOM      7  C5  OXE d   1      -1.631   0.548   3.336  0.00  0.00    -0.002 A 
ATOM      8  C6  OXE d   1      -2.430   0.674   2.205  0.00  0.00     0.003 A 
ENDROOT
TORSDOF 0
ENDMDL
