MODEL 1
REMARK minimizedAffinity -5.50206709
REMARK minimizedRMSD -1
REMARK  0 active torsions:
REMARK  status: ('A' for Active; 'I' for Inactive)
ROOT
ATOM      1  C2' OXE d   1      -0.048   0.109  -0.831  0.00  0.00     0.078 C 
ATOM      2  C1' OXE d   1      -2.746   0.871  -0.697  0.00  0.00     0.078 C 
ATOM      3  C1  OXE d   1      -2.077   0.426   0.579  0.00  0.00    -0.078 A 
ATOM      4  C2  OXE d   1      -0.769   0.011   0.496  0.00  0.00    -0.078 A 
ATOM      5  C3  OXE d   1      -0.088  -0.357   1.652  0.00  0.00     0.003 A 
ATOM      6  C4  OXE d   1      -0.766  -0.455   2.874  0.00  0.00    -0.002 A 
ATOM      7  C5  OXE d   1      -2.108  -0.075   2.973  0.00  0.00    -0.002 A 
ATOM      8  C6  OXE d   1      -2.765   0.408   1.846  0.00  0.00     0.003 A 
ENDROOT
TORSDOF 0
ENDMDL
