MODEL 1
REMARK minimizedAffinity -2.33026075
REMARK minimizedRMSD -1
REMARK  0 active torsions:
REMARK  status: ('A' for Active; 'I' for Inactive)
ROOT
ATOM      1  C2' OXE d   1       1.574   1.851   0.969  0.00  0.00     0.078 C 
ATOM      2  C1' OXE d   1       0.047   0.750  -1.113  0.00  0.00     0.078 C 
ATOM      3  C1  OXE d   1      -0.212   0.254   0.287  0.00  0.00    -0.078 A 
ATOM      4  C2  OXE d   1       0.572   0.764   1.294  0.00  0.00    -0.078 A 
ATOM      5  C3  OXE d   1       0.338   0.380   2.611  0.00  0.00     0.003 A 
ATOM      6  C4  OXE d   1      -0.583  -0.633   2.902  0.00  0.00    -0.002 A 
ATOM      7  C5  OXE d   1      -1.364  -1.195   1.886  0.00  0.00    -0.002 A 
ATOM      8  C6  OXE d   1      -1.221  -0.733   0.582  0.00  0.00     0.003 A 
ENDROOT
TORSDOF 0
ENDMDL
