MODEL 1
REMARK minimizedAffinity -5.31285191
REMARK minimizedRMSD -1
REMARK  0 active torsions:
REMARK  status: ('A' for Active; 'I' for Inactive)
ROOT
ATOM      1  C2' OXE d   1      -3.011  -0.361   1.124  0.00  0.00     0.078 C 
ATOM      2  C1' OXE d   1      -1.974  -0.579   3.723  0.00  0.00     0.078 C 
ATOM      3  C1  OXE d   1      -1.015  -0.237   2.610  0.00  0.00    -0.078 A 
ATOM      4  C2  OXE d   1      -1.523  -0.178   1.334  0.00  0.00    -0.078 A 
ATOM      5  C3  OXE d   1      -0.693   0.187   0.278  0.00  0.00     0.003 A 
ATOM      6  C4  OXE d   1       0.683   0.344   0.480  0.00  0.00    -0.002 A 
ATOM      7  C5  OXE d   1       1.228   0.250   1.765  0.00  0.00    -0.002 A 
ATOM      8  C6  OXE d   1       0.387   0.002   2.845  0.00  0.00     0.003 A 
ENDROOT
TORSDOF 0
ENDMDL
