MODEL 1
REMARK minimizedAffinity -4.18814087
REMARK minimizedRMSD -1
REMARK  0 active torsions:
REMARK  status: ('A' for Active; 'I' for Inactive)
ROOT
ATOM      1  C2' OXE d   1      -3.333  -0.201   1.010  0.00  0.00     0.078 C 
ATOM      2  C1' OXE d   1      -1.728  -0.424   3.302  0.00  0.00     0.078 C 
ATOM      3  C1  OXE d   1      -1.070   0.033   2.024  0.00  0.00    -0.078 A 
ATOM      4  C2  OXE d   1      -1.853   0.095   0.897  0.00  0.00    -0.078 A 
ATOM      5  C3  OXE d   1      -1.309   0.563  -0.296  0.00  0.00     0.003 A 
ATOM      6  C4  OXE d   1       0.063   0.824  -0.394  0.00  0.00    -0.002 A 
ATOM      7  C5  OXE d   1       0.887   0.729   0.732  0.00  0.00    -0.002 A 
ATOM      8  C6  OXE d   1       0.329   0.377   1.956  0.00  0.00     0.003 A 
ENDROOT
TORSDOF 0
ENDMDL
