MODEL 1
REMARK minimizedAffinity -4.21523046
REMARK minimizedRMSD -1
REMARK  0 active torsions:
REMARK  status: ('A' for Active; 'I' for Inactive)
ROOT
ATOM      1  C2' OXE d   1       1.415   0.928   2.515  0.00  0.00     0.078 C 
ATOM      2  C1' OXE d   1       0.811   0.990  -0.226  0.00  0.00     0.078 C 
ATOM      3  C1  OXE d   1      -0.137   0.254   0.687  0.00  0.00    -0.078 A 
ATOM      4  C2  OXE d   1       0.190   0.189   2.020  0.00  0.00    -0.078 A 
ATOM      5  C3  OXE d   1      -0.678  -0.431   2.914  0.00  0.00     0.003 A 
ATOM      6  C4  OXE d   1      -1.803  -1.121   2.446  0.00  0.00    -0.002 A 
ATOM      7  C5  OXE d   1      -2.134  -1.102   1.087  0.00  0.00    -0.002 A 
ATOM      8  C6  OXE d   1      -1.336  -0.384   0.202  0.00  0.00     0.003 A 
ENDROOT
TORSDOF 0
ENDMDL
