MODEL 1
REMARK minimizedAffinity -5.23346996
REMARK minimizedRMSD -1
REMARK  0 active torsions:
REMARK  status: ('A' for Active; 'I' for Inactive)
ROOT
ATOM      1  C2' OXE d   1      -2.558   0.720  -0.752  0.00  0.00     0.078 C 
ATOM      2  C1' OXE d   1       0.243   0.530  -0.801  0.00  0.00     0.078 C 
ATOM      3  C1  OXE d   1      -0.471   0.090   0.453  0.00  0.00    -0.078 A 
ATOM      4  C2  OXE d   1      -1.837   0.231   0.486  0.00  0.00    -0.078 A 
ATOM      5  C3  OXE d   1      -2.550  -0.210   1.597  0.00  0.00     0.003 A 
ATOM      6  C4  OXE d   1      -1.875  -0.653   2.742  0.00  0.00    -0.002 A 
ATOM      7  C5  OXE d   1      -0.481  -0.766   2.744  0.00  0.00    -0.002 A 
ATOM      8  C6  OXE d   1       0.232  -0.440   1.596  0.00  0.00     0.003 A 
ENDROOT
TORSDOF 0
ENDMDL
