MODEL 1
REMARK minimizedAffinity -1.95739412
REMARK minimizedRMSD -1
REMARK  0 active torsions:
REMARK  status: ('A' for Active; 'I' for Inactive)
ROOT
ATOM      1  C2' OXE d   1       1.885   1.409   1.510  0.00  0.00     0.078 C 
ATOM      2  C1' OXE d   1       0.781   0.356  -0.847  0.00  0.00     0.078 C 
ATOM      3  C1  OXE d   1       0.071   0.069   0.452  0.00  0.00    -0.078 A 
ATOM      4  C2  OXE d   1       0.644   0.548   1.606  0.00  0.00    -0.078 A 
ATOM      5  C3  OXE d   1       0.001   0.358   2.825  0.00  0.00     0.003 A 
ATOM      6  C4  OXE d   1      -1.141  -0.448   2.907  0.00  0.00    -0.002 A 
ATOM      7  C5  OXE d   1      -1.718  -0.979   1.749  0.00  0.00    -0.002 A 
ATOM      8  C6  OXE d   1      -1.150  -0.696   0.512  0.00  0.00     0.003 A 
ENDROOT
TORSDOF 0
ENDMDL
