MODEL 1
REMARK minimizedAffinity -2.62148404
REMARK minimizedRMSD -1
REMARK  0 active torsions:
REMARK  status: ('A' for Active; 'I' for Inactive)
ROOT
ATOM      1  C2' OXE d   1       0.640  -2.141  -3.662  0.00  0.00     0.078 C 
ATOM      2  C1' OXE d   1       0.499  -0.027  -1.820  0.00  0.00     0.078 C 
ATOM      3  C1  OXE d   1       1.787  -0.211  -2.583  0.00  0.00    -0.078 A 
ATOM      4  C2  OXE d   1       1.863  -1.276  -3.448  0.00  0.00    -0.078 A 
ATOM      5  C3  OXE d   1       3.009  -1.459  -4.217  0.00  0.00     0.003 A 
ATOM      6  C4  OXE d   1       4.139  -0.661  -4.005  0.00  0.00    -0.002 A 
ATOM      7  C5  OXE d   1       4.097   0.405  -3.100  0.00  0.00    -0.002 A 
ATOM      8  C6  OXE d   1       2.917   0.669  -2.413  0.00  0.00     0.003 A 
ENDROOT
TORSDOF 0
ENDMDL
