MODEL 1
REMARK minimizedAffinity -4.30291462
REMARK minimizedRMSD -1
REMARK  0 active torsions:
REMARK  status: ('A' for Active; 'I' for Inactive)
ROOT
ATOM      1  C2' OXE d   1       0.151   0.429  -1.109  0.00  0.00     0.078 C 
ATOM      2  C1' OXE d   1      -2.593   0.531  -0.525  0.00  0.00     0.078 C 
ATOM      3  C1  OXE d   1      -1.647   0.185   0.597  0.00  0.00    -0.078 A 
ATOM      4  C2  OXE d   1      -0.310   0.092   0.292  0.00  0.00    -0.078 A 
ATOM      5  C3  OXE d   1       0.611  -0.171   1.302  0.00  0.00     0.003 A 
ATOM      6  C4  OXE d   1       0.175  -0.492   2.593  0.00  0.00    -0.002 A 
ATOM      7  C5  OXE d   1      -1.185  -0.442   2.916  0.00  0.00    -0.002 A 
ATOM      8  C6  OXE d   1      -2.103  -0.064   1.942  0.00  0.00     0.003 A 
ENDROOT
TORSDOF 0
ENDMDL
