MODEL 1
REMARK minimizedAffinity -2.93105364
REMARK minimizedRMSD -1
REMARK  0 active torsions:
REMARK  status: ('A' for Active; 'I' for Inactive)
ROOT
ATOM      1  C2' OXE d   1       0.355   0.502  -1.177  0.00  0.00     0.078 C 
ATOM      2  C1' OXE d   1      -2.354   0.356  -0.458  0.00  0.00     0.078 C 
ATOM      3  C1  OXE d   1      -1.327   0.187   0.633  0.00  0.00    -0.078 A 
ATOM      4  C2  OXE d   1      -0.003   0.213   0.265  0.00  0.00    -0.078 A 
ATOM      5  C3  OXE d   1       0.986   0.117   1.239  0.00  0.00     0.003 A 
ATOM      6  C4  OXE d   1       0.646  -0.159   2.569  0.00  0.00    -0.002 A 
ATOM      7  C5  OXE d   1      -0.696  -0.229   2.959  0.00  0.00    -0.002 A 
ATOM      8  C6  OXE d   1      -1.692  -0.017   2.013  0.00  0.00     0.003 A 
ENDROOT
TORSDOF 0
ENDMDL
