MODEL 1
REMARK minimizedAffinity -3.11151433
REMARK minimizedRMSD -1
REMARK  0 active torsions:
REMARK  status: ('A' for Active; 'I' for Inactive)
ROOT
ATOM      1  C4' PXY d   1      -3.380  -0.207   1.181  0.00  0.00     0.077 C 
ATOM      2  C1' PXY d   1       2.303  -0.586   0.194  0.00  0.00     0.077 C 
ATOM      3  C1  PXY d   1       0.811  -0.500   0.450  0.00  0.00    -0.082 A 
ATOM      4  C2  PXY d   1       0.189   0.658   0.302  0.00  0.00     0.003 A 
ATOM      5  C3  PXY d   1      -1.154   0.762   0.561  0.00  0.00     0.003 A 
ATOM      6  C4  PXY d   1      -1.877  -0.343   0.924  0.00  0.00    -0.082 A 
ATOM      7  C5  PXY d   1      -1.251  -1.530   1.066  0.00  0.00     0.003 A 
ATOM      8  C6  PXY d   1       0.121  -1.605   0.839  0.00  0.00     0.003 A 
ENDROOT
TORSDOF 0
ENDMDL
