MODEL 1
REMARK minimizedAffinity -1.46937418
REMARK minimizedRMSD -1
REMARK  0 active torsions:
REMARK  status: ('A' for Active; 'I' for Inactive)
ROOT
ATOM      1  C4' PXY d   1       0.932   1.833  -2.156  0.00  0.00     0.077 C 
ATOM      2  C1' PXY d   1      -0.483  -1.968   1.963  0.00  0.00     0.077 C 
ATOM      3  C1  PXY d   1      -0.120  -0.962   0.888  0.00  0.00    -0.082 A 
ATOM      4  C2  PXY d   1       0.380  -1.386  -0.262  0.00  0.00     0.003 A 
ATOM      5  C3  PXY d   1       0.743  -0.489  -1.233  0.00  0.00     0.003 A 
ATOM      6  C4  PXY d   1       0.543   0.853  -1.046  0.00  0.00    -0.082 A 
ATOM      7  C5  PXY d   1       0.023   1.292   0.120  0.00  0.00     0.003 A 
ATOM      8  C6  PXY d   1      -0.300   0.368   1.109  0.00  0.00     0.003 A 
ENDROOT
TORSDOF 0
ENDMDL
