MODEL 1
REMARK minimizedAffinity -4.7040019
REMARK minimizedRMSD -1
REMARK  0 active torsions:
REMARK  status: ('A' for Active; 'I' for Inactive)
ROOT
ATOM      1  C4' PXY d   1       5.221   1.397  -2.202  0.00  0.00     0.077 C 
ATOM      2  C1' PXY d   1      -0.516   1.771  -2.803  0.00  0.00     0.077 C 
ATOM      3  C1  PXY d   1       0.989   1.662  -2.653  0.00  0.00    -0.082 A 
ATOM      4  C2  PXY d   1       1.581   2.196  -1.597  0.00  0.00     0.003 A 
ATOM      5  C3  PXY d   1       2.944   2.135  -1.462  0.00  0.00     0.003 A 
ATOM      6  C4  PXY d   1       3.703   1.474  -2.390  0.00  0.00    -0.082 A 
ATOM      7  C5  PXY d   1       3.105   0.918  -3.464  0.00  0.00     0.003 A 
ATOM      8  C6  PXY d   1       1.725   1.027  -3.604  0.00  0.00     0.003 A 
ENDROOT
TORSDOF 0
ENDMDL
