MODEL 1
REMARK minimizedAffinity -3.36603475
REMARK minimizedRMSD -1
REMARK  0 active torsions:
REMARK  status: ('A' for Active; 'I' for Inactive)
ROOT
ATOM      1  C4' PXY d   1      -2.063   1.651   0.786  0.00  0.00     0.077 C 
ATOM      2  C1' PXY d   1       1.744  -2.676   0.351  0.00  0.00     0.077 C 
ATOM      3  C1  PXY d   1       0.756  -1.533   0.467  0.00  0.00    -0.082 A 
ATOM      4  C2  PXY d   1      -0.495  -1.783   0.819  0.00  0.00     0.003 A 
ATOM      5  C3  PXY d   1      -1.410  -0.765   0.898  0.00  0.00     0.003 A 
ATOM      6  C4  PXY d   1      -1.029   0.529   0.665  0.00  0.00    -0.082 A 
ATOM      7  C5  PXY d   1       0.248   0.794   0.316  0.00  0.00     0.003 A 
ATOM      8  C6  PXY d   1       1.152  -0.258   0.202  0.00  0.00     0.003 A 
ENDROOT
TORSDOF 0
ENDMDL
