MODEL 1
REMARK minimizedAffinity -2.32925701
REMARK minimizedRMSD -1
REMARK  0 active torsions:
REMARK  status: ('A' for Active; 'I' for Inactive)
ROOT
ATOM      1  C4' PXY d   1       0.892   1.566  -0.893  0.00  0.00     0.077 C 
ATOM      2  C1' PXY d   1      -1.956  -2.915   1.393  0.00  0.00     0.077 C 
ATOM      3  C1  PXY d   1      -1.198  -1.744   0.800  0.00  0.00    -0.082 A 
ATOM      4  C2  PXY d   1      -1.861  -0.669   0.404  0.00  0.00     0.003 A 
ATOM      5  C3  PXY d   1      -1.195   0.386  -0.164  0.00  0.00     0.003 A 
ATOM      6  C4  PXY d   1       0.169   0.363  -0.280  0.00  0.00    -0.082 A 
ATOM      7  C5  PXY d   1       0.854  -0.725   0.132  0.00  0.00     0.003 A 
ATOM      8  C6  PXY d   1       0.155  -1.803   0.668  0.00  0.00     0.003 A 
ENDROOT
TORSDOF 0
ENDMDL
