MODEL 1
REMARK minimizedAffinity -5.20141888
REMARK minimizedRMSD -1
REMARK  0 active torsions:
REMARK  status: ('A' for Active; 'I' for Inactive)
ROOT
ATOM      1  C4' PXY d   1       0.512   1.427  -1.003  0.00  0.00     0.077 C 
ATOM      2  C1' PXY d   1      -1.765  -2.889   2.095  0.00  0.00     0.077 C 
ATOM      3  C1  PXY d   1      -1.156  -1.760   1.287  0.00  0.00    -0.082 A 
ATOM      4  C2  PXY d   1      -1.913  -0.741   0.913  0.00  0.00     0.003 A 
ATOM      5  C3  PXY d   1      -1.386   0.272   0.155  0.00  0.00     0.003 A 
ATOM      6  C4  PXY d   1      -0.058   0.270  -0.179  0.00  0.00    -0.082 A 
ATOM      7  C5  PXY d   1       0.723  -0.761   0.208  0.00  0.00     0.003 A 
ATOM      8  C6  PXY d   1       0.160  -1.800   0.942  0.00  0.00     0.003 A 
ENDROOT
TORSDOF 0
ENDMDL
