MODEL 1
REMARK minimizedAffinity -5.03114128
REMARK minimizedRMSD -1
REMARK  0 active torsions:
REMARK  status: ('A' for Active; 'I' for Inactive)
ROOT
ATOM      1  C4' PXY d   1       0.649   1.619  -0.291  0.00  0.00     0.077 C 
ATOM      2  C1' PXY d   1      -2.989  -2.223   2.037  0.00  0.00     0.077 C 
ATOM      3  C1  PXY d   1      -2.044  -1.207   1.426  0.00  0.00    -0.082 A 
ATOM      4  C2  PXY d   1      -0.978  -1.621   0.761  0.00  0.00     0.003 A 
ATOM      5  C3  PXY d   1      -0.097  -0.716   0.230  0.00  0.00     0.003 A 
ATOM      6  C4  PXY d   1      -0.337   0.628   0.335  0.00  0.00    -0.082 A 
ATOM      7  C5  PXY d   1      -1.428   1.059   1.003  0.00  0.00     0.003 A 
ATOM      8  C6  PXY d   1      -2.288   0.124   1.570  0.00  0.00     0.003 A 
ENDROOT
TORSDOF 0
ENDMDL
