MODEL 1
REMARK minimizedAffinity -5.09798193
REMARK minimizedRMSD -1
REMARK  0 active torsions:
REMARK  status: ('A' for Active; 'I' for Inactive)
ROOT
ATOM      1  C4' PXY d   1      -1.877  -2.992   1.822  0.00  0.00     0.077 C 
ATOM      2  C1' PXY d   1       0.336   1.499  -1.068  0.00  0.00     0.077 C 
ATOM      3  C1  PXY d   1      -0.245   0.328  -0.299  0.00  0.00    -0.082 A 
ATOM      4  C2  PXY d   1      -0.035  -0.906  -0.729  0.00  0.00     0.003 A 
ATOM      5  C3  PXY d   1      -0.580  -1.974  -0.064  0.00  0.00     0.003 A 
ATOM      6  C4  PXY d   1      -1.302  -1.781   1.083  0.00  0.00    -0.082 A 
ATOM      7  C5  PXY d   1      -1.511  -0.526   1.534  0.00  0.00     0.003 A 
ATOM      8  C6  PXY d   1      -0.985   0.547   0.822  0.00  0.00     0.003 A 
ENDROOT
TORSDOF 0
ENDMDL
