MODEL 1
REMARK minimizedAffinity -2.80926251
REMARK minimizedRMSD -1
REMARK  0 active torsions:
REMARK  status: ('A' for Active; 'I' for Inactive)
ROOT
ATOM      1  C4' PXY d   1       0.701   1.499  -1.177  0.00  0.00     0.077 C 
ATOM      2  C1' PXY d   1      -1.875  -3.000   1.379  0.00  0.00     0.077 C 
ATOM      3  C1  PXY d   1      -1.191  -1.820   0.719  0.00  0.00    -0.082 A 
ATOM      4  C2  PXY d   1      -1.873  -1.049  -0.112  0.00  0.00     0.003 A 
ATOM      5  C3  PXY d   1      -1.261   0.004  -0.743  0.00  0.00     0.003 A 
ATOM      6  C4  PXY d   1       0.049   0.302  -0.480  0.00  0.00    -0.082 A 
ATOM      7  C5  PXY d   1       0.749  -0.473   0.375  0.00  0.00     0.003 A 
ATOM      8  C6  PXY d   1       0.121  -1.561   0.973  0.00  0.00     0.003 A 
ENDROOT
TORSDOF 0
ENDMDL
