MODEL 1
REMARK minimizedAffinity -4.95859718
REMARK minimizedRMSD -1
REMARK  0 active torsions:
REMARK  status: ('A' for Active; 'I' for Inactive)
ROOT
ATOM      1  C4' PXY d   1       0.775   1.560  -1.044  0.00  0.00     0.077 C 
ATOM      2  C1' PXY d   1      -1.512  -3.183   1.341  0.00  0.00     0.077 C 
ATOM      3  C1  PXY d   1      -0.924  -1.936   0.710  0.00  0.00    -0.082 A 
ATOM      4  C2  PXY d   1       0.376  -1.875   0.470  0.00  0.00     0.003 A 
ATOM      5  C3  PXY d   1       0.929  -0.743  -0.070  0.00  0.00     0.003 A 
ATOM      6  C4  PXY d   1       0.136   0.318  -0.417  0.00  0.00    -0.082 A 
ATOM      7  C5  PXY d   1      -1.193   0.260  -0.185  0.00  0.00     0.003 A 
ATOM      8  C6  PXY d   1      -1.729  -0.883   0.402  0.00  0.00     0.003 A 
ENDROOT
TORSDOF 0
ENDMDL
