MODEL 1
REMARK minimizedAffinity 3.17473173
REMARK minimizedRMSD -1
REMARK  0 active torsions:
REMARK  status: ('A' for Active; 'I' for Inactive)
ROOT
ATOM      1  C4' PXY d   1      -1.734   1.515   0.055  0.00  0.00     0.077 C 
ATOM      2  C1' PXY d   1       0.067  -3.345   2.613  0.00  0.00     0.077 C 
ATOM      3  C1  PXY d   1      -0.393  -2.068   1.939  0.00  0.00    -0.082 A 
ATOM      4  C2  PXY d   1      -1.521  -1.494   2.325  0.00  0.00     0.003 A 
ATOM      5  C3  PXY d   1      -1.968  -0.356   1.705  0.00  0.00     0.003 A 
ATOM      6  C4  PXY d   1      -1.226   0.230   0.714  0.00  0.00    -0.082 A 
ATOM      7  C5  PXY d   1      -0.069  -0.344   0.322  0.00  0.00     0.003 A 
ATOM      8  C6  PXY d   1       0.347  -1.521   0.937  0.00  0.00     0.003 A 
ENDROOT
TORSDOF 0
ENDMDL
