MODEL 1
REMARK minimizedAffinity 0.169501141
REMARK minimizedRMSD -1
REMARK  0 active torsions:
REMARK  status: ('A' for Active; 'I' for Inactive)
ROOT
ATOM      1  C4' PXY d   1       0.965   2.703  -0.159  0.00  0.00     0.077 C 
ATOM      2  C1' PXY d   1      -2.613  -1.818   0.258  0.00  0.00     0.077 C 
ATOM      3  C1  PXY d   1      -1.685  -0.624   0.146  0.00  0.00    -0.082 A 
ATOM      4  C2  PXY d   1      -0.423  -0.807  -0.207  0.00  0.00     0.003 A 
ATOM      5  C3  PXY d   1       0.438   0.257  -0.281  0.00  0.00     0.003 A 
ATOM      6  C4  PXY d   1      -0.010   1.529  -0.043  0.00  0.00    -0.082 A 
ATOM      7  C5  PXY d   1      -1.299   1.725   0.307  0.00  0.00     0.003 A 
ATOM      8  C6  PXY d   1      -2.147   0.627   0.417  0.00  0.00     0.003 A 
ENDROOT
TORSDOF 0
ENDMDL
