MODEL 1
REMARK minimizedAffinity -3.80093884
REMARK minimizedRMSD -1
REMARK  0 active torsions:
REMARK  status: ('A' for Active; 'I' for Inactive)
ROOT
ATOM      1  C4' PXY d   1       0.430   0.859  -1.997  0.00  0.00     0.077 C 
ATOM      2  C1' PXY d   1      -0.909  -2.621   2.420  0.00  0.00     0.077 C 
ATOM      3  C1  PXY d   1      -0.570  -1.708   1.258  0.00  0.00    -0.082 A 
ATOM      4  C2  PXY d   1       0.665  -1.683   0.785  0.00  0.00     0.003 A 
ATOM      5  C3  PXY d   1       0.996  -0.840  -0.245  0.00  0.00     0.003 A 
ATOM      6  C4  PXY d   1       0.041  -0.054  -0.831  0.00  0.00    -0.082 A 
ATOM      7  C5  PXY d   1      -1.224  -0.082  -0.361  0.00  0.00     0.003 A 
ATOM      8  C6  PXY d   1      -1.530  -0.914   0.712  0.00  0.00     0.003 A 
ENDROOT
TORSDOF 0
ENDMDL
