MODEL 1
REMARK minimizedAffinity -3.79071641
REMARK minimizedRMSD -1
REMARK  0 active torsions:
REMARK  status: ('A' for Active; 'I' for Inactive)
ROOT
ATOM      1  C4' PXY d   1       1.395   2.025  -0.822  0.00  0.00     0.077 C 
ATOM      2  C1' PXY d   1      -1.579  -2.531   1.130  0.00  0.00     0.077 C 
ATOM      3  C1  PXY d   1      -0.788  -1.341   0.623  0.00  0.00    -0.082 A 
ATOM      4  C2  PXY d   1      -1.403  -0.189   0.410  0.00  0.00     0.003 A 
ATOM      5  C3  PXY d   1      -0.710   0.888  -0.079  0.00  0.00     0.003 A 
ATOM      6  C4  PXY d   1       0.638   0.800  -0.302  0.00  0.00    -0.082 A 
ATOM      7  C5  PXY d   1       1.276  -0.368  -0.076  0.00  0.00     0.003 A 
ATOM      8  C6  PXY d   1       0.546  -1.461   0.381  0.00  0.00     0.003 A 
ENDROOT
TORSDOF 0
ENDMDL
