MODEL 1
REMARK minimizedAffinity -2.24599051
REMARK minimizedRMSD -1
REMARK  0 active torsions:
REMARK  status: ('A' for Active; 'I' for Inactive)
ROOT
ATOM      1  C4' PXY d   1       1.856   0.235   0.251  0.00  0.00     0.077 C 
ATOM      2  C1' PXY d   1      -2.620  -3.126   1.695  0.00  0.00     0.077 C 
ATOM      3  C1  PXY d   1      -1.451  -2.243   1.304  0.00  0.00    -0.082 A 
ATOM      4  C2  PXY d   1      -0.296  -2.368   1.938  0.00  0.00     0.003 A 
ATOM      5  C3  PXY d   1       0.761  -1.555   1.620  0.00  0.00     0.003 A 
ATOM      6  C4  PXY d   1       0.652  -0.642   0.606  0.00  0.00    -0.082 A 
ATOM      7  C5  PXY d   1      -0.519  -0.515  -0.053  0.00  0.00     0.003 A 
ATOM      8  C6  PXY d   1      -1.594  -1.321   0.313  0.00  0.00     0.003 A 
ENDROOT
TORSDOF 0
ENDMDL
