MODEL 1
REMARK minimizedAffinity -4.96875334
REMARK minimizedRMSD -1
REMARK  0 active torsions:
REMARK  status: ('A' for Active; 'I' for Inactive)
ROOT
ATOM      1  C4' PXY d   1       1.115   1.936  -1.239  0.00  0.00     0.077 C 
ATOM      2  C1' PXY d   1      -0.776  -2.699   1.652  0.00  0.00     0.077 C 
ATOM      3  C1  PXY d   1      -0.292  -1.478   0.896  0.00  0.00    -0.082 A 
ATOM      4  C2  PXY d   1       0.662  -1.606  -0.012  0.00  0.00     0.003 A 
ATOM      5  C3  PXY d   1       1.134  -0.507  -0.682  0.00  0.00     0.003 A 
ATOM      6  C4  PXY d   1       0.588   0.728  -0.458  0.00  0.00    -0.082 A 
ATOM      7  C5  PXY d   1      -0.393   0.866   0.459  0.00  0.00     0.003 A 
ATOM      8  C6  PXY d   1      -0.829  -0.256   1.158  0.00  0.00     0.003 A 
ENDROOT
TORSDOF 0
ENDMDL
