MODEL 1
REMARK minimizedAffinity -5.14556885
REMARK minimizedRMSD -1
REMARK  0 active torsions:
REMARK  status: ('A' for Active; 'I' for Inactive)
ROOT
ATOM      1  C4' PXY d   1       0.727   1.546  -1.301  0.00  0.00     0.077 C 
ATOM      2  C1' PXY d   1      -1.227  -2.884   1.858  0.00  0.00     0.077 C 
ATOM      3  C1  PXY d   1      -0.704  -1.721   1.037  0.00  0.00    -0.082 A 
ATOM      4  C2  PXY d   1      -1.549  -0.983   0.336  0.00  0.00     0.003 A 
ATOM      5  C3  PXY d   1      -1.089   0.052  -0.437  0.00  0.00     0.003 A 
ATOM      6  C4  PXY d   1       0.243   0.368  -0.450  0.00  0.00    -0.082 A 
ATOM      7  C5  PXY d   1       1.110  -0.374   0.271  0.00  0.00     0.003 A 
ATOM      8  C6  PXY d   1       0.629  -1.446   1.016  0.00  0.00     0.003 A 
ENDROOT
TORSDOF 0
ENDMDL
