MODEL 1
REMARK minimizedAffinity -3.33093858
REMARK minimizedRMSD -1
REMARK  0 active torsions:
REMARK  status: ('A' for Active; 'I' for Inactive)
ROOT
ATOM      1  C4' PXY d   1       1.392   1.966  -1.357  0.00  0.00     0.077 C 
ATOM      2  C1' PXY d   1      -1.202  -2.079   1.857  0.00  0.00     0.077 C 
ATOM      3  C1  PXY d   1      -0.533  -1.012   1.013  0.00  0.00    -0.082 A 
ATOM      4  C2  PXY d   1       0.578  -1.300   0.355  0.00  0.00     0.003 A 
ATOM      5  C3  PXY d   1       1.214  -0.338  -0.388  0.00  0.00     0.003 A 
ATOM      6  C4  PXY d   1       0.677   0.917  -0.500  0.00  0.00    -0.082 A 
ATOM      7  C5  PXY d   1      -0.462   1.215   0.159  0.00  0.00     0.003 A 
ATOM      8  C6  PXY d   1      -1.069   0.237   0.941  0.00  0.00     0.003 A 
ENDROOT
TORSDOF 0
ENDMDL
