MODEL 1
REMARK minimizedAffinity -2.0460465
REMARK minimizedRMSD -1
REMARK  0 active torsions:
REMARK  status: ('A' for Active; 'I' for Inactive)
ROOT
ATOM      1  C4' PXY d   1      -1.896   1.579   1.117  0.00  0.00     0.077 C 
ATOM      2  C1' PXY d   1       1.873  -2.688   0.112  0.00  0.00     0.077 C 
ATOM      3  C1  PXY d   1       0.894  -1.561   0.378  0.00  0.00    -0.082 A 
ATOM      4  C2  PXY d   1      -0.338  -1.843   0.767  0.00  0.00     0.003 A 
ATOM      5  C3  PXY d   1      -1.245  -0.837   0.980  0.00  0.00     0.003 A 
ATOM      6  C4  PXY d   1      -0.871   0.473   0.846  0.00  0.00    -0.082 A 
ATOM      7  C5  PXY d   1       0.388   0.769   0.460  0.00  0.00     0.003 A 
ATOM      8  C6  PXY d   1       1.281  -0.267   0.208  0.00  0.00     0.003 A 
ENDROOT
TORSDOF 0
ENDMDL
