MODEL 1
REMARK minimizedAffinity -5.26452971
REMARK minimizedRMSD -1
REMARK  2 active torsions:
REMARK  status: ('A' for Active; 'I' for Inactive)
REMARK    1  A    between atoms: C1_2  and  C2_3 
REMARK    2  A    between atoms: C2_3  and  C3_4 
ROOT
ATOM      1  C3  UNL d   1      -0.096   0.083   0.583  0.00  0.00    -0.075 A 
ATOM      2  C4  UNL d   1      -1.487  -0.097   0.571  0.00  0.00     0.002 A 
ATOM      3  C5  UNL d   1      -2.192  -0.249   1.765  0.00  0.00     0.002 A 
ATOM      4  C6  UNL d   1      -1.516  -0.235   2.983  0.00  0.00    -0.004 A 
ATOM      5  C7  UNL d   1      -0.133  -0.074   3.006  0.00  0.00     0.002 A 
ATOM      6  C8  UNL d   1       0.575   0.084   1.813  0.00  0.00     0.002 A 
ENDROOT
BRANCH   1   7
ATOM      7  C2  UNL d   1       0.669   0.278  -0.704  0.00  0.00     0.056 C 
BRANCH   7   8
ATOM      8  C1  UNL d   1       0.164  -0.584  -1.867  0.00  0.00     0.007 C 
ATOM      9  C   UNL d   1       1.244  -0.899  -2.893  0.00  0.00     0.009 C 
ENDBRANCH   7   8
ENDBRANCH   1   7
TORSDOF 2
ENDMDL
