MODEL 1
REMARK minimizedAffinity -4.0436902
REMARK minimizedRMSD -1
REMARK  2 active torsions:
REMARK  status: ('A' for Active; 'I' for Inactive)
REMARK    1  A    between atoms: C1_2  and  C2_3 
REMARK    2  A    between atoms: C2_3  and  C3_4 
ROOT
ATOM      1  C3  UNL d   1      -1.204  -0.588   0.493  0.00  0.00    -0.075 A 
ATOM      2  C4  UNL d   1      -0.659  -1.853   0.228  0.00  0.00     0.002 A 
ATOM      3  C5  UNL d   1       0.256  -2.026  -0.811  0.00  0.00     0.002 A 
ATOM      4  C6  UNL d   1       0.629  -0.943  -1.603  0.00  0.00    -0.004 A 
ATOM      5  C7  UNL d   1       0.082   0.315  -1.359  0.00  0.00     0.002 A 
ATOM      6  C8  UNL d   1      -0.831   0.492  -0.317  0.00  0.00     0.002 A 
ENDROOT
BRANCH   1   7
ATOM      7  C2  UNL d   1      -2.172  -0.388   1.634  0.00  0.00     0.056 C 
BRANCH   7   8
ATOM      8  C1  UNL d   1      -1.510  -0.354   3.016  0.00  0.00     0.007 C 
ATOM      9  C   UNL d   1      -1.077   1.044   3.439  0.00  0.00     0.009 C 
ENDBRANCH   7   8
ENDBRANCH   1   7
TORSDOF 2
ENDMDL
