MODEL 1
REMARK minimizedAffinity -6.4672637
REMARK minimizedRMSD -1
REMARK  2 active torsions:
REMARK  status: ('A' for Active; 'I' for Inactive)
REMARK    1  A    between atoms: C1_2  and  C2_3 
REMARK    2  A    between atoms: C2_3  and  C3_4 
ROOT
ATOM      1  C3  UNL d   1      -0.645  -0.316   0.749  0.00  0.00    -0.075 A 
ATOM      2  C4  UNL d   1      -0.242  -0.414   2.089  0.00  0.00     0.002 A 
ATOM      3  C5  UNL d   1      -1.102  -0.027   3.118  0.00  0.00     0.002 A 
ATOM      4  C6  UNL d   1      -2.368   0.472   2.820  0.00  0.00    -0.004 A 
ATOM      5  C7  UNL d   1      -2.773   0.589   1.492  0.00  0.00     0.002 A 
ATOM      6  C8  UNL d   1      -1.916   0.198   0.461  0.00  0.00     0.002 A 
ENDROOT
BRANCH   1   7
ATOM      7  C2  UNL d   1       0.269  -0.761  -0.367  0.00  0.00     0.056 C 
BRANCH   7   8
ATOM      8  C1  UNL d   1       0.430   0.269  -1.490  0.00  0.00     0.007 C 
ATOM      9  C   UNL d   1       0.768  -0.358  -2.836  0.00  0.00     0.009 C 
ENDBRANCH   7   8
ENDBRANCH   1   7
TORSDOF 2
ENDMDL
