MODEL 1
REMARK minimizedAffinity -4.87965155
REMARK minimizedRMSD -1
REMARK  2 active torsions:
REMARK  status: ('A' for Active; 'I' for Inactive)
REMARK    1  A    between atoms: C1_2  and  C2_3 
REMARK    2  A    between atoms: C2_3  and  C3_4 
ROOT
ATOM      1  C3  UNL d   1       0.159   0.228  -0.371  0.00  0.00    -0.075 A 
ATOM      2  C4  UNL d   1      -0.906  -0.278   0.388  0.00  0.00     0.002 A 
ATOM      3  C5  UNL d   1      -0.769  -0.467   1.763  0.00  0.00     0.002 A 
ATOM      4  C6  UNL d   1       0.436  -0.163   2.394  0.00  0.00    -0.004 A 
ATOM      5  C7  UNL d   1       1.506   0.325   1.647  0.00  0.00     0.002 A 
ATOM      6  C8  UNL d   1       1.369   0.519   0.272  0.00  0.00     0.002 A 
ENDROOT
BRANCH   1   7
ATOM      7  C2  UNL d   1       0.007   0.463  -1.855  0.00  0.00     0.056 C 
BRANCH   7   8
ATOM      8  C1  UNL d   1       1.098  -0.196  -2.706  0.00  0.00     0.007 C 
ATOM      9  C   UNL d   1       0.609  -1.425  -3.462  0.00  0.00     0.009 C 
ENDBRANCH   7   8
ENDBRANCH   1   7
TORSDOF 2
ENDMDL
