MODEL 1
REMARK minimizedAffinity -3.65408492
REMARK minimizedRMSD -1
REMARK  2 active torsions:
REMARK  status: ('A' for Active; 'I' for Inactive)
REMARK    1  A    between atoms: C1_2  and  C2_3 
REMARK    2  A    between atoms: C2_3  and  C3_4 
ROOT
ATOM      1  C3  UNL d   1      -1.389   0.064   0.614  0.00  0.00    -0.075 A 
ATOM      2  C4  UNL d   1      -2.603   0.240   1.295  0.00  0.00     0.002 A 
ATOM      3  C5  UNL d   1      -2.649   0.176   2.688  0.00  0.00     0.002 A 
ATOM      4  C6  UNL d   1      -1.488  -0.074   3.416  0.00  0.00    -0.004 A 
ATOM      5  C7  UNL d   1      -0.280  -0.267   2.749  0.00  0.00     0.002 A 
ATOM      6  C8  UNL d   1      -0.230  -0.199   1.356  0.00  0.00     0.002 A 
ENDROOT
BRANCH   1   7
ATOM      7  C2  UNL d   1      -1.327   0.162  -0.891  0.00  0.00     0.056 C 
BRANCH   7   8
ATOM      8  C1  UNL d   1       0.024   0.644  -1.430  0.00  0.00     0.007 C 
ATOM      9  C   UNL d   1       0.488  -0.124  -2.660  0.00  0.00     0.009 C 
ENDBRANCH   7   8
ENDBRANCH   1   7
TORSDOF 2
ENDMDL
