MODEL 1
REMARK minimizedAffinity -5.62272453
REMARK minimizedRMSD -1
REMARK  2 active torsions:
REMARK  status: ('A' for Active; 'I' for Inactive)
REMARK    1  A    between atoms: C1_2  and  C2_3 
REMARK    2  A    between atoms: C2_3  and  C3_4 
ROOT
ATOM      1  C3  UNL d   1       0.045   0.177  -0.000  0.00  0.00    -0.075 A 
ATOM      2  C4  UNL d   1      -1.315   0.090   0.331  0.00  0.00     0.002 A 
ATOM      3  C5  UNL d   1      -1.712  -0.051   1.661  0.00  0.00     0.002 A 
ATOM      4  C6  UNL d   1      -0.757  -0.118   2.673  0.00  0.00    -0.004 A 
ATOM      5  C7  UNL d   1       0.597  -0.050   2.354  0.00  0.00     0.002 A 
ATOM      6  C8  UNL d   1       0.997   0.096   1.024  0.00  0.00     0.002 A 
ENDROOT
BRANCH   1   7
ATOM      7  C2  UNL d   1       0.481   0.360  -1.435  0.00  0.00     0.056 C 
BRANCH   7   8
ATOM      8  C1  UNL d   1       0.508  -0.938  -2.248  0.00  0.00     0.007 C 
ATOM      9  C   UNL d   1       1.623  -0.973  -3.286  0.00  0.00     0.009 C 
ENDBRANCH   7   8
ENDBRANCH   1   7
TORSDOF 2
ENDMDL
