MODEL 1
REMARK minimizedAffinity -5.7522316
REMARK minimizedRMSD -1
REMARK  2 active torsions:
REMARK  status: ('A' for Active; 'I' for Inactive)
REMARK    1  A    between atoms: C1_2  and  C2_3 
REMARK    2  A    between atoms: C2_3  and  C3_4 
ROOT
ATOM      1  C3  UNL d   1      -0.510   0.055   1.067  0.00  0.00    -0.075 A 
ATOM      2  C4  UNL d   1      -0.137  -0.588   2.256  0.00  0.00     0.002 A 
ATOM      3  C5  UNL d   1      -1.098  -0.926   3.210  0.00  0.00     0.002 A 
ATOM      4  C6  UNL d   1      -2.439  -0.617   2.992  0.00  0.00    -0.004 A 
ATOM      5  C7  UNL d   1      -2.819   0.036   1.821  0.00  0.00     0.002 A 
ATOM      6  C8  UNL d   1      -1.860   0.371   0.863  0.00  0.00     0.002 A 
ENDROOT
BRANCH   1   7
ATOM      7  C2  UNL d   1       0.521   0.397   0.017  0.00  0.00     0.056 C 
BRANCH   7   8
ATOM      8  C1  UNL d   1      -0.049   0.522  -1.399  0.00  0.00     0.007 C 
ATOM      9  C   UNL d   1       0.281  -0.671  -2.287  0.00  0.00     0.009 C 
ENDBRANCH   7   8
ENDBRANCH   1   7
TORSDOF 2
ENDMDL
