MODEL 1
REMARK minimizedAffinity -3.85018229
REMARK minimizedRMSD -1
REMARK  2 active torsions:
REMARK  status: ('A' for Active; 'I' for Inactive)
REMARK    1  A    between atoms: C1_2  and  C2_3 
REMARK    2  A    between atoms: C2_3  and  C3_4 
ROOT
ATOM      1  C3  UNL d   1       0.095  -0.147  -1.453  0.00  0.00    -0.075 A 
ATOM      2  C4  UNL d   1      -0.662  -1.177  -2.028  0.00  0.00     0.002 A 
ATOM      3  C5  UNL d   1      -0.303  -1.714  -3.265  0.00  0.00     0.002 A 
ATOM      4  C6  UNL d   1       0.808  -1.221  -3.946  0.00  0.00    -0.004 A 
ATOM      5  C7  UNL d   1       1.557  -0.186  -3.392  0.00  0.00     0.002 A 
ATOM      6  C8  UNL d   1       1.204   0.350  -2.152  0.00  0.00     0.002 A 
ENDROOT
BRANCH   1   7
ATOM      7  C2  UNL d   1      -0.270   0.418  -0.101  0.00  0.00     0.056 C 
BRANCH   7   8
ATOM      8  C1  UNL d   1       0.903   0.492   0.882  0.00  0.00     0.007 C 
ATOM      9  C   UNL d   1       0.513   0.133   2.310  0.00  0.00     0.009 C 
ENDBRANCH   7   8
ENDBRANCH   1   7
TORSDOF 2
ENDMDL
