MODEL 1
REMARK minimizedAffinity -5.38935328
REMARK minimizedRMSD -1
REMARK  2 active torsions:
REMARK  status: ('A' for Active; 'I' for Inactive)
REMARK    1  A    between atoms: C1_2  and  C2_3 
REMARK    2  A    between atoms: C2_3  and  C3_4 
ROOT
ATOM      1  C3  UNL d   1      -0.927   0.025   0.495  0.00  0.00    -0.075 A 
ATOM      2  C4  UNL d   1       0.172  -0.177   1.343  0.00  0.00     0.002 A 
ATOM      3  C5  UNL d   1      -0.021  -0.476   2.692  0.00  0.00     0.002 A 
ATOM      4  C6  UNL d   1      -1.310  -0.566   3.212  0.00  0.00    -0.004 A 
ATOM      5  C7  UNL d   1      -2.408  -0.350   2.383  0.00  0.00     0.002 A 
ATOM      6  C8  UNL d   1      -2.219  -0.056   1.031  0.00  0.00     0.002 A 
ENDROOT
BRANCH   1   7
ATOM      7  C2  UNL d   1      -0.726   0.320  -0.972  0.00  0.00     0.056 C 
BRANCH   7   8
ATOM      8  C1  UNL d   1       0.730   0.597  -1.359  0.00  0.00     0.007 C 
ATOM      9  C   UNL d   1       1.150  -0.093  -2.650  0.00  0.00     0.009 C 
ENDBRANCH   7   8
ENDBRANCH   1   7
TORSDOF 2
ENDMDL
