MODEL 1
REMARK minimizedAffinity -6.0720129
REMARK minimizedRMSD -1
REMARK  2 active torsions:
REMARK  status: ('A' for Active; 'I' for Inactive)
REMARK    1  A    between atoms: C1_2  and  C2_3 
REMARK    2  A    between atoms: C2_3  and  C3_4 
ROOT
ATOM      1  C3  UNL d   1      -0.366   0.265   0.906  0.00  0.00    -0.075 A 
ATOM      2  C4  UNL d   1       0.048   0.146   2.241  0.00  0.00     0.002 A 
ATOM      3  C5  UNL d   1      -0.889  -0.024   3.260  0.00  0.00     0.002 A 
ATOM      4  C6  UNL d   1      -2.249  -0.066   2.961  0.00  0.00    -0.004 A 
ATOM      5  C7  UNL d   1      -2.672   0.068   1.640  0.00  0.00     0.002 A 
ATOM      6  C8  UNL d   1      -1.737   0.234   0.617  0.00  0.00     0.002 A 
ENDROOT
BRANCH   1   7
ATOM      7  C2  UNL d   1       0.645   0.420  -0.205  0.00  0.00     0.056 C 
BRANCH   7   8
ATOM      8  C1  UNL d   1       0.023   0.571  -1.598  0.00  0.00     0.007 C 
ATOM      9  C   UNL d   1       0.696  -0.296  -2.653  0.00  0.00     0.009 C 
ENDBRANCH   7   8
ENDBRANCH   1   7
TORSDOF 2
ENDMDL
