MODEL 1
REMARK minimizedAffinity -4.49797487
REMARK minimizedRMSD -1
REMARK  2 active torsions:
REMARK  status: ('A' for Active; 'I' for Inactive)
REMARK    1  A    between atoms: C1_2  and  C2_3 
REMARK    2  A    between atoms: C2_3  and  C3_4 
ROOT
ATOM      1  C3  UNL d   1      -0.840   0.148   0.964  0.00  0.00    -0.075 A 
ATOM      2  C4  UNL d   1      -0.231   0.358   2.210  0.00  0.00     0.002 A 
ATOM      3  C5  UNL d   1       1.144   0.574   2.298  0.00  0.00     0.002 A 
ATOM      4  C6  UNL d   1       1.928   0.573   1.147  0.00  0.00    -0.004 A 
ATOM      5  C7  UNL d   1       1.337   0.349  -0.094  0.00  0.00     0.002 A 
ATOM      6  C8  UNL d   1      -0.040   0.137  -0.187  0.00  0.00     0.002 A 
ENDROOT
BRANCH   1   7
ATOM      7  C2  UNL d   1      -2.332  -0.057   0.858  0.00  0.00     0.056 C 
BRANCH   7   8
ATOM      8  C1  UNL d   1      -3.110   0.362   2.111  0.00  0.00     0.007 C 
ATOM      9  C   UNL d   1      -3.395   1.856   2.169  0.00  0.00     0.009 C 
ENDBRANCH   7   8
ENDBRANCH   1   7
TORSDOF 2
ENDMDL
