MODEL 1
REMARK minimizedAffinity -5.90162754
REMARK minimizedRMSD -1
REMARK  2 active torsions:
REMARK  status: ('A' for Active; 'I' for Inactive)
REMARK    1  A    between atoms: C1_2  and  C2_3 
REMARK    2  A    between atoms: C2_3  and  C3_4 
ROOT
ATOM      1  C3  UNL d   1      -0.163  -0.051   0.821  0.00  0.00    -0.075 A 
ATOM      2  C4  UNL d   1       0.517  -0.532   1.949  0.00  0.00     0.002 A 
ATOM      3  C5  UNL d   1      -0.186  -0.903   3.095  0.00  0.00     0.002 A 
ATOM      4  C6  UNL d   1      -1.574  -0.789   3.132  0.00  0.00    -0.004 A 
ATOM      5  C7  UNL d   1      -2.259  -0.297   2.023  0.00  0.00     0.002 A 
ATOM      6  C8  UNL d   1      -1.558   0.071   0.873  0.00  0.00     0.002 A 
ENDROOT
BRANCH   1   7
ATOM      7  C2  UNL d   1       0.590   0.324  -0.433  0.00  0.00     0.056 C 
BRANCH   7   8
ATOM      8  C1  UNL d   1      -0.240   0.213  -1.716  0.00  0.00     0.007 C 
ATOM      9  C   UNL d   1       0.193  -0.938  -2.614  0.00  0.00     0.009 C 
ENDBRANCH   7   8
ENDBRANCH   1   7
TORSDOF 2
ENDMDL
