MODEL 1
REMARK minimizedAffinity -6.26067257
REMARK minimizedRMSD -1
REMARK  2 active torsions:
REMARK  status: ('A' for Active; 'I' for Inactive)
REMARK    1  A    between atoms: C1_2  and  C2_3 
REMARK    2  A    between atoms: C2_3  and  C3_4 
ROOT
ATOM      1  C3  UNL d   1      -0.724  -0.014   0.528  0.00  0.00    -0.075 A 
ATOM      2  C4  UNL d   1      -2.026  -0.055   1.045  0.00  0.00     0.002 A 
ATOM      3  C5  UNL d   1      -2.240  -0.225   2.414  0.00  0.00     0.002 A 
ATOM      4  C6  UNL d   1      -1.157  -0.365   3.278  0.00  0.00    -0.004 A 
ATOM      5  C7  UNL d   1       0.141  -0.342   2.773  0.00  0.00     0.002 A 
ATOM      6  C8  UNL d   1       0.358  -0.168   1.405  0.00  0.00     0.002 A 
ENDROOT
BRANCH   1   7
ATOM      7  C2  UNL d   1      -0.485   0.199  -0.948  0.00  0.00     0.056 C 
BRANCH   7   8
ATOM      8  C1  UNL d   1       0.994   0.193  -1.348  0.00  0.00     0.007 C 
ATOM      9  C   UNL d   1       1.294  -0.728  -2.524  0.00  0.00     0.009 C 
ENDBRANCH   7   8
ENDBRANCH   1   7
TORSDOF 2
ENDMDL
