MODEL 1
REMARK minimizedAffinity -3.24083877
REMARK minimizedRMSD -1
REMARK  2 active torsions:
REMARK  status: ('A' for Active; 'I' for Inactive)
REMARK    1  A    between atoms: C1_2  and  C2_3 
REMARK    2  A    between atoms: C2_3  and  C3_4 
ROOT
ATOM      1  C3  UNL d   1       0.423   0.324  -0.138  0.00  0.00    -0.075 A 
ATOM      2  C4  UNL d   1       1.778   0.272   0.219  0.00  0.00     0.002 A 
ATOM      3  C5  UNL d   1       2.157   0.248   1.561  0.00  0.00     0.002 A 
ATOM      4  C6  UNL d   1       1.189   0.286   2.562  0.00  0.00    -0.004 A 
ATOM      5  C7  UNL d   1      -0.160   0.355   2.220  0.00  0.00     0.002 A 
ATOM      6  C8  UNL d   1      -0.542   0.374   0.877  0.00  0.00     0.002 A 
ENDROOT
BRANCH   1   7
ATOM      7  C2  UNL d   1       0.005   0.320  -1.589  0.00  0.00     0.056 C 
BRANCH   7   8
ATOM      8  C1  UNL d   1       1.038  -0.303  -2.533  0.00  0.00     0.007 C 
ATOM      9  C   UNL d   1       0.616  -1.664  -3.070  0.00  0.00     0.009 C 
ENDBRANCH   7   8
ENDBRANCH   1   7
TORSDOF 2
ENDMDL
