MODEL 1
REMARK minimizedAffinity -4.24525738
REMARK minimizedRMSD -1
REMARK  1 active torsions:
REMARK  status: ('A' for Active; 'I' for Inactive)
REMARK    1  A    between atoms: C1_2  and  C2_3 
ROOT
ATOM      1  C2  UNL d   1       0.342   0.967  -0.299  0.00  0.00    -0.077 A 
ATOM      2  C3  UNL d   1       0.270  -0.423  -0.462  0.00  0.00     0.002 A 
ATOM      3  C4  UNL d   1      -0.483  -1.199   0.421  0.00  0.00     0.002 A 
ATOM      4  C5  UNL d   1      -1.173  -0.594   1.470  0.00  0.00    -0.004 A 
ATOM      5  C6  UNL d   1      -1.105   0.788   1.642  0.00  0.00     0.002 A 
ATOM      6  C7  UNL d   1      -0.352   1.565   0.761  0.00  0.00     0.002 A 
ENDROOT
BRANCH   1   7
ATOM      7  C1  UNL d   1       1.114   1.812  -1.279  0.00  0.00     0.055 C 
ATOM      8  C   UNL d   1       0.609   1.611  -2.700  0.00  0.00     0.019 C 
ENDBRANCH   1   7
TORSDOF 1
ENDMDL
