MODEL 1
REMARK minimizedAffinity -5.24120712
REMARK minimizedRMSD -1
REMARK  1 active torsions:
REMARK  status: ('A' for Active; 'I' for Inactive)
REMARK    1  A    between atoms: C1_2  and  C2_3 
ROOT
ATOM      1  C2  UNL d   1       0.215   0.817  -0.167  0.00  0.00    -0.077 A 
ATOM      2  C3  UNL d   1       1.501   0.348   0.135  0.00  0.00     0.002 A 
ATOM      3  C4  UNL d   1       2.536   1.247   0.402  0.00  0.00     0.002 A 
ATOM      4  C5  UNL d   1       2.294   2.619   0.373  0.00  0.00    -0.004 A 
ATOM      5  C6  UNL d   1       1.019   3.095   0.072  0.00  0.00     0.002 A 
ATOM      6  C7  UNL d   1      -0.016   2.199  -0.196  0.00  0.00     0.002 A 
ENDROOT
BRANCH   1   7
ATOM      7  C1  UNL d   1      -0.914  -0.151  -0.406  0.00  0.00     0.055 C 
ATOM      8  C   UNL d   1      -0.428  -1.401  -1.125  0.00  0.00     0.019 C 
ENDBRANCH   1   7
TORSDOF 1
ENDMDL
