MODEL 1
REMARK minimizedAffinity -4.29007244
REMARK minimizedRMSD -1
REMARK  1 active torsions:
REMARK  status: ('A' for Active; 'I' for Inactive)
REMARK    1  A    between atoms: C1_2  and  C2_3 
ROOT
ATOM      1  C2  UNL d   1      -0.235  -0.155   0.166  0.00  0.00    -0.077 A 
ATOM      2  C3  UNL d   1       0.780   0.490  -0.554  0.00  0.00     0.002 A 
ATOM      3  C4  UNL d   1       0.860   1.884  -0.568  0.00  0.00     0.002 A 
ATOM      4  C5  UNL d   1      -0.069   2.644   0.139  0.00  0.00    -0.004 A 
ATOM      5  C6  UNL d   1      -1.083   2.012   0.857  0.00  0.00     0.002 A 
ATOM      6  C7  UNL d   1      -1.166   0.619   0.872  0.00  0.00     0.002 A 
ENDROOT
BRANCH   1   7
ATOM      7  C1  UNL d   1      -0.294  -1.659   0.223  0.00  0.00     0.055 C 
ATOM      8  C   UNL d   1      -0.471  -2.258  -1.165  0.00  0.00     0.019 C 
ENDBRANCH   1   7
TORSDOF 1
ENDMDL
