MODEL 1
REMARK minimizedAffinity -4.97665596
REMARK minimizedRMSD -1
REMARK  1 active torsions:
REMARK  status: ('A' for Active; 'I' for Inactive)
REMARK    1  A    between atoms: C1_2  and  C2_3 
ROOT
ATOM      1  C2  UNL d   1       0.233   0.220   0.290  0.00  0.00    -0.077 A 
ATOM      2  C3  UNL d   1       1.042   0.915  -0.620  0.00  0.00     0.002 A 
ATOM      3  C4  UNL d   1       0.914   2.297  -0.767  0.00  0.00     0.002 A 
ATOM      4  C5  UNL d   1      -0.018   2.997  -0.005  0.00  0.00    -0.004 A 
ATOM      5  C6  UNL d   1      -0.830   2.316   0.901  0.00  0.00     0.002 A 
ATOM      6  C7  UNL d   1      -0.704   0.934   1.049  0.00  0.00     0.002 A 
ENDROOT
BRANCH   1   7
ATOM      7  C1  UNL d   1       0.403  -1.263   0.486  0.00  0.00     0.055 C 
ATOM      8  C   UNL d   1       0.324  -2.009  -0.838  0.00  0.00     0.019 C 
ENDBRANCH   1   7
TORSDOF 1
ENDMDL
