MODEL 1
REMARK minimizedAffinity -4.23663282
REMARK minimizedRMSD -1
REMARK  1 active torsions:
REMARK  status: ('A' for Active; 'I' for Inactive)
REMARK    1  A    between atoms: C1_2  and  C2_3 
ROOT
ATOM      1  C2  UNL d   1       0.332  -0.072   0.357  0.00  0.00    -0.077 A 
ATOM      2  C3  UNL d   1       1.600   0.526   0.367  0.00  0.00     0.002 A 
ATOM      3  C4  UNL d   1       1.725   1.916   0.408  0.00  0.00     0.002 A 
ATOM      4  C5  UNL d   1       0.587   2.719   0.444  0.00  0.00    -0.004 A 
ATOM      5  C6  UNL d   1      -0.678   2.134   0.432  0.00  0.00     0.002 A 
ATOM      6  C7  UNL d   1      -0.805   0.745   0.390  0.00  0.00     0.002 A 
ENDROOT
BRANCH   1   7
ATOM      7  C1  UNL d   1       0.195  -1.572   0.362  0.00  0.00     0.055 C 
ATOM      8  C   UNL d   1      -0.226  -2.094  -1.004  0.00  0.00     0.019 C 
ENDBRANCH   1   7
TORSDOF 1
ENDMDL
