MODEL 1
REMARK minimizedAffinity -3.79880953
REMARK minimizedRMSD -1
REMARK  1 active torsions:
REMARK  status: ('A' for Active; 'I' for Inactive)
REMARK    1  A    between atoms: C1_2  and  C2_3 
ROOT
ATOM      1  C2  UNL d   1      -0.096   1.724   0.791  0.00  0.00    -0.077 A 
ATOM      2  C3  UNL d   1       0.854   1.309  -0.153  0.00  0.00     0.002 A 
ATOM      3  C4  UNL d   1       0.815   0.013  -0.671  0.00  0.00     0.002 A 
ATOM      4  C5  UNL d   1      -0.173  -0.877  -0.255  0.00  0.00    -0.004 A 
ATOM      5  C6  UNL d   1      -1.121  -0.474   0.685  0.00  0.00     0.002 A 
ATOM      6  C7  UNL d   1      -1.084   0.820   1.205  0.00  0.00     0.002 A 
ENDROOT
BRANCH   1   7
ATOM      7  C1  UNL d   1      -0.086   3.136   1.314  0.00  0.00     0.055 C 
ATOM      8  C   UNL d   1      -0.786   3.233   2.662  0.00  0.00     0.019 C 
ENDBRANCH   1   7
TORSDOF 1
ENDMDL
