MODEL 1
REMARK minimizedAffinity -3.4544208
REMARK minimizedRMSD -1
REMARK  1 active torsions:
REMARK  status: ('A' for Active; 'I' for Inactive)
REMARK    1  A    between atoms: C1_2  and  C2_3 
ROOT
ATOM      1  C2  UNL d   1      -0.036   1.432   0.157  0.00  0.00    -0.077 A 
ATOM      2  C3  UNL d   1      -0.935   0.376   0.361  0.00  0.00     0.002 A 
ATOM      3  C4  UNL d   1      -0.466  -0.928   0.530  0.00  0.00     0.002 A 
ATOM      4  C5  UNL d   1       0.902  -1.187   0.501  0.00  0.00    -0.004 A 
ATOM      5  C6  UNL d   1       1.804  -0.144   0.296  0.00  0.00     0.002 A 
ATOM      6  C7  UNL d   1       1.337   1.160   0.126  0.00  0.00     0.002 A 
ENDROOT
BRANCH   1   7
ATOM      7  C1  UNL d   1      -0.538   2.847   0.023  0.00  0.00     0.055 C 
ATOM      8  C   UNL d   1       0.547   3.854   0.375  0.00  0.00     0.019 C 
ENDBRANCH   1   7
TORSDOF 1
ENDMDL
