MODEL 1
REMARK minimizedAffinity -3.83022499
REMARK minimizedRMSD -1
REMARK  1 active torsions:
REMARK  status: ('A' for Active; 'I' for Inactive)
REMARK    1  A    between atoms: C1_2  and  C2_3 
ROOT
ATOM      1  C2  UNL d   1       0.866   0.538  -0.172  0.00  0.00    -0.077 A 
ATOM      2  C3  UNL d   1       0.739   1.884  -0.543  0.00  0.00     0.002 A 
ATOM      3  C4  UNL d   1      -0.305   2.660  -0.037  0.00  0.00     0.002 A 
ATOM      4  C5  UNL d   1      -1.227   2.102   0.845  0.00  0.00    -0.004 A 
ATOM      5  C6  UNL d   1      -1.110   0.764   1.220  0.00  0.00     0.002 A 
ATOM      6  C7  UNL d   1      -0.068  -0.015   0.714  0.00  0.00     0.002 A 
ENDROOT
BRANCH   1   7
ATOM      7  C1  UNL d   1       2.020  -0.288  -0.678  0.00  0.00     0.055 C 
ATOM      8  C   UNL d   1       3.099  -0.441   0.384  0.00  0.00     0.019 C 
ENDBRANCH   1   7
TORSDOF 1
ENDMDL
