MODEL 1
REMARK minimizedAffinity -4.27686882
REMARK minimizedRMSD -1
REMARK  1 active torsions:
REMARK  status: ('A' for Active; 'I' for Inactive)
REMARK    1  A    between atoms: C1_2  and  C2_3 
ROOT
ATOM      1  C2  UNL d   1       0.634   1.201  -0.295  0.00  0.00    -0.077 A 
ATOM      2  C3  UNL d   1       1.864   0.831   0.267  0.00  0.00     0.002 A 
ATOM      3  C4  UNL d   1       2.102  -0.495   0.634  0.00  0.00     0.002 A 
ATOM      4  C5  UNL d   1       1.117  -1.461   0.439  0.00  0.00    -0.004 A 
ATOM      5  C6  UNL d   1      -0.110  -1.103  -0.117  0.00  0.00     0.002 A 
ATOM      6  C7  UNL d   1      -0.350   0.223  -0.483  0.00  0.00     0.002 A 
ENDROOT
BRANCH   1   7
ATOM      7  C1  UNL d   1       0.393   2.621  -0.737  0.00  0.00     0.055 C 
ATOM      8  C   UNL d   1       0.069   3.522   0.446  0.00  0.00     0.019 C 
ENDBRANCH   1   7
TORSDOF 1
ENDMDL
