MODEL 1
REMARK minimizedAffinity 16.2773571
REMARK minimizedRMSD -1
REMARK  3 active torsions:
REMARK  status: ('A' for Active; 'I' for Inactive)
REMARK    1  A    between atoms: C3'_2  and  C2'_3 
REMARK    2  A    between atoms: C2'_3  and  C1'_4 
REMARK    3  A    between atoms: C1'_4  and  C1_5 
ROOT
ATOM      1  C1  N4B d   1       1.247  -0.459   1.976  0.00  0.00    -0.075 A 
ATOM      2  C2  N4B d   1       2.201  -1.081   1.141  0.00  0.00     0.002 A 
ATOM      3  C3  N4B d   1       2.738  -2.294   1.498  0.00  0.00     0.002 A 
ATOM      4  C4  N4B d   1       2.353  -2.891   2.689  0.00  0.00    -0.004 A 
ATOM      5  C5  N4B d   1       1.412  -2.295   3.477  0.00  0.00     0.002 A 
ATOM      6  C6  N4B d   1       0.860  -1.079   3.129  0.00  0.00     0.002 A 
ENDROOT
BRANCH   1   7
ATOM      7  C1' N4B d   1       0.695   0.907   1.671  0.00  0.00     0.057 C 
BRANCH   7   8
ATOM      8  C2' N4B d   1       1.757   1.957   1.983  0.00  0.00     0.009 C 
BRANCH   8   9
ATOM      9  C3' N4B d   1       1.339   2.865   3.127  0.00  0.00     0.004 C 
ATOM     10  C4' N4B d   1       0.391   3.943   2.696  0.00  0.00     0.003 C 
ENDBRANCH   8   9
ENDBRANCH   7   8
ENDBRANCH   1   7
TORSDOF 3
ENDMDL
