MODEL 1
REMARK minimizedAffinity 15.032383
REMARK minimizedRMSD -1
REMARK  3 active torsions:
REMARK  status: ('A' for Active; 'I' for Inactive)
REMARK    1  A    between atoms: C3'_2  and  C2'_3 
REMARK    2  A    between atoms: C2'_3  and  C1'_4 
REMARK    3  A    between atoms: C1'_4  and  C1_5 
ROOT
ATOM      1  C1  N4B d   1      -4.119  -0.804  -2.883  0.00  0.00    -0.075 A 
ATOM      2  C2  N4B d   1      -5.169  -0.711  -1.943  0.00  0.00     0.002 A 
ATOM      3  C3  N4B d   1      -5.363   0.455  -1.244  0.00  0.00     0.002 A 
ATOM      4  C4  N4B d   1      -4.511   1.530  -1.452  0.00  0.00    -0.004 A 
ATOM      5  C5  N4B d   1      -3.516   1.441  -2.380  0.00  0.00     0.002 A 
ATOM      6  C6  N4B d   1      -3.311   0.277  -3.093  0.00  0.00     0.002 A 
ENDROOT
BRANCH   1   7
ATOM      7  C1' N4B d   1      -3.814  -2.085  -3.609  0.00  0.00     0.057 C 
BRANCH   7   8
ATOM      8  C2' N4B d   1      -5.121  -2.718  -4.077  0.00  0.00     0.009 C 
BRANCH   8   9
ATOM      9  C3' N4B d   1      -4.883  -3.983  -4.885  0.00  0.00     0.004 C 
ATOM     10  C4' N4B d   1      -5.871  -4.156  -5.999  0.00  0.00     0.003 C 
ENDBRANCH   8   9
ENDBRANCH   7   8
ENDBRANCH   1   7
TORSDOF 3
ENDMDL
