MODEL 1
REMARK minimizedAffinity 9.38437748
REMARK minimizedRMSD -1
REMARK  3 active torsions:
REMARK  status: ('A' for Active; 'I' for Inactive)
REMARK    1  A    between atoms: C3'_2  and  C2'_3 
REMARK    2  A    between atoms: C2'_3  and  C1'_4 
REMARK    3  A    between atoms: C1'_4  and  C1_5 
ROOT
ATOM      1  C1  N4B d   1       2.640  -1.579   1.532  0.00  0.00    -0.075 A 
ATOM      2  C2  N4B d   1       2.391  -2.371   2.674  0.00  0.00     0.002 A 
ATOM      3  C3  N4B d   1       1.184  -2.281   3.323  0.00  0.00     0.002 A 
ATOM      4  C4  N4B d   1       0.221  -1.396   2.860  0.00  0.00    -0.004 A 
ATOM      5  C5  N4B d   1       0.460  -0.653   1.742  0.00  0.00     0.002 A 
ATOM      6  C6  N4B d   1       1.667  -0.736   1.078  0.00  0.00     0.002 A 
ENDROOT
BRANCH   1   7
ATOM      7  C1' N4B d   1       3.976  -1.580   0.841  0.00  0.00     0.057 C 
BRANCH   7   8
ATOM      8  C2' N4B d   1       4.916  -2.536   1.569  0.00  0.00     0.009 C 
BRANCH   8   9
ATOM      9  C3' N4B d   1       5.999  -1.796   2.335  0.00  0.00     0.004 C 
ATOM     10  C4' N4B d   1       6.000  -2.121   3.799  0.00  0.00     0.003 C 
ENDBRANCH   8   9
ENDBRANCH   7   8
ENDBRANCH   1   7
TORSDOF 3
ENDMDL
