MODEL 1
REMARK minimizedAffinity 5.44248152
REMARK minimizedRMSD -1
REMARK  3 active torsions:
REMARK  status: ('A' for Active; 'I' for Inactive)
REMARK    1  A    between atoms: C3'_2  and  C2'_3 
REMARK    2  A    between atoms: C2'_3  and  C1'_4 
REMARK    3  A    between atoms: C1'_4  and  C1_5 
ROOT
ATOM      1  C1  N4B d   1       2.589  -0.078   2.012  0.00  0.00    -0.075 A 
ATOM      2  C2  N4B d   1       3.276  -1.293   1.800  0.00  0.00     0.002 A 
ATOM      3  C3  N4B d   1       2.864  -2.435   2.442  0.00  0.00     0.002 A 
ATOM      4  C4  N4B d   1       1.785  -2.382   3.312  0.00  0.00    -0.004 A 
ATOM      5  C5  N4B d   1       1.111  -1.210   3.492  0.00  0.00     0.002 A 
ATOM      6  C6  N4B d   1       1.511  -0.055   2.850  0.00  0.00     0.002 A 
ENDROOT
BRANCH   1   7
ATOM      7  C1' N4B d   1       3.054   1.215   1.399  0.00  0.00     0.057 C 
BRANCH   7   8
ATOM      8  C2' N4B d   1       2.875   1.144  -0.115  0.00  0.00     0.009 C 
BRANCH   8   9
ATOM      9  C3' N4B d   1       3.837   0.159  -0.755  0.00  0.00     0.004 C 
ATOM     10  C4' N4B d   1       3.439  -0.219  -2.151  0.00  0.00     0.003 C 
ENDBRANCH   8   9
ENDBRANCH   7   8
ENDBRANCH   1   7
TORSDOF 3
ENDMDL
