MODEL 1
REMARK minimizedAffinity -3.39721084
REMARK minimizedRMSD -1
REMARK  1 active torsions:
REMARK  status: ('A' for Active; 'I' for Inactive)
REMARK    1  A    between atoms: C3_4  and  O_7 
ROOT
ATOM      1  C   UNL d   1       0.175   0.076   0.508  0.00  0.00    -0.033 A 
ATOM      2  C1  UNL d   1      -0.642   0.915  -0.252  0.00  0.00     0.039 A 
ATOM      3  C2  UNL d   1      -1.320   1.972   0.358  0.00  0.00    -0.080 A 
ATOM      4  C3  UNL d   1      -1.172   2.180   1.727  0.00  0.00     0.150 A 
ATOM      5  C4  UNL d   1      -0.356   1.350   2.489  0.00  0.00    -0.007 A 
ATOM      6  C5  UNL d   1       0.320   0.295   1.878  0.00  0.00     0.039 A 
ENDROOT
BRANCH   4   7
ATOM      7  O   UNL d   1      -1.817   3.195   2.367  0.00  0.00    -0.526 OA
ATOM      8  H5  UNL d   1      -2.367   3.667   1.720  0.00  0.00     0.418 HD
ENDBRANCH   4   7
TORSDOF 1
ENDMDL
