MODEL 1
REMARK minimizedAffinity -2.94868684
REMARK minimizedRMSD -1
REMARK  1 active torsions:
REMARK  status: ('A' for Active; 'I' for Inactive)
REMARK    1  A    between atoms: C3_4  and  O_7 
ROOT
ATOM      1  C   UNL d   1       0.010  -0.245   0.383  0.00  0.00    -0.033 A 
ATOM      2  C1  UNL d   1      -0.939   0.463  -0.356  0.00  0.00     0.039 A 
ATOM      3  C2  UNL d   1      -1.473   1.651   0.146  0.00  0.00    -0.080 A 
ATOM      4  C3  UNL d   1      -1.050   2.120   1.386  0.00  0.00     0.150 A 
ATOM      5  C4  UNL d   1      -0.102   1.422   2.127  0.00  0.00    -0.007 A 
ATOM      6  C5  UNL d   1       0.430   0.235   1.624  0.00  0.00     0.039 A 
ENDROOT
BRANCH   4   7
ATOM      7  O   UNL d   1      -1.546   3.272   1.920  0.00  0.00    -0.526 OA
ATOM      8  H5  UNL d   1      -2.212   3.632   1.310  0.00  0.00     0.418 HD
ENDBRANCH   4   7
TORSDOF 1
ENDMDL
