MODEL 1
REMARK minimizedAffinity 0.771657586
REMARK minimizedRMSD -1
REMARK  1 active torsions:
REMARK  status: ('A' for Active; 'I' for Inactive)
REMARK    1  A    between atoms: C3_4  and  O_7 
ROOT
ATOM      1  C   UNL d   1       0.741  -1.070   0.275  0.00  0.00    -0.033 A 
ATOM      2  C1  UNL d   1       1.289  -0.711   1.508  0.00  0.00     0.039 A 
ATOM      3  C2  UNL d   1       0.881   0.466   2.139  0.00  0.00    -0.080 A 
ATOM      4  C3  UNL d   1      -0.076   1.273   1.529  0.00  0.00     0.150 A 
ATOM      5  C4  UNL d   1      -0.629   0.919   0.302  0.00  0.00    -0.007 A 
ATOM      6  C5  UNL d   1      -0.219  -0.256  -0.327  0.00  0.00     0.039 A 
ENDROOT
BRANCH   4   7
ATOM      7  O   UNL d   1      -0.502   2.433   2.104  0.00  0.00    -0.526 OA
ATOM      8  H5  UNL d   1      -0.012   2.563   2.933  0.00  0.00     0.418 HD
ENDBRANCH   4   7
TORSDOF 1
ENDMDL
