MODEL 1
REMARK minimizedAffinity -3.34518003
REMARK minimizedRMSD -1
REMARK  1 active torsions:
REMARK  status: ('A' for Active; 'I' for Inactive)
REMARK    1  A    between atoms: C3_4  and  O_7 
ROOT
ATOM      1  C   UNL d   1      -0.240   1.340   2.133  0.00  0.00    -0.033 A 
ATOM      2  C1  UNL d   1      -0.515   0.036   2.548  0.00  0.00     0.039 A 
ATOM      3  C2  UNL d   1      -0.583  -0.998   1.612  0.00  0.00    -0.080 A 
ATOM      4  C3  UNL d   1      -0.373  -0.714   0.265  0.00  0.00     0.150 A 
ATOM      5  C4  UNL d   1      -0.095   0.582  -0.156  0.00  0.00    -0.007 A 
ATOM      6  C5  UNL d   1      -0.029   1.613   0.781  0.00  0.00     0.039 A 
ENDROOT
BRANCH   4   7
ATOM      7  O   UNL d   1      -0.434  -1.689  -0.686  0.00  0.00    -0.526 OA
ATOM      8  H5  UNL d   1      -0.663  -2.528  -0.253  0.00  0.00     0.418 HD
ENDBRANCH   4   7
TORSDOF 1
ENDMDL
