MODEL 1
REMARK minimizedAffinity -3.7001605
REMARK minimizedRMSD -1
REMARK  1 active torsions:
REMARK  status: ('A' for Active; 'I' for Inactive)
REMARK    1  A    between atoms: C3_4  and  O_7 
ROOT
ATOM      1  C   UNL d   1      -0.006  -1.502  -0.977  0.00  0.00    -0.033 A 
ATOM      2  C1  UNL d   1       1.018  -0.578  -0.758  0.00  0.00     0.039 A 
ATOM      3  C2  UNL d   1       0.983   0.251   0.365  0.00  0.00    -0.080 A 
ATOM      4  C3  UNL d   1      -0.079   0.147   1.259  0.00  0.00     0.150 A 
ATOM      5  C4  UNL d   1      -1.100  -0.774   1.049  0.00  0.00    -0.007 A 
ATOM      6  C5  UNL d   1      -1.064  -1.601  -0.073  0.00  0.00     0.039 A 
ENDROOT
BRANCH   4   7
ATOM      7  O   UNL d   1      -0.158   0.939   2.366  0.00  0.00    -0.526 OA
ATOM      8  H5  UNL d   1       0.601   1.546   2.366  0.00  0.00     0.418 HD
ENDBRANCH   4   7
TORSDOF 1
ENDMDL
