MODEL 1
REMARK minimizedAffinity -4.47507429
REMARK minimizedRMSD -1
REMARK  1 active torsions:
REMARK  status: ('A' for Active; 'I' for Inactive)
REMARK    1  A    between atoms: C3_4  and  O_7 
ROOT
ATOM      1  C   UNL d   1       1.499  -2.985  -0.710  0.00  0.00    -0.033 A 
ATOM      2  C1  UNL d   1       0.932  -1.711  -0.643  0.00  0.00     0.039 A 
ATOM      3  C2  UNL d   1      -0.437  -1.542  -0.860  0.00  0.00    -0.080 A 
ATOM      4  C3  UNL d   1      -1.227  -2.654  -1.140  0.00  0.00     0.150 A 
ATOM      5  C4  UNL d   1      -0.669  -3.927  -1.204  0.00  0.00    -0.007 A 
ATOM      6  C5  UNL d   1       0.699  -4.093  -0.989  0.00  0.00     0.039 A 
ENDROOT
BRANCH   4   7
ATOM      7  O   UNL d   1      -2.567  -2.539  -1.364  0.00  0.00    -0.526 OA
ATOM      8  H5  UNL d   1      -2.807  -1.599  -1.316  0.00  0.00     0.418 HD
ENDBRANCH   4   7
TORSDOF 1
ENDMDL
