MODEL 1
REMARK minimizedAffinity 2.68143559
REMARK minimizedRMSD -1
REMARK  1 active torsions:
REMARK  status: ('A' for Active; 'I' for Inactive)
REMARK    1  A    between atoms: C3_4  and  O_7 
ROOT
ATOM      1  C   UNL d   1       0.985  -0.786   1.740  0.00  0.00    -0.033 A 
ATOM      2  C1  UNL d   1       1.163  -0.075   0.552  0.00  0.00     0.039 A 
ATOM      3  C2  UNL d   1       0.908   1.297   0.513  0.00  0.00    -0.080 A 
ATOM      4  C3  UNL d   1       0.479   1.946   1.668  0.00  0.00     0.150 A 
ATOM      5  C4  UNL d   1       0.304   1.244   2.856  0.00  0.00    -0.007 A 
ATOM      6  C5  UNL d   1       0.557  -0.126   2.892  0.00  0.00     0.039 A 
ENDROOT
BRANCH   4   7
ATOM      7  O   UNL d   1       0.213   3.283   1.677  0.00  0.00    -0.526 OA
ATOM      8  H5  UNL d   1       0.351   3.630   0.780  0.00  0.00     0.418 HD
ENDBRANCH   4   7
TORSDOF 1
ENDMDL
