MODEL 1
REMARK minimizedAffinity 4.70632458
REMARK minimizedRMSD -1
REMARK  1 active torsions:
REMARK  status: ('A' for Active; 'I' for Inactive)
REMARK    1  A    between atoms: C3_4  and  O_7 
ROOT
ATOM      1  C   UNL d   1      -5.953   4.715  -5.927  0.00  0.00    -0.033 A 
ATOM      2  C1  UNL d   1      -4.912   5.644  -5.976  0.00  0.00     0.039 A 
ATOM      3  C2  UNL d   1      -3.917   5.633  -4.996  0.00  0.00    -0.080 A 
ATOM      4  C3  UNL d   1      -3.975   4.689  -3.974  0.00  0.00     0.150 A 
ATOM      5  C4  UNL d   1      -5.007   3.758  -3.921  0.00  0.00    -0.007 A 
ATOM      6  C5  UNL d   1      -6.000   3.771  -4.900  0.00  0.00     0.039 A 
ENDROOT
BRANCH   4   7
ATOM      7  O   UNL d   1      -3.030   4.643  -2.993  0.00  0.00    -0.526 OA
ATOM      8  H5  UNL d   1      -2.395   5.363  -3.143  0.00  0.00     0.418 HD
ENDBRANCH   4   7
TORSDOF 1
ENDMDL
