MODEL 1
REMARK minimizedAffinity -0.343156397
REMARK minimizedRMSD -1
REMARK  1 active torsions:
REMARK  status: ('A' for Active; 'I' for Inactive)
REMARK    1  A    between atoms: C3_4  and  O_7 
ROOT
ATOM      1  C   UNL d   1      -1.396  -3.999  -2.658  0.00  0.00    -0.033 A 
ATOM      2  C1  UNL d   1      -1.272  -3.156  -3.764  0.00  0.00     0.039 A 
ATOM      3  C2  UNL d   1      -0.532  -1.976  -3.666  0.00  0.00    -0.080 A 
ATOM      4  C3  UNL d   1       0.079  -1.652  -2.458  0.00  0.00     0.150 A 
ATOM      5  C4  UNL d   1      -0.036  -2.489  -1.353  0.00  0.00    -0.007 A 
ATOM      6  C5  UNL d   1      -0.777  -3.666  -1.453  0.00  0.00     0.039 A 
ENDROOT
BRANCH   4   7
ATOM      7  O   UNL d   1       0.808  -0.509  -2.312  0.00  0.00    -0.526 OA
ATOM      8  H5  UNL d   1       0.777  -0.015  -3.148  0.00  0.00     0.418 HD
ENDBRANCH   4   7
TORSDOF 1
ENDMDL
