MODEL 1
REMARK minimizedAffinity 8.58741379
REMARK minimizedRMSD -1
REMARK  2 active torsions:
REMARK  status: ('A' for Active; 'I' for Inactive)
REMARK    1  A    between atoms: C2'_3  and  C1'_4 
REMARK    2  A    between atoms: C1'_4  and  C1_5 
ROOT
ATOM      1  C1  I4B d   1      -3.287   2.182   0.700  0.00  0.00    -0.075 A 
ATOM      2  C2  I4B d   1      -3.931   2.805  -0.339  0.00  0.00     0.003 A 
ATOM      3  C3  I4B d   1      -5.224   3.350  -0.152  0.00  0.00     0.002 A 
ATOM      4  C4  I4B d   1      -5.853   3.206   1.068  0.00  0.00    -0.004 A 
ATOM      5  C5  I4B d   1      -5.189   2.593   2.127  0.00  0.00     0.002 A 
ATOM      6  C6  I4B d   1      -3.893   2.089   1.946  0.00  0.00     0.003 A 
ENDROOT
BRANCH   1   7
ATOM      7  C1' I4B d   1      -1.935   1.589   0.458  0.00  0.00     0.060 C 
BRANCH   7   8
ATOM      8  C2' I4B d   1      -2.100   0.088   0.332  0.00  0.00    -0.013 C 
ATOM      9  C4' I4B d   1      -2.327  -0.318  -1.100  0.00  0.00     0.013 C 
ATOM     10  C3' I4B d   1      -0.868  -0.562   0.889  0.00  0.00     0.013 C 
ENDBRANCH   7   8
ENDBRANCH   1   7
TORSDOF 2
ENDMDL
