MODEL 1
REMARK minimizedAffinity 4.37614584
REMARK minimizedRMSD -1
REMARK  2 active torsions:
REMARK  status: ('A' for Active; 'I' for Inactive)
REMARK    1  A    between atoms: C2'_3  and  C1'_4 
REMARK    2  A    between atoms: C1'_4  and  C1_5 
ROOT
ATOM      1  C1  I4B d   1      -3.449   2.157   1.023  0.00  0.00    -0.075 A 
ATOM      2  C2  I4B d   1      -3.918   2.132   2.312  0.00  0.00     0.003 A 
ATOM      3  C3  I4B d   1      -5.222   2.601   2.606  0.00  0.00     0.002 A 
ATOM      4  C4  I4B d   1      -5.998   3.128   1.595  0.00  0.00    -0.004 A 
ATOM      5  C5  I4B d   1      -5.530   3.131   0.284  0.00  0.00     0.002 A 
ATOM      6  C6  I4B d   1      -4.252   2.631  -0.007  0.00  0.00     0.003 A 
ENDROOT
BRANCH   1   7
ATOM      7  C1' I4B d   1      -2.056   1.685   0.753  0.00  0.00     0.060 C 
BRANCH   7   8
ATOM      8  C2' I4B d   1      -2.079   0.171   0.693  0.00  0.00    -0.013 C 
ATOM      9  C4' I4B d   1      -2.391  -0.315  -0.698  0.00  0.00     0.013 C 
ATOM     10  C3' I4B d   1      -0.744  -0.331   1.155  0.00  0.00     0.013 C 
ENDBRANCH   7   8
ENDBRANCH   1   7
TORSDOF 2
ENDMDL
