MODEL 1
REMARK minimizedAffinity 3.38102484
REMARK minimizedRMSD -1
REMARK  2 active torsions:
REMARK  status: ('A' for Active; 'I' for Inactive)
REMARK    1  A    between atoms: C2'_3  and  C1'_4 
REMARK    2  A    between atoms: C1'_4  and  C1_5 
ROOT
ATOM      1  C1  I4B d   1       3.074  -1.746  -1.270  0.00  0.00    -0.075 A 
ATOM      2  C2  I4B d   1       4.007  -2.321  -2.097  0.00  0.00     0.003 A 
ATOM      3  C3  I4B d   1       3.593  -3.136  -3.179  0.00  0.00     0.002 A 
ATOM      4  C4  I4B d   1       2.250  -3.388  -3.366  0.00  0.00    -0.004 A 
ATOM      5  C5  I4B d   1       1.305  -2.785  -2.540  0.00  0.00     0.002 A 
ATOM      6  C6  I4B d   1       1.719  -1.949  -1.493  0.00  0.00     0.003 A 
ENDROOT
BRANCH   1   7
ATOM      7  C1' I4B d   1       3.547  -0.918  -0.118  0.00  0.00     0.060 C 
BRANCH   7   8
ATOM      8  C2' I4B d   1       2.355  -0.161   0.433  0.00  0.00    -0.013 C 
ATOM      9  C4' I4B d   1       1.730  -0.895   1.589  0.00  0.00     0.013 C 
ATOM     10  C3' I4B d   1       2.823   1.202   0.847  0.00  0.00     0.013 C 
ENDBRANCH   7   8
ENDBRANCH   1   7
TORSDOF 2
ENDMDL
