MODEL 1
REMARK minimizedAffinity 5.68436766
REMARK minimizedRMSD -1
REMARK  0 active torsions:
REMARK  status: ('A' for Active; 'I' for Inactive)
ROOT
ATOM      1  O1  BZF d   1       2.026  -2.939   1.938  0.00  0.00    -0.204 OA
ATOM      2  C2  BZF d   1       2.888  -2.049   2.548  0.00  0.00     0.174 A 
ATOM      3  C3  BZF d   1       3.331  -1.131   1.666  0.00  0.00    -0.012 A 
ATOM      4  C3A BZF d   1       2.635  -1.412   0.448  0.00  0.00    -0.107 A 
ATOM      5  C4  BZF d   1       2.637  -0.835  -0.789  0.00  0.00     0.055 A 
ATOM      6  C5  BZF d   1       1.897  -1.396  -1.782  0.00  0.00    -0.016 A 
ATOM      7  C6  BZF d   1       1.150  -2.537  -1.573  0.00  0.00     0.022 A 
ATOM      8  C7  BZF d   1       1.113  -3.143  -0.361  0.00  0.00     0.029 A 
ATOM      9  C7A BZF d   1       1.833  -2.559   0.652  0.00  0.00     0.058 A 
ENDROOT
TORSDOF 0
ENDMDL
