MODEL 1
REMARK minimizedAffinity 9.44431591
REMARK minimizedRMSD -1
REMARK  0 active torsions:
REMARK  status: ('A' for Active; 'I' for Inactive)
ROOT
ATOM      1  O1  BZF d   1       2.140   0.744   1.185  0.00  0.00    -0.204 OA
ATOM      2  C2  BZF d   1       2.098   1.587   0.091  0.00  0.00     0.174 A 
ATOM      3  C3  BZF d   1       1.012   2.384   0.143  0.00  0.00    -0.012 A 
ATOM      4  C3A BZF d   1       0.381   2.081   1.391  0.00  0.00    -0.107 A 
ATOM      5  C4  BZF d   1      -0.733   2.557   2.020  0.00  0.00     0.055 A 
ATOM      6  C5  BZF d   1      -1.117   1.998   3.197  0.00  0.00    -0.016 A 
ATOM      7  C6  BZF d   1      -0.413   0.959   3.771  0.00  0.00     0.022 A 
ATOM      8  C7  BZF d   1       0.701   0.456   3.186  0.00  0.00     0.029 A 
ATOM      9  C7A BZF d   1       1.110   1.041   2.013  0.00  0.00     0.058 A 
ENDROOT
TORSDOF 0
ENDMDL
