MODEL 1
REMARK minimizedAffinity 8.75361919
REMARK minimizedRMSD -1
REMARK  0 active torsions:
REMARK  status: ('A' for Active; 'I' for Inactive)
ROOT
ATOM      1  O1  BZF d   1       3.823  -0.455   1.133  0.00  0.00    -0.204 OA
ATOM      2  C2  BZF d   1       3.761   0.790   0.538  0.00  0.00     0.174 A 
ATOM      3  C3  BZF d   1       2.770   0.834  -0.376  0.00  0.00    -0.012 A 
ATOM      4  C3A BZF d   1       2.117  -0.435  -0.285  0.00  0.00    -0.107 A 
ATOM      5  C4  BZF d   1       1.047  -0.989  -0.929  0.00  0.00     0.055 A 
ATOM      6  C5  BZF d   1       0.709  -2.278  -0.659  0.00  0.00    -0.016 A 
ATOM      7  C6  BZF d   1       1.421  -3.042   0.242  0.00  0.00     0.022 A 
ATOM      8  C7  BZF d   1       2.486  -2.534   0.909  0.00  0.00     0.029 A 
ATOM      9  C7A BZF d   1       2.810  -1.222   0.664  0.00  0.00     0.058 A 
ENDROOT
TORSDOF 0
ENDMDL
