MODEL 1
REMARK minimizedAffinity 6.39116001
REMARK minimizedRMSD -1
REMARK  0 active torsions:
REMARK  status: ('A' for Active; 'I' for Inactive)
ROOT
ATOM      1  O1  BZF d   1      -5.749   3.812  -3.748  0.00  0.00    -0.204 OA
ATOM      2  C2  BZF d   1      -6.000   4.569  -2.620  0.00  0.00     0.174 A 
ATOM      3  C3  BZF d   1      -5.815   3.838  -1.502  0.00  0.00    -0.012 A 
ATOM      4  C3A BZF d   1      -5.335   2.569  -1.957  0.00  0.00    -0.107 A 
ATOM      5  C4  BZF d   1      -4.957   1.424  -1.317  0.00  0.00     0.055 A 
ATOM      6  C5  BZF d   1      -4.607   0.338  -2.057  0.00  0.00    -0.016 A 
ATOM      7  C6  BZF d   1      -4.630   0.362  -3.436  0.00  0.00     0.022 A 
ATOM      8  C7  BZF d   1      -4.994   1.477  -4.116  0.00  0.00     0.029 A 
ATOM      9  C7A BZF d   1      -5.316   2.585  -3.371  0.00  0.00     0.058 A 
ENDROOT
TORSDOF 0
ENDMDL
