MODEL 1
REMARK minimizedAffinity 7.08375072
REMARK minimizedRMSD -1
REMARK  0 active torsions:
REMARK  status: ('A' for Active; 'I' for Inactive)
ROOT
ATOM      1  O1  BZF d   1       1.380   1.108  -0.281  0.00  0.00    -0.204 OA
ATOM      2  C2  BZF d   1       1.690   2.018   0.711  0.00  0.00     0.174 A 
ATOM      3  C3  BZF d   1       2.368   1.421   1.713  0.00  0.00    -0.012 A 
ATOM      4  C3A BZF d   1       2.569   0.072   1.280  0.00  0.00    -0.107 A 
ATOM      5  C4  BZF d   1       3.192  -1.009   1.835  0.00  0.00     0.055 A 
ATOM      6  C5  BZF d   1       3.147  -2.202   1.186  0.00  0.00    -0.016 A 
ATOM      7  C6  BZF d   1       2.485  -2.351  -0.015  0.00  0.00     0.022 A 
ATOM      8  C7  BZF d   1       1.856  -1.306  -0.607  0.00  0.00     0.029 A 
ATOM      9  C7A BZF d   1       1.928  -0.091   0.030  0.00  0.00     0.058 A 
ENDROOT
TORSDOF 0
ENDMDL
