MODEL 1
REMARK minimizedAffinity 6.24178886
REMARK minimizedRMSD -1
REMARK  0 active torsions:
REMARK  status: ('A' for Active; 'I' for Inactive)
ROOT
ATOM      1  O1  BZF d   1       0.765   0.929  -0.190  0.00  0.00    -0.204 OA
ATOM      2  C2  BZF d   1       0.881   2.251   0.195  0.00  0.00     0.174 A 
ATOM      3  C3  BZF d   1       2.107   2.497   0.699  0.00  0.00    -0.012 A 
ATOM      4  C3A BZF d   1       2.832   1.273   0.540  0.00  0.00    -0.107 A 
ATOM      5  C4  BZF d   1       4.110   0.894   0.836  0.00  0.00     0.055 A 
ATOM      6  C5  BZF d   1       4.482  -0.396   0.623  0.00  0.00    -0.016 A 
ATOM      7  C6  BZF d   1       3.602  -1.332   0.119  0.00  0.00     0.022 A 
ATOM      8  C7  BZF d   1       2.326  -1.001  -0.195  0.00  0.00     0.029 A 
ATOM      9  C7A BZF d   1       1.956   0.309  -0.011  0.00  0.00     0.058 A 
ENDROOT
TORSDOF 0
ENDMDL
