MODEL 1
REMARK minimizedAffinity 4.91136169
REMARK minimizedRMSD -1
REMARK  0 active torsions:
REMARK  status: ('A' for Active; 'I' for Inactive)
ROOT
ATOM      1  O1  BZF d   1       3.331  -2.950   1.634  0.00  0.00    -0.204 OA
ATOM      2  C2  BZF d   1       2.061  -3.079   1.106  0.00  0.00     0.174 A 
ATOM      3  C3  BZF d   1       1.683  -1.943   0.485  0.00  0.00    -0.012 A 
ATOM      4  C3A BZF d   1       2.822  -1.080   0.555  0.00  0.00    -0.107 A 
ATOM      5  C4  BZF d   1       3.070   0.184   0.101  0.00  0.00     0.055 A 
ATOM      6  C5  BZF d   1       4.260   0.770   0.398  0.00  0.00    -0.016 A 
ATOM      7  C6  BZF d   1       5.220   0.125   1.149  0.00  0.00     0.022 A 
ATOM      8  C7  BZF d   1       5.021  -1.132   1.617  0.00  0.00     0.029 A 
ATOM      9  C7A BZF d   1       3.833  -1.739   1.290  0.00  0.00     0.058 A 
ENDROOT
TORSDOF 0
ENDMDL
