MODEL 1
REMARK minimizedAffinity 14.3133392
REMARK minimizedRMSD -1
REMARK  0 active torsions:
REMARK  status: ('A' for Active; 'I' for Inactive)
ROOT
ATOM      1  O1  BZF d   1       2.984  -2.800  -0.123  0.00  0.00    -0.204 OA
ATOM      2  C2  BZF d   1       3.018  -2.041  -1.277  0.00  0.00     0.174 A 
ATOM      3  C3  BZF d   1       2.620  -0.777  -1.030  0.00  0.00    -0.012 A 
ATOM      4  C3A BZF d   1       2.407  -0.718   0.384  0.00  0.00    -0.107 A 
ATOM      5  C4  BZF d   1       2.019   0.277   1.234  0.00  0.00     0.055 A 
ATOM      6  C5  BZF d   1       1.836  -0.012   2.549  0.00  0.00    -0.016 A 
ATOM      7  C6  BZF d   1       2.028  -1.285   3.047  0.00  0.00     0.022 A 
ATOM      8  C7  BZF d   1       2.418  -2.303   2.242  0.00  0.00     0.029 A 
ATOM      9  C7A BZF d   1       2.635  -2.007   0.919  0.00  0.00     0.058 A 
ENDROOT
TORSDOF 0
ENDMDL
