MODEL 1
REMARK minimizedAffinity 4.90595865
REMARK minimizedRMSD -1
REMARK  0 active torsions:
REMARK  status: ('A' for Active; 'I' for Inactive)
ROOT
ATOM      1  O1  BZF d   1      -5.892  -1.942  -1.817  0.00  0.00    -0.204 OA
ATOM      2  C2  BZF d   1      -5.855  -3.132  -1.115  0.00  0.00     0.174 A 
ATOM      3  C3  BZF d   1      -5.818  -2.902   0.213  0.00  0.00    -0.012 A 
ATOM      4  C3A BZF d   1      -5.926  -1.482   0.353  0.00  0.00    -0.107 A 
ATOM      5  C4  BZF d   1      -5.962  -0.645   1.431  0.00  0.00     0.055 A 
ATOM      6  C5  BZF d   1      -5.998   0.698   1.224  0.00  0.00    -0.016 A 
ATOM      7  C6  BZF d   1      -5.993   1.237  -0.046  0.00  0.00     0.022 A 
ATOM      8  C7  BZF d   1      -5.962   0.446  -1.146  0.00  0.00     0.029 A 
ATOM      9  C7A BZF d   1      -5.959  -0.912  -0.940  0.00  0.00     0.058 A 
ENDROOT
TORSDOF 0
ENDMDL
