MODEL 1
REMARK minimizedAffinity -0.00723374588
REMARK minimizedRMSD -1
REMARK  0 active torsions:
REMARK  status: ('A' for Active; 'I' for Inactive)
ROOT
ATOM      1  O1  BZF d   1       1.677  -0.547   0.090  0.00  0.00    -0.204 OA
ATOM      2  C2  BZF d   1       1.733  -1.877  -0.282  0.00  0.00     0.174 A 
ATOM      3  C3  BZF d   1       2.626  -2.058  -1.277  0.00  0.00    -0.012 A 
ATOM      4  C3A BZF d   1       3.227  -0.776  -1.480  0.00  0.00    -0.107 A 
ATOM      5  C4  BZF d   1       4.199  -0.318  -2.324  0.00  0.00     0.055 A 
ATOM      6  C5  BZF d   1       4.505   1.006  -2.322  0.00  0.00    -0.016 A 
ATOM      7  C6  BZF d   1       3.857   1.900  -1.495  0.00  0.00     0.022 A 
ATOM      8  C7  BZF d   1       2.890   1.492  -0.638  0.00  0.00     0.029 A 
ATOM      9  C7A BZF d   1       2.602   0.150  -0.613  0.00  0.00     0.058 A 
ENDROOT
TORSDOF 0
ENDMDL
