MODEL 1
REMARK minimizedAffinity 0.764756203
REMARK minimizedRMSD -1
REMARK  0 active torsions:
REMARK  status: ('A' for Active; 'I' for Inactive)
ROOT
ATOM      1  O1  BZF d   1      -0.453   0.714   1.810  0.00  0.00    -0.204 OA
ATOM      2  C2  BZF d   1      -1.721   0.399   1.364  0.00  0.00     0.174 A 
ATOM      3  C3  BZF d   1      -1.688  -0.673   0.546  0.00  0.00    -0.012 A 
ATOM      4  C3A BZF d   1      -0.325  -1.108   0.550  0.00  0.00    -0.107 A 
ATOM      5  C4  BZF d   1       0.335  -2.137  -0.059  0.00  0.00     0.055 A 
ATOM      6  C5  BZF d   1       1.681  -2.241   0.094  0.00  0.00    -0.016 A 
ATOM      7  C6  BZF d   1       2.399  -1.332   0.844  0.00  0.00     0.022 A 
ATOM      8  C7  BZF d   1       1.788  -0.298   1.471  0.00  0.00     0.029 A 
ATOM      9  C7A BZF d   1       0.423  -0.209   1.346  0.00  0.00     0.058 A 
ENDROOT
TORSDOF 0
ENDMDL
