MODEL 1
REMARK minimizedAffinity -2.50673294
REMARK minimizedRMSD -1
REMARK  0 active torsions:
REMARK  status: ('A' for Active; 'I' for Inactive)
ROOT
ATOM      1  O1  BZF d   1      -0.662   0.952   1.955  0.00  0.00    -0.204 OA
ATOM      2  C2  BZF d   1      -1.894   0.838   1.342  0.00  0.00     0.174 A 
ATOM      3  C3  BZF d   1      -1.844  -0.052   0.329  0.00  0.00    -0.012 A 
ATOM      4  C3A BZF d   1      -0.519  -0.591   0.368  0.00  0.00    -0.107 A 
ATOM      5  C4  BZF d   1       0.134  -1.532  -0.376  0.00  0.00     0.055 A 
ATOM      6  C5  BZF d   1       1.447  -1.776  -0.127  0.00  0.00    -0.016 A 
ATOM      7  C6  BZF d   1       2.139  -1.095   0.854  0.00  0.00     0.022 A 
ATOM      8  C7  BZF d   1       1.533  -0.157   1.621  0.00  0.00     0.029 A 
ATOM      9  C7A BZF d   1       0.197   0.069   1.394  0.00  0.00     0.058 A 
ENDROOT
TORSDOF 0
ENDMDL
