MODEL 1
REMARK minimizedAffinity 12.5058432
REMARK minimizedRMSD -1
REMARK  0 active torsions:
REMARK  status: ('A' for Active; 'I' for Inactive)
ROOT
ATOM      1  O1  BZF d   1       0.324  -0.206   1.998  0.00  0.00    -0.204 OA
ATOM      2  C2  BZF d   1       1.614  -0.164   2.490  0.00  0.00     0.174 A 
ATOM      3  C3  BZF d   1       2.314  -1.245   2.090  0.00  0.00    -0.012 A 
ATOM      4  C3A BZF d   1       1.431  -1.965   1.223  0.00  0.00    -0.107 A 
ATOM      5  C4  BZF d   1       1.558  -3.117   0.501  0.00  0.00     0.055 A 
ATOM      6  C5  BZF d   1       0.483  -3.587  -0.186  0.00  0.00    -0.016 A 
ATOM      7  C6  BZF d   1      -0.732  -2.934  -0.169  0.00  0.00     0.022 A 
ATOM      8  C7  BZF d   1      -0.904  -1.785   0.528  0.00  0.00     0.029 A 
ATOM      9  C7A BZF d   1       0.189  -1.289   1.196  0.00  0.00     0.058 A 
ENDROOT
TORSDOF 0
ENDMDL
