MODEL 1
REMARK minimizedAffinity -2.4266963
REMARK minimizedRMSD -1
REMARK  0 active torsions:
REMARK  status: ('A' for Active; 'I' for Inactive)
ROOT
ATOM      1  O1  BZF d   1      -0.997   1.175   1.835  0.00  0.00    -0.204 OA
ATOM      2  C2  BZF d   1      -2.357   1.038   1.633  0.00  0.00     0.174 A 
ATOM      3  C3  BZF d   1      -2.622  -0.058   0.894  0.00  0.00    -0.012 A 
ATOM      4  C3A BZF d   1      -1.356  -0.694   0.695  0.00  0.00    -0.107 A 
ATOM      5  C4  BZF d   1      -0.969  -1.834   0.051  0.00  0.00     0.055 A 
ATOM      6  C5  BZF d   1       0.354  -2.135  -0.021  0.00  0.00    -0.016 A 
ATOM      7  C6  BZF d   1       1.316  -1.317   0.534  0.00  0.00     0.022 A 
ATOM      8  C7  BZF d   1       0.981  -0.178   1.187  0.00  0.00     0.029 A 
ATOM      9  C7A BZF d   1      -0.358   0.112   1.290  0.00  0.00     0.058 A 
ENDROOT
TORSDOF 0
ENDMDL
