MODEL 1
REMARK minimizedAffinity 3.61483669
REMARK minimizedRMSD -1
REMARK  0 active torsions:
REMARK  status: ('A' for Active; 'I' for Inactive)
ROOT
ATOM      1  O1  BZF d   1       1.404  -2.601   0.330  0.00  0.00    -0.204 OA
ATOM      2  C2  BZF d   1       0.707  -3.479  -0.478  0.00  0.00     0.174 A 
ATOM      3  C3  BZF d   1      -0.613  -3.202  -0.459  0.00  0.00    -0.012 A 
ATOM      4  C3A BZF d   1      -0.739  -2.025   0.344  0.00  0.00    -0.107 A 
ATOM      5  C4  BZF d   1      -1.802  -1.255   0.722  0.00  0.00     0.055 A 
ATOM      6  C5  BZF d   1      -1.595  -0.214   1.570  0.00  0.00    -0.016 A 
ATOM      7  C6  BZF d   1      -0.341   0.083   2.063  0.00  0.00     0.022 A 
ATOM      8  C7  BZF d   1       0.745  -0.649   1.713  0.00  0.00     0.029 A 
ATOM      9  C7A BZF d   1       0.544  -1.681   0.830  0.00  0.00     0.058 A 
ENDROOT
TORSDOF 0
ENDMDL
