MODEL 1
REMARK minimizedAffinity 2.15061998
REMARK minimizedRMSD -1
REMARK  0 active torsions:
REMARK  status: ('A' for Active; 'I' for Inactive)
ROOT
ATOM      1  O1  BZF d   1      -0.093  -3.418  -0.074  0.00  0.00    -0.204 OA
ATOM      2  C2  BZF d   1      -0.983  -2.508   0.463  0.00  0.00     0.174 A 
ATOM      3  C3  BZF d   1      -0.332  -1.434   0.954  0.00  0.00    -0.012 A 
ATOM      4  C3A BZF d   1       1.044  -1.646   0.624  0.00  0.00    -0.107 A 
ATOM      5  C4  BZF d   1       2.182  -0.920   0.831  0.00  0.00     0.055 A 
ATOM      6  C5  BZF d   1       3.378  -1.442   0.451  0.00  0.00    -0.016 A 
ATOM      7  C6  BZF d   1       3.473  -2.688  -0.133  0.00  0.00     0.022 A 
ATOM      8  C7  BZF d   1       2.372  -3.443  -0.364  0.00  0.00     0.029 A 
ATOM      9  C7A BZF d   1       1.159  -2.904  -0.011  0.00  0.00     0.058 A 
ENDROOT
TORSDOF 0
ENDMDL
