MODEL 1
REMARK minimizedAffinity 7.77805805
REMARK minimizedRMSD -1
REMARK  0 active torsions:
REMARK  status: ('A' for Active; 'I' for Inactive)
ROOT
ATOM      1  O1  BZF d   1       2.094  -3.331  -0.168  0.00  0.00    -0.204 OA
ATOM      2  C2  BZF d   1       1.480  -4.153  -1.092  0.00  0.00     0.174 A 
ATOM      3  C3  BZF d   1       0.147  -3.952  -1.101  0.00  0.00    -0.012 A 
ATOM      4  C3A BZF d   1      -0.077  -2.874  -0.186  0.00  0.00    -0.107 A 
ATOM      5  C4  BZF d   1      -1.196  -2.208   0.224  0.00  0.00     0.055 A 
ATOM      6  C5  BZF d   1      -1.081  -1.253   1.184  0.00  0.00    -0.016 A 
ATOM      7  C6  BZF d   1       0.134  -0.944   1.759  0.00  0.00     0.022 A 
ATOM      8  C7  BZF d   1       1.272  -1.575   1.382  0.00  0.00     0.029 A 
ATOM      9  C7A BZF d   1       1.165  -2.517   0.388  0.00  0.00     0.058 A 
ENDROOT
TORSDOF 0
ENDMDL
