MODEL 1
REMARK minimizedAffinity 2.38920045
REMARK minimizedRMSD -1
REMARK  0 active torsions:
REMARK  status: ('A' for Active; 'I' for Inactive)
ROOT
ATOM      1  O1  BZF d   1      -0.904  -2.848  -0.068  0.00  0.00    -0.204 OA
ATOM      2  C2  BZF d   1      -0.023  -3.685  -0.725  0.00  0.00     0.174 A 
ATOM      3  C3  BZF d   1       1.220  -3.163  -0.730  0.00  0.00    -0.012 A 
ATOM      4  C3A BZF d   1       1.129  -1.966   0.048  0.00  0.00    -0.107 A 
ATOM      5  C4  BZF d   1       2.037  -1.016   0.420  0.00  0.00     0.055 A 
ATOM      6  C5  BZF d   1       1.610   0.068   1.120  0.00  0.00    -0.016 A 
ATOM      7  C6  BZF d   1       0.284   0.236   1.459  0.00  0.00     0.022 A 
ATOM      8  C7  BZF d   1      -0.653  -0.681   1.117  0.00  0.00     0.029 A 
ATOM      9  C7A BZF d   1      -0.219  -1.794   0.438  0.00  0.00     0.058 A 
ENDROOT
TORSDOF 0
ENDMDL
