MODEL 1
REMARK minimizedAffinity -3.54591703
REMARK minimizedRMSD -1
REMARK  0 active torsions:
REMARK  status: ('A' for Active; 'I' for Inactive)
ROOT
ATOM      1  O1  BZF d   1       2.948  -2.230   0.027  0.00  0.00    -0.204 OA
ATOM      2  C2  BZF d   1       2.729  -3.514  -0.433  0.00  0.00     0.174 A 
ATOM      3  C3  BZF d   1       1.409  -3.787  -0.481  0.00  0.00    -0.012 A 
ATOM      4  C3A BZF d   1       0.759  -2.567  -0.110  0.00  0.00    -0.107 A 
ATOM      5  C4  BZF d   1      -0.551  -2.201   0.012  0.00  0.00     0.055 A 
ATOM      6  C5  BZF d   1      -0.849  -0.955   0.465  0.00  0.00    -0.016 A 
ATOM      7  C6  BZF d   1       0.137  -0.053   0.809  0.00  0.00     0.022 A 
ATOM      8  C7  BZF d   1       1.450  -0.369   0.700  0.00  0.00     0.029 A 
ATOM      9  C7A BZF d   1       1.754  -1.616   0.211  0.00  0.00     0.058 A 
ENDROOT
TORSDOF 0
ENDMDL
