MODEL 1
REMARK minimizedAffinity 6.529778
REMARK minimizedRMSD -1
REMARK  0 active torsions:
REMARK  status: ('A' for Active; 'I' for Inactive)
ROOT
ATOM      1  O1  BZF d   1       2.036  -1.715  -0.390  0.00  0.00    -0.204 OA
ATOM      2  C2  BZF d   1       1.524  -2.855  -0.980  0.00  0.00     0.174 A 
ATOM      3  C3  BZF d   1       0.248  -3.061  -0.594  0.00  0.00    -0.012 A 
ATOM      4  C3A BZF d   1      -0.086  -1.933   0.220  0.00  0.00    -0.107 A 
ATOM      5  C4  BZF d   1      -1.219  -1.555   0.883  0.00  0.00     0.055 A 
ATOM      6  C5  BZF d   1      -1.194  -0.432   1.648  0.00  0.00    -0.016 A 
ATOM      7  C6  BZF d   1      -0.053   0.333   1.777  0.00  0.00     0.022 A 
ATOM      8  C7  BZF d   1       1.094   0.002   1.134  0.00  0.00     0.029 A 
ATOM      9  C7A BZF d   1       1.062  -1.115   0.334  0.00  0.00     0.058 A 
ENDROOT
TORSDOF 0
ENDMDL
