MODEL 1
REMARK minimizedAffinity 4.33418989
REMARK minimizedRMSD -1
REMARK  0 active torsions:
REMARK  status: ('A' for Active; 'I' for Inactive)
ROOT
ATOM      1  O1  BZF d   1       2.117  -3.031  -0.669  0.00  0.00    -0.204 OA
ATOM      2  C2  BZF d   1       1.081  -3.890  -0.983  0.00  0.00     0.174 A 
ATOM      3  C3  BZF d   1      -0.065  -3.492  -0.395  0.00  0.00    -0.012 A 
ATOM      4  C3A BZF d   1       0.254  -2.260   0.257  0.00  0.00    -0.107 A 
ATOM      5  C4  BZF d   1      -0.474  -1.373   0.998  0.00  0.00     0.055 A 
ATOM      6  C5  BZF d   1       0.155  -0.304   1.554  0.00  0.00    -0.016 A 
ATOM      7  C6  BZF d   1       1.509  -0.094   1.394  0.00  0.00     0.022 A 
ATOM      8  C7  BZF d   1       2.272  -0.943   0.663  0.00  0.00     0.029 A 
ATOM      9  C7A BZF d   1       1.633  -2.006   0.073  0.00  0.00     0.058 A 
ENDROOT
TORSDOF 0
ENDMDL
