MODEL 1
REMARK minimizedAffinity 7.12820482
REMARK minimizedRMSD -1
REMARK  0 active torsions:
REMARK  status: ('A' for Active; 'I' for Inactive)
ROOT
ATOM      1  O1  BZF d   1       2.460  -3.107  -0.132  0.00  0.00    -0.204 OA
ATOM      2  C2  BZF d   1       1.698  -4.010  -0.849  0.00  0.00     0.174 A 
ATOM      3  C3  BZF d   1       0.384  -3.742  -0.711  0.00  0.00    -0.012 A 
ATOM      4  C3A BZF d   1       0.324  -2.545   0.071  0.00  0.00    -0.107 A 
ATOM      5  C4  BZF d   1      -0.706  -1.774   0.529  0.00  0.00     0.055 A 
ATOM      6  C5  BZF d   1      -0.430  -0.711   1.329  0.00  0.00    -0.016 A 
ATOM      7  C6  BZF d   1       0.862  -0.393   1.694  0.00  0.00     0.022 A 
ATOM      8  C7  BZF d   1       1.917  -1.126   1.260  0.00  0.00     0.029 A 
ATOM      9  C7A BZF d   1       1.643  -2.181   0.425  0.00  0.00     0.058 A 
ENDROOT
TORSDOF 0
ENDMDL
