MODEL 1
REMARK minimizedAffinity 2.04651093
REMARK minimizedRMSD -1
REMARK  0 active torsions:
REMARK  status: ('A' for Active; 'I' for Inactive)
ROOT
ATOM      1  O1  BZF d   1       0.080  -1.074   2.582  0.00  0.00    -0.204 OA
ATOM      2  C2  BZF d   1       0.401  -1.593   1.342  0.00  0.00     0.174 A 
ATOM      3  C3  BZF d   1      -0.482  -1.182   0.409  0.00  0.00    -0.012 A 
ATOM      4  C3A BZF d   1      -1.359  -0.281   1.091  0.00  0.00    -0.107 A 
ATOM      5  C4  BZF d   1      -2.433   0.464   0.695  0.00  0.00     0.055 A 
ATOM      6  C5  BZF d   1      -3.116   1.184   1.624  0.00  0.00    -0.016 A 
ATOM      7  C6  BZF d   1      -2.757   1.177   2.956  0.00  0.00     0.022 A 
ATOM      8  C7  BZF d   1      -1.696   0.457   3.396  0.00  0.00     0.029 A 
ATOM      9  C7A BZF d   1      -0.984  -0.245   2.454  0.00  0.00     0.058 A 
ENDROOT
TORSDOF 0
ENDMDL
