MODEL 1
REMARK minimizedAffinity -4.89556026
REMARK minimizedRMSD -1
REMARK  0 active torsions:
REMARK  status: ('A' for Active; 'I' for Inactive)
ROOT
ATOM      1  O1  BZF d   1      -1.900  -2.068  -0.439  0.00  0.00    -0.204 OA
ATOM      2  C2  BZF d   1      -0.968  -3.026  -0.089  0.00  0.00     0.174 A 
ATOM      3  C3  BZF d   1      -0.257  -2.632   0.986  0.00  0.00    -0.012 A 
ATOM      4  C3A BZF d   1      -0.839  -1.388   1.387  0.00  0.00    -0.107 A 
ATOM      5  C4  BZF d   1      -0.578  -0.513   2.403  0.00  0.00     0.055 A 
ATOM      6  C5  BZF d   1      -1.283   0.647   2.473  0.00  0.00    -0.016 A 
ATOM      7  C6  BZF d   1      -2.250   0.966   1.542  0.00  0.00     0.022 A 
ATOM      8  C7  BZF d   1      -2.547   0.128   0.520  0.00  0.00     0.029 A 
ATOM      9  C7A BZF d   1      -1.860  -1.060   0.465  0.00  0.00     0.058 A 
ENDROOT
TORSDOF 0
ENDMDL
