MODEL 1
REMARK minimizedAffinity 13.3509226
REMARK minimizedRMSD -1
REMARK  0 active torsions:
REMARK  status: ('A' for Active; 'I' for Inactive)
ROOT
ATOM      1  O1  BZF d   1       5.225  -4.456  -0.461  0.00  0.00    -0.204 OA
ATOM      2  C2  BZF d   1       4.920  -5.792  -0.633  0.00  0.00     0.174 A 
ATOM      3  C3  BZF d   1       3.592  -5.999  -0.512  0.00  0.00    -0.012 A 
ATOM      4  C3A BZF d   1       3.023  -4.697  -0.341  0.00  0.00    -0.107 A 
ATOM      5  C4  BZF d   1       1.744  -4.245  -0.185  0.00  0.00     0.055 A 
ATOM      6  C5  BZF d   1       1.534  -2.920   0.032  0.00  0.00    -0.016 A 
ATOM      7  C6  BZF d   1       2.578  -2.021   0.102  0.00  0.00     0.022 A 
ATOM      8  C7  BZF d   1       3.864  -2.422  -0.053  0.00  0.00     0.029 A 
ATOM      9  C7A BZF d   1       4.077  -3.755  -0.304  0.00  0.00     0.058 A 
ENDROOT
TORSDOF 0
ENDMDL
