MODEL 1
REMARK minimizedAffinity -2.11610723
REMARK minimizedRMSD -1
REMARK  0 active torsions:
REMARK  status: ('A' for Active; 'I' for Inactive)
ROOT
ATOM      1  O1  BZF d   1      -0.434   0.272   1.642  0.00  0.00    -0.204 OA
ATOM      2  C2  BZF d   1      -1.804   0.138   1.536  0.00  0.00     0.174 A 
ATOM      3  C3  BZF d   1      -2.124  -0.948   0.803  0.00  0.00    -0.012 A 
ATOM      4  C3A BZF d   1      -0.876  -1.581   0.505  0.00  0.00    -0.107 A 
ATOM      5  C4  BZF d   1      -0.538  -2.713  -0.181  0.00  0.00     0.055 A 
ATOM      6  C5  BZF d   1       0.777  -3.013  -0.353  0.00  0.00    -0.016 A 
ATOM      7  C6  BZF d   1       1.777  -2.202   0.143  0.00  0.00     0.022 A 
ATOM      8  C7  BZF d   1       1.490  -1.072   0.834  0.00  0.00     0.029 A 
ATOM      9  C7A BZF d   1       0.163  -0.784   1.038  0.00  0.00     0.058 A 
ENDROOT
TORSDOF 0
ENDMDL
