MODEL 1
REMARK minimizedAffinity 18.8997784
REMARK minimizedRMSD -1
REMARK  0 active torsions:
REMARK  status: ('A' for Active; 'I' for Inactive)
ROOT
ATOM      1  C   UNL d   1      -0.560  -4.075  -3.811  0.00  0.00     0.124 A 
ATOM      2  C1  UNL d   1       0.544  -4.040  -4.652  0.00  0.00     0.062 A 
ATOM      3  C2  UNL d   1       1.771  -4.532  -4.216  0.00  0.00     0.162 A 
ATOM      4  C3  UNL d   1       1.901  -5.064  -2.933  0.00  0.00    -0.034 A 
ATOM      5  C4  UNL d   1       0.787  -5.094  -2.093  0.00  0.00     0.162 A 
ATOM      6  C5  UNL d   1      -0.438  -4.601  -2.533  0.00  0.00     0.062 A 
ATOM      7  F   UNL d   1      -1.503  -4.636  -1.720  0.00  0.00    -0.097 F 
ATOM      8  F1  UNL d   1       0.876  -5.598  -0.854  0.00  0.00    -0.096 F 
ATOM      9  I   UNL d   1       3.734  -5.800  -2.278  0.00  0.00    -0.060 I 
ATOM     10  F2  UNL d   1       2.821  -4.486  -5.050  0.00  0.00    -0.096 F 
ATOM     11  F3  UNL d   1       0.429  -3.531  -5.887  0.00  0.00    -0.097 F 
ATOM     12  F4  UNL d   1      -1.739  -3.600  -4.233  0.00  0.00    -0.092 F 
ENDROOT
TORSDOF 0
ENDMDL
