MODEL 1
REMARK minimizedAffinity 12.9746323
REMARK minimizedRMSD -1
REMARK  0 active torsions:
REMARK  status: ('A' for Active; 'I' for Inactive)
ROOT
ATOM      1  C   UNL d   1       0.234   4.444  -1.670  0.00  0.00     0.124 A 
ATOM      2  C1  UNL d   1      -0.508   5.045  -2.678  0.00  0.00     0.062 A 
ATOM      3  C2  UNL d   1      -1.826   4.658  -2.902  0.00  0.00     0.162 A 
ATOM      4  C3  UNL d   1      -2.412   3.665  -2.116  0.00  0.00    -0.034 A 
ATOM      5  C4  UNL d   1      -1.659   3.065  -1.105  0.00  0.00     0.162 A 
ATOM      6  C5  UNL d   1      -0.342   3.455  -0.885  0.00  0.00     0.062 A 
ATOM      7  F   UNL d   1       0.373   2.873   0.089  0.00  0.00    -0.097 F 
ATOM      8  F1  UNL d   1      -2.191   2.108  -0.331  0.00  0.00    -0.096 F 
ATOM      9  I   UNL d   1      -4.383   3.085  -2.448  0.00  0.00    -0.060 I 
ATOM     10  F2  UNL d   1      -2.520   5.256  -3.882  0.00  0.00    -0.096 F 
ATOM     11  F3  UNL d   1       0.046   6.000  -3.438  0.00  0.00    -0.097 F 
ATOM     12  F4  UNL d   1       1.502   4.817  -1.458  0.00  0.00    -0.092 F 
ENDROOT
TORSDOF 0
ENDMDL
