MODEL 1
REMARK minimizedAffinity 15.4047184
REMARK minimizedRMSD -1
REMARK  0 active torsions:
REMARK  status: ('A' for Active; 'I' for Inactive)
ROOT
ATOM      1  C   UNL d   1      -4.622   4.247  -4.841  0.00  0.00     0.124 A 
ATOM      2  C1  UNL d   1      -3.920   4.743  -3.751  0.00  0.00     0.062 A 
ATOM      3  C2  UNL d   1      -3.915   4.046  -2.546  0.00  0.00     0.162 A 
ATOM      4  C3  UNL d   1      -4.613   2.844  -2.425  0.00  0.00    -0.034 A 
ATOM      5  C4  UNL d   1      -5.317   2.352  -3.525  0.00  0.00     0.162 A 
ATOM      6  C5  UNL d   1      -5.320   3.053  -4.727  0.00  0.00     0.062 A 
ATOM      7  F   UNL d   1      -5.998   2.572  -5.780  0.00  0.00    -0.097 F 
ATOM      8  F1  UNL d   1      -5.999   1.200  -3.444  0.00  0.00    -0.096 F 
ATOM      9  I   UNL d   1      -4.607   1.799  -0.625  0.00  0.00    -0.060 I 
ATOM     10  F2  UNL d   1      -3.228   4.549  -1.509  0.00  0.00    -0.096 F 
ATOM     11  F3  UNL d   1      -3.246   5.897  -3.858  0.00  0.00    -0.097 F 
ATOM     12  F4  UNL d   1      -4.626   4.920  -5.999  0.00  0.00    -0.092 F 
ENDROOT
TORSDOF 0
ENDMDL
