MODEL 1
REMARK minimizedAffinity 14.8988075
REMARK minimizedRMSD -1
REMARK  0 active torsions:
REMARK  status: ('A' for Active; 'I' for Inactive)
ROOT
ATOM      1  C   UNL d   1       1.013   4.822  -1.022  0.00  0.00     0.124 A 
ATOM      2  C1  UNL d   1      -0.170   4.106  -0.898  0.00  0.00     0.062 A 
ATOM      3  C2  UNL d   1      -0.370   3.268   0.195  0.00  0.00     0.162 A 
ATOM      4  C3  UNL d   1       0.615   3.142   1.175  0.00  0.00    -0.034 A 
ATOM      5  C4  UNL d   1       1.802   3.865   1.043  0.00  0.00     0.162 A 
ATOM      6  C5  UNL d   1       1.997   4.701  -0.051  0.00  0.00     0.062 A 
ATOM      7  F   UNL d   1       3.140   5.392  -0.168  0.00  0.00    -0.097 F 
ATOM      8  F1  UNL d   1       2.769   3.768   1.967  0.00  0.00    -0.096 F 
ATOM      9  I   UNL d   1       0.319   1.891   2.811  0.00  0.00    -0.060 I 
ATOM     10  F2  UNL d   1      -1.522   2.588   0.288  0.00  0.00    -0.096 F 
ATOM     11  F3  UNL d   1      -1.122   4.220  -1.835  0.00  0.00    -0.097 F 
ATOM     12  F4  UNL d   1       1.203   5.627  -2.075  0.00  0.00    -0.092 F 
ENDROOT
TORSDOF 0
ENDMDL
