MODEL 1
REMARK minimizedAffinity 10.0226955
REMARK minimizedRMSD -1
REMARK  0 active torsions:
REMARK  status: ('A' for Active; 'I' for Inactive)
ROOT
ATOM      1  C   UNL d   1       0.602   3.960  -0.707  0.00  0.00     0.124 A 
ATOM      2  C1  UNL d   1      -0.113   4.855  -1.490  0.00  0.00     0.062 A 
ATOM      3  C2  UNL d   1      -1.423   4.567  -1.862  0.00  0.00     0.162 A 
ATOM      4  C3  UNL d   1      -2.027   3.379  -1.451  0.00  0.00    -0.034 A 
ATOM      5  C4  UNL d   1      -1.300   2.483  -0.665  0.00  0.00     0.162 A 
ATOM      6  C5  UNL d   1       0.008   2.775  -0.295  0.00  0.00     0.062 A 
ATOM      7  F   UNL d   1       0.698   1.909   0.461  0.00  0.00    -0.097 F 
ATOM      8  F1  UNL d   1      -1.850   1.331  -0.252  0.00  0.00    -0.096 F 
ATOM      9  I   UNL d   1      -3.985   2.945  -2.006  0.00  0.00    -0.060 I 
ATOM     10  F2  UNL d   1      -2.091   5.451  -2.619  0.00  0.00    -0.096 F 
ATOM     11  F3  UNL d   1       0.458   6.000  -1.889  0.00  0.00    -0.097 F 
ATOM     12  F4  UNL d   1       1.863   4.239  -0.351  0.00  0.00    -0.092 F 
ENDROOT
TORSDOF 0
ENDMDL
