MODEL 1
REMARK minimizedAffinity 5.48783493
REMARK minimizedRMSD -1
REMARK  0 active torsions:
REMARK  status: ('A' for Active; 'I' for Inactive)
ROOT
ATOM      1  C   UNL d   1      -1.242   3.345  -0.123  0.00  0.00     0.124 A 
ATOM      2  C1  UNL d   1       0.133   3.364   0.067  0.00  0.00     0.062 A 
ATOM      3  C2  UNL d   1       0.945   4.121  -0.773  0.00  0.00     0.162 A 
ATOM      4  C3  UNL d   1       0.385   4.867  -1.810  0.00  0.00    -0.034 A 
ATOM      5  C4  UNL d   1      -0.999   4.842  -1.995  0.00  0.00     0.162 A 
ATOM      6  C5  UNL d   1      -1.806   4.084  -1.154  0.00  0.00     0.062 A 
ATOM      7  F   UNL d   1      -3.134   4.066  -1.339  0.00  0.00    -0.097 F 
ATOM      8  F1  UNL d   1      -1.571   5.547  -2.983  0.00  0.00    -0.096 F 
ATOM      9  I   UNL d   1       1.595   6.000  -3.068  0.00  0.00    -0.060 I 
ATOM     10  F2  UNL d   1       2.271   4.121  -0.566  0.00  0.00    -0.096 F 
ATOM     11  F3  UNL d   1       0.681   2.651   1.061  0.00  0.00    -0.097 F 
ATOM     12  F4  UNL d   1      -2.021   2.615   0.685  0.00  0.00    -0.092 F 
ENDROOT
TORSDOF 0
ENDMDL
