MODEL 1
REMARK minimizedAffinity 19.0746937
REMARK minimizedRMSD -1
REMARK  0 active torsions:
REMARK  status: ('A' for Active; 'I' for Inactive)
ROOT
ATOM      1  C   UNL d   1      -4.498   2.076  -2.640  0.00  0.00     0.124 A 
ATOM      2  C1  UNL d   1      -3.696   3.187  -2.422  0.00  0.00     0.062 A 
ATOM      3  C2  UNL d   1      -3.619   4.194  -3.379  0.00  0.00     0.162 A 
ATOM      4  C3  UNL d   1      -4.347   4.095  -4.565  0.00  0.00    -0.034 A 
ATOM      5  C4  UNL d   1      -5.151   2.974  -4.778  0.00  0.00     0.162 A 
ATOM      6  C5  UNL d   1      -5.224   1.970  -3.818  0.00  0.00     0.062 A 
ATOM      7  F   UNL d   1      -6.000   0.897  -4.031  0.00  0.00    -0.097 F 
ATOM      8  F1  UNL d   1      -5.864   2.847  -5.907  0.00  0.00    -0.096 F 
ATOM      9  I   UNL d   1      -4.234   5.599  -5.999  0.00  0.00    -0.060 I 
ATOM     10  F2  UNL d   1      -2.836   5.257  -3.141  0.00  0.00    -0.096 F 
ATOM     11  F3  UNL d   1      -2.992   3.291  -1.285  0.00  0.00    -0.097 F 
ATOM     12  F4  UNL d   1      -4.569   1.108  -1.718  0.00  0.00    -0.092 F 
ENDROOT
TORSDOF 0
ENDMDL
