MODEL 1
REMARK minimizedAffinity 5.36419201
REMARK minimizedRMSD -1
REMARK  0 active torsions:
REMARK  status: ('A' for Active; 'I' for Inactive)
ROOT
ATOM      1  C   UNL d   1      -0.501   3.591  -0.296  0.00  0.00     0.124 A 
ATOM      2  C1  UNL d   1      -0.905   3.903   0.995  0.00  0.00     0.062 A 
ATOM      3  C2  UNL d   1      -0.602   3.047   2.049  0.00  0.00     0.162 A 
ATOM      4  C3  UNL d   1       0.109   1.870   1.818  0.00  0.00    -0.034 A 
ATOM      5  C4  UNL d   1       0.511   1.562   0.517  0.00  0.00     0.162 A 
ATOM      6  C5  UNL d   1       0.206   2.421  -0.534  0.00  0.00     0.062 A 
ATOM      7  F   UNL d   1       0.596   2.118  -1.780  0.00  0.00    -0.097 F 
ATOM      8  F1  UNL d   1       1.196   0.438   0.258  0.00  0.00    -0.096 F 
ATOM      9  I   UNL d   1       0.564   0.586   3.392  0.00  0.00    -0.060 I 
ATOM     10  F2  UNL d   1      -1.004   3.374   3.286  0.00  0.00    -0.096 F 
ATOM     11  F3  UNL d   1      -1.589   5.033   1.227  0.00  0.00    -0.097 F 
ATOM     12  F4  UNL d   1      -0.795   4.417  -1.309  0.00  0.00    -0.092 F 
ENDROOT
TORSDOF 0
ENDMDL
