MODEL 1
REMARK minimizedAffinity 2.23274469
REMARK minimizedRMSD -1
REMARK  0 active torsions:
REMARK  status: ('A' for Active; 'I' for Inactive)
ROOT
ATOM      1  C   UNL d   1      -5.999   3.851  -5.318  0.00  0.00     0.078 C 
ATOM      2  C1  UNL d   1      -4.506   3.810  -5.451  0.00  0.00    -0.077 A 
ATOM      3  C2  UNL d   1      -3.747   4.986  -5.427  0.00  0.00    -0.001 A 
ATOM      4  C3  UNL d   1      -2.359   4.934  -5.561  0.00  0.00     0.003 A 
ATOM      5  C4  UNL d   1      -1.717   3.707  -5.721  0.00  0.00    -0.005 A 
ATOM      6  C5  UNL d   1      -2.464   2.531  -5.748  0.00  0.00     0.003 A 
ATOM      7  C6  UNL d   1      -3.852   2.582  -5.614  0.00  0.00    -0.001 A 
ENDROOT
TORSDOF 0
ENDMDL
