MODEL 1
REMARK minimizedAffinity 5.01985216
REMARK minimizedRMSD -1
REMARK  0 active torsions:
REMARK  status: ('A' for Active; 'I' for Inactive)
ROOT
ATOM      1  C   UNL d   1       1.716  -2.314   1.745  0.00  0.00     0.078 C 
ATOM      2  C1  UNL d   1       1.245  -1.354   0.694  0.00  0.00    -0.077 A 
ATOM      3  C2  UNL d   1       0.226  -1.707  -0.199  0.00  0.00    -0.001 A 
ATOM      4  C3  UNL d   1      -0.196  -0.807  -1.180  0.00  0.00     0.003 A 
ATOM      5  C4  UNL d   1       0.397   0.450  -1.277  0.00  0.00    -0.005 A 
ATOM      6  C5  UNL d   1       1.414   0.809  -0.395  0.00  0.00     0.003 A 
ATOM      7  C6  UNL d   1       1.837  -0.090   0.586  0.00  0.00    -0.001 A 
ENDROOT
TORSDOF 0
ENDMDL
