MODEL 1
REMARK minimizedAffinity 8.61214256
REMARK minimizedRMSD -1
REMARK  0 active torsions:
REMARK  status: ('A' for Active; 'I' for Inactive)
ROOT
ATOM      1  C   UNL d   1      -2.455  -1.435  -1.027  0.00  0.00     0.078 C 
ATOM      2  C1  UNL d   1      -3.509  -1.349  -2.091  0.00  0.00    -0.077 A 
ATOM      3  C2  UNL d   1      -3.779  -2.438  -2.928  0.00  0.00    -0.001 A 
ATOM      4  C3  UNL d   1      -4.755  -2.340  -3.921  0.00  0.00     0.003 A 
ATOM      5  C4  UNL d   1      -5.469  -1.155  -4.086  0.00  0.00    -0.005 A 
ATOM      6  C5  UNL d   1      -5.206  -0.065  -3.258  0.00  0.00     0.003 A 
ATOM      7  C6  UNL d   1      -4.230  -0.161  -2.266  0.00  0.00    -0.001 A 
ENDROOT
TORSDOF 0
ENDMDL
