MODEL 1
REMARK minimizedAffinity 8.79507828
REMARK minimizedRMSD -1
REMARK  0 active torsions:
REMARK  status: ('A' for Active; 'I' for Inactive)
ROOT
ATOM      1  C   UNL d   1       1.138  -1.969   1.344  0.00  0.00     0.078 C 
ATOM      2  C1  UNL d   1       1.094  -0.748   0.475  0.00  0.00    -0.077 A 
ATOM      3  C2  UNL d   1       1.846   0.390   0.790  0.00  0.00    -0.001 A 
ATOM      4  C3  UNL d   1       1.787   1.523  -0.023  0.00  0.00     0.003 A 
ATOM      5  C4  UNL d   1       0.976   1.530  -1.156  0.00  0.00    -0.005 A 
ATOM      6  C5  UNL d   1       0.222   0.403  -1.477  0.00  0.00     0.003 A 
ATOM      7  C6  UNL d   1       0.280  -0.731  -0.665  0.00  0.00    -0.001 A 
ENDROOT
TORSDOF 0
ENDMDL
