MODEL 1
REMARK minimizedAffinity 8.7781868
REMARK minimizedRMSD -1
REMARK  0 active torsions:
REMARK  status: ('A' for Active; 'I' for Inactive)
ROOT
ATOM      1  C   UNL d   1       1.149  -2.371   1.757  0.00  0.00     0.078 C 
ATOM      2  C1  UNL d   1       1.114  -1.227   0.789  0.00  0.00    -0.077 A 
ATOM      3  C2  UNL d   1       1.957  -0.120   0.949  0.00  0.00    -0.001 A 
ATOM      4  C3  UNL d   1       1.907   0.943   0.046  0.00  0.00     0.003 A 
ATOM      5  C4  UNL d   1       1.014   0.910  -1.023  0.00  0.00    -0.005 A 
ATOM      6  C5  UNL d   1       0.170  -0.185  -1.190  0.00  0.00     0.003 A 
ATOM      7  C6  UNL d   1       0.219  -1.249  -0.288  0.00  0.00    -0.001 A 
ENDROOT
TORSDOF 0
ENDMDL
