MODEL 1
REMARK minimizedAffinity -2.01948929
REMARK minimizedRMSD -1
REMARK  0 active torsions:
REMARK  status: ('A' for Active; 'I' for Inactive)
ROOT
ATOM      1  C   UNL d   1       1.338   0.912   1.198  0.00  0.00     0.172 C 
ATOM      2  N   UNL d   1      -0.078   0.873   1.482  0.00  0.00    -0.070 N 
ATOM      3  C1  UNL d   1      -0.875   1.962   1.716  0.00  0.00    -0.004 A 
ATOM      4  C2  UNL d   1      -2.155   1.506   1.944  0.00  0.00    -0.047 A 
ATOM      5  C3  UNL d   1      -2.127   0.095   1.843  0.00  0.00    -0.047 A 
ATOM      6  C4  UNL d   1      -0.828  -0.270   1.557  0.00  0.00    -0.004 A 
ENDROOT
TORSDOF 0
ENDMDL
