MODEL 1
REMARK minimizedAffinity -1.02913249
REMARK minimizedRMSD -1
REMARK  0 active torsions:
REMARK  status: ('A' for Active; 'I' for Inactive)
ROOT
ATOM      1  C   UNL d   1       0.569   1.406   0.980  0.00  0.00     0.172 C 
ATOM      2  N   UNL d   1       1.543   0.760   0.133  0.00  0.00    -0.070 N 
ATOM      3  C1  UNL d   1       2.055  -0.496   0.319  0.00  0.00    -0.004 A 
ATOM      4  C2  UNL d   1       2.950  -0.742  -0.700  0.00  0.00    -0.047 A 
ATOM      5  C3  UNL d   1       2.978   0.406  -1.526  0.00  0.00    -0.047 A 
ATOM      6  C4  UNL d   1       2.098   1.321  -0.987  0.00  0.00    -0.004 A 
ENDROOT
TORSDOF 0
ENDMDL
