MODEL 1
REMARK minimizedAffinity 1.72981548
REMARK minimizedRMSD -1
REMARK  0 active torsions:
REMARK  status: ('A' for Active; 'I' for Inactive)
ROOT
ATOM      1  C   UNL d   1       0.019  -1.116   2.087  0.00  0.00     0.172 C 
ATOM      2  N   UNL d   1      -0.016   0.211   1.519  0.00  0.00    -0.070 N 
ATOM      3  C1  UNL d   1       0.951   0.764   0.723  0.00  0.00    -0.004 A 
ATOM      4  C2  UNL d   1       0.545   2.038   0.390  0.00  0.00    -0.047 A 
ATOM      5  C3  UNL d   1      -0.709   2.258   1.007  0.00  0.00    -0.047 A 
ATOM      6  C4  UNL d   1      -1.032   1.111   1.700  0.00  0.00    -0.004 A 
ENDROOT
TORSDOF 0
ENDMDL
