MODEL 1
REMARK minimizedAffinity 1.66486657
REMARK minimizedRMSD -1
REMARK  0 active torsions:
REMARK  status: ('A' for Active; 'I' for Inactive)
ROOT
ATOM      1  C   UNL d   1      -2.271   2.574   1.787  0.00  0.00     0.172 C 
ATOM      2  N   UNL d   1      -1.252   1.596   1.485  0.00  0.00    -0.070 N 
ATOM      3  C1  UNL d   1      -1.443   0.242   1.412  0.00  0.00    -0.004 A 
ATOM      4  C2  UNL d   1      -0.232  -0.338   1.100  0.00  0.00    -0.047 A 
ATOM      5  C3  UNL d   1       0.719   0.703   0.983  0.00  0.00    -0.047 A 
ATOM      6  C4  UNL d   1       0.060   1.890   1.226  0.00  0.00    -0.004 A 
ENDROOT
TORSDOF 0
ENDMDL
