MODEL 1
REMARK minimizedAffinity -1.69792771
REMARK minimizedRMSD -1
REMARK  0 active torsions:
REMARK  status: ('A' for Active; 'I' for Inactive)
ROOT
ATOM      1  C   UNL d   1       1.651   0.619   0.200  0.00  0.00     0.172 C 
ATOM      2  N   UNL d   1       0.326   0.524   0.768  0.00  0.00    -0.070 N 
ATOM      3  C1  UNL d   1      -0.349  -0.638   1.031  0.00  0.00    -0.004 A 
ATOM      4  C2  UNL d   1      -1.574  -0.302   1.566  0.00  0.00    -0.047 A 
ATOM      5  C3  UNL d   1      -1.637   1.110   1.626  0.00  0.00    -0.047 A 
ATOM      6  C4  UNL d   1      -0.448   1.596   1.125  0.00  0.00    -0.004 A 
ENDROOT
TORSDOF 0
ENDMDL
