MODEL 1
REMARK minimizedAffinity 4.74369812
REMARK minimizedRMSD -1
REMARK  0 active torsions:
REMARK  status: ('A' for Active; 'I' for Inactive)
ROOT
ATOM      1  C   UNL d   1      -3.130  -2.748  -4.513  0.00  0.00     0.172 C 
ATOM      2  N   UNL d   1      -3.427  -2.455  -3.130  0.00  0.00    -0.070 N 
ATOM      3  C1  UNL d   1      -3.668  -1.212  -2.611  0.00  0.00    -0.004 A 
ATOM      4  C2  UNL d   1      -3.909  -1.357  -1.262  0.00  0.00    -0.047 A 
ATOM      5  C3  UNL d   1      -3.807  -2.735  -0.960  0.00  0.00    -0.047 A 
ATOM      6  C4  UNL d   1      -3.508  -3.393  -2.134  0.00  0.00    -0.004 A 
ENDROOT
TORSDOF 0
ENDMDL
