MODEL 1
REMARK minimizedAffinity -1.6467042
REMARK minimizedRMSD -1
REMARK  0 active torsions:
REMARK  status: ('A' for Active; 'I' for Inactive)
ROOT
ATOM      1  C   UNL d   1      -1.592   2.742   1.452  0.00  0.00     0.172 C 
ATOM      2  N   UNL d   1      -0.631   1.683   1.253  0.00  0.00    -0.070 N 
ATOM      3  C1  UNL d   1       0.593   1.819   0.655  0.00  0.00    -0.004 A 
ATOM      4  C2  UNL d   1       1.204   0.584   0.660  0.00  0.00    -0.047 A 
ATOM      5  C3  UNL d   1       0.316  -0.326   1.280  0.00  0.00    -0.047 A 
ATOM      6  C4  UNL d   1      -0.813   0.381   1.638  0.00  0.00    -0.004 A 
ENDROOT
TORSDOF 0
ENDMDL
