MODEL 1
REMARK minimizedAffinity 0.423607588
REMARK minimizedRMSD -1
REMARK  0 active torsions:
REMARK  status: ('A' for Active; 'I' for Inactive)
ROOT
ATOM      1  C   UNL d   1      -2.585  -0.773   1.759  0.00  0.00     0.172 C 
ATOM      2  N   UNL d   1      -1.393  -0.035   1.412  0.00  0.00    -0.070 N 
ATOM      3  C1  UNL d   1      -0.121  -0.541   1.384  0.00  0.00    -0.004 A 
ATOM      4  C2  UNL d   1       0.730   0.476   1.007  0.00  0.00    -0.047 A 
ATOM      5  C3  UNL d   1      -0.059   1.633   0.803  0.00  0.00    -0.047 A 
ATOM      6  C4  UNL d   1      -1.369   1.289   1.061  0.00  0.00    -0.004 A 
ENDROOT
TORSDOF 0
ENDMDL
