MODEL 1
REMARK minimizedAffinity 0.113645233
REMARK minimizedRMSD -1
REMARK  0 active torsions:
REMARK  status: ('A' for Active; 'I' for Inactive)
ROOT
ATOM      1  C   UNL d   1      -2.296  -0.727   2.379  0.00  0.00     0.172 C 
ATOM      2  N   UNL d   1      -1.413   0.345   1.981  0.00  0.00    -0.070 N 
ATOM      3  C1  UNL d   1      -0.176   0.192   1.414  0.00  0.00    -0.004 A 
ATOM      4  C2  UNL d   1       0.341   1.448   1.184  0.00  0.00    -0.047 A 
ATOM      5  C3  UNL d   1      -0.618   2.389   1.628  0.00  0.00    -0.047 A 
ATOM      6  C4  UNL d   1      -1.694   1.679   2.117  0.00  0.00    -0.004 A 
ENDROOT
TORSDOF 0
ENDMDL
