MODEL 1
REMARK minimizedAffinity -0.971310675
REMARK minimizedRMSD -1
REMARK  0 active torsions:
REMARK  status: ('A' for Active; 'I' for Inactive)
ROOT
ATOM      1  C   UNL d   1      -1.564   2.644   2.297  0.00  0.00     0.172 C 
ATOM      2  N   UNL d   1      -0.922   1.462   1.771  0.00  0.00    -0.070 N 
ATOM      3  C1  UNL d   1       0.203   1.445   0.990  0.00  0.00    -0.004 A 
ATOM      4  C2  UNL d   1       0.495   0.130   0.700  0.00  0.00    -0.047 A 
ATOM      5  C3  UNL d   1      -0.489  -0.671   1.327  0.00  0.00    -0.047 A 
ATOM      6  C4  UNL d   1      -1.354   0.179   1.983  0.00  0.00    -0.004 A 
ENDROOT
TORSDOF 0
ENDMDL
