MODEL 1
REMARK minimizedAffinity -1.58551073
REMARK minimizedRMSD -1
REMARK  0 active torsions:
REMARK  status: ('A' for Active; 'I' for Inactive)
ROOT
ATOM      1  C   UNL d   1      -2.478   2.240   2.203  0.00  0.00     0.172 C 
ATOM      2  N   UNL d   1      -1.456   1.306   1.791  0.00  0.00    -0.070 N 
ATOM      3  C1  UNL d   1      -0.193   1.636   1.377  0.00  0.00    -0.004 A 
ATOM      4  C2  UNL d   1       0.470   0.467   1.073  0.00  0.00    -0.047 A 
ATOM      5  C3  UNL d   1      -0.425  -0.602   1.312  0.00  0.00    -0.047 A 
ATOM      6  C4  UNL d   1      -1.610  -0.055   1.756  0.00  0.00    -0.004 A 
ENDROOT
TORSDOF 0
ENDMDL
