MODEL 1
REMARK minimizedAffinity -2.51239252
REMARK minimizedRMSD -1
REMARK  0 active torsions:
REMARK  status: ('A' for Active; 'I' for Inactive)
ROOT
ATOM      1  C   UNL d   1      -1.889   0.047   2.187  0.00  0.00     0.172 C 
ATOM      2  N   UNL d   1      -1.211   1.243   1.747  0.00  0.00    -0.070 N 
ATOM      3  C1  UNL d   1      -1.747   2.503   1.727  0.00  0.00    -0.004 A 
ATOM      4  C2  UNL d   1      -0.786   3.364   1.243  0.00  0.00    -0.047 A 
ATOM      5  C3  UNL d   1       0.368   2.594   0.961  0.00  0.00    -0.047 A 
ATOM      6  C4  UNL d   1       0.077   1.285   1.282  0.00  0.00    -0.004 A 
ENDROOT
TORSDOF 0
ENDMDL
