MODEL 1
REMARK minimizedAffinity 1.56960082
REMARK minimizedRMSD -1
REMARK  0 active torsions:
REMARK  status: ('A' for Active; 'I' for Inactive)
ROOT
ATOM      1  C   UNL d   1      -3.534  -4.249  -0.816  0.00  0.00     0.172 C 
ATOM      2  N   UNL d   1      -3.408  -3.029  -1.578  0.00  0.00    -0.070 N 
ATOM      3  C1  UNL d   1      -3.450  -1.760  -1.065  0.00  0.00    -0.004 A 
ATOM      4  C2  UNL d   1      -3.293  -0.876  -2.111  0.00  0.00    -0.047 A 
ATOM      5  C3  UNL d   1      -3.154  -1.641  -3.293  0.00  0.00    -0.047 A 
ATOM      6  C4  UNL d   1      -3.229  -2.970  -2.934  0.00  0.00    -0.004 A 
ENDROOT
TORSDOF 0
ENDMDL
