MODEL 1
REMARK minimizedAffinity 0.935131133
REMARK minimizedRMSD -1
REMARK  0 active torsions:
REMARK  status: ('A' for Active; 'I' for Inactive)
ROOT
ATOM      1  C   UNL d   1       3.374   2.893  -4.146  0.00  0.00     0.172 C 
ATOM      2  N   UNL d   1       3.658   4.109  -4.871  0.00  0.00    -0.070 N 
ATOM      3  C1  UNL d   1       4.906   4.593  -5.159  0.00  0.00    -0.004 A 
ATOM      4  C2  UNL d   1       4.751   5.769  -5.861  0.00  0.00    -0.047 A 
ATOM      5  C3  UNL d   1       3.362   6.000  -5.999  0.00  0.00    -0.047 A 
ATOM      6  C4  UNL d   1       2.708   4.956  -5.377  0.00  0.00    -0.004 A 
ENDROOT
TORSDOF 0
ENDMDL
