MODEL 1
REMARK minimizedAffinity -0.644389629
REMARK minimizedRMSD -1
REMARK  0 active torsions:
REMARK  status: ('A' for Active; 'I' for Inactive)
ROOT
ATOM      1  C   UNL d   1      -2.444   1.533   2.172  0.00  0.00     0.172 C 
ATOM      2  N   UNL d   1      -1.101   1.869   1.763  0.00  0.00    -0.070 N 
ATOM      3  C1  UNL d   1      -0.745   2.952   1.004  0.00  0.00    -0.004 A 
ATOM      4  C2  UNL d   1       0.622   2.918   0.835  0.00  0.00    -0.047 A 
ATOM      5  C3  UNL d   1       1.105   1.775   1.515  0.00  0.00    -0.047 A 
ATOM      6  C4  UNL d   1       0.017   1.144   2.081  0.00  0.00    -0.004 A 
ENDROOT
TORSDOF 0
ENDMDL
