MODEL 1
REMARK minimizedAffinity 7.24663925
REMARK minimizedRMSD -1
REMARK  2 active torsions:
REMARK  status: ('A' for Active; 'I' for Inactive)
REMARK    1  A    between atoms: C2'_3  and  C1'_4 
REMARK    2  A    between atoms: C1'_4  and  C1_5 
ROOT
ATOM      1  C1  I4B d   1      -4.808  -2.481  -4.154  0.00  0.00    -0.075 A 
ATOM      2  C2  I4B d   1      -5.996  -3.001  -4.604  0.00  0.00     0.003 A 
ATOM      3  C3  I4B d   1      -6.000  -4.086  -5.513  0.00  0.00     0.002 A 
ATOM      4  C4  I4B d   1      -4.802  -4.584  -5.982  0.00  0.00    -0.004 A 
ATOM      5  C5  I4B d   1      -3.598  -4.071  -5.508  0.00  0.00     0.002 A 
ATOM      6  C6  I4B d   1      -3.601  -3.020  -4.578  0.00  0.00     0.003 A 
ENDROOT
BRANCH   1   7
ATOM      7  C1' I4B d   1      -4.841  -1.313  -3.219  0.00  0.00     0.060 C 
BRANCH   7   8
ATOM      8  C2' I4B d   1      -3.968  -0.222  -3.806  0.00  0.00    -0.013 C 
ATOM      9  C4' I4B d   1      -4.802   0.862  -4.437  0.00  0.00     0.013 C 
ATOM     10  C3' I4B d   1      -3.111   0.327  -2.705  0.00  0.00     0.013 C 
ENDBRANCH   7   8
ENDBRANCH   1   7
TORSDOF 2
ENDMDL
