MODEL 1
REMARK minimizedAffinity 8.42766953
REMARK minimizedRMSD -1
REMARK  2 active torsions:
REMARK  status: ('A' for Active; 'I' for Inactive)
REMARK    1  A    between atoms: C2'_3  and  C1'_4 
REMARK    2  A    between atoms: C1'_4  and  C1_5 
ROOT
ATOM      1  C1  I4B d   1       3.618  -5.823  -3.577  0.00  0.00    -0.075 A 
ATOM      2  C2  I4B d   1       4.990  -5.803  -3.559  0.00  0.00     0.003 A 
ATOM      3  C3  I4B d   1       5.720  -5.847  -4.771  0.00  0.00     0.002 A 
ATOM      4  C4  I4B d   1       5.043  -5.961  -5.968  0.00  0.00    -0.004 A 
ATOM      5  C5  I4B d   1       3.651  -5.958  -5.987  0.00  0.00     0.002 A 
ATOM      6  C6  I4B d   1       2.933  -5.876  -4.785  0.00  0.00     0.003 A 
ENDROOT
BRANCH   1   7
ATOM      7  C1' I4B d   1       2.879  -5.808  -2.277  0.00  0.00     0.060 C 
BRANCH   7   8
ATOM      8  C2' I4B d   1       3.534  -4.778  -1.379  0.00  0.00    -0.013 C 
ATOM      9  C4' I4B d   1       4.479  -5.427  -0.403  0.00  0.00     0.013 C 
ATOM     10  C3' I4B d   1       4.251  -3.792  -2.253  0.00  0.00     0.013 C 
ENDBRANCH   7   8
ENDBRANCH   1   7
TORSDOF 2
ENDMDL
