MODEL 1
REMARK minimizedAffinity 3.10894847
REMARK minimizedRMSD -1
REMARK  2 active torsions:
REMARK  status: ('A' for Active; 'I' for Inactive)
REMARK    1  A    between atoms: C2'_3  and  C1'_4 
REMARK    2  A    between atoms: C1'_4  and  C1_5 
ROOT
ATOM      1  C1  I4B d   1       2.294  -2.298   3.268  0.00  0.00    -0.075 A 
ATOM      2  C2  I4B d   1       2.716  -3.411   2.585  0.00  0.00     0.003 A 
ATOM      3  C3  I4B d   1       2.136  -4.674   2.853  0.00  0.00     0.002 A 
ATOM      4  C4  I4B d   1       1.179  -4.787   3.841  0.00  0.00    -0.004 A 
ATOM      5  C5  I4B d   1       0.736  -3.653   4.517  0.00  0.00     0.002 A 
ATOM      6  C6  I4B d   1       1.288  -2.398   4.220  0.00  0.00     0.003 A 
ENDROOT
BRANCH   1   7
ATOM      7  C1' I4B d   1       2.951  -0.985   2.982  0.00  0.00     0.060 C 
BRANCH   7   8
ATOM      8  C2' I4B d   1       2.475  -0.510   1.624  0.00  0.00    -0.013 C 
ATOM      9  C4' I4B d   1       1.033  -0.077   1.672  0.00  0.00     0.013 C 
ATOM     10  C3' I4B d   1       3.364   0.617   1.190  0.00  0.00     0.013 C 
ENDBRANCH   7   8
ENDBRANCH   1   7
TORSDOF 2
ENDMDL
