MODEL 1
REMARK minimizedAffinity 2.54125929
REMARK minimizedRMSD -1
REMARK  2 active torsions:
REMARK  status: ('A' for Active; 'I' for Inactive)
REMARK    1  A    between atoms: C2'_3  and  C1'_4 
REMARK    2  A    between atoms: C1'_4  and  C1_5 
ROOT
ATOM      1  C1  I4B d   1       1.694  -0.673   2.785  0.00  0.00    -0.075 A 
ATOM      2  C2  I4B d   1       1.052  -1.090   3.924  0.00  0.00     0.003 A 
ATOM      3  C3  I4B d   1       1.092  -2.453   4.307  0.00  0.00     0.002 A 
ATOM      4  C4  I4B d   1       1.739  -3.366   3.500  0.00  0.00    -0.004 A 
ATOM      5  C5  I4B d   1       2.409  -2.938   2.358  0.00  0.00     0.002 A 
ATOM      6  C6  I4B d   1       2.398  -1.581   2.004  0.00  0.00     0.003 A 
ENDROOT
BRANCH   1   7
ATOM      7  C1' I4B d   1       1.604   0.768   2.393  0.00  0.00     0.060 C 
BRANCH   7   8
ATOM      8  C2' I4B d   1       2.999   1.356   2.451  0.00  0.00    -0.013 C 
ATOM      9  C4' I4B d   1       3.455   1.811   1.090  0.00  0.00     0.013 C 
ATOM     10  C3' I4B d   1       2.981   2.496   3.425  0.00  0.00     0.013 C 
ENDBRANCH   7   8
ENDBRANCH   1   7
TORSDOF 2
ENDMDL
