MODEL 1
REMARK minimizedAffinity 4.49818754
REMARK minimizedRMSD -1
REMARK  2 active torsions:
REMARK  status: ('A' for Active; 'I' for Inactive)
REMARK    1  A    between atoms: C2'_3  and  C1'_4 
REMARK    2  A    between atoms: C1'_4  and  C1_5 
ROOT
ATOM      1  C1  I4B d   1      -3.334  -1.758  -3.933  0.00  0.00    -0.075 A 
ATOM      2  C2  I4B d   1      -3.408  -2.311  -5.187  0.00  0.00     0.003 A 
ATOM      3  C3  I4B d   1      -4.142  -3.504  -5.398  0.00  0.00     0.002 A 
ATOM      4  C4  I4B d   1      -4.740  -4.132  -4.325  0.00  0.00    -0.004 A 
ATOM      5  C5  I4B d   1      -4.683  -3.558  -3.058  0.00  0.00     0.002 A 
ATOM      6  C6  I4B d   1      -3.986  -2.357  -2.863  0.00  0.00     0.003 A 
ENDROOT
BRANCH   1   7
ATOM      7  C1' I4B d   1      -2.523  -0.516  -3.741  0.00  0.00     0.060 C 
BRANCH   7   8
ATOM      8  C2' I4B d   1      -3.302   0.414  -2.833  0.00  0.00    -0.013 C 
ATOM      9  C4' I4B d   1      -2.451   0.900  -1.690  0.00  0.00     0.013 C 
ATOM     10  C3' I4B d   1      -3.800   1.560  -3.663  0.00  0.00     0.013 C 
ENDBRANCH   7   8
ENDBRANCH   1   7
TORSDOF 2
ENDMDL
