MODEL 1
REMARK minimizedAffinity 13.4696198
REMARK minimizedRMSD -1
REMARK  2 active torsions:
REMARK  status: ('A' for Active; 'I' for Inactive)
REMARK    1  A    between atoms: C2'_3  and  C1'_4 
REMARK    2  A    between atoms: C1'_4  and  C1_5 
ROOT
ATOM      1  C1  I4B d   1       3.408  -4.278  -1.741  0.00  0.00    -0.075 A 
ATOM      2  C2  I4B d   1       4.439  -5.035  -2.238  0.00  0.00     0.003 A 
ATOM      3  C3  I4B d   1       5.137  -5.931  -1.392  0.00  0.00     0.002 A 
ATOM      4  C4  I4B d   1       4.806  -6.000  -0.054  0.00  0.00    -0.004 A 
ATOM      5  C5  I4B d   1       3.746  -5.248   0.443  0.00  0.00     0.002 A 
ATOM      6  C6  I4B d   1       3.034  -4.390  -0.408  0.00  0.00     0.003 A 
ENDROOT
BRANCH   1   7
ATOM      7  C1' I4B d   1       2.714  -3.317  -2.654  0.00  0.00     0.060 C 
BRANCH   7   8
ATOM      8  C2' I4B d   1       2.982  -1.915  -2.148  0.00  0.00    -0.013 C 
ATOM      9  C4' I4B d   1       4.366  -1.454  -2.523  0.00  0.00     0.013 C 
ATOM     10  C3' I4B d   1       1.935  -1.007  -2.722  0.00  0.00     0.013 C 
ENDBRANCH   7   8
ENDBRANCH   1   7
TORSDOF 2
ENDMDL
