MODEL 1
REMARK minimizedAffinity -1.99726915
REMARK minimizedRMSD -1
REMARK  0 active torsions:
REMARK  status: ('A' for Active; 'I' for Inactive)
ROOT
ATOM      1  C2' OXE d   1      -0.033  -0.220  -1.391  0.00  0.00     0.078 C 
ATOM      2  C1' OXE d   1      -2.688   0.180  -0.571  0.00  0.00     0.078 C 
ATOM      3  C1  OXE d   1      -1.591   0.501   0.413  0.00  0.00    -0.078 A 
ATOM      4  C2  OXE d   1      -0.297   0.258   0.020  0.00  0.00    -0.078 A 
ATOM      5  C3  OXE d   1       0.755   0.588   0.870  0.00  0.00     0.003 A 
ATOM      6  C4  OXE d   1       0.501   1.021   2.177  0.00  0.00    -0.002 A 
ATOM      7  C5  OXE d   1      -0.811   1.237   2.611  0.00  0.00    -0.002 A 
ATOM      8  C6  OXE d   1      -1.864   1.023   1.730  0.00  0.00     0.003 A 
ENDROOT
TORSDOF 0
ENDMDL
