MODEL 1
REMARK minimizedAffinity -1.09485269
REMARK minimizedRMSD -1
REMARK  0 active torsions:
REMARK  status: ('A' for Active; 'I' for Inactive)
ROOT
ATOM      1  C2' OXE d   1       1.002  -1.890  -1.312  0.00  0.00     0.078 C 
ATOM      2  C1' OXE d   1       0.644   0.488  -2.761  0.00  0.00     0.078 C 
ATOM      3  C1  OXE d   1       0.572   0.563  -1.257  0.00  0.00    -0.078 A 
ATOM      4  C2  OXE d   1       0.701  -0.613  -0.557  0.00  0.00    -0.078 A 
ATOM      5  C3  OXE d   1       0.697  -0.591   0.834  0.00  0.00     0.003 A 
ATOM      6  C4  OXE d   1       0.408   0.593   1.524  0.00  0.00    -0.002 A 
ATOM      7  C5  OXE d   1       0.234   1.794   0.830  0.00  0.00    -0.002 A 
ATOM      8  C6  OXE d   1       0.354   1.805  -0.556  0.00  0.00     0.003 A 
ENDROOT
TORSDOF 0
ENDMDL
