MODEL 1
REMARK minimizedAffinity -4.96212816
REMARK minimizedRMSD -1
REMARK  0 active torsions:
REMARK  status: ('A' for Active; 'I' for Inactive)
ROOT
ATOM      1  C2' OXE d   1       1.705   0.147   2.184  0.00  0.00     0.078 C 
ATOM      2  C1' OXE d   1      -0.915   0.988   2.737  0.00  0.00     0.078 C 
ATOM      3  C1  OXE d   1      -0.573   0.644   1.309  0.00  0.00    -0.078 A 
ATOM      4  C2  OXE d   1       0.724   0.279   1.040  0.00  0.00    -0.078 A 
ATOM      5  C3  OXE d   1       1.080  -0.101  -0.251  0.00  0.00     0.003 A 
ATOM      6  C4  OXE d   1       0.169   0.034  -1.306  0.00  0.00    -0.002 A 
ATOM      7  C5  OXE d   1      -1.146   0.443  -1.061  0.00  0.00    -0.002 A 
ATOM      8  C6  OXE d   1      -1.544   0.710   0.245  0.00  0.00     0.003 A 
ENDROOT
TORSDOF 0
ENDMDL
