MODEL 1
REMARK minimizedAffinity -4.48503685
REMARK minimizedRMSD -1
REMARK  0 active torsions:
REMARK  status: ('A' for Active; 'I' for Inactive)
ROOT
ATOM      1  C2' OXE d   1      -0.006  -0.986  -0.372  0.00  0.00     0.078 C 
ATOM      2  C1' OXE d   1       0.469   1.770  -0.138  0.00  0.00     0.078 C 
ATOM      3  C1  OXE d   1       0.764   1.116  -1.464  0.00  0.00    -0.078 A 
ATOM      4  C2  OXE d   1       0.573  -0.241  -1.556  0.00  0.00    -0.078 A 
ATOM      5  C3  OXE d   1       0.777  -0.886  -2.773  0.00  0.00     0.003 A 
ATOM      6  C4  OXE d   1       1.322  -0.191  -3.860  0.00  0.00    -0.002 A 
ATOM      7  C5  OXE d   1       1.562   1.184  -3.775  0.00  0.00    -0.002 A 
ATOM      8  C6  OXE d   1       1.249   1.860  -2.601  0.00  0.00     0.003 A 
ENDROOT
TORSDOF 0
ENDMDL
