MODEL 1
REMARK minimizedAffinity -1.2339381
REMARK minimizedRMSD -1
REMARK  0 active torsions:
REMARK  status: ('A' for Active; 'I' for Inactive)
ROOT
ATOM      1  C2' OXE d   1       1.950  -0.790   1.381  0.00  0.00     0.078 C 
ATOM      2  C1' OXE d   1       0.844  -0.301  -1.153  0.00  0.00     0.078 C 
ATOM      3  C1  OXE d   1       0.007   0.033   0.056  0.00  0.00    -0.078 A 
ATOM      4  C2  OXE d   1       0.537  -0.253   1.291  0.00  0.00    -0.078 A 
ATOM      5  C3  OXE d   1      -0.170   0.086   2.441  0.00  0.00     0.003 A 
ATOM      6  C4  OXE d   1      -1.480   0.573   2.349  0.00  0.00    -0.002 A 
ATOM      7  C5  OXE d   1      -2.055   0.834   1.101  0.00  0.00    -0.002 A 
ATOM      8  C6  OXE d   1      -1.310   0.610  -0.052  0.00  0.00     0.003 A 
ENDROOT
TORSDOF 0
ENDMDL
