MODEL 1
REMARK minimizedAffinity 0.027354883
REMARK minimizedRMSD -1
REMARK  0 active torsions:
REMARK  status: ('A' for Active; 'I' for Inactive)
ROOT
ATOM      1  C2' OXE d   1       3.371   4.014   3.169  0.00  0.00     0.078 C 
ATOM      2  C1' OXE d   1       5.217   3.817   5.275  0.00  0.00     0.078 C 
ATOM      3  C1  OXE d   1       5.144   2.673   4.294  0.00  0.00    -0.078 A 
ATOM      4  C2  OXE d   1       4.206   2.757   3.294  0.00  0.00    -0.078 A 
ATOM      5  C3  OXE d   1       4.134   1.756   2.330  0.00  0.00     0.003 A 
ATOM      6  C4  OXE d   1       4.902   0.592   2.458  0.00  0.00    -0.002 A 
ATOM      7  C5  OXE d   1       5.836   0.469   3.493  0.00  0.00    -0.002 A 
ATOM      8  C6  OXE d   1       5.999   1.516   4.392  0.00  0.00     0.003 A 
ENDROOT
TORSDOF 0
ENDMDL
