MODEL 1
REMARK minimizedAffinity -4.45342541
REMARK minimizedRMSD -1
REMARK  0 active torsions:
REMARK  status: ('A' for Active; 'I' for Inactive)
ROOT
ATOM      1  C2' OXE d   1       0.177  -0.190  -1.272  0.00  0.00     0.078 C 
ATOM      2  C1' OXE d   1       1.955  -1.170   0.667  0.00  0.00     0.078 C 
ATOM      3  C1  OXE d   1       0.637  -0.609   1.141  0.00  0.00    -0.078 A 
ATOM      4  C2  OXE d   1      -0.206  -0.088   0.189  0.00  0.00    -0.078 A 
ATOM      5  C3  OXE d   1      -1.457   0.392   0.566  0.00  0.00     0.003 A 
ATOM      6  C4  OXE d   1      -1.800   0.492   1.919  0.00  0.00    -0.002 A 
ATOM      7  C5  OXE d   1      -0.939   0.004   2.908  0.00  0.00    -0.002 A 
ATOM      8  C6  OXE d   1       0.263  -0.586   2.533  0.00  0.00     0.003 A 
ENDROOT
TORSDOF 0
ENDMDL
