MODEL 1
REMARK minimizedAffinity -4.77651501
REMARK minimizedRMSD -1
REMARK  0 active torsions:
REMARK  status: ('A' for Active; 'I' for Inactive)
ROOT
ATOM      1  C2' OXE d   1      -2.171   0.549   0.101  0.00  0.00     0.078 C 
ATOM      2  C1' OXE d   1      -0.751   1.558   2.302  0.00  0.00     0.078 C 
ATOM      3  C1  OXE d   1      -0.093   0.482   1.473  0.00  0.00    -0.078 A 
ATOM      4  C2  OXE d   1      -0.815  -0.038   0.426  0.00  0.00    -0.078 A 
ATOM      5  C3  OXE d   1      -0.235  -0.994  -0.404  0.00  0.00     0.003 A 
ATOM      6  C4  OXE d   1       1.016  -1.539  -0.090  0.00  0.00    -0.002 A 
ATOM      7  C5  OXE d   1       1.751  -1.051   0.996  0.00  0.00    -0.002 A 
ATOM      8  C6  OXE d   1       1.230  -0.013   1.760  0.00  0.00     0.003 A 
ENDROOT
TORSDOF 0
ENDMDL
