MODEL 1
REMARK minimizedAffinity -4.71515083
REMARK minimizedRMSD -1
REMARK  0 active torsions:
REMARK  status: ('A' for Active; 'I' for Inactive)
ROOT
ATOM      1  C2' OXE d   1      -2.225  -0.242   2.784  0.00  0.00     0.078 C 
ATOM      2  C1' OXE d   1      -0.388   1.763   3.478  0.00  0.00     0.078 C 
ATOM      3  C1  OXE d   1      -0.382   1.266   2.054  0.00  0.00    -0.078 A 
ATOM      4  C2  OXE d   1      -1.252   0.252   1.735  0.00  0.00    -0.078 A 
ATOM      5  C3  OXE d   1      -1.326  -0.206   0.423  0.00  0.00     0.003 A 
ATOM      6  C4  OXE d   1      -0.416   0.250  -0.539  0.00  0.00    -0.002 A 
ATOM      7  C5  OXE d   1       0.505   1.254  -0.225  0.00  0.00    -0.002 A 
ATOM      8  C6  OXE d   1       0.507   1.802   1.053  0.00  0.00     0.003 A 
ENDROOT
TORSDOF 0
ENDMDL
