MODEL 1
REMARK minimizedAffinity -4.32060337
REMARK minimizedRMSD -1
REMARK  1 active torsions:
REMARK  status: ('A' for Active; 'I' for Inactive)
REMARK    1  A    between atoms: C1_2  and  C2_3 
ROOT
ATOM      1  C2  UNL d   1      -0.446   0.507  -0.510  0.00  0.00    -0.081 A 
ATOM      2  C3  UNL d   1       0.697   0.680   0.279  0.00  0.00     0.006 A 
ATOM      3  C4  UNL d   1       0.647   0.455   1.657  0.00  0.00     0.002 A 
ATOM      4  C5  UNL d   1      -0.544   0.046   2.267  0.00  0.00    -0.080 A 
ATOM      5  C6  UNL d   1      -0.603  -0.228   3.740  0.00  0.00     0.076 C 
ATOM      6  C7  UNL d   1      -1.691  -0.109   1.481  0.00  0.00     0.002 A 
ATOM      7  C8  UNL d   1      -1.642   0.116   0.103  0.00  0.00     0.006 A 
ENDROOT
BRANCH   1   8
ATOM      8  C1  UNL d   1      -0.380   0.687  -2.005  0.00  0.00     0.054 C 
ATOM      9  C   UNL d   1       0.689  -0.204  -2.622  0.00  0.00     0.018 C 
ENDBRANCH   1   8
TORSDOF 1
ENDMDL
