MODEL 1
REMARK minimizedAffinity -1.91730285
REMARK minimizedRMSD -1
REMARK  1 active torsions:
REMARK  status: ('A' for Active; 'I' for Inactive)
REMARK    1  A    between atoms: C1_2  and  C2_3 
ROOT
ATOM      1  C2  UNL d   1      -0.651   0.319  -0.224  0.00  0.00    -0.081 A 
ATOM      2  C3  UNL d   1      -1.943   0.129   0.280  0.00  0.00     0.006 A 
ATOM      3  C4  UNL d   1      -2.143  -0.131   1.637  0.00  0.00     0.002 A 
ATOM      4  C5  UNL d   1      -1.056  -0.197   2.515  0.00  0.00    -0.080 A 
ATOM      5  C6  UNL d   1      -1.259  -0.445   3.980  0.00  0.00     0.076 C 
ATOM      6  C7  UNL d   1       0.237  -0.025   2.009  0.00  0.00     0.002 A 
ATOM      7  C8  UNL d   1       0.438   0.234   0.651  0.00  0.00     0.006 A 
ENDROOT
BRANCH   1   8
ATOM      8  C1  UNL d   1      -0.437   0.663  -1.676  0.00  0.00     0.054 C 
ATOM      9  C   UNL d   1       0.758  -0.084  -2.252  0.00  0.00     0.018 C 
ENDBRANCH   1   8
TORSDOF 1
ENDMDL
