MODEL 1
REMARK minimizedAffinity -3.28165746
REMARK minimizedRMSD -1
REMARK  1 active torsions:
REMARK  status: ('A' for Active; 'I' for Inactive)
REMARK    1  A    between atoms: C1_2  and  C2_3 
ROOT
ATOM      1  C2  UNL d   1      -0.245   0.300  -0.958  0.00  0.00    -0.081 A 
ATOM      2  C3  UNL d   1       0.871   0.218  -0.117  0.00  0.00     0.006 A 
ATOM      3  C4  UNL d   1       0.708   0.124   1.268  0.00  0.00     0.002 A 
ATOM      4  C5  UNL d   1      -0.571   0.103   1.832  0.00  0.00    -0.080 A 
ATOM      5  C6  UNL d   1      -0.760  -0.027   3.314  0.00  0.00     0.076 C 
ATOM      6  C7  UNL d   1      -1.686   0.203   0.993  0.00  0.00     0.002 A 
ATOM      7  C8  UNL d   1      -1.524   0.297  -0.391  0.00  0.00     0.006 A 
ENDROOT
BRANCH   1   8
ATOM      8  C1  UNL d   1      -0.075   0.335  -2.456  0.00  0.00     0.054 C 
ATOM      9  C   UNL d   1       0.913  -0.722  -2.926  0.00  0.00     0.018 C 
ENDBRANCH   1   8
TORSDOF 1
ENDMDL
