MODEL 1
REMARK minimizedAffinity -4.51119184
REMARK minimizedRMSD -1
REMARK  1 active torsions:
REMARK  status: ('A' for Active; 'I' for Inactive)
REMARK    1  A    between atoms: C1_2  and  C2_3 
ROOT
ATOM      1  C2  UNL d   1      -0.025   0.244  -0.435  0.00  0.00    -0.081 A 
ATOM      2  C3  UNL d   1       0.733   0.785   0.611  0.00  0.00     0.006 A 
ATOM      3  C4  UNL d   1       0.362   0.567   1.941  0.00  0.00     0.002 A 
ATOM      4  C5  UNL d   1      -0.767  -0.201   2.246  0.00  0.00    -0.080 A 
ATOM      5  C6  UNL d   1      -1.159  -0.467   3.669  0.00  0.00     0.076 C 
ATOM      6  C7  UNL d   1      -1.534  -0.726   1.200  0.00  0.00     0.002 A 
ATOM      7  C8  UNL d   1      -1.164  -0.508  -0.129  0.00  0.00     0.006 A 
ENDROOT
BRANCH   1   8
ATOM      8  C1  UNL d   1       0.409   0.423  -1.867  0.00  0.00     0.054 C 
ATOM      9  C   UNL d   1       0.508  -0.915  -2.586  0.00  0.00     0.018 C 
ENDBRANCH   1   8
TORSDOF 1
ENDMDL
