MODEL 1
REMARK minimizedAffinity -2.5684669
REMARK minimizedRMSD -1
REMARK  1 active torsions:
REMARK  status: ('A' for Active; 'I' for Inactive)
REMARK    1  A    between atoms: C1_2  and  C2_3 
ROOT
ATOM      1  C2  UNL d   1       0.493  -0.016  -0.184  0.00  0.00    -0.081 A 
ATOM      2  C3  UNL d   1       1.212   0.086   1.013  0.00  0.00     0.006 A 
ATOM      3  C4  UNL d   1       0.574  -0.104   2.241  0.00  0.00     0.002 A 
ATOM      4  C5  UNL d   1      -0.791  -0.407   2.292  0.00  0.00    -0.080 A 
ATOM      5  C6  UNL d   1      -1.482  -0.644   3.602  0.00  0.00     0.076 C 
ATOM      6  C7  UNL d   1      -1.513  -0.491   1.097  0.00  0.00     0.002 A 
ATOM      7  C8  UNL d   1      -0.876  -0.300  -0.131  0.00  0.00     0.006 A 
ENDROOT
BRANCH   1   8
ATOM      8  C1  UNL d   1       1.192   0.125  -1.512  0.00  0.00     0.054 C 
ATOM      9  C   UNL d   1       0.845  -1.026  -2.445  0.00  0.00     0.018 C 
ENDBRANCH   1   8
TORSDOF 1
ENDMDL
