MODEL 1
REMARK minimizedAffinity -3.12635565
REMARK minimizedRMSD -1
REMARK  1 active torsions:
REMARK  status: ('A' for Active; 'I' for Inactive)
REMARK    1  A    between atoms: C1_2  and  C2_3 
ROOT
ATOM      1  C2  UNL d   1       0.428   0.162   0.834  0.00  0.00    -0.081 A 
ATOM      2  C3  UNL d   1       0.861   0.437   2.137  0.00  0.00     0.006 A 
ATOM      3  C4  UNL d   1       0.077   0.077   3.235  0.00  0.00     0.002 A 
ATOM      4  C5  UNL d   1      -1.149  -0.571   3.049  0.00  0.00    -0.080 A 
ATOM      5  C6  UNL d   1      -1.986  -0.991   4.221  0.00  0.00     0.076 C 
ATOM      6  C7  UNL d   1      -1.590  -0.831   1.747  0.00  0.00     0.002 A 
ATOM      7  C8  UNL d   1      -0.806  -0.470   0.649  0.00  0.00     0.006 A 
ENDROOT
BRANCH   1   8
ATOM      8  C1  UNL d   1       1.301   0.492  -0.350  0.00  0.00     0.054 C 
ATOM      9  C   UNL d   1       0.810  -0.204  -1.611  0.00  0.00     0.018 C 
ENDBRANCH   1   8
TORSDOF 1
ENDMDL
