MODEL 1
REMARK minimizedAffinity -2.49660897
REMARK minimizedRMSD -1
REMARK  1 active torsions:
REMARK  status: ('A' for Active; 'I' for Inactive)
REMARK    1  A    between atoms: C1_2  and  C2_3 
ROOT
ATOM      1  C2  UNL d   1       0.115   0.275  -0.486  0.00  0.00    -0.081 A 
ATOM      2  C3  UNL d   1       1.101   0.248   0.509  0.00  0.00     0.006 A 
ATOM      3  C4  UNL d   1       0.768  -0.069   1.827  0.00  0.00     0.002 A 
ATOM      4  C5  UNL d   1      -0.554  -0.372   2.172  0.00  0.00    -0.080 A 
ATOM      5  C6  UNL d   1      -0.920  -0.744   3.578  0.00  0.00     0.076 C 
ATOM      6  C7  UNL d   1      -1.542  -0.328   1.182  0.00  0.00     0.002 A 
ATOM      7  C8  UNL d   1      -1.209  -0.010  -0.136  0.00  0.00     0.006 A 
ENDROOT
BRANCH   1   8
ATOM      8  C1  UNL d   1       0.482   0.554  -1.921  0.00  0.00     0.054 C 
ATOM      9  C   UNL d   1       0.890  -0.721  -2.645  0.00  0.00     0.018 C 
ENDBRANCH   1   8
TORSDOF 1
ENDMDL
