MODEL 1
REMARK minimizedAffinity -5.78464746
REMARK minimizedRMSD -1
REMARK  1 active torsions:
REMARK  status: ('A' for Active; 'I' for Inactive)
REMARK    1  A    between atoms: C1_2  and  C2_3 
ROOT
ATOM      1  C2  UNL d   1       0.407  -0.153  -0.767  0.00  0.00    -0.081 A 
ATOM      2  C3  UNL d   1       1.416  -0.413   0.168  0.00  0.00     0.006 A 
ATOM      3  C4  UNL d   1       1.103  -0.584   1.518  0.00  0.00     0.002 A 
ATOM      4  C5  UNL d   1      -0.224  -0.506   1.955  0.00  0.00    -0.080 A 
ATOM      5  C6  UNL d   1      -0.577  -0.719   3.397  0.00  0.00     0.076 C 
ATOM      6  C7  UNL d   1      -1.230  -0.229   1.023  0.00  0.00     0.002 A 
ATOM      7  C8  UNL d   1      -0.918  -0.057  -0.327  0.00  0.00     0.006 A 
ENDROOT
BRANCH   1   8
ATOM      8  C1  UNL d   1       0.733  -0.031  -2.234  0.00  0.00     0.054 C 
ATOM      9  C   UNL d   1       0.793  -1.398  -2.902  0.00  0.00     0.018 C 
ENDBRANCH   1   8
TORSDOF 1
ENDMDL
