MODEL 1
REMARK minimizedAffinity -1.88078463
REMARK minimizedRMSD -1
REMARK  1 active torsions:
REMARK  status: ('A' for Active; 'I' for Inactive)
REMARK    1  A    between atoms: N_2  and  C1_3 
ROOT
ATOM      1  C1  UNL d   1       2.164  -0.993   2.434  0.00  0.00     0.143 A 
ATOM      2  C2  UNL d   1       2.216  -1.693   3.644  0.00  0.00    -0.057 A 
ATOM      3  C3  UNL d   1       1.672  -2.978   3.764  0.00  0.00     0.033 A 
ATOM      4  C4  UNL d   1       1.038  -3.575   2.679  0.00  0.00    -0.042 A 
ATOM      5  C5  UNL d   1       0.953  -2.888   1.474  0.00  0.00     0.033 A 
ATOM      6  C6  UNL d   1       1.504  -1.608   1.359  0.00  0.00    -0.057 A 
ENDROOT
BRANCH   1   7
ATOM      7  N   UNL d   1       2.599   0.325   2.279  0.00  0.00    -0.732 N 
ATOM      8  C   UNL d   1       3.498   0.683   1.202  0.00  0.00     0.284 C 
ATOM      9  H3  UNL d   1       1.857   1.001   2.443  0.00  0.00     0.395 HD
ENDBRANCH   1   7
TORSDOF 1
ENDMDL
