MODEL 1
REMARK minimizedAffinity 9.84040165
REMARK minimizedRMSD -1
REMARK  1 active torsions:
REMARK  status: ('A' for Active; 'I' for Inactive)
REMARK    1  A    between atoms: N_2  and  C1_3 
ROOT
ATOM      1  C1  UNL d   1       2.574  -3.258   4.129  0.00  0.00     0.143 A 
ATOM      2  C2  UNL d   1       2.350  -2.537   2.951  0.00  0.00    -0.057 A 
ATOM      3  C3  UNL d   1       2.086  -1.163   2.980  0.00  0.00     0.033 A 
ATOM      4  C4  UNL d   1       2.014  -0.487   4.194  0.00  0.00    -0.042 A 
ATOM      5  C5  UNL d   1       2.209  -1.188   5.379  0.00  0.00     0.033 A 
ATOM      6  C6  UNL d   1       2.478  -2.560   5.343  0.00  0.00    -0.057 A 
ENDROOT
BRANCH   1   7
ATOM      7  N   UNL d   1       2.742  -4.644   4.173  0.00  0.00    -0.732 N 
ATOM      8  C   UNL d   1       2.016  -5.445   5.135  0.00  0.00     0.284 C 
ATOM      9  H3  UNL d   1       2.798  -5.058   3.245  0.00  0.00     0.395 HD
ENDBRANCH   1   7
TORSDOF 1
ENDMDL
