MODEL 1
REMARK minimizedAffinity 3.96624017
REMARK minimizedRMSD -1
REMARK  1 active torsions:
REMARK  status: ('A' for Active; 'I' for Inactive)
REMARK    1  A    between atoms: N_2  and  C1_3 
ROOT
ATOM      1  C1  UNL d   1       3.724  -1.883   4.642  0.00  0.00     0.143 A 
ATOM      2  C2  UNL d   1       3.917  -0.838   3.733  0.00  0.00    -0.057 A 
ATOM      3  C3  UNL d   1       2.908  -0.455   2.842  0.00  0.00     0.033 A 
ATOM      4  C4  UNL d   1       1.693  -1.132   2.824  0.00  0.00    -0.042 A 
ATOM      5  C5  UNL d   1       1.488  -2.191   3.702  0.00  0.00     0.033 A 
ATOM      6  C6  UNL d   1       2.497  -2.564   4.594  0.00  0.00    -0.057 A 
ENDROOT
BRANCH   1   7
ATOM      7  N   UNL d   1       4.723  -2.376   5.486  0.00  0.00    -0.732 N 
ATOM      8  C   UNL d   1       5.999  -2.798   4.949  0.00  0.00     0.284 C 
ATOM      9  H3  UNL d   1       4.790  -1.851   6.355  0.00  0.00     0.395 HD
ENDBRANCH   1   7
TORSDOF 1
ENDMDL
