MODEL 1
REMARK minimizedAffinity 10.803874
REMARK minimizedRMSD -1
REMARK  1 active torsions:
REMARK  status: ('A' for Active; 'I' for Inactive)
REMARK    1  A    between atoms: N_2  and  C1_3 
ROOT
ATOM      1  C1  UNL d   1       2.542  -1.692   3.803  0.00  0.00     0.143 A 
ATOM      2  C2  UNL d   1       2.172  -2.116   5.083  0.00  0.00    -0.057 A 
ATOM      3  C3  UNL d   1       3.119  -2.616   5.985  0.00  0.00     0.033 A 
ATOM      4  C4  UNL d   1       4.453  -2.728   5.610  0.00  0.00    -0.042 A 
ATOM      5  C5  UNL d   1       4.841  -2.336   4.334  0.00  0.00     0.033 A 
ATOM      6  C6  UNL d   1       3.891  -1.831   3.440  0.00  0.00    -0.057 A 
ENDROOT
BRANCH   1   7
ATOM      7  N   UNL d   1       1.633  -1.277   2.827  0.00  0.00    -0.732 N 
ATOM      8  C   UNL d   1       1.909  -0.117   2.007  0.00  0.00     0.284 C 
ATOM      9  H3  UNL d   1       1.226  -2.059   2.318  0.00  0.00     0.395 HD
ENDBRANCH   1   7
TORSDOF 1
ENDMDL
