MODEL 1
REMARK minimizedAffinity 5.67021084
REMARK minimizedRMSD -1
REMARK  1 active torsions:
REMARK  status: ('A' for Active; 'I' for Inactive)
REMARK    1  A    between atoms: N_2  and  C1_3 
ROOT
ATOM      1  C1  UNL d   1      -6.000   0.628  -3.885  0.00  0.00     0.143 A 
ATOM      2  C2  UNL d   1      -5.998   1.692  -2.977  0.00  0.00    -0.057 A 
ATOM      3  C3  UNL d   1      -5.978   3.022  -3.415  0.00  0.00     0.033 A 
ATOM      4  C4  UNL d   1      -5.928   3.311  -4.775  0.00  0.00    -0.042 A 
ATOM      5  C5  UNL d   1      -5.904   2.269  -5.695  0.00  0.00     0.033 A 
ATOM      6  C6  UNL d   1      -5.931   0.944  -5.251  0.00  0.00    -0.057 A 
ENDROOT
BRANCH   1   7
ATOM      7  N   UNL d   1      -5.920  -0.715  -3.510  0.00  0.00    -0.732 N 
ATOM      8  C   UNL d   1      -5.988  -1.096  -2.116  0.00  0.00     0.284 C 
ATOM      9  H3  UNL d   1      -6.444  -1.324  -4.134  0.00  0.00     0.395 HD
ENDBRANCH   1   7
TORSDOF 1
ENDMDL
