MODEL 1
REMARK minimizedAffinity 0.630263567
REMARK minimizedRMSD -1
REMARK  1 active torsions:
REMARK  status: ('A' for Active; 'I' for Inactive)
REMARK    1  A    between atoms: N_2  and  C1_3 
ROOT
ATOM      1  C1  UNL d   1       2.013   1.205   1.345  0.00  0.00     0.143 A 
ATOM      2  C2  UNL d   1       3.151   1.584   0.625  0.00  0.00    -0.057 A 
ATOM      3  C3  UNL d   1       3.152   2.730  -0.180  0.00  0.00     0.033 A 
ATOM      4  C4  UNL d   1       2.002   3.503  -0.302  0.00  0.00    -0.042 A 
ATOM      5  C5  UNL d   1       0.852   3.130   0.385  0.00  0.00     0.033 A 
ATOM      6  C6  UNL d   1       0.859   1.989   1.192  0.00  0.00    -0.057 A 
ENDROOT
BRANCH   1   7
ATOM      7  N   UNL d   1       1.919   0.023   2.084  0.00  0.00    -0.732 N 
ATOM      8  C   UNL d   1       0.960  -0.999   1.722  0.00  0.00     0.284 C 
ATOM      9  H3  UNL d   1       2.830  -0.339   2.355  0.00  0.00     0.395 HD
ENDBRANCH   1   7
TORSDOF 1
ENDMDL
