MODEL 1
REMARK minimizedAffinity -1.20665097
REMARK minimizedRMSD -1
REMARK  1 active torsions:
REMARK  status: ('A' for Active; 'I' for Inactive)
REMARK    1  A    between atoms: N_2  and  C1_3 
ROOT
ATOM      1  C1  UNL d   1       4.286  -2.094   4.230  0.00  0.00     0.143 A 
ATOM      2  C2  UNL d   1       3.116  -2.011   4.993  0.00  0.00    -0.057 A 
ATOM      3  C3  UNL d   1       1.982  -1.345   4.512  0.00  0.00     0.033 A 
ATOM      4  C4  UNL d   1       2.008  -0.725   3.267  0.00  0.00    -0.042 A 
ATOM      5  C5  UNL d   1       3.168  -0.773   2.503  0.00  0.00     0.033 A 
ATOM      6  C6  UNL d   1       4.295  -1.445   2.986  0.00  0.00    -0.057 A 
ENDROOT
BRANCH   1   7
ATOM      7  N   UNL d   1       5.478  -2.657   4.694  0.00  0.00    -0.732 N 
ATOM      8  C   UNL d   1       5.998  -2.309   5.999  0.00  0.00     0.284 C 
ATOM      9  H3  UNL d   1       5.556  -3.645   4.465  0.00  0.00     0.395 HD
ENDBRANCH   1   7
TORSDOF 1
ENDMDL
