MODEL 1
REMARK minimizedAffinity 0.338937789
REMARK minimizedRMSD -1
REMARK  1 active torsions:
REMARK  status: ('A' for Active; 'I' for Inactive)
REMARK    1  A    between atoms: N_2  and  C1_3 
ROOT
ATOM      1  C1  UNL d   1       3.437  -1.938   4.171  0.00  0.00     0.143 A 
ATOM      2  C2  UNL d   1       4.579  -1.829   3.370  0.00  0.00    -0.057 A 
ATOM      3  C3  UNL d   1       5.845  -2.173   3.860  0.00  0.00     0.033 A 
ATOM      4  C4  UNL d   1       5.995  -2.606   5.173  0.00  0.00    -0.042 A 
ATOM      5  C5  UNL d   1       4.877  -2.698   5.995  0.00  0.00     0.033 A 
ATOM      6  C6  UNL d   1       3.615  -2.359   5.498  0.00  0.00    -0.057 A 
ENDROOT
BRANCH   1   7
ATOM      7  N   UNL d   1       2.165  -1.518   3.774  0.00  0.00    -0.732 N 
ATOM      8  C   UNL d   1       2.000  -0.659   2.621  0.00  0.00     0.284 C 
ATOM      9  H3  UNL d   1       1.472  -2.259   3.843  0.00  0.00     0.395 HD
ENDBRANCH   1   7
TORSDOF 1
ENDMDL
