MODEL 1
REMARK minimizedAffinity 11.2976427
REMARK minimizedRMSD -1
REMARK  1 active torsions:
REMARK  status: ('A' for Active; 'I' for Inactive)
REMARK    1  A    between atoms: N_2  and  C1_3 
ROOT
ATOM      1  C1  UNL d   1       4.979  -1.806   3.159  0.00  0.00     0.143 A 
ATOM      2  C2  UNL d   1       3.618  -1.883   3.474  0.00  0.00    -0.057 A 
ATOM      3  C3  UNL d   1       2.645  -1.336   2.629  0.00  0.00     0.033 A 
ATOM      4  C4  UNL d   1       3.020  -0.675   1.464  0.00  0.00    -0.042 A 
ATOM      5  C5  UNL d   1       4.368  -0.563   1.144  0.00  0.00     0.033 A 
ATOM      6  C6  UNL d   1       5.335  -1.117   1.989  0.00  0.00    -0.057 A 
ENDROOT
BRANCH   1   7
ATOM      7  N   UNL d   1       6.000  -2.243   4.007  0.00  0.00    -0.732 N 
ATOM      8  C   UNL d   1       6.000  -1.881   5.408  0.00  0.00     0.284 C 
ATOM      9  H3  UNL d   1       6.268  -3.208   3.827  0.00  0.00     0.395 HD
ENDBRANCH   1   7
TORSDOF 1
ENDMDL
