MODEL 1
REMARK minimizedAffinity -5.45761204
REMARK minimizedRMSD -1
REMARK  0 active torsions:
REMARK  status: ('A' for Active; 'I' for Inactive)
ROOT
ATOM      1  C   UNL d   1      -0.040   2.726  -0.064  0.00  0.00     0.020 A 
ATOM      2  C1  UNL d   1       1.215   3.008   0.476  0.00  0.00     0.020 A 
ATOM      3  C2  UNL d   1       2.118   1.973   0.722  0.00  0.00     0.034 A 
ATOM      4  C3  UNL d   1       1.769   0.649   0.429  0.00  0.00     0.017 A 
ATOM      5  C4  UNL d   1       0.509   0.367  -0.113  0.00  0.00     0.017 A 
ATOM      6  C5  UNL d   1      -0.391   1.408  -0.358  0.00  0.00     0.034 A 
ATOM      7 Cl   UNL d   1       0.007  -1.241  -0.501  0.00  0.00    -0.070 Cl
ATOM      8 Cl1  UNL d   1       2.935  -0.582   0.759  0.00  0.00    -0.070 Cl
ENDROOT
TORSDOF 0
ENDMDL
