MODEL 1
REMARK minimizedAffinity -5.34711266
REMARK minimizedRMSD -1
REMARK  0 active torsions:
REMARK  status: ('A' for Active; 'I' for Inactive)
ROOT
ATOM      1  C   UNL d   1       0.677   3.059   0.076  0.00  0.00     0.020 A 
ATOM      2  C1  UNL d   1       1.748   2.217  -0.221  0.00  0.00     0.020 A 
ATOM      3  C2  UNL d   1       1.562   0.834  -0.247  0.00  0.00     0.034 A 
ATOM      4  C3  UNL d   1       0.302   0.287   0.025  0.00  0.00     0.017 A 
ATOM      5  C4  UNL d   1      -0.772   1.133   0.323  0.00  0.00     0.017 A 
ATOM      6  C5  UNL d   1      -0.581   2.518   0.347  0.00  0.00     0.034 A 
ATOM      7 Cl   UNL d   1      -2.356   0.533   0.669  0.00  0.00    -0.070 Cl
ATOM      8 Cl1  UNL d   1       0.145  -1.433  -0.024  0.00  0.00    -0.070 Cl
ENDROOT
TORSDOF 0
ENDMDL
