MODEL 1
REMARK minimizedAffinity -6.03377724
REMARK minimizedRMSD -1
REMARK  0 active torsions:
REMARK  status: ('A' for Active; 'I' for Inactive)
ROOT
ATOM      1  C   UNL d   1       2.428   2.623   0.413  0.00  0.00     0.020 A 
ATOM      2  C1  UNL d   1       1.285   3.413   0.295  0.00  0.00     0.020 A 
ATOM      3  C2  UNL d   1       0.023   2.815   0.269  0.00  0.00     0.034 A 
ATOM      4  C3  UNL d   1      -0.099   1.424   0.361  0.00  0.00     0.017 A 
ATOM      5  C4  UNL d   1       1.049   0.632   0.479  0.00  0.00     0.017 A 
ATOM      6  C5  UNL d   1       2.310   1.236   0.505  0.00  0.00     0.034 A 
ATOM      7 Cl   UNL d   1       0.979  -1.091   0.597  0.00  0.00    -0.070 Cl
ATOM      8 Cl1  UNL d   1      -1.690   0.752   0.323  0.00  0.00    -0.070 Cl
ENDROOT
TORSDOF 0
ENDMDL
