MODEL 1
REMARK minimizedAffinity -5.0577817
REMARK minimizedRMSD -1
REMARK  0 active torsions:
REMARK  status: ('A' for Active; 'I' for Inactive)
ROOT
ATOM      1  C   UNL d   1       2.121   2.980   0.496  0.00  0.00     0.020 A 
ATOM      2  C1  UNL d   1       0.756   2.853   0.243  0.00  0.00     0.020 A 
ATOM      3  C2  UNL d   1       0.156   1.592   0.262  0.00  0.00     0.034 A 
ATOM      4  C3  UNL d   1       0.922   0.453   0.535  0.00  0.00     0.017 A 
ATOM      5  C4  UNL d   1       2.292   0.581   0.789  0.00  0.00     0.017 A 
ATOM      6  C5  UNL d   1       2.887   1.846   0.769  0.00  0.00     0.034 A 
ATOM      7 Cl   UNL d   1       3.302  -0.779   1.134  0.00  0.00    -0.070 Cl
ATOM      8 Cl1  UNL d   1       0.114  -1.075   0.542  0.00  0.00    -0.070 Cl
ENDROOT
TORSDOF 0
ENDMDL
