MODEL 1
REMARK minimizedAffinity -5.75502157
REMARK minimizedRMSD -1
REMARK  0 active torsions:
REMARK  status: ('A' for Active; 'I' for Inactive)
ROOT
ATOM      1  C   UNL d   1       1.278   3.107   0.224  0.00  0.00     0.020 A 
ATOM      2  C1  UNL d   1       2.529   2.495   0.296  0.00  0.00     0.020 A 
ATOM      3  C2  UNL d   1       2.624   1.102   0.322  0.00  0.00     0.034 A 
ATOM      4  C3  UNL d   1       1.466   0.316   0.274  0.00  0.00     0.017 A 
ATOM      5  C4  UNL d   1       0.211   0.931   0.201  0.00  0.00     0.017 A 
ATOM      6  C5  UNL d   1       0.122   2.327   0.176  0.00  0.00     0.034 A 
ATOM      7 Cl   UNL d   1      -1.261   0.029   0.140  0.00  0.00    -0.070 Cl
ATOM      8 Cl1  UNL d   1       1.659  -1.400   0.309  0.00  0.00    -0.070 Cl
ENDROOT
TORSDOF 0
ENDMDL
