MODEL 1
REMARK minimizedAffinity -3.7866478
REMARK minimizedRMSD -1
REMARK  0 active torsions:
REMARK  status: ('A' for Active; 'I' for Inactive)
ROOT
ATOM      1  C   UNL d   1       2.120   2.669   0.381  0.00  0.00     0.020 A 
ATOM      2  C1  UNL d   1       0.963   3.390   0.672  0.00  0.00     0.020 A 
ATOM      3  C2  UNL d   1      -0.275   2.744   0.698  0.00  0.00     0.034 A 
ATOM      4  C3  UNL d   1      -0.359   1.373   0.431  0.00  0.00     0.017 A 
ATOM      5  C4  UNL d   1       0.804   0.650   0.139  0.00  0.00     0.017 A 
ATOM      6  C5  UNL d   1       2.040   1.302   0.114  0.00  0.00     0.034 A 
ATOM      7 Cl   UNL d   1       0.780  -1.045  -0.201  0.00  0.00    -0.070 Cl
ATOM      8 Cl1  UNL d   1      -1.922   0.638   0.480  0.00  0.00    -0.070 Cl
ENDROOT
TORSDOF 0
ENDMDL
