MODEL 1
REMARK minimizedAffinity -4.14792442
REMARK minimizedRMSD -1
REMARK  0 active torsions:
REMARK  status: ('A' for Active; 'I' for Inactive)
ROOT
ATOM      1  C   UNL d   1       0.077  -1.113   0.572  0.00  0.00     0.020 A 
ATOM      2  C1  UNL d   1      -0.989  -0.240   0.787  0.00  0.00     0.020 A 
ATOM      3  C2  UNL d   1      -0.829   1.128   0.554  0.00  0.00     0.034 A 
ATOM      4  C3  UNL d   1       0.398   1.627   0.103  0.00  0.00     0.017 A 
ATOM      5  C4  UNL d   1       1.467   0.749  -0.113  0.00  0.00     0.017 A 
ATOM      6  C5  UNL d   1       1.302  -0.619   0.123  0.00  0.00     0.034 A 
ATOM      7 Cl   UNL d   1       3.012   1.290  -0.668  0.00  0.00    -0.070 Cl
ATOM      8 Cl1  UNL d   1       0.525   3.329  -0.165  0.00  0.00    -0.070 Cl
ENDROOT
TORSDOF 0
ENDMDL
