MODEL 1
REMARK minimizedAffinity -5.15101337
REMARK minimizedRMSD -1
REMARK  0 active torsions:
REMARK  status: ('A' for Active; 'I' for Inactive)
ROOT
ATOM      1  C   UNL d   1       1.674   3.388   0.580  0.00  0.00     0.020 A 
ATOM      2  C1  UNL d   1       2.609   2.354   0.609  0.00  0.00     0.020 A 
ATOM      3  C2  UNL d   1       2.192   1.031   0.448  0.00  0.00     0.034 A 
ATOM      4  C3  UNL d   1       0.837   0.738   0.257  0.00  0.00     0.017 A 
ATOM      5  C4  UNL d   1      -0.101   1.776   0.228  0.00  0.00     0.017 A 
ATOM      6  C5  UNL d   1       0.322   3.099   0.390  0.00  0.00     0.034 A 
ATOM      7 Cl   UNL d   1      -1.790   1.493  -0.003  0.00  0.00    -0.070 Cl
ATOM      8 Cl1  UNL d   1       0.393  -0.921   0.064  0.00  0.00    -0.070 Cl
ENDROOT
TORSDOF 0
ENDMDL
