MODEL 1
REMARK minimizedAffinity -1.89348888
REMARK minimizedRMSD -1
REMARK  0 active torsions:
REMARK  status: ('A' for Active; 'I' for Inactive)
ROOT
ATOM      1  C   UNL d   1      -0.990  -0.652   0.018  0.00  0.00     0.020 A 
ATOM      2  C1  UNL d   1       0.241  -1.306  -0.028  0.00  0.00     0.020 A 
ATOM      3  C2  UNL d   1       1.422  -0.583   0.152  0.00  0.00     0.034 A 
ATOM      4  C3  UNL d   1       1.375   0.798   0.378  0.00  0.00     0.017 A 
ATOM      5  C4  UNL d   1       0.139   1.453   0.423  0.00  0.00     0.017 A 
ATOM      6  C5  UNL d   1      -1.041   0.724   0.243  0.00  0.00     0.034 A 
ATOM      7 Cl   UNL d   1       0.001   3.153   0.698  0.00  0.00    -0.070 Cl
ATOM      8 Cl1  UNL d   1       2.875   1.628   0.592  0.00  0.00    -0.070 Cl
ENDROOT
TORSDOF 0
ENDMDL
