MODEL 1
REMARK minimizedAffinity -5.31114197
REMARK minimizedRMSD -1
REMARK  0 active torsions:
REMARK  status: ('A' for Active; 'I' for Inactive)
ROOT
ATOM      1  C   UNL d   1       1.794   2.648   0.188  0.00  0.00     0.020 A 
ATOM      2  C1  UNL d   1       0.733   3.553   0.150  0.00  0.00     0.020 A 
ATOM      3  C2  UNL d   1      -0.583   3.088   0.197  0.00  0.00     0.034 A 
ATOM      4  C3  UNL d   1      -0.842   1.715   0.281  0.00  0.00     0.017 A 
ATOM      5  C4  UNL d   1       0.224   0.808   0.318  0.00  0.00     0.017 A 
ATOM      6  C5  UNL d   1       1.539   1.279   0.272  0.00  0.00     0.034 A 
ATOM      7 Cl   UNL d   1      -0.017  -0.901   0.422  0.00  0.00    -0.070 Cl
ATOM      8 Cl1  UNL d   1      -2.493   1.210   0.334  0.00  0.00    -0.070 Cl
ENDROOT
TORSDOF 0
ENDMDL
