MODEL 1
REMARK minimizedAffinity -3.11273265
REMARK minimizedRMSD -1
REMARK  0 active torsions:
REMARK  status: ('A' for Active; 'I' for Inactive)
ROOT
ATOM      1  C   UNL d   1       2.001   2.799  -0.313  0.00  0.00     0.020 A 
ATOM      2  C1  UNL d   1       0.883   3.493   0.149  0.00  0.00     0.020 A 
ATOM      3  C2  UNL d   1      -0.271   2.796   0.512  0.00  0.00     0.034 A 
ATOM      4  C3  UNL d   1      -0.310   1.400   0.414  0.00  0.00     0.017 A 
ATOM      5  C4  UNL d   1       0.812   0.704  -0.050  0.00  0.00     0.017 A 
ATOM      6  C5  UNL d   1       1.965   1.408  -0.413  0.00  0.00     0.034 A 
ATOM      7 Cl   UNL d   1       0.838  -1.017  -0.199  0.00  0.00    -0.070 Cl
ATOM      8 Cl1  UNL d   1      -1.771   0.603   0.880  0.00  0.00    -0.070 Cl
ENDROOT
TORSDOF 0
ENDMDL
