MODEL 1
REMARK minimizedAffinity -5.8529563
REMARK minimizedRMSD -1
REMARK  0 active torsions:
REMARK  status: ('A' for Active; 'I' for Inactive)
ROOT
ATOM      1  C   UNL d   1       1.323   3.038   0.670  0.00  0.00     0.020 A 
ATOM      2  C1  UNL d   1       2.317   2.067   0.564  0.00  0.00     0.020 A 
ATOM      3  C2  UNL d   1       1.972   0.739   0.301  0.00  0.00     0.034 A 
ATOM      4  C3  UNL d   1       0.629   0.379   0.144  0.00  0.00     0.017 A 
ATOM      5  C4  UNL d   1      -0.369   1.355   0.250  0.00  0.00     0.017 A 
ATOM      6  C5  UNL d   1      -0.018   2.683   0.513  0.00  0.00     0.034 A 
ATOM      7 Cl   UNL d   1      -2.048   0.987   0.068  0.00  0.00    -0.070 Cl
ATOM      8 Cl1  UNL d   1       0.274  -1.281  -0.179  0.00  0.00    -0.070 Cl
ENDROOT
TORSDOF 0
ENDMDL
