MODEL 1
REMARK minimizedAffinity -2.48098803
REMARK minimizedRMSD -1
REMARK  0 active torsions:
REMARK  status: ('A' for Active; 'I' for Inactive)
ROOT
ATOM      1  C   UNL d   1      -1.441  -2.157  -2.833  0.00  0.00     0.020 A 
ATOM      2  C1  UNL d   1      -0.464  -2.981  -2.276  0.00  0.00     0.020 A 
ATOM      3  C2  UNL d   1       0.264  -2.549  -1.165  0.00  0.00     0.034 A 
ATOM      4  C3  UNL d   1       0.016  -1.290  -0.608  0.00  0.00     0.017 A 
ATOM      5  C4  UNL d   1      -0.965  -0.463  -1.167  0.00  0.00     0.017 A 
ATOM      6  C5  UNL d   1      -1.691  -0.901  -2.280  0.00  0.00     0.034 A 
ATOM      7 Cl   UNL d   1      -1.328   1.104  -0.535  0.00  0.00    -0.070 Cl
ATOM      8 Cl1  UNL d   1       0.953  -0.820   0.766  0.00  0.00    -0.070 Cl
ENDROOT
TORSDOF 0
ENDMDL
