MODEL 1
REMARK minimizedAffinity -3.66986537
REMARK minimizedRMSD -1
REMARK  0 active torsions:
REMARK  status: ('A' for Active; 'I' for Inactive)
ROOT
ATOM      1  C   UNL d   1       0.463  -1.405   0.704  0.00  0.00     0.020 A 
ATOM      2  C1  UNL d   1       1.543  -0.627   0.288  0.00  0.00     0.020 A 
ATOM      3  C2  UNL d   1       1.363   0.732   0.022  0.00  0.00     0.034 A 
ATOM      4  C3  UNL d   1       0.100   1.317   0.172  0.00  0.00     0.017 A 
ATOM      5  C4  UNL d   1      -0.983   0.535   0.589  0.00  0.00     0.017 A 
ATOM      6  C5  UNL d   1      -0.797  -0.825   0.854  0.00  0.00     0.034 A 
ATOM      7 Cl   UNL d   1      -2.570   1.187   0.796  0.00  0.00    -0.070 Cl
ATOM      8 Cl1  UNL d   1      -0.050   3.003  -0.174  0.00  0.00    -0.070 Cl
ENDROOT
TORSDOF 0
ENDMDL
