MODEL 1
REMARK minimizedAffinity -4.84805155
REMARK minimizedRMSD -1
REMARK  0 active torsions:
REMARK  status: ('A' for Active; 'I' for Inactive)
ROOT
ATOM      1  C   UNL d   1      -0.767   3.096   0.078  0.00  0.00     0.020 A 
ATOM      2  C1  UNL d   1       0.410   3.820   0.261  0.00  0.00     0.020 A 
ATOM      3  C2  UNL d   1       1.621   3.150   0.444  0.00  0.00     0.034 A 
ATOM      4  C3  UNL d   1       1.658   1.751   0.445  0.00  0.00     0.017 A 
ATOM      5  C4  UNL d   1       0.476   1.024   0.261  0.00  0.00     0.017 A 
ATOM      6  C5  UNL d   1      -0.734   1.701   0.078  0.00  0.00     0.034 A 
ATOM      7 Cl   UNL d   1       0.443  -0.704   0.249  0.00  0.00    -0.070 Cl
ATOM      8 Cl1  UNL d   1       3.191   0.988   0.677  0.00  0.00    -0.070 Cl
ENDROOT
TORSDOF 0
ENDMDL
