MODEL 1
REMARK minimizedAffinity -1.83933067
REMARK minimizedRMSD -1
REMARK  0 active torsions:
REMARK  status: ('A' for Active; 'I' for Inactive)
ROOT
ATOM      1  C   UNL d   1       1.280   2.060  -0.253  0.00  0.00     0.020 A 
ATOM      2  C1  UNL d   1       0.310   2.946   0.215  0.00  0.00     0.020 A 
ATOM      3  C2  UNL d   1      -0.935   2.464   0.625  0.00  0.00     0.034 A 
ATOM      4  C3  UNL d   1      -1.214   1.094   0.568  0.00  0.00     0.017 A 
ATOM      5  C4  UNL d   1      -0.240   0.206   0.098  0.00  0.00     0.017 A 
ATOM      6  C5  UNL d   1       1.005   0.693  -0.311  0.00  0.00     0.034 A 
ATOM      7 Cl   UNL d   1      -0.510  -1.498  -0.002  0.00  0.00    -0.070 Cl
ATOM      8 Cl1  UNL d   1      -2.775   0.569   1.091  0.00  0.00    -0.070 Cl
ENDROOT
TORSDOF 0
ENDMDL
