MODEL 1
REMARK minimizedAffinity -2.36158109
REMARK minimizedRMSD -1
REMARK  0 active torsions:
REMARK  status: ('A' for Active; 'I' for Inactive)
ROOT
ATOM      1  C   UNL d   1       0.038  -1.178  -0.425  0.00  0.00     0.020 A 
ATOM      2  C1  UNL d   1       1.126  -0.473  -0.939  0.00  0.00     0.020 A 
ATOM      3  C2  UNL d   1       1.154   0.921  -0.862  0.00  0.00     0.034 A 
ATOM      4  C3  UNL d   1       0.091   1.614  -0.271  0.00  0.00     0.017 A 
ATOM      5  C4  UNL d   1      -1.000   0.906   0.244  0.00  0.00     0.017 A 
ATOM      6  C5  UNL d   1      -1.023  -0.490   0.165  0.00  0.00     0.034 A 
ATOM      7 Cl   UNL d   1      -2.348   1.691   0.988  0.00  0.00    -0.070 Cl
ATOM      8 Cl1  UNL d   1       0.192   3.338  -0.210  0.00  0.00    -0.070 Cl
ENDROOT
TORSDOF 0
ENDMDL
