MODEL 1
REMARK minimizedAffinity 8.97651672
REMARK minimizedRMSD -1
REMARK  0 active torsions:
REMARK  status: ('A' for Active; 'I' for Inactive)
ROOT
ATOM      1  C   UNL d   1      -3.727  -1.391  -2.974  0.00  0.00    -0.002 A 
ATOM      2  C1  UNL d   1      -3.045  -0.276  -2.506  0.00  0.00     0.010 A 
ATOM      3  C2  UNL d   1      -1.661  -0.174  -2.659  0.00  0.00     0.041 A 
ATOM      4  C3  UNL d   1      -0.967  -1.219  -3.300  0.00  0.00    -0.075 A 
ATOM      5  S   UNL d   1       0.728  -1.311  -3.600  0.00  0.00     0.015 SA
ATOM      6  C4  UNL d   1       0.588  -2.831  -4.358  0.00  0.00     0.022 A 
ATOM      7  C5  UNL d   1      -0.714  -3.273  -4.390  0.00  0.00     0.026 A 
ATOM      8  C6  UNL d   1      -1.631  -2.351  -3.780  0.00  0.00    -0.082 A 
ATOM      9  C7  UNL d   1      -3.035  -2.426  -3.608  0.00  0.00     0.045 A 
ENDROOT
TORSDOF 0
ENDMDL
