MODEL 1
REMARK minimizedAffinity 11.9635725
REMARK minimizedRMSD -1
REMARK  0 active torsions:
REMARK  status: ('A' for Active; 'I' for Inactive)
ROOT
ATOM      1  C   UNL d   1       0.818  -5.956   1.226  0.00  0.00    -0.002 A 
ATOM      2  C1  UNL d   1       2.193  -5.960   1.419  0.00  0.00     0.010 A 
ATOM      3  C2  UNL d   1       2.729  -5.972   2.708  0.00  0.00     0.041 A 
ATOM      4  C3  UNL d   1       1.852  -5.981   3.811  0.00  0.00    -0.075 A 
ATOM      5  S   UNL d   1       2.281  -5.996   5.481  0.00  0.00     0.015 SA
ATOM      6  C4  UNL d   1       0.651  -5.999   5.977  0.00  0.00     0.022 A 
ATOM      7  C5  UNL d   1      -0.214  -5.987   4.908  0.00  0.00     0.026 A 
ATOM      8  C6  UNL d   1       0.464  -5.977   3.642  0.00  0.00    -0.082 A 
ATOM      9  C7  UNL d   1      -0.048  -5.965   2.322  0.00  0.00     0.045 A 
ENDROOT
TORSDOF 0
ENDMDL
