MODEL 1
REMARK minimizedAffinity 7.72261
REMARK minimizedRMSD -1
REMARK  0 active torsions:
REMARK  status: ('A' for Active; 'I' for Inactive)
ROOT
ATOM      1  C   UNL d   1      -5.947   2.845   4.679  0.00  0.00    -0.002 A 
ATOM      2  C1  UNL d   1      -5.983   2.545   3.325  0.00  0.00     0.010 A 
ATOM      3  C2  UNL d   1      -5.999   1.218   2.891  0.00  0.00     0.041 A 
ATOM      4  C3  UNL d   1      -5.980   0.187   3.851  0.00  0.00    -0.075 A 
ATOM      5  S   UNL d   1      -5.996  -1.511   3.553  0.00  0.00     0.015 SA
ATOM      6  C4  UNL d   1      -5.956  -1.879   5.217  0.00  0.00     0.022 A 
ATOM      7  C5  UNL d   1      -5.931  -0.746   5.995  0.00  0.00     0.026 A 
ATOM      8  C6  UNL d   1      -5.945   0.463   5.220  0.00  0.00    -0.082 A 
ATOM      9  C7  UNL d   1      -5.928   1.819   5.628  0.00  0.00     0.045 A 
ENDROOT
TORSDOF 0
ENDMDL
