MODEL 1
REMARK minimizedAffinity 8.81176281
REMARK minimizedRMSD -1
REMARK  0 active torsions:
REMARK  status: ('A' for Active; 'I' for Inactive)
ROOT
ATOM      1  C   UNL d   1      -1.163  -5.998   1.340  0.00  0.00    -0.002 A 
ATOM      2  C1  UNL d   1       0.001  -5.997   0.584  0.00  0.00     0.010 A 
ATOM      3  C2  UNL d   1       1.251  -5.996   1.206  0.00  0.00     0.041 A 
ATOM      4  C3  UNL d   1       1.313  -5.997   2.613  0.00  0.00    -0.075 A 
ATOM      5  S   UNL d   1       2.732  -5.996   3.592  0.00  0.00     0.015 SA
ATOM      6  C4  UNL d   1       1.827  -5.998   5.036  0.00  0.00     0.022 A 
ATOM      7  C5  UNL d   1       0.474  -5.999   4.796  0.00  0.00     0.026 A 
ATOM      8  C6  UNL d   1       0.155  -5.999   3.396  0.00  0.00    -0.082 A 
ATOM      9  C7  UNL d   1      -1.098  -5.999   2.736  0.00  0.00     0.045 A 
ENDROOT
TORSDOF 0
ENDMDL
