MODEL 1
REMARK minimizedAffinity 5.33140278
REMARK minimizedRMSD -1
REMARK  0 active torsions:
REMARK  status: ('A' for Active; 'I' for Inactive)
ROOT
ATOM      1  C   UNL d   1       2.513  -5.997   5.087  0.00  0.00    -0.002 A 
ATOM      2  C1  UNL d   1       3.392  -5.999   4.013  0.00  0.00     0.010 A 
ATOM      3  C2  UNL d   1       2.911  -6.000   2.702  0.00  0.00     0.041 A 
ATOM      4  C3  UNL d   1       1.519  -5.996   2.486  0.00  0.00    -0.075 A 
ATOM      5  S   UNL d   1       0.702  -5.995   0.968  0.00  0.00     0.015 SA
ATOM      6  C4  UNL d   1      -0.832  -5.991   1.709  0.00  0.00     0.022 A 
ATOM      7  C5  UNL d   1      -0.743  -5.990   3.080  0.00  0.00     0.026 A 
ATOM      8  C6  UNL d   1       0.614  -5.993   3.551  0.00  0.00    -0.082 A 
ATOM      9  C7  UNL d   1       1.132  -5.993   4.869  0.00  0.00     0.045 A 
ENDROOT
TORSDOF 0
ENDMDL
