MODEL 1
REMARK minimizedAffinity 5.64122534
REMARK minimizedRMSD -1
REMARK  0 active torsions:
REMARK  status: ('A' for Active; 'I' for Inactive)
ROOT
ATOM      1  C   UNL d   1      -4.576  -5.968   1.652  0.00  0.00    -0.002 A 
ATOM      2  C1  UNL d   1      -4.043  -5.968   0.370  0.00  0.00     0.010 A 
ATOM      3  C2  UNL d   1      -2.661  -5.975   0.175  0.00  0.00     0.041 A 
ATOM      4  C3  UNL d   1      -1.814  -5.984   1.301  0.00  0.00    -0.075 A 
ATOM      5  S   UNL d   1      -0.090  -5.994   1.305  0.00  0.00     0.015 SA
ATOM      6  C4  UNL d   1      -0.020  -6.000   3.008  0.00  0.00     0.022 A 
ATOM      7  C5  UNL d   1      -1.271  -5.994   3.576  0.00  0.00     0.026 A 
ATOM      8  C6  UNL d   1      -2.326  -5.985   2.602  0.00  0.00    -0.082 A 
ATOM      9  C7  UNL d   1      -3.733  -5.977   2.766  0.00  0.00     0.045 A 
ENDROOT
TORSDOF 0
ENDMDL
