MODEL 1
REMARK minimizedAffinity 7.77894068
REMARK minimizedRMSD -1
REMARK  0 active torsions:
REMARK  status: ('A' for Active; 'I' for Inactive)
ROOT
ATOM      1  C   UNL d   1      -2.777  -2.986   1.131  0.00  0.00    -0.002 A 
ATOM      2  C1  UNL d   1      -1.784  -2.056   1.400  0.00  0.00     0.010 A 
ATOM      3  C2  UNL d   1      -0.635  -2.426   2.102  0.00  0.00     0.041 A 
ATOM      4  C3  UNL d   1      -0.499  -3.761   2.531  0.00  0.00    -0.075 A 
ATOM      5  S   UNL d   1       0.821  -4.442   3.406  0.00  0.00     0.015 SA
ATOM      6  C4  UNL d   1       0.098  -5.985   3.441  0.00  0.00     0.022 A 
ATOM      7  C5  UNL d   1      -1.121  -5.998   2.806  0.00  0.00     0.026 A 
ATOM      8  C6  UNL d   1      -1.485  -4.717   2.271  0.00  0.00    -0.082 A 
ATOM      9  C7  UNL d   1      -2.639  -4.310   1.558  0.00  0.00     0.045 A 
ENDROOT
TORSDOF 0
ENDMDL
