MODEL 1
REMARK minimizedAffinity 2.85234642
REMARK minimizedRMSD -1
REMARK  0 active torsions:
REMARK  status: ('A' for Active; 'I' for Inactive)
ROOT
ATOM      1  C   UNL d   1      -2.447  -5.991   1.259  0.00  0.00    -0.002 A 
ATOM      2  C1  UNL d   1      -2.782  -5.992   2.605  0.00  0.00     0.010 A 
ATOM      3  C2  UNL d   1      -1.786  -5.995   3.584  0.00  0.00     0.041 A 
ATOM      4  C3  UNL d   1      -0.436  -5.996   3.183  0.00  0.00    -0.075 A 
ATOM      5  S   UNL d   1       0.952  -5.999   4.206  0.00  0.00     0.015 SA
ATOM      6  C4  UNL d   1       2.022  -5.999   2.879  0.00  0.00     0.022 A 
ATOM      7  C5  UNL d   1       1.353  -5.997   1.678  0.00  0.00     0.026 A 
ATOM      8  C6  UNL d   1      -0.074  -5.994   1.833  0.00  0.00    -0.082 A 
ATOM      9  C7  UNL d   1      -1.107  -5.992   0.865  0.00  0.00     0.045 A 
ENDROOT
TORSDOF 0
ENDMDL
