MODEL 1
REMARK minimizedAffinity 5.02567434
REMARK minimizedRMSD -1
REMARK  0 active torsions:
REMARK  status: ('A' for Active; 'I' for Inactive)
ROOT
ATOM      1  C   UNL d   1      -1.520  -5.999   2.216  0.00  0.00    -0.002 A 
ATOM      2  C1  UNL d   1      -0.576  -6.000   1.199  0.00  0.00     0.010 A 
ATOM      3  C2  UNL d   1       0.761  -5.703   1.471  0.00  0.00     0.041 A 
ATOM      4  C3  UNL d   1       1.137  -5.405   2.795  0.00  0.00    -0.075 A 
ATOM      5  S   UNL d   1       2.717  -5.013   3.364  0.00  0.00     0.015 SA
ATOM      6  C4  UNL d   1       2.176  -4.836   4.970  0.00  0.00     0.022 A 
ATOM      7  C5  UNL d   1       0.825  -5.066   5.088  0.00  0.00     0.026 A 
ATOM      8  C6  UNL d   1       0.205  -5.398   3.836  0.00  0.00    -0.082 A 
ATOM      9  C7  UNL d   1      -1.143  -5.702   3.528  0.00  0.00     0.045 A 
ENDROOT
TORSDOF 0
ENDMDL
