MODEL 1
REMARK minimizedAffinity 16.2773857
REMARK minimizedRMSD -1
REMARK  0 active torsions:
REMARK  status: ('A' for Active; 'I' for Inactive)
ROOT
ATOM      1  C   UNL d   1       2.488  -5.995   5.880  0.00  0.00    -0.002 A 
ATOM      2  C1  UNL d   1       3.384  -5.996   4.821  0.00  0.00     0.010 A 
ATOM      3  C2  UNL d   1       2.925  -5.994   3.502  0.00  0.00     0.041 A 
ATOM      4  C3  UNL d   1       1.537  -5.988   3.264  0.00  0.00    -0.075 A 
ATOM      5  S   UNL d   1       0.745  -5.984   1.732  0.00  0.00     0.015 SA
ATOM      6  C4  UNL d   1      -0.802  -5.979   2.448  0.00  0.00     0.022 A 
ATOM      7  C5  UNL d   1      -0.734  -5.982   3.822  0.00  0.00     0.026 A 
ATOM      8  C6  UNL d   1       0.615  -5.986   4.314  0.00  0.00    -0.082 A 
ATOM      9  C7  UNL d   1       1.112  -5.990   5.640  0.00  0.00     0.045 A 
ENDROOT
TORSDOF 0
ENDMDL
