MODEL 1
REMARK minimizedAffinity 14.1416388
REMARK minimizedRMSD -1
REMARK  0 active torsions:
REMARK  status: ('A' for Active; 'I' for Inactive)
ROOT
ATOM      1  C   UNL d   1      -1.392  -5.880   1.712  0.00  0.00    -0.002 A 
ATOM      2  C1  UNL d   1      -0.096  -5.704   1.248  0.00  0.00     0.010 A 
ATOM      3  C2  UNL d   1       0.973  -5.625   2.143  0.00  0.00     0.041 A 
ATOM      4  C3  UNL d   1       0.716  -5.728   3.524  0.00  0.00    -0.075 A 
ATOM      5  S   UNL d   1       1.868  -5.660   4.804  0.00  0.00     0.015 SA
ATOM      6  C4  UNL d   1       0.668  -5.863   5.996  0.00  0.00     0.022 A 
ATOM      7  C5  UNL d   1      -0.588  -5.982   5.449  0.00  0.00     0.026 A 
ATOM      8  C6  UNL d   1      -0.581  -5.906   4.015  0.00  0.00    -0.082 A 
ATOM      9  C7  UNL d   1      -1.644  -5.982   3.082  0.00  0.00     0.045 A 
ENDROOT
TORSDOF 0
ENDMDL
