MODEL 1
REMARK minimizedAffinity 8.2117815
REMARK minimizedRMSD -1
REMARK  0 active torsions:
REMARK  status: ('A' for Active; 'I' for Inactive)
ROOT
ATOM      1  N1  IND d   1      -4.824   5.886   5.781  0.00  0.00    -0.196 N 
ATOM      2  C2  IND d   1      -5.673   5.908   4.710  0.00  0.00     0.054 A 
ATOM      3  C3  IND d   1      -4.972   5.981   3.556  0.00  0.00    -0.031 A 
ATOM      4  C4  IND d   1      -2.424   5.972   3.187  0.00  0.00     0.051 A 
ATOM      5  C5  IND d   1      -1.237   5.999   3.865  0.00  0.00    -0.031 A 
ATOM      6  C6  IND d   1      -1.185   5.987   5.244  0.00  0.00     0.015 A 
ATOM      7  C7  IND d   1      -2.321   5.935   6.000  0.00  0.00    -0.016 A 
ATOM      8  C8  IND d   1      -3.528   5.915   5.315  0.00  0.00    -0.047 A 
ATOM      9  C9  IND d   1      -3.589   5.970   3.917  0.00  0.00    -0.096 A 
ATOM     10  HN1 IND d   1      -5.060   5.858   6.608  0.00  0.00     0.298 HD
ENDROOT
TORSDOF 0
ENDMDL
