MODEL 1
REMARK minimizedAffinity 4.99711943
REMARK minimizedRMSD -1
REMARK  0 active torsions:
REMARK  status: ('A' for Active; 'I' for Inactive)
ROOT
ATOM      1  N1  IND d   1       5.998   4.509   4.259  0.00  0.00    -0.196 N 
ATOM      2  C2  IND d   1       5.401   5.273   5.223  0.00  0.00     0.054 A 
ATOM      3  C3  IND d   1       4.389   5.994   4.691  0.00  0.00    -0.031 A 
ATOM      4  C4  IND d   1       3.473   6.000   2.285  0.00  0.00     0.051 A 
ATOM      5  C5  IND d   1       3.714   5.493   1.039  0.00  0.00    -0.031 A 
ATOM      6  C6  IND d   1       4.749   4.612   0.799  0.00  0.00     0.015 A 
ATOM      7  C7  IND d   1       5.577   4.195   1.802  0.00  0.00    -0.016 A 
ATOM      8  C8  IND d   1       5.339   4.713   3.067  0.00  0.00    -0.047 A 
ATOM      9  C9  IND d   1       4.317   5.640   3.309  0.00  0.00    -0.096 A 
ATOM     10  HN1 IND d   1       6.672   3.988   4.378  0.00  0.00     0.298 HD
ENDROOT
TORSDOF 0
ENDMDL
