MODEL 1
REMARK minimizedAffinity 3.12518787
REMARK minimizedRMSD -1
REMARK  0 active torsions:
REMARK  status: ('A' for Active; 'I' for Inactive)
ROOT
ATOM      1  N1  IND d   1      -3.596  -0.621   2.590  0.00  0.00    -0.196 N 
ATOM      2  C2  IND d   1      -3.060   0.445   3.258  0.00  0.00     0.054 A 
ATOM      3  C3  IND d   1      -1.996   0.936   2.583  0.00  0.00    -0.031 A 
ATOM      4  C4  IND d   1      -1.023   0.212   0.312  0.00  0.00     0.051 A 
ATOM      5  C5  IND d   1      -1.152  -0.739  -0.661  0.00  0.00    -0.031 A 
ATOM      6  C6  IND d   1      -2.124  -1.717  -0.601  0.00  0.00     0.015 A 
ATOM      7  C7  IND d   1      -3.014  -1.774   0.434  0.00  0.00    -0.016 A 
ATOM      8  C8  IND d   1      -2.881  -0.814   1.428  0.00  0.00    -0.047 A 
ATOM      9  C9  IND d   1      -1.870   0.155   1.394  0.00  0.00    -0.096 A 
ATOM     10  HN1 IND d   1      -4.267  -1.091   2.851  0.00  0.00     0.298 HD
ENDROOT
TORSDOF 0
ENDMDL
