MODEL 1
REMARK minimizedAffinity 10.6905994
REMARK minimizedRMSD -1
REMARK  0 active torsions:
REMARK  status: ('A' for Active; 'I' for Inactive)
ROOT
ATOM      1  N1  IND d   1      -4.611  -2.607  -0.694  0.00  0.00    -0.196 N 
ATOM      2  C2  IND d   1      -3.407  -2.119  -1.120  0.00  0.00     0.054 A 
ATOM      3  C3  IND d   1      -2.907  -1.246  -0.217  0.00  0.00    -0.031 A 
ATOM      4  C4  IND d   1      -3.844  -0.549   2.077  0.00  0.00     0.051 A 
ATOM      5  C5  IND d   1      -4.935  -0.701   2.886  0.00  0.00    -0.031 A 
ATOM      6  C6  IND d   1      -5.994  -1.514   2.538  0.00  0.00     0.015 A 
ATOM      7  C7  IND d   1      -5.996  -2.218   1.367  0.00  0.00    -0.016 A 
ATOM      8  C8  IND d   1      -4.893  -2.061   0.539  0.00  0.00    -0.047 A 
ATOM      9  C9  IND d   1      -3.835  -1.204   0.868  0.00  0.00    -0.096 A 
ATOM     10  HN1 IND d   1      -5.108  -3.162  -1.123  0.00  0.00     0.298 HD
ENDROOT
TORSDOF 0
ENDMDL
