MODEL 1
REMARK minimizedAffinity 8.86205578
REMARK minimizedRMSD -1
REMARK  0 active torsions:
REMARK  status: ('A' for Active; 'I' for Inactive)
ROOT
ATOM      1  N1  IND d   1      -1.366   0.554   2.430  0.00  0.00    -0.196 N 
ATOM      2  C2  IND d   1      -2.331   0.796   3.367  0.00  0.00     0.054 A 
ATOM      3  C3  IND d   1      -3.458   0.111   3.070  0.00  0.00    -0.031 A 
ATOM      4  C4  IND d   1      -3.906  -1.547   1.152  0.00  0.00     0.051 A 
ATOM      5  C5  IND d   1      -3.339  -2.065   0.021  0.00  0.00    -0.031 A 
ATOM      6  C6  IND d   1      -2.058  -1.732  -0.371  0.00  0.00     0.015 A 
ATOM      7  C7  IND d   1      -1.290  -0.873   0.363  0.00  0.00    -0.016 A 
ATOM      8  C8  IND d   1      -1.865  -0.340   1.508  0.00  0.00    -0.047 A 
ATOM      9  C9  IND d   1      -3.179  -0.641   1.888  0.00  0.00    -0.096 A 
ATOM     10  HN1 IND d   1      -0.579   0.901   2.419  0.00  0.00     0.298 HD
ENDROOT
TORSDOF 0
ENDMDL
