MODEL 1
REMARK minimizedAffinity 3.60186863
REMARK minimizedRMSD -1
REMARK  0 active torsions:
REMARK  status: ('A' for Active; 'I' for Inactive)
ROOT
ATOM      1  N1  IND d   1       3.976   5.780   4.498  0.00  0.00    -0.196 N 
ATOM      2  C2  IND d   1       5.064   5.300   5.172  0.00  0.00     0.054 A 
ATOM      3  C3  IND d   1       5.999   4.858   4.302  0.00  0.00    -0.031 A 
ATOM      4  C4  IND d   1       5.997   4.918   1.728  0.00  0.00     0.051 A 
ATOM      5  C5  IND d   1       5.205   5.231   0.659  0.00  0.00    -0.031 A 
ATOM      6  C6  IND d   1       3.939   5.756   0.817  0.00  0.00     0.015 A 
ATOM      7  C7  IND d   1       3.419   5.999   2.057  0.00  0.00    -0.016 A 
ATOM      8  C8  IND d   1       4.217   5.676   3.145  0.00  0.00    -0.047 A 
ATOM      9  C9  IND d   1       5.487   5.104   2.991  0.00  0.00    -0.096 A 
ATOM     10  HN1 IND d   1       3.261   6.093   4.858  0.00  0.00     0.298 HD
ENDROOT
TORSDOF 0
ENDMDL
