MODEL 1
REMARK minimizedAffinity 3.28040767
REMARK minimizedRMSD -1
REMARK  0 active torsions:
REMARK  status: ('A' for Active; 'I' for Inactive)
ROOT
ATOM      1  N1  IND d   1       5.975   4.087   4.687  0.00  0.00    -0.196 N 
ATOM      2  C2  IND d   1       5.447   5.086   5.456  0.00  0.00     0.054 A 
ATOM      3  C3  IND d   1       4.815   5.994   4.678  0.00  0.00    -0.031 A 
ATOM      4  C4  IND d   1       4.437   5.985   2.132  0.00  0.00     0.051 A 
ATOM      5  C5  IND d   1       4.763   5.298   0.997  0.00  0.00    -0.031 A 
ATOM      6  C6  IND d   1       5.523   4.147   1.035  0.00  0.00     0.015 A 
ATOM      7  C7  IND d   1       5.978   3.632   2.216  0.00  0.00    -0.016 A 
ATOM      8  C8  IND d   1       5.654   4.331   3.370  0.00  0.00    -0.047 A 
ATOM      9  C9  IND d   1       4.919   5.523   3.334  0.00  0.00    -0.096 A 
ATOM     10  HN1 IND d   1       6.431   3.418   4.977  0.00  0.00     0.298 HD
ENDROOT
TORSDOF 0
ENDMDL
