MODEL 1
REMARK minimizedAffinity 14.7400875
REMARK minimizedRMSD -1
REMARK  0 active torsions:
REMARK  status: ('A' for Active; 'I' for Inactive)
ROOT
ATOM      1  N1  IND d   1      -5.237   5.997   5.241  0.00  0.00    -0.196 N 
ATOM      2  C2  IND d   1      -5.840   5.857   4.022  0.00  0.00     0.054 A 
ATOM      3  C3  IND d   1      -4.914   5.655   3.059  0.00  0.00    -0.031 A 
ATOM      4  C4  IND d   1      -2.359   5.415   3.271  0.00  0.00     0.051 A 
ATOM      5  C5  IND d   1      -1.341   5.505   4.177  0.00  0.00    -0.031 A 
ATOM      6  C6  IND d   1      -1.573   5.765   5.512  0.00  0.00     0.015 A 
ATOM      7  C7  IND d   1      -2.840   5.936   5.994  0.00  0.00    -0.016 A 
ATOM      8  C8  IND d   1      -3.877   5.853   5.075  0.00  0.00    -0.047 A 
ATOM      9  C9  IND d   1      -3.643   5.631   3.712  0.00  0.00    -0.096 A 
ATOM     10  HN1 IND d   1      -5.639   6.149   5.985  0.00  0.00     0.298 HD
ENDROOT
TORSDOF 0
ENDMDL
