MODEL 1
REMARK minimizedAffinity 3.76982713
REMARK minimizedRMSD -1
REMARK  0 active torsions:
REMARK  status: ('A' for Active; 'I' for Inactive)
ROOT
ATOM      1  N1  IND d   1      -2.692   2.278  -0.400  0.00  0.00    -0.196 N 
ATOM      2  C2  IND d   1      -2.214   1.151  -1.007  0.00  0.00     0.054 A 
ATOM      3  C3  IND d   1      -1.822   0.248  -0.080  0.00  0.00    -0.031 A 
ATOM      4  C4  IND d   1      -1.968   0.370   2.487  0.00  0.00     0.051 A 
ATOM      5  C5  IND d   1      -2.299   1.217   3.508  0.00  0.00    -0.031 A 
ATOM      6  C6  IND d   1      -2.790   2.485   3.274  0.00  0.00     0.015 A 
ATOM      7  C7  IND d   1      -2.981   2.952   2.004  0.00  0.00    -0.016 A 
ATOM      8  C8  IND d   1      -2.639   2.098   0.965  0.00  0.00    -0.047 A 
ATOM      9  C9  IND d   1      -2.100   0.825   1.197  0.00  0.00    -0.096 A 
ATOM     10  HN1 IND d   1      -2.978   2.982  -0.802  0.00  0.00     0.298 HD
ENDROOT
TORSDOF 0
ENDMDL
