MODEL 1
REMARK minimizedAffinity 7.39975882
REMARK minimizedRMSD -1
REMARK  0 active torsions:
REMARK  status: ('A' for Active; 'I' for Inactive)
ROOT
ATOM      1  N1  IND d   1      -2.683  -0.025   3.396  0.00  0.00    -0.196 N 
ATOM      2  C2  IND d   1      -2.935   1.314   3.501  0.00  0.00     0.054 A 
ATOM      3  C3  IND d   1      -2.996   1.880   2.275  0.00  0.00    -0.031 A 
ATOM      4  C4  IND d   1      -2.811   0.778  -0.045  0.00  0.00     0.051 A 
ATOM      5  C5  IND d   1      -2.544  -0.417  -0.651  0.00  0.00    -0.031 A 
ATOM      6  C6  IND d   1      -2.308  -1.567   0.075  0.00  0.00     0.015 A 
ATOM      7  C7  IND d   1      -2.342  -1.566   1.441  0.00  0.00    -0.016 A 
ATOM      8  C8  IND d   1      -2.605  -0.353   2.060  0.00  0.00    -0.047 A 
ATOM      9  C9  IND d   1      -2.803   0.826   1.329  0.00  0.00    -0.096 A 
ATOM     10  HN1 IND d   1      -2.589  -0.571   4.053  0.00  0.00     0.298 HD
ENDROOT
TORSDOF 0
ENDMDL
