MODEL 1
REMARK minimizedAffinity 12.3111258
REMARK minimizedRMSD -1
REMARK  0 active torsions:
REMARK  status: ('A' for Active; 'I' for Inactive)
ROOT
ATOM      1  N1  IND d   1      -0.937   0.797   2.712  0.00  0.00    -0.196 N 
ATOM      2  C2  IND d   1      -2.036   0.827   3.524  0.00  0.00     0.054 A 
ATOM      3  C3  IND d   1      -3.090   0.241   2.912  0.00  0.00    -0.031 A 
ATOM      4  C4  IND d   1      -3.209  -0.923   0.618  0.00  0.00     0.051 A 
ATOM      5  C5  IND d   1      -2.468  -1.171  -0.503  0.00  0.00    -0.031 A 
ATOM      6  C6  IND d   1      -1.152  -0.770  -0.612  0.00  0.00     0.015 A 
ATOM      7  C7  IND d   1      -0.521  -0.113   0.407  0.00  0.00    -0.016 A 
ATOM      8  C8  IND d   1      -1.272   0.147   1.544  0.00  0.00    -0.047 A 
ATOM      9  C9  IND d   1      -2.621  -0.220   1.643  0.00  0.00    -0.096 A 
ATOM     10  HN1 IND d   1      -0.166   1.129   2.898  0.00  0.00     0.298 HD
ENDROOT
TORSDOF 0
ENDMDL
