MODEL 1
REMARK minimizedAffinity 19.8760223
REMARK minimizedRMSD -1
REMARK  0 active torsions:
REMARK  status: ('A' for Active; 'I' for Inactive)
ROOT
ATOM      1  N1  IND d   1       3.320  -1.757  -1.820  0.00  0.00    -0.196 N 
ATOM      2  C2  IND d   1       4.363  -1.106  -1.223  0.00  0.00     0.054 A 
ATOM      3  C3  IND d   1       4.155   0.230  -1.239  0.00  0.00    -0.031 A 
ATOM      4  C4  IND d   1       2.126   1.559  -2.103  0.00  0.00     0.051 A 
ATOM      5  C5  IND d   1       0.941   1.406  -2.766  0.00  0.00    -0.031 A 
ATOM      6  C6  IND d   1       0.477   0.165  -3.153  0.00  0.00     0.015 A 
ATOM      7  C7  IND d   1       1.180  -0.975  -2.880  0.00  0.00    -0.016 A 
ATOM      8  C8  IND d   1       2.387  -0.822  -2.213  0.00  0.00    -0.047 A 
ATOM      9  C9  IND d   1       2.883   0.438  -1.856  0.00  0.00    -0.096 A 
ATOM     10  HN1 IND d   1       3.257  -2.607  -1.932  0.00  0.00     0.298 HD
ENDROOT
TORSDOF 0
ENDMDL
