MODEL 1
REMARK minimizedAffinity 8.78769398
REMARK minimizedRMSD -1
REMARK  0 active torsions:
REMARK  status: ('A' for Active; 'I' for Inactive)
ROOT
ATOM      1  N1  IND d   1      -2.280   1.937  -1.330  0.00  0.00    -0.196 N 
ATOM      2  C2  IND d   1      -1.249   1.187  -1.824  0.00  0.00     0.054 A 
ATOM      3  C3  IND d   1      -0.734   0.400  -0.853  0.00  0.00    -0.031 A 
ATOM      4  C4  IND d   1      -1.491   0.106   1.589  0.00  0.00     0.051 A 
ATOM      5  C5  IND d   1      -2.367   0.604   2.513  0.00  0.00    -0.031 A 
ATOM      6  C6  IND d   1      -3.279   1.590   2.195  0.00  0.00     0.015 A 
ATOM      7  C7  IND d   1      -3.357   2.109   0.934  0.00  0.00    -0.016 A 
ATOM      8  C8  IND d   1      -2.464   1.610  -0.004  0.00  0.00    -0.047 A 
ATOM      9  C9  IND d   1      -1.508   0.640   0.323  0.00  0.00    -0.096 A 
ATOM     10  HN1 IND d   1      -2.736   2.516  -1.773  0.00  0.00     0.298 HD
ENDROOT
TORSDOF 0
ENDMDL
