MODEL 1
REMARK minimizedAffinity 7.73800468
REMARK minimizedRMSD -1
REMARK  0 active torsions:
REMARK  status: ('A' for Active; 'I' for Inactive)
ROOT
ATOM      1  N1  IND d   1      -0.938   0.973   2.485  0.00  0.00    -0.196 N 
ATOM      2  C2  IND d   1      -1.854   0.966   3.499  0.00  0.00     0.054 A 
ATOM      3  C3  IND d   1      -2.964   0.291   3.126  0.00  0.00    -0.031 A 
ATOM      4  C4  IND d   1      -3.452  -0.971   0.936  0.00  0.00     0.051 A 
ATOM      5  C5  IND d   1      -2.932  -1.218  -0.304  0.00  0.00    -0.031 A 
ATOM      6  C6  IND d   1      -1.695  -0.740  -0.684  0.00  0.00     0.015 A 
ATOM      7  C7  IND d   1      -0.923  -0.003   0.169  0.00  0.00    -0.016 A 
ATOM      8  C8  IND d   1      -1.451   0.255   1.426  0.00  0.00    -0.047 A 
ATOM      9  C9  IND d   1      -2.724  -0.191   1.803  0.00  0.00    -0.096 A 
ATOM     10  HN1 IND d   1      -0.171   1.360   2.504  0.00  0.00     0.298 HD
ENDROOT
TORSDOF 0
ENDMDL
