MODEL 1
REMARK minimizedAffinity 15.9064865
REMARK minimizedRMSD -1
REMARK  0 active torsions:
REMARK  status: ('A' for Active; 'I' for Inactive)
ROOT
ATOM      1  N1  IND d   1      -3.106   0.390  -0.549  0.00  0.00    -0.196 N 
ATOM      2  C2  IND d   1      -2.245  -0.668  -0.643  0.00  0.00     0.054 A 
ATOM      3  C3  IND d   1      -1.697  -0.937   0.563  0.00  0.00    -0.031 A 
ATOM      4  C4  IND d   1      -2.147   0.165   2.846  0.00  0.00     0.051 A 
ATOM      5  C5  IND d   1      -2.826   1.197   3.429  0.00  0.00    -0.031 A 
ATOM      6  C6  IND d   1      -3.653   2.029   2.701  0.00  0.00     0.015 A 
ATOM      7  C7  IND d   1      -3.840   1.850   1.359  0.00  0.00    -0.016 A 
ATOM      8  C8  IND d   1      -3.146   0.807   0.763  0.00  0.00    -0.047 A 
ATOM      9  C9  IND d   1      -2.273  -0.013   1.489  0.00  0.00    -0.096 A 
ATOM     10  HN1 IND d   1      -3.548   0.736  -1.200  0.00  0.00     0.298 HD
ENDROOT
TORSDOF 0
ENDMDL
