MODEL 1
REMARK minimizedAffinity 7.45736408
REMARK minimizedRMSD -1
REMARK  0 active torsions:
REMARK  status: ('A' for Active; 'I' for Inactive)
ROOT
ATOM      1  N1  IND d   1       4.450   5.999   2.605  0.00  0.00    -0.196 N 
ATOM      2  C2  IND d   1       5.648   5.383   2.837  0.00  0.00     0.054 A 
ATOM      3  C3  IND d   1       6.000   4.624   1.775  0.00  0.00    -0.031 A 
ATOM      4  C4  IND d   1       4.810   4.326  -0.489  0.00  0.00     0.051 A 
ATOM      5  C5  IND d   1       3.664   4.659  -1.155  0.00  0.00    -0.031 A 
ATOM      6  C6  IND d   1       2.704   5.475  -0.593  0.00  0.00     0.015 A 
ATOM      7  C7  IND d   1       2.859   5.999   0.659  0.00  0.00    -0.016 A 
ATOM      8  C8  IND d   1       4.018   5.657   1.342  0.00  0.00    -0.047 A 
ATOM      9  C9  IND d   1       4.977   4.796   0.793  0.00  0.00    -0.096 A 
ATOM     10  HN1 IND d   1       4.036   6.514   3.155  0.00  0.00     0.298 HD
ENDROOT
TORSDOF 0
ENDMDL
