MODEL 1
REMARK minimizedAffinity 11.1930523
REMARK minimizedRMSD -1
REMARK  0 active torsions:
REMARK  status: ('A' for Active; 'I' for Inactive)
ROOT
ATOM      1  N1  IND d   1       5.066   4.409  -1.137  0.00  0.00    -0.196 N 
ATOM      2  C2  IND d   1       3.840   4.587  -1.715  0.00  0.00     0.054 A 
ATOM      3  C3  IND d   1       2.984   5.158  -0.838  0.00  0.00    -0.031 A 
ATOM      4  C4  IND d   1       3.410   5.979   1.564  0.00  0.00     0.051 A 
ATOM      5  C5  IND d   1       4.365   6.000   2.542  0.00  0.00    -0.031 A 
ATOM      6  C6  IND d   1       5.628   5.484   2.339  0.00  0.00     0.015 A 
ATOM      7  C7  IND d   1       5.989   4.935   1.140  0.00  0.00    -0.016 A 
ATOM      8  C8  IND d   1       5.020   4.906   0.148  0.00  0.00    -0.047 A 
ATOM      9  C9  IND d   1       3.723   5.389   0.362  0.00  0.00    -0.096 A 
ATOM     10  HN1 IND d   1       5.750   4.048  -1.512  0.00  0.00     0.298 HD
ENDROOT
TORSDOF 0
ENDMDL
