MODEL 1
REMARK minimizedAffinity 13.1000986
REMARK minimizedRMSD -1
REMARK  0 active torsions:
REMARK  status: ('A' for Active; 'I' for Inactive)
ROOT
ATOM      1  N1  IND d   1       0.035   1.216  -2.208  0.00  0.00    -0.196 N 
ATOM      2  C2  IND d   1       0.443   2.476  -2.549  0.00  0.00     0.054 A 
ATOM      3  C3  IND d   1       1.755   2.474  -2.873  0.00  0.00    -0.031 A 
ATOM      4  C4  IND d   1       3.403   0.500  -3.010  0.00  0.00     0.051 A 
ATOM      5  C5  IND d   1       3.503  -0.839  -2.756  0.00  0.00    -0.031 A 
ATOM      6  C6  IND d   1       2.430  -1.577  -2.299  0.00  0.00     0.015 A 
ATOM      7  C7  IND d   1       1.208  -1.003  -2.090  0.00  0.00    -0.016 A 
ATOM      8  C8  IND d   1       1.104   0.358  -2.340  0.00  0.00    -0.047 A 
ATOM      9  C9  IND d   1       2.201   1.121  -2.763  0.00  0.00    -0.096 A 
ATOM     10  HN1 IND d   1      -0.757   0.997  -1.953  0.00  0.00     0.298 HD
ENDROOT
TORSDOF 0
ENDMDL
