MODEL 1
REMARK minimizedAffinity 3.61424136
REMARK minimizedRMSD -1
REMARK  0 active torsions:
REMARK  status: ('A' for Active; 'I' for Inactive)
ROOT
ATOM      1  C   UNL d   1       1.357   1.691   0.616  0.00  0.00     0.023 A 
ATOM      2  C1  UNL d   1       1.692   0.756  -0.363  0.00  0.00     0.003 A 
ATOM      3  C2  UNL d   1       3.024   0.377  -0.542  0.00  0.00     0.048 A 
ATOM      4  C3  UNL d   1       4.016   0.938   0.263  0.00  0.00     0.023 A 
ATOM      5  C4  UNL d   1       3.685   1.873   1.244  0.00  0.00     0.048 A 
ATOM      6  C5  UNL d   1       2.352   2.250   1.418  0.00  0.00     0.003 A 
ATOM      7  I   UNL d   1       5.999   0.376  -0.001  0.00  0.00    -0.146 I 
ENDROOT
TORSDOF 0
ENDMDL
