MODEL 1
REMARK minimizedAffinity 7.47299957
REMARK minimizedRMSD -1
REMARK  0 active torsions:
REMARK  status: ('A' for Active; 'I' for Inactive)
ROOT
ATOM      1  C   UNL d   1       0.467  -3.509   5.079  0.00  0.00     0.023 A 
ATOM      2  C1  UNL d   1       1.202  -2.429   5.568  0.00  0.00     0.003 A 
ATOM      3  C2  UNL d   1       1.256  -1.235   4.845  0.00  0.00     0.048 A 
ATOM      4  C3  UNL d   1       0.572  -1.128   3.635  0.00  0.00     0.023 A 
ATOM      5  C4  UNL d   1      -0.166  -2.205   3.143  0.00  0.00     0.048 A 
ATOM      6  C5  UNL d   1      -0.217  -3.397   3.868  0.00  0.00     0.003 A 
ATOM      7  I   UNL d   1       0.650   0.648   2.558  0.00  0.00    -0.146 I 
ENDROOT
TORSDOF 0
ENDMDL
