MODEL 1
REMARK minimizedAffinity 8.95522594
REMARK minimizedRMSD -1
REMARK  0 active torsions:
REMARK  status: ('A' for Active; 'I' for Inactive)
ROOT
ATOM      1  C   UNL d   1       4.892   1.393  -0.146  0.00  0.00     0.023 A 
ATOM      2  C1  UNL d   1       4.001   0.405   0.272  0.00  0.00     0.003 A 
ATOM      3  C2  UNL d   1       3.558  -0.564  -0.630  0.00  0.00     0.048 A 
ATOM      4  C3  UNL d   1       4.011  -0.541  -1.948  0.00  0.00     0.023 A 
ATOM      5  C4  UNL d   1       4.904   0.445  -2.371  0.00  0.00     0.048 A 
ATOM      6  C5  UNL d   1       5.344   1.413  -1.466  0.00  0.00     0.003 A 
ATOM      7  I   UNL d   1       3.354  -1.983  -3.292  0.00  0.00    -0.146 I 
ENDROOT
TORSDOF 0
ENDMDL
