MODEL 1
REMARK minimizedAffinity 7.77904224
REMARK minimizedRMSD -1
REMARK  0 active torsions:
REMARK  status: ('A' for Active; 'I' for Inactive)
ROOT
ATOM      1  C   UNL d   1      -0.422   1.344   0.996  0.00  0.00     0.023 A 
ATOM      2  C1  UNL d   1       0.518   0.936   1.942  0.00  0.00     0.003 A 
ATOM      3  C2  UNL d   1       1.749   0.422   1.529  0.00  0.00     0.048 A 
ATOM      4  C3  UNL d   1       2.034   0.320   0.168  0.00  0.00     0.023 A 
ATOM      5  C4  UNL d   1       1.097   0.728  -0.783  0.00  0.00     0.048 A 
ATOM      6  C5  UNL d   1      -0.133   1.241  -0.365  0.00  0.00     0.003 A 
ATOM      7  I   UNL d   1       3.865  -0.445  -0.449  0.00  0.00    -0.146 I 
ENDROOT
TORSDOF 0
ENDMDL
