MODEL 1
REMARK minimizedAffinity 9.57986259
REMARK minimizedRMSD -1
REMARK  0 active torsions:
REMARK  status: ('A' for Active; 'I' for Inactive)
ROOT
ATOM      1  C   UNL d   1       5.381   1.216  -0.182  0.00  0.00     0.023 A 
ATOM      2  C1  UNL d   1       6.000  -0.023  -0.355  0.00  0.00     0.003 A 
ATOM      3  C2  UNL d   1       5.241  -1.141  -0.708  0.00  0.00     0.048 A 
ATOM      4  C3  UNL d   1       3.864  -1.013  -0.887  0.00  0.00     0.023 A 
ATOM      5  C4  UNL d   1       3.241   0.224  -0.716  0.00  0.00     0.048 A 
ATOM      6  C5  UNL d   1       4.004   1.339  -0.362  0.00  0.00     0.003 A 
ATOM      7  I   UNL d   1       2.733  -2.675  -1.412  0.00  0.00    -0.146 I 
ENDROOT
TORSDOF 0
ENDMDL
