MODEL 1
REMARK minimizedAffinity 8.00796986
REMARK minimizedRMSD -1
REMARK  0 active torsions:
REMARK  status: ('A' for Active; 'I' for Inactive)
ROOT
ATOM      1  C   UNL d   1       6.000   0.490  -0.666  0.00  0.00     0.023 A 
ATOM      2  C1  UNL d   1       5.301  -0.709  -0.530  0.00  0.00     0.003 A 
ATOM      3  C2  UNL d   1       3.907  -0.701  -0.450  0.00  0.00     0.048 A 
ATOM      4  C3  UNL d   1       3.218   0.510  -0.508  0.00  0.00     0.023 A 
ATOM      5  C4  UNL d   1       3.913   1.712  -0.645  0.00  0.00     0.048 A 
ATOM      6  C5  UNL d   1       5.307   1.699  -0.724  0.00  0.00     0.003 A 
ATOM      7  I   UNL d   1       1.143   0.524  -0.389  0.00  0.00    -0.146 I 
ENDROOT
TORSDOF 0
ENDMDL
