MODEL 1
REMARK minimizedAffinity 1.93953192
REMARK minimizedRMSD -1
REMARK  0 active torsions:
REMARK  status: ('A' for Active; 'I' for Inactive)
ROOT
ATOM      1  C   UNL d   1       3.964  -3.001  -2.626  0.00  0.00     0.023 A 
ATOM      2  C1  UNL d   1       4.875  -2.238  -3.355  0.00  0.00     0.003 A 
ATOM      3  C2  UNL d   1       5.225  -0.958  -2.918  0.00  0.00     0.048 A 
ATOM      4  C3  UNL d   1       4.659  -0.449  -1.750  0.00  0.00     0.023 A 
ATOM      5  C4  UNL d   1       3.747  -1.209  -1.016  0.00  0.00     0.048 A 
ATOM      6  C5  UNL d   1       3.400  -2.487  -1.458  0.00  0.00     0.003 A 
ATOM      7  I   UNL d   1       5.178   1.455  -1.097  0.00  0.00    -0.146 I 
ENDROOT
TORSDOF 0
ENDMDL
