MODEL 1
REMARK minimizedAffinity 1.91694462
REMARK minimizedRMSD -1
REMARK  0 active torsions:
REMARK  status: ('A' for Active; 'I' for Inactive)
ROOT
ATOM      1  C   UNL d   1      -1.851  -3.662  -4.484  0.00  0.00     0.023 A 
ATOM      2  C1  UNL d   1      -1.347  -2.364  -4.571  0.00  0.00     0.003 A 
ATOM      3  C2  UNL d   1      -0.718  -1.783  -3.468  0.00  0.00     0.048 A 
ATOM      4  C3  UNL d   1      -0.595  -2.506  -2.282  0.00  0.00     0.023 A 
ATOM      5  C4  UNL d   1      -1.097  -3.805  -2.191  0.00  0.00     0.048 A 
ATOM      6  C5  UNL d   1      -1.727  -4.382  -3.295  0.00  0.00     0.003 A 
ATOM      7  I   UNL d   1       0.342  -1.643  -0.639  0.00  0.00    -0.146 I 
ENDROOT
TORSDOF 0
ENDMDL
