MODEL 1
REMARK minimizedAffinity 8.30034256
REMARK minimizedRMSD -1
REMARK  0 active torsions:
REMARK  status: ('A' for Active; 'I' for Inactive)
ROOT
ATOM      1  C   UNL d   1      -0.014   1.600   0.043  0.00  0.00     0.023 A 
ATOM      2  C1  UNL d   1       0.882   0.814   0.768  0.00  0.00     0.003 A 
ATOM      3  C2  UNL d   1       0.938  -0.565   0.551  0.00  0.00     0.048 A 
ATOM      4  C3  UNL d   1       0.095  -1.150  -0.393  0.00  0.00     0.023 A 
ATOM      5  C4  UNL d   1      -0.802  -0.368  -1.122  0.00  0.00     0.048 A 
ATOM      6  C5  UNL d   1      -0.855   1.010  -0.901  0.00  0.00     0.003 A 
ATOM      7  I   UNL d   1       0.176  -3.202  -0.718  0.00  0.00    -0.146 I 
ENDROOT
TORSDOF 0
ENDMDL
