MODEL 1
REMARK minimizedAffinity 6.90356922
REMARK minimizedRMSD -1
REMARK  0 active torsions:
REMARK  status: ('A' for Active; 'I' for Inactive)
ROOT
ATOM      1  C   UNL d   1       1.659  -3.673  -1.512  0.00  0.00     0.023 A 
ATOM      2  C1  UNL d   1       1.684  -2.933  -0.330  0.00  0.00     0.003 A 
ATOM      3  C2  UNL d   1       2.487  -1.795  -0.233  0.00  0.00     0.048 A 
ATOM      4  C3  UNL d   1       3.261  -1.400  -1.323  0.00  0.00     0.023 A 
ATOM      5  C4  UNL d   1       3.239  -2.137  -2.509  0.00  0.00     0.048 A 
ATOM      6  C5  UNL d   1       2.436  -3.275  -2.600  0.00  0.00     0.003 A 
ATOM      7  I   UNL d   1       4.457   0.294  -1.183  0.00  0.00    -0.146 I 
ENDROOT
TORSDOF 0
ENDMDL
