MODEL 1
REMARK minimizedAffinity 1.69436061
REMARK minimizedRMSD -1
REMARK  0 active torsions:
REMARK  status: ('A' for Active; 'I' for Inactive)
ROOT
ATOM      1  C   UNL d   1       0.254  -0.622   0.339  0.00  0.00     0.020 A 
ATOM      2  C1  UNL d   1       1.072  -0.252  -0.728  0.00  0.00     0.020 A 
ATOM      3  C2  UNL d   1       0.831   0.942  -1.411  0.00  0.00     0.034 A 
ATOM      4  C3  UNL d   1      -0.231   1.770  -1.028  0.00  0.00     0.017 A 
ATOM      5  C4  UNL d   1      -1.052   1.397   0.043  0.00  0.00     0.017 A 
ATOM      6  C5  UNL d   1      -0.806   0.201   0.723  0.00  0.00     0.034 A 
ATOM      7 Cl   UNL d   1      -2.381   2.367   0.573  0.00  0.00    -0.070 Cl
ATOM      8 Cl1  UNL d   1      -0.471   3.232  -1.917  0.00  0.00    -0.070 Cl
ENDROOT
TORSDOF 0
ENDMDL
