MODEL 1
REMARK minimizedAffinity -3.74514651
REMARK minimizedRMSD -1
REMARK  0 active torsions:
REMARK  status: ('A' for Active; 'I' for Inactive)
ROOT
ATOM      1  C   UNL d   1      -2.123   1.879   0.837  0.00  0.00     0.020 A 
ATOM      2  C1  UNL d   1      -1.640   2.260  -0.414  0.00  0.00     0.020 A 
ATOM      3  C2  UNL d   1      -0.589   1.553  -1.002  0.00  0.00     0.034 A 
ATOM      4  C3  UNL d   1      -0.016   0.462  -0.338  0.00  0.00     0.017 A 
ATOM      5  C4  UNL d   1      -0.502   0.080   0.918  0.00  0.00     0.017 A 
ATOM      6  C5  UNL d   1      -1.555   0.791   1.502  0.00  0.00     0.034 A 
ATOM      7 Cl   UNL d   1       0.153  -1.255   1.798  0.00  0.00    -0.070 Cl
ATOM      8 Cl1  UNL d   1       1.281  -0.367  -1.123  0.00  0.00    -0.070 Cl
ENDROOT
TORSDOF 0
ENDMDL
