MODEL 1
REMARK minimizedAffinity -2.86379266
REMARK minimizedRMSD -1
REMARK  0 active torsions:
REMARK  status: ('A' for Active; 'I' for Inactive)
ROOT
ATOM      1  C   UNL d   1       0.912  -0.764  -0.330  0.00  0.00     0.020 A 
ATOM      2  C1  UNL d   1       0.246  -0.996   0.872  0.00  0.00     0.020 A 
ATOM      3  C2  UNL d   1      -0.661  -0.054   1.362  0.00  0.00     0.034 A 
ATOM      4  C3  UNL d   1      -0.904   1.125   0.648  0.00  0.00     0.017 A 
ATOM      5  C4  UNL d   1      -0.236   1.357  -0.560  0.00  0.00     0.017 A 
ATOM      6  C5  UNL d   1       0.672   0.410  -1.045  0.00  0.00     0.034 A 
ATOM      7 Cl   UNL d   1      -0.484   2.788  -1.497  0.00  0.00    -0.070 Cl
ATOM      8 Cl1  UNL d   1      -2.039   2.247   1.312  0.00  0.00    -0.070 Cl
ENDROOT
TORSDOF 0
ENDMDL
