MODEL 1
REMARK minimizedAffinity -2.54755521
REMARK minimizedRMSD -1
REMARK  0 active torsions:
REMARK  status: ('A' for Active; 'I' for Inactive)
ROOT
ATOM      1  C   UNL d   1       0.955  -0.845  -0.345  0.00  0.00     0.020 A 
ATOM      2  C1  UNL d   1       0.240  -1.087   0.827  0.00  0.00     0.020 A 
ATOM      3  C2  UNL d   1      -0.717  -0.169   1.265  0.00  0.00     0.034 A 
ATOM      4  C3  UNL d   1      -0.961   0.997   0.529  0.00  0.00     0.017 A 
ATOM      5  C4  UNL d   1      -0.243   1.240  -0.647  0.00  0.00     0.017 A 
ATOM      6  C5  UNL d   1       0.713   0.316  -1.081  0.00  0.00     0.034 A 
ATOM      7 Cl   UNL d   1      -0.490   2.655  -1.608  0.00  0.00    -0.070 Cl
ATOM      8 Cl1  UNL d   1      -2.158   2.089   1.129  0.00  0.00    -0.070 Cl
ENDROOT
TORSDOF 0
ENDMDL
