MODEL 1
REMARK minimizedAffinity -3.17093015
REMARK minimizedRMSD -1
REMARK  0 active torsions:
REMARK  status: ('A' for Active; 'I' for Inactive)
ROOT
ATOM      1  C   UNL d   1      -1.727   1.825   1.469  0.00  0.00     0.020 A 
ATOM      2  C1  UNL d   1      -1.510   1.988   0.101  0.00  0.00     0.020 A 
ATOM      3  C2  UNL d   1      -0.639   1.132  -0.575  0.00  0.00     0.034 A 
ATOM      4  C3  UNL d   1       0.018   0.107   0.117  0.00  0.00     0.017 A 
ATOM      5  C4  UNL d   1      -0.200  -0.056   1.489  0.00  0.00     0.017 A 
ATOM      6  C5  UNL d   1      -1.074   0.805   2.161  0.00  0.00     0.034 A 
ATOM      7 Cl   UNL d   1       0.575  -1.297   2.410  0.00  0.00    -0.070 Cl
ATOM      8 Cl1  UNL d   1       1.082  -0.915  -0.783  0.00  0.00    -0.070 Cl
ENDROOT
TORSDOF 0
ENDMDL
