MODEL 1
REMARK minimizedAffinity 0.0974432752
REMARK minimizedRMSD -1
REMARK  0 active torsions:
REMARK  status: ('A' for Active; 'I' for Inactive)
ROOT
ATOM      1  C   UNL d   1      -0.844  -0.513   1.825  0.00  0.00     0.020 A 
ATOM      2  C1  UNL d   1      -1.117   0.851   1.729  0.00  0.00     0.020 A 
ATOM      3  C2  UNL d   1      -0.542   1.608   0.706  0.00  0.00     0.034 A 
ATOM      4  C3  UNL d   1       0.309   1.001  -0.224  0.00  0.00     0.017 A 
ATOM      5  C4  UNL d   1       0.583  -0.368  -0.127  0.00  0.00     0.017 A 
ATOM      6  C5  UNL d   1       0.004  -1.121   0.899  0.00  0.00     0.034 A 
ATOM      7 Cl   UNL d   1       1.623  -1.187  -1.238  0.00  0.00    -0.070 Cl
ATOM      8 Cl1  UNL d   1       0.986   1.997  -1.464  0.00  0.00    -0.070 Cl
ENDROOT
TORSDOF 0
ENDMDL
