MODEL 1
REMARK minimizedAffinity -4.59533358
REMARK minimizedRMSD -1
REMARK  0 active torsions:
REMARK  status: ('A' for Active; 'I' for Inactive)
ROOT
ATOM      1  C   UNL d   1       0.086  -0.538   1.691  0.00  0.00     0.020 A 
ATOM      2  C1  UNL d   1       0.739  -0.538   0.460  0.00  0.00     0.020 A 
ATOM      3  C2  UNL d   1       0.482   0.474  -0.467  0.00  0.00     0.034 A 
ATOM      4  C3  UNL d   1      -0.431   1.491  -0.164  0.00  0.00     0.017 A 
ATOM      5  C4  UNL d   1      -1.086   1.491   1.072  0.00  0.00     0.017 A 
ATOM      6  C5  UNL d   1      -0.825   0.475   1.997  0.00  0.00     0.034 A 
ATOM      7 Cl   UNL d   1      -2.225   2.712   1.518  0.00  0.00    -0.070 Cl
ATOM      8 Cl1  UNL d   1      -0.699   2.711  -1.358  0.00  0.00    -0.070 Cl
ENDROOT
TORSDOF 0
ENDMDL
