MODEL 1
REMARK minimizedAffinity -1.45501542
REMARK minimizedRMSD -1
REMARK  0 active torsions:
REMARK  status: ('A' for Active; 'I' for Inactive)
ROOT
ATOM      1  C   UNL d   1      -1.692   0.732   2.158  0.00  0.00     0.020 A 
ATOM      2  C1  UNL d   1      -2.166   1.982   1.763  0.00  0.00     0.020 A 
ATOM      3  C2  UNL d   1      -1.821   2.496   0.512  0.00  0.00     0.034 A 
ATOM      4  C3  UNL d   1      -0.997   1.761  -0.349  0.00  0.00     0.017 A 
ATOM      5  C4  UNL d   1      -0.521   0.506   0.049  0.00  0.00     0.017 A 
ATOM      6  C5  UNL d   1      -0.871  -0.005   1.303  0.00  0.00     0.034 A 
ATOM      7 Cl   UNL d   1       0.498  -0.460  -0.958  0.00  0.00    -0.070 Cl
ATOM      8 Cl1  UNL d   1      -0.610   2.458  -1.882  0.00  0.00    -0.070 Cl
ENDROOT
TORSDOF 0
ENDMDL
