MODEL 1
REMARK minimizedAffinity -0.425630867
REMARK minimizedRMSD -1
REMARK  0 active torsions:
REMARK  status: ('A' for Active; 'I' for Inactive)
ROOT
ATOM      1  C   UNL d   1      -0.540  -3.204  -1.496  0.00  0.00     0.020 A 
ATOM      2  C1  UNL d   1      -0.340  -2.392  -2.612  0.00  0.00     0.020 A 
ATOM      3  C2  UNL d   1       0.059  -1.064  -2.447  0.00  0.00     0.034 A 
ATOM      4  C3  UNL d   1       0.260  -0.544  -1.163  0.00  0.00     0.017 A 
ATOM      5  C4  UNL d   1       0.059  -1.360  -0.043  0.00  0.00     0.017 A 
ATOM      6  C5  UNL d   1      -0.341  -2.689  -0.214  0.00  0.00     0.034 A 
ATOM      7 Cl   UNL d   1       0.287  -0.789   1.572  0.00  0.00    -0.070 Cl
ATOM      8 Cl1  UNL d   1       0.754   1.106  -1.033  0.00  0.00    -0.070 Cl
ENDROOT
TORSDOF 0
ENDMDL
