MODEL 1
REMARK minimizedAffinity -5.10512447
REMARK minimizedRMSD -1
REMARK  0 active torsions:
REMARK  status: ('A' for Active; 'I' for Inactive)
ROOT
ATOM      1  C   UNL d   1      -1.642   2.125   1.887  0.00  0.00     0.020 A 
ATOM      2  C1  UNL d   1      -1.821   2.215   0.508  0.00  0.00     0.020 A 
ATOM      3  C2  UNL d   1      -1.170   1.317  -0.341  0.00  0.00     0.034 A 
ATOM      4  C3  UNL d   1      -0.336   0.326   0.189  0.00  0.00     0.017 A 
ATOM      5  C4  UNL d   1      -0.157   0.236   1.574  0.00  0.00     0.017 A 
ATOM      6  C5  UNL d   1      -0.812   1.138   2.420  0.00  0.00     0.034 A 
ATOM      7 Cl   UNL d   1       0.855  -0.960   2.303  0.00  0.00    -0.070 Cl
ATOM      8 Cl1  UNL d   1       0.437  -0.751  -0.919  0.00  0.00    -0.070 Cl
ENDROOT
TORSDOF 0
ENDMDL
