MODEL 1
REMARK minimizedAffinity -4.81448603
REMARK minimizedRMSD -1
REMARK  0 active torsions:
REMARK  status: ('A' for Active; 'I' for Inactive)
ROOT
ATOM      1  C   UNL d   1      -2.004   1.899   1.671  0.00  0.00     0.020 A 
ATOM      2  C1  UNL d   1      -1.516   2.166   0.393  0.00  0.00     0.020 A 
ATOM      3  C2  UNL d   1      -0.624   1.279  -0.214  0.00  0.00     0.034 A 
ATOM      4  C3  UNL d   1      -0.219   0.120   0.458  0.00  0.00     0.017 A 
ATOM      5  C4  UNL d   1      -0.709  -0.147   1.741  0.00  0.00     0.017 A 
ATOM      6  C5  UNL d   1      -1.602   0.745   2.344  0.00  0.00     0.034 A 
ATOM      7 Cl   UNL d   1      -0.254  -1.557   2.632  0.00  0.00    -0.070 Cl
ATOM      8 Cl1  UNL d   1       0.886  -0.933  -0.353  0.00  0.00    -0.070 Cl
ENDROOT
TORSDOF 0
ENDMDL
