MODEL 1
REMARK minimizedAffinity -2.8399868
REMARK minimizedRMSD -1
REMARK  0 active torsions:
REMARK  status: ('A' for Active; 'I' for Inactive)
ROOT
ATOM      1  C   UNL d   1       0.276  -0.828   0.580  0.00  0.00     0.020 A 
ATOM      2  C1  UNL d   1       0.882  -0.471  -0.624  0.00  0.00     0.020 A 
ATOM      3  C2  UNL d   1       0.481   0.689  -1.290  0.00  0.00     0.034 A 
ATOM      4  C3  UNL d   1      -0.529   1.496  -0.754  0.00  0.00     0.017 A 
ATOM      5  C4  UNL d   1      -1.137   1.136   0.455  0.00  0.00     0.017 A 
ATOM      6  C5  UNL d   1      -0.731  -0.026   1.118  0.00  0.00     0.034 A 
ATOM      7 Cl   UNL d   1      -2.390   2.081   1.179  0.00  0.00    -0.070 Cl
ATOM      8 Cl1  UNL d   1      -0.974   2.916  -1.632  0.00  0.00    -0.070 Cl
ENDROOT
TORSDOF 0
ENDMDL
