MODEL 1
REMARK minimizedAffinity -2.98881602
REMARK minimizedRMSD -1
REMARK  0 active torsions:
REMARK  status: ('A' for Active; 'I' for Inactive)
ROOT
ATOM      1  C   UNL d   1       0.181  -1.106   0.827  0.00  0.00     0.020 A 
ATOM      2  C1  UNL d   1       1.025  -0.708  -0.209  0.00  0.00     0.020 A 
ATOM      3  C2  UNL d   1       0.892   0.565  -0.768  0.00  0.00     0.034 A 
ATOM      4  C3  UNL d   1      -0.088   1.444  -0.292  0.00  0.00     0.017 A 
ATOM      5  C4  UNL d   1      -0.935   1.043   0.748  0.00  0.00     0.017 A 
ATOM      6  C5  UNL d   1      -0.797  -0.233   1.304  0.00  0.00     0.034 A 
ATOM      7 Cl   UNL d   1      -2.167   2.071   1.389  0.00  0.00    -0.070 Cl
ATOM      8 Cl1  UNL d   1      -0.196   3.002  -1.029  0.00  0.00    -0.070 Cl
ENDROOT
TORSDOF 0
ENDMDL
