MODEL 1
REMARK minimizedAffinity -2.69550133
REMARK minimizedRMSD -1
REMARK  0 active torsions:
REMARK  status: ('A' for Active; 'I' for Inactive)
ROOT
ATOM      1  C   UNL d   1      -0.573  -1.062   1.564  0.00  0.00     0.020 A 
ATOM      2  C1  UNL d   1       0.241  -1.049   0.432  0.00  0.00     0.020 A 
ATOM      3  C2  UNL d   1       0.204   0.039  -0.441  0.00  0.00     0.034 A 
ATOM      4  C3  UNL d   1      -0.648   1.119  -0.185  0.00  0.00     0.017 A 
ATOM      5  C4  UNL d   1      -1.465   1.105   0.952  0.00  0.00     0.017 A 
ATOM      6  C5  UNL d   1      -1.424   0.013   1.823  0.00  0.00     0.034 A 
ATOM      7 Cl   UNL d   1      -2.542   2.401   1.335  0.00  0.00    -0.070 Cl
ATOM      8 Cl1  UNL d   1      -0.642   2.433  -1.308  0.00  0.00    -0.070 Cl
ENDROOT
TORSDOF 0
ENDMDL
