MODEL 1
REMARK minimizedAffinity -3.43471551
REMARK minimizedRMSD -1
REMARK  0 active torsions:
REMARK  status: ('A' for Active; 'I' for Inactive)
ROOT
ATOM      1  C   UNL d   1      -1.763   2.647   1.107  0.00  0.00     0.020 A 
ATOM      2  C1  UNL d   1      -0.932   2.993   0.043  0.00  0.00     0.020 A 
ATOM      3  C2  UNL d   1      -0.091   2.034  -0.527  0.00  0.00     0.034 A 
ATOM      4  C3  UNL d   1      -0.080   0.725  -0.033  0.00  0.00     0.017 A 
ATOM      5  C4  UNL d   1      -0.915   0.379   1.036  0.00  0.00     0.017 A 
ATOM      6  C5  UNL d   1      -1.755   1.342   1.602  0.00  0.00     0.034 A 
ATOM      7 Cl   UNL d   1      -0.957  -1.217   1.700  0.00  0.00    -0.070 Cl
ATOM      8 Cl1  UNL d   1       0.984  -0.409  -0.785  0.00  0.00    -0.070 Cl
ENDROOT
TORSDOF 0
ENDMDL
