MODEL 1
REMARK minimizedAffinity -5.18895388
REMARK minimizedRMSD -1
REMARK  0 active torsions:
REMARK  status: ('A' for Active; 'I' for Inactive)
ROOT
ATOM      1  C   UNL d   1      -1.465   2.955   1.368  0.00  0.00     0.020 A 
ATOM      2  C1  UNL d   1      -1.254   3.520   0.111  0.00  0.00     0.020 A 
ATOM      3  C2  UNL d   1      -0.485   2.843  -0.838  0.00  0.00     0.034 A 
ATOM      4  C3  UNL d   1       0.076   1.598  -0.532  0.00  0.00     0.017 A 
ATOM      5  C4  UNL d   1      -0.136   1.032   0.730  0.00  0.00     0.017 A 
ATOM      6  C5  UNL d   1      -0.907   1.714   1.677  0.00  0.00     0.034 A 
ATOM      7 Cl   UNL d   1       0.524  -0.500   1.182  0.00  0.00    -0.070 Cl
ATOM      8 Cl1  UNL d   1       1.016   0.817  -1.754  0.00  0.00    -0.070 Cl
ENDROOT
TORSDOF 0
ENDMDL
