MODEL 1
REMARK minimizedAffinity -3.43971014
REMARK minimizedRMSD -1
REMARK  0 active torsions:
REMARK  status: ('A' for Active; 'I' for Inactive)
ROOT
ATOM      1  C   UNL d   1      -1.882   2.165   0.187  0.00  0.00     0.020 A 
ATOM      2  C1  UNL d   1      -1.825   2.114   1.579  0.00  0.00     0.020 A 
ATOM      3  C2  UNL d   1      -0.977   1.202   2.211  0.00  0.00     0.034 A 
ATOM      4  C3  UNL d   1      -0.183   0.335   1.450  0.00  0.00     0.017 A 
ATOM      5  C4  UNL d   1      -0.242   0.387   0.053  0.00  0.00     0.017 A 
ATOM      6  C5  UNL d   1      -1.092   1.303  -0.574  0.00  0.00     0.034 A 
ATOM      7 Cl   UNL d   1       0.708  -0.650  -0.953  0.00  0.00    -0.070 Cl
ATOM      8 Cl1  UNL d   1       0.842  -0.768   2.297  0.00  0.00    -0.070 Cl
ENDROOT
TORSDOF 0
ENDMDL
