MODEL 1
REMARK minimizedAffinity -3.48871756
REMARK minimizedRMSD -1
REMARK  0 active torsions:
REMARK  status: ('A' for Active; 'I' for Inactive)
ROOT
ATOM      1  C   UNL d   1      -1.781   1.923   1.488  0.00  0.00     0.020 A 
ATOM      2  C1  UNL d   1      -1.739   2.047   0.100  0.00  0.00     0.020 A 
ATOM      3  C2  UNL d   1      -1.038   1.111  -0.663  0.00  0.00     0.034 A 
ATOM      4  C3  UNL d   1      -0.377   0.046  -0.039  0.00  0.00     0.017 A 
ATOM      5  C4  UNL d   1      -0.420  -0.077   1.354  0.00  0.00     0.017 A 
ATOM      6  C5  UNL d   1      -1.124   0.863   2.114  0.00  0.00     0.034 A 
ATOM      7 Cl   UNL d   1       0.370  -1.363   2.196  0.00  0.00    -0.070 Cl
ATOM      8 Cl1  UNL d   1       0.470  -1.074  -1.045  0.00  0.00    -0.070 Cl
ENDROOT
TORSDOF 0
ENDMDL
