MODEL 1
REMARK minimizedAffinity -2.45650959
REMARK minimizedRMSD -1
REMARK  0 active torsions:
REMARK  status: ('A' for Active; 'I' for Inactive)
ROOT
ATOM      1  C   UNL d   1      -2.468  -2.064   0.389  0.00  0.00     0.077 C 
ATOM      2  C1  UNL d   1      -1.580  -0.856   0.415  0.00  0.00    -0.074 A 
ATOM      3  C2  UNL d   1      -2.110   0.422   0.616  0.00  0.00    -0.005 A 
ATOM      4  C3  UNL d   1      -1.270   1.535   0.648  0.00  0.00     0.006 A 
ATOM      5  C4  UNL d   1       0.107   1.381   0.478  0.00  0.00    -0.005 A 
ATOM      6  C5  UNL d   1       0.655   0.111   0.277  0.00  0.00    -0.074 A 
ATOM      7  C6  UNL d   1       2.133  -0.073   0.103  0.00  0.00     0.077 C 
ATOM      8  C7  UNL d   1      -0.195  -1.003   0.254  0.00  0.00    -0.001 A 
ENDROOT
TORSDOF 0
ENDMDL
