MODEL 1
REMARK minimizedAffinity -1.40992141
REMARK minimizedRMSD -1
REMARK  0 active torsions:
REMARK  status: ('A' for Active; 'I' for Inactive)
ROOT
ATOM      1  C   UNL d   1      -2.341  -1.937   0.312  0.00  0.00     0.077 C 
ATOM      2  C1  UNL d   1      -1.803  -0.537   0.339  0.00  0.00    -0.074 A 
ATOM      3  C2  UNL d   1      -2.591   0.527   0.790  0.00  0.00    -0.005 A 
ATOM      4  C3  UNL d   1      -2.074   1.822   0.819  0.00  0.00     0.006 A 
ATOM      5  C4  UNL d   1      -0.766   2.066   0.397  0.00  0.00    -0.005 A 
ATOM      6  C5  UNL d   1       0.037   1.014  -0.056  0.00  0.00    -0.074 A 
ATOM      7  C6  UNL d   1       1.448   1.257  -0.503  0.00  0.00     0.077 C 
ATOM      8  C7  UNL d   1      -0.488  -0.286  -0.075  0.00  0.00    -0.001 A 
ENDROOT
TORSDOF 0
ENDMDL
