MODEL 1
REMARK minimizedAffinity -5.06395626
REMARK minimizedRMSD -1
REMARK  0 active torsions:
REMARK  status: ('A' for Active; 'I' for Inactive)
ROOT
ATOM      1  C   UNL d   1       3.934   1.584  -3.191  0.00  0.00     0.077 C 
ATOM      2  C1  UNL d   1       2.482   1.685  -2.830  0.00  0.00    -0.074 A 
ATOM      3  C2  UNL d   1       1.575   2.336  -3.672  0.00  0.00    -0.005 A 
ATOM      4  C3  UNL d   1       0.226   2.413  -3.328  0.00  0.00     0.006 A 
ATOM      5  C4  UNL d   1      -0.229   1.842  -2.139  0.00  0.00    -0.005 A 
ATOM      6  C5  UNL d   1       0.663   1.187  -1.284  0.00  0.00    -0.074 A 
ATOM      7  C6  UNL d   1       0.188   0.559  -0.007  0.00  0.00     0.077 C 
ATOM      8  C7  UNL d   1       2.016   1.107  -1.641  0.00  0.00    -0.001 A 
ENDROOT
TORSDOF 0
ENDMDL
