MODEL 1
REMARK minimizedAffinity -4.92865276
REMARK minimizedRMSD -1
REMARK  0 active torsions:
REMARK  status: ('A' for Active; 'I' for Inactive)
ROOT
ATOM      1  C   UNL d   1       2.153  -0.937   0.451  0.00  0.00     0.077 C 
ATOM      2  C1  UNL d   1       0.667  -0.738   0.487  0.00  0.00    -0.074 A 
ATOM      3  C2  UNL d   1      -0.205  -1.766   0.115  0.00  0.00    -0.005 A 
ATOM      4  C3  UNL d   1      -1.585  -1.569   0.163  0.00  0.00     0.006 A 
ATOM      5  C4  UNL d   1      -2.107  -0.344   0.581  0.00  0.00    -0.005 A 
ATOM      6  C5  UNL d   1      -1.250   0.695   0.957  0.00  0.00    -0.074 A 
ATOM      7  C6  UNL d   1      -1.794   2.015   1.419  0.00  0.00     0.077 C 
ATOM      8  C7  UNL d   1       0.135   0.487   0.914  0.00  0.00    -0.001 A 
ENDROOT
TORSDOF 0
ENDMDL
