MODEL 1
REMARK minimizedAffinity -0.982602239
REMARK minimizedRMSD -1
REMARK  0 active torsions:
REMARK  status: ('A' for Active; 'I' for Inactive)
ROOT
ATOM      1  C   UNL d   1      -2.192   0.805   1.360  0.00  0.00     0.077 C 
ATOM      2  C1  UNL d   1      -0.967   0.352   0.622  0.00  0.00    -0.074 A 
ATOM      3  C2  UNL d   1      -0.406  -0.906   0.864  0.00  0.00    -0.005 A 
ATOM      4  C3  UNL d   1       0.727  -1.318   0.164  0.00  0.00     0.006 A 
ATOM      5  C4  UNL d   1       1.311  -0.476  -0.784  0.00  0.00    -0.005 A 
ATOM      6  C5  UNL d   1       0.764   0.785  -1.040  0.00  0.00    -0.074 A 
ATOM      7  C6  UNL d   1       1.373   1.697  -2.063  0.00  0.00     0.077 C 
ATOM      8  C7  UNL d   1      -0.379   1.188  -0.337  0.00  0.00    -0.001 A 
ENDROOT
TORSDOF 0
ENDMDL
