MODEL 1
REMARK minimizedAffinity -4.31447792
REMARK minimizedRMSD -1
REMARK  0 active torsions:
REMARK  status: ('A' for Active; 'I' for Inactive)
ROOT
ATOM      1  C   UNL d   1      -2.362   0.350   1.026  0.00  0.00     0.077 C 
ATOM      2  C1  UNL d   1      -1.007   0.030   0.469  0.00  0.00    -0.074 A 
ATOM      3  C2  UNL d   1      -0.509  -1.277   0.494  0.00  0.00    -0.005 A 
ATOM      4  C3  UNL d   1       0.749  -1.561  -0.037  0.00  0.00     0.006 A 
ATOM      5  C4  UNL d   1       1.521  -0.543  -0.597  0.00  0.00    -0.005 A 
ATOM      6  C5  UNL d   1       1.041   0.770  -0.631  0.00  0.00    -0.074 A 
ATOM      7  C6  UNL d   1       1.854   1.874  -1.238  0.00  0.00     0.077 C 
ATOM      8  C7  UNL d   1      -0.228   1.046  -0.102  0.00  0.00    -0.001 A 
ENDROOT
TORSDOF 0
ENDMDL
