MODEL 1
REMARK minimizedAffinity -3.76343846
REMARK minimizedRMSD -1
REMARK  0 active torsions:
REMARK  status: ('A' for Active; 'I' for Inactive)
ROOT
ATOM      1  C   UNL d   1      -0.031   1.368  -0.764  0.00  0.00     0.077 C 
ATOM      2  C1  UNL d   1       0.116   0.083  -0.005  0.00  0.00    -0.074 A 
ATOM      3  C2  UNL d   1       1.371  -0.361   0.421  0.00  0.00    -0.005 A 
ATOM      4  C3  UNL d   1       1.491  -1.554   1.134  0.00  0.00     0.006 A 
ATOM      5  C4  UNL d   1       0.358  -2.314   1.427  0.00  0.00    -0.005 A 
ATOM      6  C5  UNL d   1      -0.906  -1.886   1.009  0.00  0.00    -0.074 A 
ATOM      7  C6  UNL d   1      -2.135  -2.686   1.324  0.00  0.00     0.077 C 
ATOM      8  C7  UNL d   1      -1.019  -0.683   0.299  0.00  0.00    -0.001 A 
ENDROOT
TORSDOF 0
ENDMDL
