MODEL 1
REMARK minimizedAffinity -2.95984983
REMARK minimizedRMSD -1
REMARK  0 active torsions:
REMARK  status: ('A' for Active; 'I' for Inactive)
ROOT
ATOM      1  C   UNL d   1       0.177   1.598  -1.012  0.00  0.00     0.077 C 
ATOM      2  C1  UNL d   1       0.116   0.234  -0.392  0.00  0.00    -0.074 A 
ATOM      3  C2  UNL d   1       1.281  -0.507  -0.168  0.00  0.00    -0.005 A 
ATOM      4  C3  UNL d   1       1.209  -1.771   0.419  0.00  0.00     0.006 A 
ATOM      5  C4  UNL d   1      -0.027  -2.306   0.786  0.00  0.00    -0.005 A 
ATOM      6  C5  UNL d   1      -1.202  -1.579   0.571  0.00  0.00    -0.074 A 
ATOM      7  C6  UNL d   1      -2.537  -2.135   0.969  0.00  0.00     0.077 C 
ATOM      8  C7  UNL d   1      -1.121  -0.307  -0.013  0.00  0.00    -0.001 A 
ENDROOT
TORSDOF 0
ENDMDL
