MODEL 1
REMARK minimizedAffinity -4.44558954
REMARK minimizedRMSD -1
REMARK  0 active torsions:
REMARK  status: ('A' for Active; 'I' for Inactive)
ROOT
ATOM      1  C   UNL d   1      -2.629  -1.602   0.611  0.00  0.00     0.077 C 
ATOM      2  C1  UNL d   1      -1.180  -1.218   0.644  0.00  0.00    -0.074 A 
ATOM      3  C2  UNL d   1      -0.276  -1.897   1.468  0.00  0.00    -0.005 A 
ATOM      4  C3  UNL d   1       1.071  -1.535   1.482  0.00  0.00     0.006 A 
ATOM      5  C4  UNL d   1       1.527  -0.493   0.673  0.00  0.00    -0.005 A 
ATOM      6  C5  UNL d   1       0.638   0.196  -0.158  0.00  0.00    -0.074 A 
ATOM      7  C6  UNL d   1       1.113   1.312  -1.040  0.00  0.00     0.077 C 
ATOM      8  C7  UNL d   1      -0.713  -0.178  -0.171  0.00  0.00    -0.001 A 
ENDROOT
TORSDOF 0
ENDMDL
