MODEL 1
REMARK minimizedAffinity -4.35690641
REMARK minimizedRMSD -1
REMARK  0 active torsions:
REMARK  status: ('A' for Active; 'I' for Inactive)
ROOT
ATOM      1  C   UNL d   1       2.519  -1.435   0.329  0.00  0.00     0.077 C 
ATOM      2  C1  UNL d   1       1.086  -0.993   0.288  0.00  0.00    -0.074 A 
ATOM      3  C2  UNL d   1       0.740   0.286  -0.160  0.00  0.00    -0.005 A 
ATOM      4  C3  UNL d   1      -0.597   0.678  -0.201  0.00  0.00     0.006 A 
ATOM      5  C4  UNL d   1      -1.601  -0.202   0.205  0.00  0.00    -0.005 A 
ATOM      6  C5  UNL d   1      -1.274  -1.485   0.654  0.00  0.00    -0.074 A 
ATOM      7  C6  UNL d   1      -2.341  -2.448   1.084  0.00  0.00     0.077 C 
ATOM      8  C7  UNL d   1       0.072  -1.875   0.686  0.00  0.00    -0.001 A 
ENDROOT
TORSDOF 0
ENDMDL
