MODEL 1
REMARK minimizedAffinity -4.44725561
REMARK minimizedRMSD -1
REMARK  0 active torsions:
REMARK  status: ('A' for Active; 'I' for Inactive)
ROOT
ATOM      1  C   UNL d   1       0.393   1.158  -1.678  0.00  0.00     0.077 C 
ATOM      2  C1  UNL d   1       0.354   0.063  -0.654  0.00  0.00    -0.074 A 
ATOM      3  C2  UNL d   1       1.414  -0.123   0.240  0.00  0.00    -0.005 A 
ATOM      4  C3  UNL d   1       1.359  -1.140   1.193  0.00  0.00     0.006 A 
ATOM      5  C4  UNL d   1       0.248  -1.980   1.261  0.00  0.00    -0.005 A 
ATOM      6  C5  UNL d   1      -0.821  -1.810   0.375  0.00  0.00    -0.074 A 
ATOM      7  C6  UNL d   1      -2.028  -2.698   0.441  0.00  0.00     0.077 C 
ATOM      8  C7  UNL d   1      -0.762  -0.781  -0.575  0.00  0.00    -0.001 A 
ENDROOT
TORSDOF 0
ENDMDL
