MODEL 1
REMARK minimizedAffinity -0.61957401
REMARK minimizedRMSD -1
REMARK  0 active torsions:
REMARK  status: ('A' for Active; 'I' for Inactive)
ROOT
ATOM      1  C   UNL d   1       2.481  -1.200  -0.068  0.00  0.00     0.077 C 
ATOM      2  C1  UNL d   1       1.083  -0.665   0.027  0.00  0.00    -0.074 A 
ATOM      3  C2  UNL d   1       0.795   0.658  -0.322  0.00  0.00    -0.005 A 
ATOM      4  C3  UNL d   1      -0.512   1.139  -0.238  0.00  0.00     0.006 A 
ATOM      5  C4  UNL d   1      -1.542   0.302   0.194  0.00  0.00    -0.005 A 
ATOM      6  C5  UNL d   1      -1.273  -1.024   0.546  0.00  0.00    -0.074 A 
ATOM      7  C6  UNL d   1      -2.370  -1.939   1.003  0.00  0.00     0.077 C 
ATOM      8  C7  UNL d   1       0.041  -1.502   0.452  0.00  0.00    -0.001 A 
ENDROOT
TORSDOF 0
ENDMDL
