MODEL 1
REMARK minimizedAffinity -4.34926319
REMARK minimizedRMSD -1
REMARK  0 active torsions:
REMARK  status: ('A' for Active; 'I' for Inactive)
ROOT
ATOM      1  C   UNL d   1       0.053   1.219  -2.214  0.00  0.00     0.077 C 
ATOM      2  C1  UNL d   1       0.198   0.287  -1.048  0.00  0.00    -0.074 A 
ATOM      3  C2  UNL d   1       1.315   0.355  -0.209  0.00  0.00    -0.005 A 
ATOM      4  C3  UNL d   1       1.432  -0.512   0.878  0.00  0.00     0.006 A 
ATOM      5  C4  UNL d   1       0.435  -1.454   1.136  0.00  0.00    -0.005 A 
ATOM      6  C5  UNL d   1      -0.689  -1.536   0.308  0.00  0.00    -0.074 A 
ATOM      7  C6  UNL d   1      -1.775  -2.535   0.577  0.00  0.00     0.077 C 
ATOM      8  C7  UNL d   1      -0.803  -0.657  -0.777  0.00  0.00    -0.001 A 
ENDROOT
TORSDOF 0
ENDMDL
