MODEL 1
REMARK minimizedAffinity -6.25876141
REMARK minimizedRMSD -1
REMARK  0 active torsions:
REMARK  status: ('A' for Active; 'I' for Inactive)
ROOT
ATOM      1  C   UNL d   1       0.690   1.316  -0.156  0.00  0.00     0.077 C 
ATOM      2  C1  UNL d   1      -0.378   0.561   0.577  0.00  0.00    -0.074 A 
ATOM      3  C2  UNL d   1      -1.420   1.234   1.224  0.00  0.00    -0.005 A 
ATOM      4  C3  UNL d   1      -2.411   0.518   1.894  0.00  0.00     0.006 A 
ATOM      5  C4  UNL d   1      -2.372  -0.876   1.925  0.00  0.00    -0.005 A 
ATOM      6  C5  UNL d   1      -1.339  -1.567   1.283  0.00  0.00    -0.074 A 
ATOM      7  C6  UNL d   1      -1.287  -3.066   1.298  0.00  0.00     0.077 C 
ATOM      8  C7  UNL d   1      -0.350  -0.841   0.606  0.00  0.00    -0.001 A 
ENDROOT
TORSDOF 0
ENDMDL
