MODEL 1
REMARK minimizedAffinity -4.22841978
REMARK minimizedRMSD -1
REMARK  0 active torsions:
REMARK  status: ('A' for Active; 'I' for Inactive)
ROOT
ATOM      1  C   UNL d   1      -2.312  -2.605   0.852  0.00  0.00     0.077 C 
ATOM      2  C1  UNL d   1      -1.043  -1.817   0.712  0.00  0.00    -0.074 A 
ATOM      3  C2  UNL d   1       0.092  -2.143   1.461  0.00  0.00    -0.005 A 
ATOM      4  C3  UNL d   1       1.267  -1.407   1.313  0.00  0.00     0.006 A 
ATOM      5  C4  UNL d   1       1.320  -0.339   0.417  0.00  0.00    -0.005 A 
ATOM      6  C5  UNL d   1       0.195   0.001  -0.342  0.00  0.00    -0.074 A 
ATOM      7  C6  UNL d   1       0.237   1.140  -1.317  0.00  0.00     0.077 C 
ATOM      8  C7  UNL d   1      -0.980  -0.748  -0.193  0.00  0.00    -0.001 A 
ENDROOT
TORSDOF 0
ENDMDL
