MODEL 1
REMARK minimizedAffinity -5.16937017
REMARK minimizedRMSD -1
REMARK  1 active torsions:
REMARK  status: ('A' for Active; 'I' for Inactive)
REMARK    1  A    between atoms: C1_2  and  C2_3 
ROOT
ATOM      1  C2  UNL d   1      -1.343  -0.838   0.585  0.00  0.00    -0.077 A 
ATOM      2  C3  UNL d   1      -0.047  -0.691   0.071  0.00  0.00     0.002 A 
ATOM      3  C4  UNL d   1       0.543   0.572  -0.006  0.00  0.00     0.002 A 
ATOM      4  C5  UNL d   1      -0.153   1.696   0.432  0.00  0.00    -0.004 A 
ATOM      5  C6  UNL d   1      -1.443   1.561   0.943  0.00  0.00     0.002 A 
ATOM      6  C7  UNL d   1      -2.035   0.300   1.020  0.00  0.00     0.002 A 
ENDROOT
BRANCH   1   7
ATOM      7  C1  UNL d   1      -1.962  -2.205   0.715  0.00  0.00     0.055 C 
ATOM      8  C   UNL d   1      -2.616  -2.389   2.077  0.00  0.00     0.019 C 
ENDBRANCH   1   7
TORSDOF 1
ENDMDL
