MODEL 1
REMARK minimizedAffinity -3.54263186
REMARK minimizedRMSD -1
REMARK  1 active torsions:
REMARK  status: ('A' for Active; 'I' for Inactive)
REMARK    1  A    between atoms: C1_2  and  C2_3 
ROOT
ATOM      1  C2  UNL d   1       0.291   0.480  -0.743  0.00  0.00    -0.077 A 
ATOM      2  C3  UNL d   1      -0.398   0.572   0.475  0.00  0.00     0.002 A 
ATOM      3  C4  UNL d   1      -0.383  -0.493   1.377  0.00  0.00     0.002 A 
ATOM      4  C5  UNL d   1       0.321  -1.657   1.073  0.00  0.00    -0.004 A 
ATOM      5  C6  UNL d   1       1.007  -1.759  -0.137  0.00  0.00     0.002 A 
ATOM      6  C7  UNL d   1       0.992  -0.695  -1.040  0.00  0.00     0.002 A 
ENDROOT
BRANCH   1   7
ATOM      7  C1  UNL d   1       0.317   1.647  -1.695  0.00  0.00     0.055 C 
ATOM      8  C   UNL d   1       1.629   1.704  -2.464  0.00  0.00     0.019 C 
ENDBRANCH   1   7
TORSDOF 1
ENDMDL
