MODEL 1
REMARK minimizedAffinity -0.756157637
REMARK minimizedRMSD -1
REMARK  1 active torsions:
REMARK  status: ('A' for Active; 'I' for Inactive)
REMARK    1  A    between atoms: C1_2  and  C2_3 
ROOT
ATOM      1  C2  UNL d   1      -1.387   0.186   0.877  0.00  0.00    -0.077 A 
ATOM      2  C3  UNL d   1      -1.248  -1.205   0.762  0.00  0.00     0.002 A 
ATOM      3  C4  UNL d   1      -0.106  -1.754   0.177  0.00  0.00     0.002 A 
ATOM      4  C5  UNL d   1       0.907  -0.921  -0.294  0.00  0.00    -0.004 A 
ATOM      5  C6  UNL d   1       0.777   0.463  -0.187  0.00  0.00     0.002 A 
ATOM      6  C7  UNL d   1      -0.364   1.014   0.397  0.00  0.00     0.002 A 
ENDROOT
BRANCH   1   7
ATOM      7  C1  UNL d   1      -2.596   0.779   1.553  0.00  0.00     0.055 C 
ATOM      8  C   UNL d   1      -3.007  -0.038   2.769  0.00  0.00     0.019 C 
ENDBRANCH   1   7
TORSDOF 1
ENDMDL
