MODEL 1
REMARK minimizedAffinity -1.51833558
REMARK minimizedRMSD -1
REMARK  1 active torsions:
REMARK  status: ('A' for Active; 'I' for Inactive)
REMARK    1  A    between atoms: C1_2  and  C2_3 
ROOT
ATOM      1  C2  UNL d   1       0.560   1.405  -1.143  0.00  0.00    -0.077 A 
ATOM      2  C3  UNL d   1      -0.479   1.776  -2.008  0.00  0.00     0.002 A 
ATOM      3  C4  UNL d   1      -0.195   2.360  -3.244  0.00  0.00     0.002 A 
ATOM      4  C5  UNL d   1       1.127   2.575  -3.627  0.00  0.00    -0.004 A 
ATOM      5  C6  UNL d   1       2.168   2.212  -2.773  0.00  0.00     0.002 A 
ATOM      6  C7  UNL d   1       1.885   1.629  -1.537  0.00  0.00     0.002 A 
ENDROOT
BRANCH   1   7
ATOM      7  C1  UNL d   1       0.256   0.730   0.169  0.00  0.00     0.055 C 
ATOM      8  C   UNL d   1       0.905  -0.645   0.247  0.00  0.00     0.019 C 
ENDBRANCH   1   7
TORSDOF 1
ENDMDL
