MODEL 1
REMARK minimizedAffinity -5.29881859
REMARK minimizedRMSD -1
REMARK  1 active torsions:
REMARK  status: ('A' for Active; 'I' for Inactive)
REMARK    1  A    between atoms: C1_2  and  C2_3 
ROOT
ATOM      1  C2  UNL d   1       0.004  -1.447   0.413  0.00  0.00    -0.077 A 
ATOM      2  C3  UNL d   1      -0.169  -0.055   0.414  0.00  0.00     0.002 A 
ATOM      3  C4  UNL d   1      -1.411   0.502   0.722  0.00  0.00     0.002 A 
ATOM      4  C5  UNL d   1      -2.489  -0.324   1.036  0.00  0.00    -0.004 A 
ATOM      5  C6  UNL d   1      -2.328  -1.709   1.036  0.00  0.00     0.002 A 
ATOM      6  C7  UNL d   1      -1.087  -2.268   0.727  0.00  0.00     0.002 A 
ENDROOT
BRANCH   1   7
ATOM      7  C1  UNL d   1       1.355  -2.048   0.129  0.00  0.00     0.055 C 
ATOM      8  C   UNL d   1       2.452  -1.341   0.913  0.00  0.00     0.019 C 
ENDBRANCH   1   7
TORSDOF 1
ENDMDL
