MODEL 1
REMARK minimizedAffinity -5.06690693
REMARK minimizedRMSD -1
REMARK  1 active torsions:
REMARK  status: ('A' for Active; 'I' for Inactive)
REMARK    1  A    between atoms: C1_2  and  C2_3 
ROOT
ATOM      1  C2  UNL d   1      -0.873  -0.871   0.751  0.00  0.00    -0.077 A 
ATOM      2  C3  UNL d   1      -1.930  -0.053   1.173  0.00  0.00     0.002 A 
ATOM      3  C4  UNL d   1      -3.050  -0.609   1.794  0.00  0.00     0.002 A 
ATOM      4  C5  UNL d   1      -3.122  -1.985   2.001  0.00  0.00    -0.004 A 
ATOM      5  C6  UNL d   1      -2.077  -2.808   1.583  0.00  0.00     0.002 A 
ATOM      6  C7  UNL d   1      -0.957  -2.253   0.961  0.00  0.00     0.002 A 
ENDROOT
BRANCH   1   7
ATOM      7  C1  UNL d   1       0.357  -0.268   0.125  0.00  0.00     0.055 C 
ATOM      8  C   UNL d   1       1.626  -0.911   0.666  0.00  0.00     0.019 C 
ENDBRANCH   1   7
TORSDOF 1
ENDMDL
