MODEL 1
REMARK minimizedAffinity -5.37382936
REMARK minimizedRMSD -1
REMARK  1 active torsions:
REMARK  status: ('A' for Active; 'I' for Inactive)
REMARK    1  A    between atoms: C1_2  and  C2_3 
ROOT
ATOM      1  C2  UNL d   1      -0.132  -0.387   0.675  0.00  0.00    -0.077 A 
ATOM      2  C3  UNL d   1      -1.240   0.472   0.711  0.00  0.00     0.002 A 
ATOM      3  C4  UNL d   1      -2.481   0.005   1.150  0.00  0.00     0.002 A 
ATOM      4  C5  UNL d   1      -2.624  -1.319   1.559  0.00  0.00    -0.004 A 
ATOM      5  C6  UNL d   1      -1.528  -2.181   1.525  0.00  0.00     0.002 A 
ATOM      6  C7  UNL d   1      -0.288  -1.717   1.086  0.00  0.00     0.002 A 
ENDROOT
BRANCH   1   7
ATOM      7  C1  UNL d   1       1.218   0.128   0.249  0.00  0.00     0.055 C 
ATOM      8  C   UNL d   1       1.088   1.216  -0.806  0.00  0.00     0.019 C 
ENDBRANCH   1   7
TORSDOF 1
ENDMDL
