MODEL 1
REMARK minimizedAffinity -4.79250908
REMARK minimizedRMSD -1
REMARK  1 active torsions:
REMARK  status: ('A' for Active; 'I' for Inactive)
REMARK    1  A    between atoms: C1_2  and  C2_3 
ROOT
ATOM      1  C2  UNL d   1      -0.176  -0.514   0.500  0.00  0.00    -0.077 A 
ATOM      2  C3  UNL d   1      -0.998   0.583   0.794  0.00  0.00     0.002 A 
ATOM      3  C4  UNL d   1      -2.254   0.390   1.373  0.00  0.00     0.002 A 
ATOM      4  C5  UNL d   1      -2.696  -0.898   1.668  0.00  0.00    -0.004 A 
ATOM      5  C6  UNL d   1      -1.887  -1.996   1.378  0.00  0.00     0.002 A 
ATOM      6  C7  UNL d   1      -0.632  -1.805   0.798  0.00  0.00     0.002 A 
ENDROOT
BRANCH   1   7
ATOM      7  C1  UNL d   1       1.198  -0.305  -0.079  0.00  0.00     0.055 C 
ATOM      8  C   UNL d   1       2.140  -1.437   0.305  0.00  0.00     0.019 C 
ENDBRANCH   1   7
TORSDOF 1
ENDMDL
