MODEL 1
REMARK minimizedAffinity -4.13373661
REMARK minimizedRMSD -1
REMARK  1 active torsions:
REMARK  status: ('A' for Active; 'I' for Inactive)
REMARK    1  A    between atoms: C1_2  and  C2_3 
ROOT
ATOM      1  C2  UNL d   1       0.402   1.304  -1.752  0.00  0.00    -0.077 A 
ATOM      2  C3  UNL d   1       0.450  -0.097  -1.776  0.00  0.00     0.002 A 
ATOM      3  C4  UNL d   1       0.442  -0.825  -0.584  0.00  0.00     0.002 A 
ATOM      4  C5  UNL d   1       0.382  -0.160   0.639  0.00  0.00    -0.004 A 
ATOM      5  C6  UNL d   1       0.337   1.233   0.674  0.00  0.00     0.002 A 
ATOM      6  C7  UNL d   1       0.346   1.962  -0.516  0.00  0.00     0.002 A 
ENDROOT
BRANCH   1   7
ATOM      7  C1  UNL d   1       0.360   2.089  -3.037  0.00  0.00     0.055 C 
ATOM      8  C   UNL d   1       1.495   1.687  -3.968  0.00  0.00     0.019 C 
ENDBRANCH   1   7
TORSDOF 1
ENDMDL
