MODEL 1
REMARK minimizedAffinity -5.44417191
REMARK minimizedRMSD -1
REMARK  1 active torsions:
REMARK  status: ('A' for Active; 'I' for Inactive)
REMARK    1  A    between atoms: C1_2  and  C2_3 
ROOT
ATOM      1  C2  UNL d   1      -0.448  -1.241   0.770  0.00  0.00    -0.077 A 
ATOM      2  C3  UNL d   1      -1.355  -1.586  -0.242  0.00  0.00     0.002 A 
ATOM      3  C4  UNL d   1      -2.523  -2.285   0.064  0.00  0.00     0.002 A 
ATOM      4  C5  UNL d   1      -2.798  -2.642   1.383  0.00  0.00    -0.004 A 
ATOM      5  C6  UNL d   1      -1.901  -2.306   2.396  0.00  0.00     0.002 A 
ATOM      6  C7  UNL d   1      -0.732  -1.608   2.092  0.00  0.00     0.002 A 
ENDROOT
BRANCH   1   7
ATOM      7  C1  UNL d   1       0.789  -0.444   0.448  0.00  0.00     0.055 C 
ATOM      8  C   UNL d   1       0.435   0.946  -0.060  0.00  0.00     0.019 C 
ENDBRANCH   1   7
TORSDOF 1
ENDMDL
