MODEL 1
REMARK minimizedAffinity -5.28448629
REMARK minimizedRMSD -1
REMARK  1 active torsions:
REMARK  status: ('A' for Active; 'I' for Inactive)
REMARK    1  A    between atoms: C1_2  and  C2_3 
ROOT
ATOM      1  C2  UNL d   1      -1.236  -1.457   1.033  0.00  0.00    -0.077 A 
ATOM      2  C3  UNL d   1      -0.008  -2.133   1.023  0.00  0.00     0.002 A 
ATOM      3  C4  UNL d   1       1.069  -1.630   0.290  0.00  0.00     0.002 A 
ATOM      4  C5  UNL d   1       0.931  -0.448  -0.433  0.00  0.00    -0.004 A 
ATOM      5  C6  UNL d   1      -0.287   0.231  -0.430  0.00  0.00     0.002 A 
ATOM      6  C7  UNL d   1      -1.365  -0.271   0.300  0.00  0.00     0.002 A 
ENDROOT
BRANCH   1   7
ATOM      7  C1  UNL d   1      -2.383  -1.972   1.862  0.00  0.00     0.055 C 
ATOM      8  C   UNL d   1      -3.266  -0.833   2.353  0.00  0.00     0.019 C 
ENDBRANCH   1   7
TORSDOF 1
ENDMDL
