MODEL 1
REMARK minimizedAffinity 1.52098167
REMARK minimizedRMSD -1
REMARK  1 active torsions:
REMARK  status: ('A' for Active; 'I' for Inactive)
REMARK    1  A    between atoms: C1_2  and  C2_3 
ROOT
ATOM      1  C2  UNL d   1       0.754  -3.229   4.510  0.00  0.00    -0.077 A 
ATOM      2  C3  UNL d   1      -0.377  -4.058   4.503  0.00  0.00     0.002 A 
ATOM      3  C4  UNL d   1      -0.386  -5.245   5.238  0.00  0.00     0.002 A 
ATOM      4  C5  UNL d   1       0.730  -5.611   5.988  0.00  0.00    -0.004 A 
ATOM      5  C6  UNL d   1       1.860  -4.794   5.999  0.00  0.00     0.002 A 
ATOM      6  C7  UNL d   1       1.871  -3.608   5.264  0.00  0.00     0.002 A 
ENDROOT
BRANCH   1   7
ATOM      7  C1  UNL d   1       0.747  -1.924   3.757  0.00  0.00     0.055 C 
ATOM      8  C   UNL d   1       1.529  -0.852   4.502  0.00  0.00     0.019 C 
ENDBRANCH   1   7
TORSDOF 1
ENDMDL
