MODEL 1
REMARK minimizedAffinity 8.70929909
REMARK minimizedRMSD -1
REMARK  1 active torsions:
REMARK  status: ('A' for Active; 'I' for Inactive)
REMARK    1  A    between atoms: C1_2  and  C2_3 
ROOT
ATOM      1  C2  UNL d   1       5.255   3.155   3.166  0.00  0.00    -0.077 A 
ATOM      2  C3  UNL d   1       5.638   4.396   3.694  0.00  0.00     0.002 A 
ATOM      3  C4  UNL d   1       4.977   4.925   4.805  0.00  0.00     0.002 A 
ATOM      4  C5  UNL d   1       3.933   4.218   5.398  0.00  0.00    -0.004 A 
ATOM      5  C6  UNL d   1       3.543   2.985   4.878  0.00  0.00     0.002 A 
ATOM      6  C7  UNL d   1       4.202   2.455   3.767  0.00  0.00     0.002 A 
ENDROOT
BRANCH   1   7
ATOM      7  C1  UNL d   1       5.999   2.560   1.998  0.00  0.00     0.055 C 
ATOM      8  C   UNL d   1       5.802   3.388   0.737  0.00  0.00     0.019 C 
ENDBRANCH   1   7
TORSDOF 1
ENDMDL
