MODEL 1
REMARK minimizedAffinity -2.20904469
REMARK minimizedRMSD -1
REMARK  1 active torsions:
REMARK  status: ('A' for Active; 'I' for Inactive)
REMARK    1  A    between atoms: C1_2  and  C2_3 
ROOT
ATOM      1  C2  UNL d   1       3.808   2.960   5.431  0.00  0.00    -0.077 A 
ATOM      2  C3  UNL d   1       4.572   2.470   4.362  0.00  0.00     0.002 A 
ATOM      3  C4  UNL d   1       5.652   3.206   3.871  0.00  0.00     0.002 A 
ATOM      4  C5  UNL d   1       5.980   4.433   4.444  0.00  0.00    -0.004 A 
ATOM      5  C6  UNL d   1       5.225   4.929   5.506  0.00  0.00     0.002 A 
ATOM      6  C7  UNL d   1       4.145   4.195   5.998  0.00  0.00     0.002 A 
ENDROOT
BRANCH   1   7
ATOM      7  C1  UNL d   1       2.673   2.145   5.995  0.00  0.00     0.055 C 
ATOM      8  C   UNL d   1       3.007   0.660   6.000  0.00  0.00     0.019 C 
ENDBRANCH   1   7
TORSDOF 1
ENDMDL
