MODEL 1
REMARK minimizedAffinity 2.03703523
REMARK minimizedRMSD -1
REMARK  1 active torsions:
REMARK  status: ('A' for Active; 'I' for Inactive)
REMARK    1  A    between atoms: C1_2  and  C2_3 
ROOT
ATOM      1  C2  UNL d   1       1.720   2.763  -1.442  0.00  0.00    -0.073 A 
ATOM      2  C3  UNL d   1       1.977   1.674  -2.283  0.00  0.00    -0.002 A 
ATOM      3  C4  UNL d   1       1.907   0.370  -1.788  0.00  0.00     0.004 A 
ATOM      4  C5  UNL d   1       1.573   0.143  -0.454  0.00  0.00    -0.004 A 
ATOM      5  C6  UNL d   1       1.301   1.218   0.399  0.00  0.00    -0.075 A 
ATOM      6  C7  UNL d   1       0.943   0.990   1.838  0.00  0.00     0.076 C 
ATOM      7  C8  UNL d   1       1.376   2.524  -0.104  0.00  0.00     0.001 A 
ENDROOT
BRANCH   1   8
ATOM      8  C1  UNL d   1       1.787   4.172  -1.973  0.00  0.00     0.053 C 
ATOM      9  C   UNL d   1       1.887   5.198  -0.855  0.00  0.00     0.018 C 
ENDBRANCH   1   8
TORSDOF 1
ENDMDL
