MODEL 1
REMARK minimizedAffinity -1.01367009
REMARK minimizedRMSD -1
REMARK  1 active torsions:
REMARK  status: ('A' for Active; 'I' for Inactive)
REMARK    1  A    between atoms: C1_2  and  C2_3 
ROOT
ATOM      1  C2  UNL d   1       1.439   0.604  -0.453  0.00  0.00    -0.073 A 
ATOM      2  C3  UNL d   1       1.746   1.105  -1.723  0.00  0.00    -0.002 A 
ATOM      3  C4  UNL d   1       1.826   2.482  -1.937  0.00  0.00     0.004 A 
ATOM      4  C5  UNL d   1       1.606   3.370  -0.884  0.00  0.00    -0.004 A 
ATOM      5  C6  UNL d   1       1.309   2.888   0.395  0.00  0.00    -0.075 A 
ATOM      6  C7  UNL d   1       1.067   3.830   1.538  0.00  0.00     0.076 C 
ATOM      7  C8  UNL d   1       1.228   1.504   0.601  0.00  0.00     0.001 A 
ENDROOT
BRANCH   1   8
ATOM      8  C1  UNL d   1       1.358  -0.882  -0.216  0.00  0.00     0.053 C 
ATOM      9  C   UNL d   1       1.270  -1.663  -1.517  0.00  0.00     0.018 C 
ENDBRANCH   1   8
TORSDOF 1
ENDMDL
