MODEL 1
REMARK minimizedAffinity -4.93675137
REMARK minimizedRMSD -1
REMARK  1 active torsions:
REMARK  status: ('A' for Active; 'I' for Inactive)
REMARK    1  A    between atoms: C1_2  and  C2_3 
ROOT
ATOM      1  C2  UNL d   1       1.378   2.740  -0.787  0.00  0.00    -0.073 A 
ATOM      2  C3  UNL d   1       1.132   2.905   0.581  0.00  0.00    -0.002 A 
ATOM      3  C4  UNL d   1       0.946   1.793   1.403  0.00  0.00     0.004 A 
ATOM      4  C5  UNL d   1       1.012   0.506   0.869  0.00  0.00    -0.004 A 
ATOM      5  C6  UNL d   1       1.268   0.320  -0.493  0.00  0.00    -0.075 A 
ATOM      6  C7  UNL d   1       1.340  -1.057  -1.084  0.00  0.00     0.076 C 
ATOM      7  C8  UNL d   1       1.451   1.442  -1.313  0.00  0.00     0.001 A 
ENDROOT
BRANCH   1   8
ATOM      8  C1  UNL d   1       1.585   3.938  -1.677  0.00  0.00     0.053 C 
ATOM      9  C   UNL d   1       1.988   5.173  -0.887  0.00  0.00     0.018 C 
ENDBRANCH   1   8
TORSDOF 1
ENDMDL
