MODEL 1
REMARK minimizedAffinity 9.34844208
REMARK minimizedRMSD -1
REMARK  1 active torsions:
REMARK  status: ('A' for Active; 'I' for Inactive)
REMARK    1  A    between atoms: C1_2  and  C2_3 
ROOT
ATOM      1  C2  UNL d   1       1.333   1.965  -1.258  0.00  0.00    -0.073 A 
ATOM      2  C3  UNL d   1       2.041   1.951  -0.051  0.00  0.00    -0.002 A 
ATOM      3  C4  UNL d   1       2.237   0.754   0.638  0.00  0.00     0.004 A 
ATOM      4  C5  UNL d   1       1.734  -0.442   0.125  0.00  0.00    -0.004 A 
ATOM      5  C6  UNL d   1       1.033  -0.451  -1.085  0.00  0.00    -0.075 A 
ATOM      6  C7  UNL d   1       0.484  -1.728  -1.649  0.00  0.00     0.076 C 
ATOM      7  C8  UNL d   1       0.838   0.756  -1.770  0.00  0.00     0.001 A 
ENDROOT
BRANCH   1   8
ATOM      8  C1  UNL d   1       1.124   3.254  -2.009  0.00  0.00     0.053 C 
ATOM      9  C   UNL d   1       2.067   4.349  -1.535  0.00  0.00     0.018 C 
ENDBRANCH   1   8
TORSDOF 1
ENDMDL
