MODEL 1
REMARK minimizedAffinity 0.423899144
REMARK minimizedRMSD -1
REMARK  1 active torsions:
REMARK  status: ('A' for Active; 'I' for Inactive)
REMARK    1  A    between atoms: C1_2  and  C2_3 
ROOT
ATOM      1  C2  UNL d   1       1.135   2.349  -0.656  0.00  0.00    -0.073 A 
ATOM      2  C3  UNL d   1       1.423   1.330  -1.572  0.00  0.00    -0.002 A 
ATOM      3  C4  UNL d   1       1.549   0.009  -1.140  0.00  0.00     0.004 A 
ATOM      4  C5  UNL d   1       1.383  -0.307   0.209  0.00  0.00    -0.004 A 
ATOM      5  C6  UNL d   1       1.084   0.695   1.137  0.00  0.00    -0.075 A 
ATOM      6  C7  UNL d   1       0.904   0.372   2.591  0.00  0.00     0.076 C 
ATOM      7  C8  UNL d   1       0.961   2.020   0.696  0.00  0.00     0.001 A 
ENDROOT
BRANCH   1   8
ATOM      8  C1  UNL d   1       0.992   3.776  -1.119  0.00  0.00     0.053 C 
ATOM      9  C   UNL d   1       1.519   4.764  -0.091  0.00  0.00     0.018 C 
ENDBRANCH   1   8
TORSDOF 1
ENDMDL
