MODEL 1
REMARK minimizedAffinity -4.64901781
REMARK minimizedRMSD -1
REMARK  1 active torsions:
REMARK  status: ('A' for Active; 'I' for Inactive)
REMARK    1  A    between atoms: C1_2  and  C2_3 
ROOT
ATOM      1  C2  UNL d   1       1.417   3.397  -1.009  0.00  0.00    -0.073 A 
ATOM      2  C3  UNL d   1       1.198   3.563   0.363  0.00  0.00    -0.002 A 
ATOM      3  C4  UNL d   1       0.939   2.457   1.174  0.00  0.00     0.004 A 
ATOM      4  C5  UNL d   1       0.904   1.176   0.624  0.00  0.00    -0.004 A 
ATOM      5  C6  UNL d   1       1.132   0.989  -0.744  0.00  0.00    -0.075 A 
ATOM      6  C7  UNL d   1       1.095  -0.382  -1.351  0.00  0.00     0.076 C 
ATOM      7  C8  UNL d   1       1.388   2.105  -1.552  0.00  0.00     0.001 A 
ENDROOT
BRANCH   1   8
ATOM      8  C1  UNL d   1       1.703   4.588  -1.888  0.00  0.00     0.053 C 
ATOM      9  C   UNL d   1       2.005   5.837  -1.075  0.00  0.00     0.018 C 
ENDBRANCH   1   8
TORSDOF 1
ENDMDL
