MODEL 1
REMARK minimizedAffinity 6.64607859
REMARK minimizedRMSD -1
REMARK  1 active torsions:
REMARK  status: ('A' for Active; 'I' for Inactive)
REMARK    1  A    between atoms: C1_2  and  C2_3 
ROOT
ATOM      1  C2  UNL d   1       1.508   1.578  -0.632  0.00  0.00    -0.073 A 
ATOM      2  C3  UNL d   1       1.732   1.781   0.735  0.00  0.00    -0.002 A 
ATOM      3  C4  UNL d   1       1.433   3.010   1.324  0.00  0.00     0.004 A 
ATOM      4  C5  UNL d   1       0.902   4.046   0.555  0.00  0.00    -0.004 A 
ATOM      5  C6  UNL d   1       0.660   3.859  -0.810  0.00  0.00    -0.075 A 
ATOM      6  C7  UNL d   1       0.092   4.964  -1.651  0.00  0.00     0.076 C 
ATOM      7  C8  UNL d   1       0.965   2.623  -1.394  0.00  0.00     0.001 A 
ENDROOT
BRANCH   1   8
ATOM      8  C1  UNL d   1       1.823   0.250  -1.271  0.00  0.00     0.053 C 
ATOM      9  C   UNL d   1       2.523  -0.694  -0.307  0.00  0.00     0.018 C 
ENDBRANCH   1   8
TORSDOF 1
ENDMDL
