MODEL 1
REMARK minimizedAffinity -0.0597962216
REMARK minimizedRMSD -1
REMARK  1 active torsions:
REMARK  status: ('A' for Active; 'I' for Inactive)
REMARK    1  A    between atoms: C1_2  and  C2_3 
ROOT
ATOM      1  C2  UNL d   1       1.720   0.239  -0.178  0.00  0.00    -0.073 A 
ATOM      2  C3  UNL d   1       1.260   1.050   0.866  0.00  0.00    -0.002 A 
ATOM      3  C4  UNL d   1       0.760   2.325   0.601  0.00  0.00     0.004 A 
ATOM      4  C5  UNL d   1       0.707   2.799  -0.710  0.00  0.00    -0.004 A 
ATOM      5  C6  UNL d   1       1.151   1.999  -1.768  0.00  0.00    -0.075 A 
ATOM      6  C7  UNL d   1       1.103   2.495  -3.183  0.00  0.00     0.076 C 
ATOM      7  C8  UNL d   1       1.654   0.721  -1.493  0.00  0.00     0.001 A 
ENDROOT
BRANCH   1   8
ATOM      8  C1  UNL d   1       2.255  -1.142   0.104  0.00  0.00     0.053 C 
ATOM      9  C   UNL d   1       3.736  -1.120   0.447  0.00  0.00     0.018 C 
ENDBRANCH   1   8
TORSDOF 1
ENDMDL
