MODEL 1
REMARK minimizedAffinity -4.74512386
REMARK minimizedRMSD -1
REMARK  1 active torsions:
REMARK  status: ('A' for Active; 'I' for Inactive)
REMARK    1  A    between atoms: C1_2  and  C2_3 
ROOT
ATOM      1  C2  UNL d   1       0.055  -0.307  -0.240  0.00  0.00    -0.077 A 
ATOM      2  C3  UNL d   1      -0.315   1.044  -0.309  0.00  0.00     0.002 A 
ATOM      3  C4  UNL d   1      -1.192   1.585   0.633  0.00  0.00     0.002 A 
ATOM      4  C5  UNL d   1      -1.704   0.784   1.651  0.00  0.00    -0.004 A 
ATOM      5  C6  UNL d   1      -1.345  -0.561   1.727  0.00  0.00     0.002 A 
ATOM      6  C7  UNL d   1      -0.469  -1.104   0.786  0.00  0.00     0.002 A 
ENDROOT
BRANCH   1   7
ATOM      7  C1  UNL d   1       1.039  -0.880  -1.226  0.00  0.00     0.055 C 
ATOM      8  C   UNL d   1       0.713  -2.330  -1.555  0.00  0.00     0.019 C 
ENDBRANCH   1   7
TORSDOF 1
ENDMDL
