MODEL 1
REMARK minimizedAffinity -4.95382118
REMARK minimizedRMSD -1
REMARK  1 active torsions:
REMARK  status: ('A' for Active; 'I' for Inactive)
REMARK    1  A    between atoms: C1_2  and  C2_3 
ROOT
ATOM      1  C2  UNL d   1      -0.920   1.261   1.094  0.00  0.00    -0.077 A 
ATOM      2  C3  UNL d   1      -0.589   0.813  -0.192  0.00  0.00     0.002 A 
ATOM      3  C4  UNL d   1      -0.305  -0.535  -0.419  0.00  0.00     0.002 A 
ATOM      4  C5  UNL d   1      -0.354  -1.447   0.633  0.00  0.00    -0.004 A 
ATOM      5  C6  UNL d   1      -0.681  -1.011   1.917  0.00  0.00     0.002 A 
ATOM      6  C7  UNL d   1      -0.963   0.337   2.146  0.00  0.00     0.002 A 
ENDROOT
BRANCH   1   7
ATOM      7  C1  UNL d   1      -1.274   2.705   1.332  0.00  0.00     0.055 C 
ATOM      8  C   UNL d   1      -0.584   3.617   0.328  0.00  0.00     0.019 C 
ENDBRANCH   1   7
TORSDOF 1
ENDMDL
