MODEL 1
REMARK minimizedAffinity -3.21425796
REMARK minimizedRMSD -1
REMARK  1 active torsions:
REMARK  status: ('A' for Active; 'I' for Inactive)
REMARK    1  A    between atoms: C1_2  and  C2_3 
ROOT
ATOM      1  C2  UNL d   1      -0.694   0.331   0.989  0.00  0.00    -0.077 A 
ATOM      2  C3  UNL d   1       0.669   0.124   0.736  0.00  0.00     0.002 A 
ATOM      3  C4  UNL d   1       1.076  -0.779  -0.249  0.00  0.00     0.002 A 
ATOM      4  C5  UNL d   1       0.126  -1.478  -0.990  0.00  0.00    -0.004 A 
ATOM      5  C6  UNL d   1      -1.233  -1.280  -0.745  0.00  0.00     0.002 A 
ATOM      6  C7  UNL d   1      -1.641  -0.380   0.240  0.00  0.00     0.002 A 
ENDROOT
BRANCH   1   7
ATOM      7  C1  UNL d   1      -1.135   1.340   2.017  0.00  0.00     0.055 C 
ATOM      8  C   UNL d   1      -2.459   1.982   1.630  0.00  0.00     0.019 C 
ENDBRANCH   1   7
TORSDOF 1
ENDMDL
