MODEL 1
REMARK minimizedAffinity -4.64962816
REMARK minimizedRMSD -1
REMARK  1 active torsions:
REMARK  status: ('A' for Active; 'I' for Inactive)
REMARK    1  A    between atoms: C1_2  and  C2_3 
ROOT
ATOM      1  C2  UNL d   1      -0.457   0.471  -0.117  0.00  0.00    -0.077 A 
ATOM      2  C3  UNL d   1      -0.485   1.836   0.200  0.00  0.00     0.002 A 
ATOM      3  C4  UNL d   1      -1.550   2.371   0.928  0.00  0.00     0.002 A 
ATOM      4  C5  UNL d   1      -2.591   1.547   1.349  0.00  0.00    -0.004 A 
ATOM      5  C6  UNL d   1      -2.574   0.188   1.038  0.00  0.00     0.002 A 
ATOM      6  C7  UNL d   1      -1.511  -0.348   0.309  0.00  0.00     0.002 A 
ENDROOT
BRANCH   1   7
ATOM      7  C1  UNL d   1       0.714  -0.117  -0.860  0.00  0.00     0.055 C 
ATOM      8  C   UNL d   1       0.400  -1.516  -1.369  0.00  0.00     0.019 C 
ENDBRANCH   1   7
TORSDOF 1
ENDMDL
