MODEL 1
REMARK minimizedAffinity -4.01892185
REMARK minimizedRMSD -1
REMARK  1 active torsions:
REMARK  status: ('A' for Active; 'I' for Inactive)
REMARK    1  A    between atoms: C1_2  and  C2_3 
ROOT
ATOM      1  C2  UNL d   1      -0.480   0.214   0.645  0.00  0.00    -0.077 A 
ATOM      2  C3  UNL d   1      -0.056  -1.043   0.190  0.00  0.00     0.002 A 
ATOM      3  C4  UNL d   1       0.729  -1.150  -0.959  0.00  0.00     0.002 A 
ATOM      4  C5  UNL d   1       1.100  -0.005  -1.661  0.00  0.00    -0.004 A 
ATOM      5  C6  UNL d   1       0.682   1.249  -1.218  0.00  0.00     0.002 A 
ATOM      6  C7  UNL d   1      -0.104   1.358  -0.070  0.00  0.00     0.002 A 
ENDROOT
BRANCH   1   7
ATOM      7  C1  UNL d   1      -1.285   0.335   1.912  0.00  0.00     0.055 C 
ATOM      8  C   UNL d   1      -1.641   1.785   2.205  0.00  0.00     0.019 C 
ENDBRANCH   1   7
TORSDOF 1
ENDMDL
