MODEL 1
REMARK minimizedAffinity -4.2640624
REMARK minimizedRMSD -1
REMARK  1 active torsions:
REMARK  status: ('A' for Active; 'I' for Inactive)
REMARK    1  A    between atoms: C1_2  and  C2_3 
ROOT
ATOM      1  C2  UNL d   1      -0.213  -0.705  -0.569  0.00  0.00    -0.077 A 
ATOM      2  C3  UNL d   1      -0.289  -0.825   0.826  0.00  0.00     0.002 A 
ATOM      3  C4  UNL d   1      -0.774   0.231   1.600  0.00  0.00     0.002 A 
ATOM      4  C5  UNL d   1      -1.190   1.412   0.989  0.00  0.00    -0.004 A 
ATOM      5  C6  UNL d   1      -1.117   1.542  -0.397  0.00  0.00     0.002 A 
ATOM      6  C7  UNL d   1      -0.631   0.488  -1.173  0.00  0.00     0.002 A 
ENDROOT
BRANCH   1   7
ATOM      7  C1  UNL d   1       0.264  -1.860  -1.410  0.00  0.00     0.055 C 
ATOM      8  C   UNL d   1      -0.701  -2.150  -2.550  0.00  0.00     0.019 C 
ENDBRANCH   1   7
TORSDOF 1
ENDMDL
