MODEL 1
REMARK minimizedAffinity -2.88185334
REMARK minimizedRMSD -1
REMARK  1 active torsions:
REMARK  status: ('A' for Active; 'I' for Inactive)
REMARK    1  A    between atoms: C1_2  and  C2_3 
ROOT
ATOM      1  C2  UNL d   1       0.363  -1.580  -0.994  0.00  0.00    -0.077 A 
ATOM      2  C3  UNL d   1      -0.286  -1.992  -2.166  0.00  0.00     0.002 A 
ATOM      3  C4  UNL d   1       0.173  -3.106  -2.873  0.00  0.00     0.002 A 
ATOM      4  C5  UNL d   1       1.279  -3.817  -2.414  0.00  0.00    -0.004 A 
ATOM      5  C6  UNL d   1       1.932  -3.413  -1.250  0.00  0.00     0.002 A 
ATOM      6  C7  UNL d   1       1.476  -2.300  -0.543  0.00  0.00     0.002 A 
ENDROOT
BRANCH   1   7
ATOM      7  C1  UNL d   1      -0.161  -0.409  -0.204  0.00  0.00     0.055 C 
ATOM      8  C   UNL d   1       0.139  -0.564   1.280  0.00  0.00     0.019 C 
ENDBRANCH   1   7
TORSDOF 1
ENDMDL
