MODEL 1
REMARK minimizedAffinity -5.15901375
REMARK minimizedRMSD -1
REMARK  1 active torsions:
REMARK  status: ('A' for Active; 'I' for Inactive)
REMARK    1  A    between atoms: C1_2  and  C2_3 
ROOT
ATOM      1  C2  UNL d   1       0.489  -0.366  -0.140  0.00  0.00    -0.077 A 
ATOM      2  C3  UNL d   1       0.072  -0.458   1.195  0.00  0.00     0.002 A 
ATOM      3  C4  UNL d   1      -0.813   0.484   1.725  0.00  0.00     0.002 A 
ATOM      4  C5  UNL d   1      -1.290   1.521   0.926  0.00  0.00    -0.004 A 
ATOM      5  C6  UNL d   1      -0.879   1.621  -0.403  0.00  0.00     0.002 A 
ATOM      6  C7  UNL d   1       0.006   0.682  -0.934  0.00  0.00     0.002 A 
ENDROOT
BRANCH   1   7
ATOM      7  C1  UNL d   1       1.404  -1.409  -0.727  0.00  0.00     0.055 C 
ATOM      8  C   UNL d   1       0.649  -2.350  -1.654  0.00  0.00     0.019 C 
ENDBRANCH   1   7
TORSDOF 1
ENDMDL
