MODEL 1
REMARK minimizedAffinity -5.25960636
REMARK minimizedRMSD -1
REMARK  1 active torsions:
REMARK  status: ('A' for Active; 'I' for Inactive)
REMARK    1  A    between atoms: C1_2  and  C2_3 
ROOT
ATOM      1  C2  UNL d   1       0.372   0.446   0.391  0.00  0.00    -0.077 A 
ATOM      2  C3  UNL d   1      -0.168   1.720   0.168  0.00  0.00     0.002 A 
ATOM      3  C4  UNL d   1      -1.308   2.135   0.860  0.00  0.00     0.002 A 
ATOM      4  C5  UNL d   1      -1.915   1.284   1.781  0.00  0.00    -0.004 A 
ATOM      5  C6  UNL d   1      -1.387   0.013   2.008  0.00  0.00     0.002 A 
ATOM      6  C7  UNL d   1      -0.248  -0.404   1.316  0.00  0.00     0.002 A 
ENDROOT
BRANCH   1   7
ATOM      7  C1  UNL d   1       1.629   0.015  -0.318  0.00  0.00     0.055 C 
ATOM      8  C   UNL d   1       1.771  -1.500  -0.322  0.00  0.00     0.019 C 
ENDBRANCH   1   7
TORSDOF 1
ENDMDL
