MODEL 1
REMARK minimizedAffinity -6.03936052
REMARK minimizedRMSD -1
REMARK  1 active torsions:
REMARK  status: ('A' for Active; 'I' for Inactive)
REMARK    1  A    between atoms: C1_2  and  C2_3 
ROOT
ATOM      1  C2  UNL d   1      -0.759   0.874   0.151  0.00  0.00    -0.077 A 
ATOM      2  C3  UNL d   1      -0.045   1.677  -0.750  0.00  0.00     0.002 A 
ATOM      3  C4  UNL d   1      -0.118   3.069  -0.666  0.00  0.00     0.002 A 
ATOM      4  C5  UNL d   1      -0.900   3.669   0.319  0.00  0.00    -0.004 A 
ATOM      5  C6  UNL d   1      -1.615   2.879   1.218  0.00  0.00     0.002 A 
ATOM      6  C7  UNL d   1      -1.545   1.488   1.135  0.00  0.00     0.002 A 
ENDROOT
BRANCH   1   7
ATOM      7  C1  UNL d   1      -0.643  -0.627   0.093  0.00  0.00     0.055 C 
ATOM      8  C   UNL d   1       0.504  -1.059  -0.809  0.00  0.00     0.019 C 
ENDBRANCH   1   7
TORSDOF 1
ENDMDL
