MODEL 1
REMARK minimizedAffinity -4.26030874
REMARK minimizedRMSD -1
REMARK  1 active torsions:
REMARK  status: ('A' for Active; 'I' for Inactive)
REMARK    1  A    between atoms: C1_2  and  C2_3 
ROOT
ATOM      1  C2  UNL d   1      -0.219  -0.978  -0.275  0.00  0.00    -0.077 A 
ATOM      2  C3  UNL d   1       1.014  -0.320  -0.160  0.00  0.00     0.002 A 
ATOM      3  C4  UNL d   1       2.085  -0.681  -0.980  0.00  0.00     0.002 A 
ATOM      4  C5  UNL d   1       1.933  -1.696  -1.922  0.00  0.00    -0.004 A 
ATOM      5  C6  UNL d   1       0.711  -2.357  -2.042  0.00  0.00     0.002 A 
ATOM      6  C7  UNL d   1      -0.360  -1.999  -1.223  0.00  0.00     0.002 A 
ENDROOT
BRANCH   1   7
ATOM      7  C1  UNL d   1      -1.391  -0.557   0.574  0.00  0.00     0.055 C 
ATOM      8  C   UNL d   1      -0.956   0.378   1.693  0.00  0.00     0.019 C 
ENDBRANCH   1   7
TORSDOF 1
ENDMDL
