MODEL 1
REMARK minimizedAffinity -6.01636457
REMARK minimizedRMSD -1
REMARK  2 active torsions:
REMARK  status: ('A' for Active; 'I' for Inactive)
REMARK    1  A    between atoms: C1_2  and  C2_3 
REMARK    2  A    between atoms: C2_3  and  C3_4 
ROOT
ATOM      1  C3  UNL d   1      -0.325  -0.336   0.245  0.00  0.00    -0.075 A 
ATOM      2  C4  UNL d   1       0.689   0.281   0.992  0.00  0.00     0.002 A 
ATOM      3  C5  UNL d   1       0.371   1.139   2.045  0.00  0.00     0.002 A 
ATOM      4  C6  UNL d   1      -0.962   1.399   2.357  0.00  0.00    -0.004 A 
ATOM      5  C7  UNL d   1      -1.977   0.805   1.611  0.00  0.00     0.002 A 
ATOM      6  C8  UNL d   1      -1.661  -0.058   0.560  0.00  0.00     0.002 A 
ENDROOT
BRANCH   1   7
ATOM      7  C2  UNL d   1       0.013  -1.290  -0.876  0.00  0.00     0.056 C 
BRANCH   7   8
ATOM      8  C1  UNL d   1       1.345  -0.988  -1.572  0.00  0.00     0.007 C 
ATOM      9  C   UNL d   1       1.174  -0.402  -2.967  0.00  0.00     0.009 C 
ENDBRANCH   7   8
ENDBRANCH   1   7
TORSDOF 2
ENDMDL
