MODEL 1
REMARK minimizedAffinity -2.72087193
REMARK minimizedRMSD -1
REMARK  2 active torsions:
REMARK  status: ('A' for Active; 'I' for Inactive)
REMARK    1  A    between atoms: C1_2  and  C2_3 
REMARK    2  A    between atoms: C2_3  and  C3_4 
ROOT
ATOM      1  C3  UNL d   1       0.609  -0.271  -1.101  0.00  0.00    -0.075 A 
ATOM      2  C4  UNL d   1       1.427  -1.007  -0.232  0.00  0.00     0.002 A 
ATOM      3  C5  UNL d   1       1.586  -0.610   1.096  0.00  0.00     0.002 A 
ATOM      4  C6  UNL d   1       0.939   0.529   1.568  0.00  0.00    -0.004 A 
ATOM      5  C7  UNL d   1       0.136   1.277   0.709  0.00  0.00     0.002 A 
ATOM      6  C8  UNL d   1      -0.028   0.880  -0.619  0.00  0.00     0.002 A 
ENDROOT
BRANCH   1   7
ATOM      7  C2  UNL d   1       0.409  -0.712  -2.532  0.00  0.00     0.056 C 
BRANCH   7   8
ATOM      8  C1  UNL d   1       0.514   0.425  -3.555  0.00  0.00     0.007 C 
ATOM      9  C   UNL d   1       1.896   1.061  -3.606  0.00  0.00     0.009 C 
ENDBRANCH   7   8
ENDBRANCH   1   7
TORSDOF 2
ENDMDL
