MODEL 1
REMARK minimizedAffinity -5.33290911
REMARK minimizedRMSD -1
REMARK  2 active torsions:
REMARK  status: ('A' for Active; 'I' for Inactive)
REMARK    1  A    between atoms: C1_2  and  C2_3 
REMARK    2  A    between atoms: C2_3  and  C3_4 
ROOT
ATOM      1  C3  UNL d   1       0.615   0.099  -1.139  0.00  0.00    -0.075 A 
ATOM      2  C4  UNL d   1       0.540   1.496  -1.048  0.00  0.00     0.002 A 
ATOM      3  C5  UNL d   1       0.370   2.118   0.189  0.00  0.00     0.002 A 
ATOM      4  C6  UNL d   1       0.262   1.352   1.348  0.00  0.00    -0.004 A 
ATOM      5  C7  UNL d   1       0.318  -0.038   1.268  0.00  0.00     0.002 A 
ATOM      6  C8  UNL d   1       0.493  -0.662   0.031  0.00  0.00     0.002 A 
ENDROOT
BRANCH   1   7
ATOM      7  C2  UNL d   1       0.828  -0.579  -2.471  0.00  0.00     0.056 C 
BRANCH   7   8
ATOM      8  C1  UNL d   1       1.792   0.165  -3.402  0.00  0.00     0.007 C 
ATOM      9  C   UNL d   1       1.122   0.690  -4.665  0.00  0.00     0.009 C 
ENDBRANCH   7   8
ENDBRANCH   1   7
TORSDOF 2
ENDMDL
