MODEL 1
REMARK minimizedAffinity -1.31465459
REMARK minimizedRMSD -1
REMARK  2 active torsions:
REMARK  status: ('A' for Active; 'I' for Inactive)
REMARK    1  A    between atoms: C1_2  and  C2_3 
REMARK    2  A    between atoms: C2_3  and  C3_4 
ROOT
ATOM      1  C3  UNL d   1       0.618   0.554   1.667  0.00  0.00    -0.075 A 
ATOM      2  C4  UNL d   1      -0.260   0.375   2.746  0.00  0.00     0.002 A 
ATOM      3  C5  UNL d   1      -1.512  -0.210   2.551  0.00  0.00     0.002 A 
ATOM      4  C6  UNL d   1      -1.905  -0.613   1.277  0.00  0.00    -0.004 A 
ATOM      5  C7  UNL d   1      -1.047  -0.425   0.195  0.00  0.00     0.002 A 
ATOM      6  C8  UNL d   1       0.208   0.156   0.388  0.00  0.00     0.002 A 
ENDROOT
BRANCH   1   7
ATOM      7  C2  UNL d   1       1.986   1.159   1.877  0.00  0.00     0.056 C 
BRANCH   7   8
ATOM      8  C1  UNL d   1       3.057   0.149   2.299  0.00  0.00     0.007 C 
ATOM      9  C   UNL d   1       2.839  -1.239   1.711  0.00  0.00     0.009 C 
ENDBRANCH   7   8
ENDBRANCH   1   7
TORSDOF 2
ENDMDL
