MODEL 1
REMARK minimizedAffinity -4.05091047
REMARK minimizedRMSD -1
REMARK  2 active torsions:
REMARK  status: ('A' for Active; 'I' for Inactive)
REMARK    1  A    between atoms: C1_2  and  C2_3 
REMARK    2  A    between atoms: C2_3  and  C3_4 
ROOT
ATOM      1  C3  UNL d   1       0.053  -0.155  -1.054  0.00  0.00    -0.075 A 
ATOM      2  C4  UNL d   1      -1.230   0.272  -0.681  0.00  0.00     0.002 A 
ATOM      3  C5  UNL d   1      -1.593   0.331   0.665  0.00  0.00     0.002 A 
ATOM      4  C6  UNL d   1      -0.684  -0.045   1.652  0.00  0.00    -0.004 A 
ATOM      5  C7  UNL d   1       0.587  -0.486   1.291  0.00  0.00     0.002 A 
ATOM      6  C8  UNL d   1       0.955  -0.542  -0.054  0.00  0.00     0.002 A 
ENDROOT
BRANCH   1   7
ATOM      7  C2  UNL d   1       0.462  -0.193  -2.508  0.00  0.00     0.056 C 
BRANCH   7   8
ATOM      8  C1  UNL d   1       1.686   0.668  -2.834  0.00  0.00     0.007 C 
ATOM      9  C   UNL d   1       2.911  -0.151  -3.220  0.00  0.00     0.009 C 
ENDBRANCH   7   8
ENDBRANCH   1   7
TORSDOF 2
ENDMDL
