MODEL 1
REMARK minimizedAffinity -5.76615191
REMARK minimizedRMSD -1
REMARK  2 active torsions:
REMARK  status: ('A' for Active; 'I' for Inactive)
REMARK    1  A    between atoms: C1_2  and  C2_3 
REMARK    2  A    between atoms: C2_3  and  C3_4 
ROOT
ATOM      1  C3  UNL d   1       0.083   0.053   0.063  0.00  0.00    -0.075 A 
ATOM      2  C4  UNL d   1       0.845   0.809   0.966  0.00  0.00     0.002 A 
ATOM      3  C5  UNL d   1       0.260   1.338   2.116  0.00  0.00     0.002 A 
ATOM      4  C6  UNL d   1      -1.093   1.127   2.374  0.00  0.00    -0.004 A 
ATOM      5  C7  UNL d   1      -1.863   0.391   1.476  0.00  0.00     0.002 A 
ATOM      6  C8  UNL d   1      -1.279  -0.143   0.326  0.00  0.00     0.002 A 
ENDROOT
BRANCH   1   7
ATOM      7  C2  UNL d   1       0.717  -0.547  -1.169  0.00  0.00     0.056 C 
BRANCH   7   8
ATOM      8  C1  UNL d   1       0.385   0.197  -2.467  0.00  0.00     0.007 C 
ATOM      9  C   UNL d   1       1.597   0.861  -3.105  0.00  0.00     0.009 C 
ENDBRANCH   7   8
ENDBRANCH   1   7
TORSDOF 2
ENDMDL
