MODEL 1
REMARK minimizedAffinity -5.49555016
REMARK minimizedRMSD -1
REMARK  2 active torsions:
REMARK  status: ('A' for Active; 'I' for Inactive)
REMARK    1  A    between atoms: C1_2  and  C2_3 
REMARK    2  A    between atoms: C2_3  and  C3_4 
ROOT
ATOM      1  C3  UNL d   1      -0.253   0.256   0.332  0.00  0.00    -0.075 A 
ATOM      2  C4  UNL d   1      -1.387  -0.215   1.011  0.00  0.00     0.002 A 
ATOM      3  C5  UNL d   1      -1.950   0.527   2.049  0.00  0.00     0.002 A 
ATOM      4  C6  UNL d   1      -1.383   1.741   2.429  0.00  0.00    -0.004 A 
ATOM      5  C7  UNL d   1      -0.247   2.210   1.774  0.00  0.00     0.002 A 
ATOM      6  C8  UNL d   1       0.316   1.472   0.731  0.00  0.00     0.002 A 
ENDROOT
BRANCH   1   7
ATOM      7  C2  UNL d   1       0.343  -0.528  -0.812  0.00  0.00     0.056 C 
BRANCH   7   8
ATOM      8  C1  UNL d   1       0.710   0.327  -2.030  0.00  0.00     0.007 C 
ATOM      9  C   UNL d   1       0.301  -0.306  -3.353  0.00  0.00     0.009 C 
ENDBRANCH   7   8
ENDBRANCH   1   7
TORSDOF 2
ENDMDL
