MODEL 1
REMARK minimizedAffinity -4.42718792
REMARK minimizedRMSD -1
REMARK  0 active torsions:
REMARK  status: ('A' for Active; 'I' for Inactive)
ROOT
ATOM      1  C1  BNZ d   1      -1.269  -0.732   1.807  0.00  0.00     0.000 A 
ATOM      2  C2  BNZ d   1      -0.963  -0.582   0.480  0.00  0.00     0.000 A 
ATOM      3  C3  BNZ d   1       0.225  -0.027   0.095  0.00  0.00     0.000 A 
ATOM      4  C4  BNZ d   1       1.086   0.414   1.034  0.00  0.00     0.000 A 
ATOM      5  C5  BNZ d   1       0.788   0.278   2.375  0.00  0.00     0.000 A 
ATOM      6  C6  BNZ d   1      -0.391  -0.317   2.760  0.00  0.00     0.000 A 
ENDROOT
TORSDOF 0
ENDMDL
