MODEL 1
REMARK minimizedAffinity -1.90712118
REMARK minimizedRMSD -1
REMARK  0 active torsions:
REMARK  status: ('A' for Active; 'I' for Inactive)
ROOT
ATOM      1  C1  BNZ d   1       0.972   0.203   0.369  0.00  0.00     0.000 A 
ATOM      2  C2  BNZ d   1       0.418  -0.112   1.582  0.00  0.00     0.000 A 
ATOM      3  C3  BNZ d   1      -0.866  -0.572   1.666  0.00  0.00     0.000 A 
ATOM      4  C4  BNZ d   1      -1.607  -0.679   0.544  0.00  0.00     0.000 A 
ATOM      5  C5  BNZ d   1      -1.066  -0.357  -0.685  0.00  0.00     0.000 A 
ATOM      6  C6  BNZ d   1       0.240   0.069  -0.770  0.00  0.00     0.000 A 
ENDROOT
TORSDOF 0
ENDMDL
