MODEL 1
REMARK minimizedAffinity -4.37517738
REMARK minimizedRMSD -1
REMARK  0 active torsions:
REMARK  status: ('A' for Active; 'I' for Inactive)
ROOT
ATOM      1  C1  BNZ d   1       1.152   0.205   0.297  0.00  0.00     0.000 A 
ATOM      2  C2  BNZ d   1       1.053  -0.064   1.636  0.00  0.00     0.000 A 
ATOM      3  C3  BNZ d   1      -0.100  -0.577   2.163  0.00  0.00     0.000 A 
ATOM      4  C4  BNZ d   1      -1.163  -0.782   1.359  0.00  0.00     0.000 A 
ATOM      5  C5  BNZ d   1      -1.081  -0.507   0.008  0.00  0.00     0.000 A 
ATOM      6  C6  BNZ d   1       0.093  -0.027  -0.525  0.00  0.00     0.000 A 
ENDROOT
TORSDOF 0
ENDMDL
