MODEL 1
REMARK minimizedAffinity -3.91797161
REMARK minimizedRMSD -1
REMARK  0 active torsions:
REMARK  status: ('A' for Active; 'I' for Inactive)
ROOT
ATOM      1  C1  BNZ d   1      -0.354  -0.715   1.665  0.00  0.00     0.000 A 
ATOM      2  C2  BNZ d   1       0.271  -0.601   0.452  0.00  0.00     0.000 A 
ATOM      3  C3  BNZ d   1      -0.386  -0.080  -0.628  0.00  0.00     0.000 A 
ATOM      4  C4  BNZ d   1      -1.677   0.288  -0.504  0.00  0.00     0.000 A 
ATOM      5  C5  BNZ d   1      -2.324   0.171   0.710  0.00  0.00     0.000 A 
ATOM      6  C6  BNZ d   1      -1.648  -0.317   1.804  0.00  0.00     0.000 A 
ENDROOT
TORSDOF 0
ENDMDL
