MODEL 1
REMARK minimizedAffinity -4.4113965
REMARK minimizedRMSD -1
REMARK  0 active torsions:
REMARK  status: ('A' for Active; 'I' for Inactive)
ROOT
ATOM      1  C1  BNZ d   1       0.779   0.083   1.523  0.00  0.00     0.000 A 
ATOM      2  C2  BNZ d   1       0.220  -0.137   2.754  0.00  0.00     0.000 A 
ATOM      3  C3  BNZ d   1      -1.095  -0.489   2.874  0.00  0.00     0.000 A 
ATOM      4  C4  BNZ d   1      -1.859  -0.583   1.766  0.00  0.00     0.000 A 
ATOM      5  C5  BNZ d   1      -1.314  -0.355   0.519  0.00  0.00     0.000 A 
ATOM      6  C6  BNZ d   1       0.020  -0.038   0.400  0.00  0.00     0.000 A 
ENDROOT
TORSDOF 0
ENDMDL
