MODEL 1
REMARK minimizedAffinity -4.01435328
REMARK minimizedRMSD -1
REMARK  0 active torsions:
REMARK  status: ('A' for Active; 'I' for Inactive)
ROOT
ATOM      1  C1  BNZ d   1      -0.771  -0.606   0.412  0.00  0.00     0.000 A 
ATOM      2  C2  BNZ d   1      -0.910  -0.973   1.723  0.00  0.00     0.000 A 
ATOM      3  C3  BNZ d   1       0.050  -0.659   2.644  0.00  0.00     0.000 A 
ATOM      4  C4  BNZ d   1       1.165  -0.014   2.245  0.00  0.00     0.000 A 
ATOM      5  C5  BNZ d   1       1.324   0.355   0.924  0.00  0.00     0.000 A 
ATOM      6  C6  BNZ d   1       0.338   0.071   0.008  0.00  0.00     0.000 A 
ENDROOT
TORSDOF 0
ENDMDL
