MODEL 1
REMARK minimizedAffinity -5.19411898
REMARK minimizedRMSD -1
REMARK  0 active torsions:
REMARK  status: ('A' for Active; 'I' for Inactive)
ROOT
ATOM      1  C1  BNZ d   1      -0.091  -0.231   1.786  0.00  0.00     0.000 A 
ATOM      2  C2  BNZ d   1      -0.175  -0.078   3.144  0.00  0.00     0.000 A 
ATOM      3  C3  BNZ d   1      -1.389  -0.039   3.770  0.00  0.00     0.000 A 
ATOM      4  C4  BNZ d   1      -2.517  -0.112   3.035  0.00  0.00     0.000 A 
ATOM      5  C5  BNZ d   1      -2.449  -0.257   1.663  0.00  0.00     0.000 A 
ATOM      6  C6  BNZ d   1      -1.225  -0.335   1.040  0.00  0.00     0.000 A 
ENDROOT
TORSDOF 0
ENDMDL
