MODEL 1
REMARK minimizedAffinity -3.94522142
REMARK minimizedRMSD -1
REMARK  0 active torsions:
REMARK  status: ('A' for Active; 'I' for Inactive)
ROOT
ATOM      1  C1  BNZ d   1       0.113   0.762   2.285  0.00  0.00     0.000 A 
ATOM      2  C2  BNZ d   1       0.638   0.967   1.036  0.00  0.00     0.000 A 
ATOM      3  C3  BNZ d   1       0.134   0.309  -0.051  0.00  0.00     0.000 A 
ATOM      4  C4  BNZ d   1      -0.866  -0.581   0.117  0.00  0.00     0.000 A 
ATOM      5  C5  BNZ d   1      -1.399  -0.804   1.371  0.00  0.00     0.000 A 
ATOM      6  C6  BNZ d   1      -0.915  -0.112   2.457  0.00  0.00     0.000 A 
ENDROOT
TORSDOF 0
ENDMDL
