MODEL 1
REMARK minimizedAffinity -5.55169058
REMARK minimizedRMSD -1
REMARK  0 active torsions:
REMARK  status: ('A' for Active; 'I' for Inactive)
ROOT
ATOM      1  C1  BNZ d   1      -2.532   0.114   0.855  0.00  0.00     0.000 A 
ATOM      2  C2  BNZ d   1      -1.257  -0.383   0.791  0.00  0.00     0.000 A 
ATOM      3  C3  BNZ d   1      -0.503  -0.522   1.922  0.00  0.00     0.000 A 
ATOM      4  C4  BNZ d   1      -1.008  -0.127   3.109  0.00  0.00     0.000 A 
ATOM      5  C5  BNZ d   1      -2.288   0.384   3.188  0.00  0.00     0.000 A 
ATOM      6  C6  BNZ d   1      -3.059   0.486   2.053  0.00  0.00     0.000 A 
ENDROOT
TORSDOF 0
ENDMDL
