MODEL 1
REMARK minimizedAffinity -4.04570675
REMARK minimizedRMSD -1
REMARK  0 active torsions:
REMARK  status: ('A' for Active; 'I' for Inactive)
ROOT
ATOM      1  C1  BNZ d   1       0.369   0.425  -0.473  0.00  0.00     0.000 A 
ATOM      2  C2  BNZ d   1       0.899   0.215   0.773  0.00  0.00     0.000 A 
ATOM      3  C3  BNZ d   1       0.094  -0.093   1.833  0.00  0.00     0.000 A 
ATOM      4  C4  BNZ d   1      -1.242  -0.151   1.657  0.00  0.00     0.000 A 
ATOM      5  C5  BNZ d   1      -1.792   0.067   0.410  0.00  0.00     0.000 A 
ATOM      6  C6  BNZ d   1      -0.975   0.338  -0.664  0.00  0.00     0.000 A 
ENDROOT
TORSDOF 0
ENDMDL
