MODEL 1
REMARK minimizedAffinity -4.67530537
REMARK minimizedRMSD -1
REMARK  0 active torsions:
REMARK  status: ('A' for Active; 'I' for Inactive)
ROOT
ATOM      1  C1  BNZ d   1      -1.561  -0.611   1.607  0.00  0.00     0.000 A 
ATOM      2  C2  BNZ d   1      -1.247   0.092   0.474  0.00  0.00     0.000 A 
ATOM      3  C3  BNZ d   1       0.008   0.601   0.292  0.00  0.00     0.000 A 
ATOM      4  C4  BNZ d   1       0.935   0.441   1.258  0.00  0.00     0.000 A 
ATOM      5  C5  BNZ d   1       0.632  -0.258   2.409  0.00  0.00     0.000 A 
ATOM      6  C6  BNZ d   1      -0.621  -0.802   2.572  0.00  0.00     0.000 A 
ENDROOT
TORSDOF 0
ENDMDL
