MODEL 1
REMARK minimizedAffinity -4.18247843
REMARK minimizedRMSD -1
REMARK  0 active torsions:
REMARK  status: ('A' for Active; 'I' for Inactive)
ROOT
ATOM      1  C1  BNZ d   1      -1.279   1.072  -1.069  0.00  0.00     0.000 A 
ATOM      2  C2  BNZ d   1      -1.988   0.696   0.041  0.00  0.00     0.000 A 
ATOM      3  C3  BNZ d   1      -1.495  -0.244   0.901  0.00  0.00     0.000 A 
ATOM      4  C4  BNZ d   1      -0.313  -0.836   0.631  0.00  0.00     0.000 A 
ATOM      5  C5  BNZ d   1       0.410  -0.474  -0.488  0.00  0.00     0.000 A 
ATOM      6  C6  BNZ d   1      -0.072   0.501  -1.332  0.00  0.00     0.000 A 
ENDROOT
TORSDOF 0
ENDMDL
