MODEL 1
REMARK minimizedAffinity -2.32894373
REMARK minimizedRMSD -1
REMARK  0 active torsions:
REMARK  status: ('A' for Active; 'I' for Inactive)
ROOT
ATOM      1  C1  BNZ d   1      -1.283  -0.073  -0.208  0.00  0.00     0.000 A 
ATOM      2  C2  BNZ d   1      -1.225  -0.560   1.070  0.00  0.00     0.000 A 
ATOM      3  C3  BNZ d   1      -0.086  -0.437   1.816  0.00  0.00     0.000 A 
ATOM      4  C4  BNZ d   1       1.005   0.137   1.269  0.00  0.00     0.000 A 
ATOM      5  C5  BNZ d   1       0.965   0.625  -0.022  0.00  0.00     0.000 A 
ATOM      6  C6  BNZ d   1      -0.195   0.534  -0.756  0.00  0.00     0.000 A 
ENDROOT
TORSDOF 0
ENDMDL
