MODEL 1
REMARK minimizedAffinity -2.85028338
REMARK minimizedRMSD -1
REMARK  0 active torsions:
REMARK  status: ('A' for Active; 'I' for Inactive)
ROOT
ATOM      1  C1  BNZ d   1       0.045   0.402  -0.133  0.00  0.00     0.000 A 
ATOM      2  C2  BNZ d   1      -1.207   0.337  -0.684  0.00  0.00     0.000 A 
ATOM      3  C3  BNZ d   1      -2.269  -0.125   0.044  0.00  0.00     0.000 A 
ATOM      4  C4  BNZ d   1      -2.069  -0.557   1.306  0.00  0.00     0.000 A 
ATOM      5  C5  BNZ d   1      -0.811  -0.507   1.872  0.00  0.00     0.000 A 
ATOM      6  C6  BNZ d   1       0.247  -0.005   1.149  0.00  0.00     0.000 A 
ENDROOT
TORSDOF 0
ENDMDL
