MODEL 1
REMARK minimizedAffinity -3.41377616
REMARK minimizedRMSD -1
REMARK  0 active torsions:
REMARK  status: ('A' for Active; 'I' for Inactive)
ROOT
ATOM      1  C1  BNZ d   1      -0.579   0.240  -0.677  0.00  0.00     0.000 A 
ATOM      2  C2  BNZ d   1       0.771   0.460  -0.604  0.00  0.00     0.000 A 
ATOM      3  C3  BNZ d   1       1.431   0.367   0.589  0.00  0.00     0.000 A 
ATOM      4  C4  BNZ d   1       0.736   0.096   1.712  0.00  0.00     0.000 A 
ATOM      5  C5  BNZ d   1      -0.626  -0.119   1.657  0.00  0.00     0.000 A 
ATOM      6  C6  BNZ d   1      -1.282  -0.063   0.448  0.00  0.00     0.000 A 
ENDROOT
TORSDOF 0
ENDMDL
