MODEL 1
REMARK minimizedAffinity 4.82829285
REMARK minimizedRMSD -1
REMARK  3 active torsions:
REMARK  status: ('A' for Active; 'I' for Inactive)
REMARK    1  A    between atoms: C3'_2  and  C2'_3 
REMARK    2  A    between atoms: C2'_3  and  C1'_4 
REMARK    3  A    between atoms: C1'_4  and  C1_5 
ROOT
ATOM      1  C1  N4B d   1      -3.758  -4.584   1.265  0.00  0.00    -0.075 A 
ATOM      2  C2  N4B d   1      -4.111  -4.497   2.630  0.00  0.00     0.002 A 
ATOM      3  C3  N4B d   1      -5.220  -5.160   3.095  0.00  0.00     0.002 A 
ATOM      4  C4  N4B d   1      -5.998  -5.897   2.216  0.00  0.00    -0.004 A 
ATOM      5  C5  N4B d   1      -5.636  -5.997   0.904  0.00  0.00     0.002 A 
ATOM      6  C6  N4B d   1      -4.522  -5.340   0.423  0.00  0.00     0.002 A 
ENDROOT
BRANCH   1   7
ATOM      7  C1' N4B d   1      -2.604  -3.808   0.692  0.00  0.00     0.057 C 
BRANCH   7   8
ATOM      8  C2' N4B d   1      -1.465  -3.782   1.708  0.00  0.00     0.009 C 
BRANCH   8   9
ATOM      9  C3' N4B d   1      -0.227  -3.096   1.156  0.00  0.00     0.004 C 
ATOM     10  C4' N4B d   1       0.724  -4.052   0.500  0.00  0.00     0.003 C 
ENDBRANCH   8   9
ENDBRANCH   7   8
ENDBRANCH   1   7
TORSDOF 3
ENDMDL
