MODEL 1
REMARK minimizedAffinity 5.19637728
REMARK minimizedRMSD -1
REMARK  3 active torsions:
REMARK  status: ('A' for Active; 'I' for Inactive)
REMARK    1  A    between atoms: C3'_2  and  C2'_3 
REMARK    2  A    between atoms: C2'_3  and  C1'_4 
REMARK    3  A    between atoms: C1'_4  and  C1_5 
ROOT
ATOM      1  C1  N4B d   1      -3.812  -5.809  -1.875  0.00  0.00    -0.075 A 
ATOM      2  C2  N4B d   1      -5.195  -5.562  -2.016  0.00  0.00     0.002 A 
ATOM      3  C3  N4B d   1      -5.994  -5.478  -0.902  0.00  0.00     0.002 A 
ATOM      4  C4  N4B d   1      -5.438  -5.656   0.356  0.00  0.00    -0.004 A 
ATOM      5  C5  N4B d   1      -4.097  -5.868   0.485  0.00  0.00     0.002 A 
ATOM      6  C6  N4B d   1      -3.281  -5.951  -0.626  0.00  0.00     0.002 A 
ENDROOT
BRANCH   1   7
ATOM      7  C1' N4B d   1      -2.913  -5.994  -3.067  0.00  0.00     0.057 C 
BRANCH   7   8
ATOM      8  C2' N4B d   1      -1.459  -5.861  -2.624  0.00  0.00     0.009 C 
BRANCH   8   9
ATOM      9  C3' N4B d   1      -0.498  -5.938  -3.798  0.00  0.00     0.004 C 
ATOM     10  C4' N4B d   1      -1.199  -5.944  -5.123  0.00  0.00     0.003 C 
ENDBRANCH   8   9
ENDBRANCH   7   8
ENDBRANCH   1   7
TORSDOF 3
ENDMDL
