MODEL 1
REMARK minimizedAffinity 0.669904947
REMARK minimizedRMSD -1
REMARK  3 active torsions:
REMARK  status: ('A' for Active; 'I' for Inactive)
REMARK    1  A    between atoms: C3'_2  and  C2'_3 
REMARK    2  A    between atoms: C2'_3  and  C1'_4 
REMARK    3  A    between atoms: C1'_4  and  C1_5 
ROOT
ATOM      1  C1  N4B d   1       0.272  -6.000  -3.156  0.00  0.00    -0.075 A 
ATOM      2  C2  N4B d   1      -0.995  -6.000  -3.780  0.00  0.00     0.002 A 
ATOM      3  C3  N4B d   1      -1.086  -5.935  -5.148  0.00  0.00     0.002 A 
ATOM      4  C4  N4B d   1       0.071  -5.850  -5.910  0.00  0.00    -0.004 A 
ATOM      5  C5  N4B d   1       1.291  -5.877  -5.300  0.00  0.00     0.002 A 
ATOM      6  C6  N4B d   1       1.398  -5.946  -3.926  0.00  0.00     0.002 A 
ENDROOT
BRANCH   1   7
ATOM      7  C1' N4B d   1       0.420  -5.983  -1.659  0.00  0.00     0.057 C 
BRANCH   7   8
ATOM      8  C2' N4B d   1      -0.256  -4.733  -1.103  0.00  0.00     0.009 C 
BRANCH   8   9
ATOM      9  C3' N4B d   1       0.573  -4.076  -0.013  0.00  0.00     0.004 C 
ATOM     10  C4' N4B d   1      -0.186  -3.024   0.740  0.00  0.00     0.003 C 
ENDBRANCH   8   9
ENDBRANCH   7   8
ENDBRANCH   1   7
TORSDOF 3
ENDMDL
