MODEL 1
REMARK minimizedAffinity 8.86132145
REMARK minimizedRMSD -1
REMARK  3 active torsions:
REMARK  status: ('A' for Active; 'I' for Inactive)
REMARK    1  A    between atoms: C3'_2  and  C2'_3 
REMARK    2  A    between atoms: C2'_3  and  C1'_4 
REMARK    3  A    between atoms: C1'_4  and  C1_5 
ROOT
ATOM      1  C1  N4B d   1       1.481  -0.688   0.959  0.00  0.00    -0.075 A 
ATOM      2  C2  N4B d   1       0.499   0.250   0.571  0.00  0.00     0.002 A 
ATOM      3  C3  N4B d   1      -0.740  -0.181   0.165  0.00  0.00     0.002 A 
ATOM      4  C4  N4B d   1      -1.013  -1.540   0.121  0.00  0.00    -0.004 A 
ATOM      5  C5  N4B d   1      -0.068  -2.438   0.521  0.00  0.00     0.002 A 
ATOM      6  C6  N4B d   1       1.181  -2.019   0.936  0.00  0.00     0.002 A 
ENDROOT
BRANCH   1   7
ATOM      7  C1' N4B d   1       2.878  -0.269   1.328  0.00  0.00     0.057 C 
BRANCH   7   8
ATOM      8  C2' N4B d   1       3.866  -0.912   0.359  0.00  0.00     0.009 C 
BRANCH   8   9
ATOM      9  C3' N4B d   1       4.366   0.076  -0.680  0.00  0.00     0.004 C 
ATOM     10  C4' N4B d   1       4.869  -0.594  -1.924  0.00  0.00     0.003 C 
ENDBRANCH   8   9
ENDBRANCH   7   8
ENDBRANCH   1   7
TORSDOF 3
ENDMDL
