MODEL 1
REMARK minimizedAffinity 10.5673876
REMARK minimizedRMSD -1
REMARK  3 active torsions:
REMARK  status: ('A' for Active; 'I' for Inactive)
REMARK    1  A    between atoms: C3'_2  and  C2'_3 
REMARK    2  A    between atoms: C2'_3  and  C1'_4 
REMARK    3  A    between atoms: C1'_4  and  C1_5 
ROOT
ATOM      1  C1  N4B d   1      -1.990   0.824  -2.351  0.00  0.00    -0.075 A 
ATOM      2  C2  N4B d   1      -2.686  -0.257  -1.768  0.00  0.00     0.002 A 
ATOM      3  C3  N4B d   1      -4.057  -0.305  -1.832  0.00  0.00     0.002 A 
ATOM      4  C4  N4B d   1      -4.751   0.722  -2.454  0.00  0.00    -0.004 A 
ATOM      5  C5  N4B d   1      -4.069   1.750  -3.037  0.00  0.00     0.002 A 
ATOM      6  C6  N4B d   1      -2.691   1.809  -2.984  0.00  0.00     0.002 A 
ENDROOT
BRANCH   1   7
ATOM      7  C1' N4B d   1      -0.497   0.964  -2.232  0.00  0.00     0.057 C 
BRANCH   7   8
ATOM      8  C2' N4B d   1       0.036  -0.126  -1.306  0.00  0.00     0.009 C 
BRANCH   8   9
ATOM      9  C3' N4B d   1       0.605   0.449  -0.020  0.00  0.00     0.004 C 
ATOM     10  C4' N4B d   1       1.407  -0.551   0.758  0.00  0.00     0.003 C 
ENDBRANCH   8   9
ENDBRANCH   7   8
ENDBRANCH   1   7
TORSDOF 3
ENDMDL
