MODEL 1
REMARK minimizedAffinity 7.01257277
REMARK minimizedRMSD -1
REMARK  3 active torsions:
REMARK  status: ('A' for Active; 'I' for Inactive)
REMARK    1  A    between atoms: C3'_2  and  C2'_3 
REMARK    2  A    between atoms: C2'_3  and  C1'_4 
REMARK    3  A    between atoms: C1'_4  and  C1_5 
ROOT
ATOM      1  C1  N4B d   1      -3.494  -4.021   1.014  0.00  0.00    -0.075 A 
ATOM      2  C2  N4B d   1      -3.976  -4.910   0.029  0.00  0.00     0.002 A 
ATOM      3  C3  N4B d   1      -4.884  -5.884   0.367  0.00  0.00     0.002 A 
ATOM      4  C4  N4B d   1      -5.308  -5.998   1.682  0.00  0.00    -0.004 A 
ATOM      5  C5  N4B d   1      -4.857  -5.120   2.623  0.00  0.00     0.002 A 
ATOM      6  C6  N4B d   1      -3.948  -4.134   2.297  0.00  0.00     0.002 A 
ENDROOT
BRANCH   1   7
ATOM      7  C1' N4B d   1      -2.436  -2.996   0.710  0.00  0.00     0.057 C 
BRANCH   7   8
ATOM      8  C2' N4B d   1      -1.166  -3.343   1.482  0.00  0.00     0.009 C 
BRANCH   8   9
ATOM      9  C3' N4B d   1       0.088  -3.003   0.695  0.00  0.00     0.004 C 
ATOM     10  C4' N4B d   1       0.510  -1.574   0.865  0.00  0.00     0.003 C 
ENDBRANCH   8   9
ENDBRANCH   7   8
ENDBRANCH   1   7
TORSDOF 3
ENDMDL
