MODEL 1
REMARK minimizedAffinity 4.12984085
REMARK minimizedRMSD -1
REMARK  3 active torsions:
REMARK  status: ('A' for Active; 'I' for Inactive)
REMARK    1  A    between atoms: C3'_2  and  C2'_3 
REMARK    2  A    between atoms: C2'_3  and  C1'_4 
REMARK    3  A    between atoms: C1'_4  and  C1_5 
ROOT
ATOM      1  C1  N4B d   1       1.518   0.937   0.094  0.00  0.00    -0.075 A 
ATOM      2  C2  N4B d   1       2.841   0.665  -0.317  0.00  0.00     0.002 A 
ATOM      3  C3  N4B d   1       3.736   1.695  -0.476  0.00  0.00     0.002 A 
ATOM      4  C4  N4B d   1       3.327   3.000  -0.248  0.00  0.00    -0.004 A 
ATOM      5  C5  N4B d   1       2.054   3.252   0.174  0.00  0.00     0.002 A 
ATOM      6  C6  N4B d   1       1.145   2.227   0.341  0.00  0.00     0.002 A 
ENDROOT
BRANCH   1   7
ATOM      7  C1' N4B d   1       0.480  -0.147   0.199  0.00  0.00     0.057 C 
BRANCH   7   8
ATOM      8  C2' N4B d   1       0.818  -1.052   1.380  0.00  0.00     0.009 C 
BRANCH   8   9
ATOM      9  C3' N4B d   1       0.166  -2.418   1.254  0.00  0.00     0.004 C 
ATOM     10  C4' N4B d   1      -1.265  -2.340   0.813  0.00  0.00     0.003 C 
ENDBRANCH   8   9
ENDBRANCH   7   8
ENDBRANCH   1   7
TORSDOF 3
ENDMDL
