MODEL 1
REMARK minimizedAffinity 1.54287958
REMARK minimizedRMSD -1
REMARK  3 active torsions:
REMARK  status: ('A' for Active; 'I' for Inactive)
REMARK    1  A    between atoms: C3'_2  and  C2'_3 
REMARK    2  A    between atoms: C2'_3  and  C1'_4 
REMARK    3  A    between atoms: C1'_4  and  C1_5 
ROOT
ATOM      1  C1  N4B d   1      -0.475  -5.998  -3.412  0.00  0.00    -0.075 A 
ATOM      2  C2  N4B d   1      -1.311  -5.996  -4.550  0.00  0.00     0.002 A 
ATOM      3  C3  N4B d   1      -0.762  -5.918  -5.806  0.00  0.00     0.002 A 
ATOM      4  C4  N4B d   1       0.615  -5.824  -5.948  0.00  0.00    -0.004 A 
ATOM      5  C5  N4B d   1       1.417  -5.852  -4.845  0.00  0.00     0.002 A 
ATOM      6  C6  N4B d   1       0.878  -5.934  -3.577  0.00  0.00     0.002 A 
ENDROOT
BRANCH   1   7
ATOM      7  C1' N4B d   1      -1.034  -5.994  -2.016  0.00  0.00     0.057 C 
BRANCH   7   8
ATOM      8  C2' N4B d   1      -2.293  -5.133  -1.983  0.00  0.00     0.009 C 
BRANCH   8   9
ATOM      9  C3' N4B d   1      -3.506  -5.918  -1.513  0.00  0.00     0.004 C 
ATOM     10  C4' N4B d   1      -4.584  -5.999  -2.552  0.00  0.00     0.003 C 
ENDBRANCH   8   9
ENDBRANCH   7   8
ENDBRANCH   1   7
TORSDOF 3
ENDMDL
