MODEL 1
REMARK minimizedAffinity -3.36792469
REMARK minimizedRMSD -1
REMARK  3 active torsions:
REMARK  status: ('A' for Active; 'I' for Inactive)
REMARK    1  A    between atoms: C3'_2  and  C2'_3 
REMARK    2  A    between atoms: C2'_3  and  C1'_4 
REMARK    3  A    between atoms: C1'_4  and  C1_5 
ROOT
ATOM      1  C1  N4B d   1      -1.022  -5.815  -4.531  0.00  0.00    -0.075 A 
ATOM      2  C2  N4B d   1      -0.142  -5.473  -5.580  0.00  0.00     0.002 A 
ATOM      3  C3  N4B d   1       1.185  -5.240  -5.315  0.00  0.00     0.002 A 
ATOM      4  C4  N4B d   1       1.649  -5.324  -4.010  0.00  0.00    -0.004 A 
ATOM      5  C5  N4B d   1       0.797  -5.680  -3.006  0.00  0.00     0.002 A 
ATOM      6  C6  N4B d   1      -0.538  -5.921  -3.259  0.00  0.00     0.002 A 
ENDROOT
BRANCH   1   7
ATOM      7  C1' N4B d   1      -2.498  -5.996  -4.759  0.00  0.00     0.057 C 
BRANCH   7   8
ATOM      8  C2' N4B d   1      -3.268  -5.145  -3.753  0.00  0.00     0.009 C 
BRANCH   8   9
ATOM      9  C3' N4B d   1      -4.139  -5.993  -2.841  0.00  0.00     0.004 C 
ATOM     10  C4' N4B d   1      -3.658  -5.999  -1.420  0.00  0.00     0.003 C 
ENDBRANCH   8   9
ENDBRANCH   7   8
ENDBRANCH   1   7
TORSDOF 3
ENDMDL
