MODEL 1
REMARK minimizedAffinity -0.0117635932
REMARK minimizedRMSD -1
REMARK  3 active torsions:
REMARK  status: ('A' for Active; 'I' for Inactive)
REMARK    1  A    between atoms: C3'_2  and  C2'_3 
REMARK    2  A    between atoms: C2'_3  and  C1'_4 
REMARK    3  A    between atoms: C1'_4  and  C1_5 
ROOT
ATOM      1  C1  N4B d   1       1.620  -0.048   0.144  0.00  0.00    -0.075 A 
ATOM      2  C2  N4B d   1       1.029  -0.743  -0.934  0.00  0.00     0.002 A 
ATOM      3  C3  N4B d   1       0.121  -1.745  -0.691  0.00  0.00     0.002 A 
ATOM      4  C4  N4B d   1      -0.195  -2.081   0.617  0.00  0.00    -0.004 A 
ATOM      5  C5  N4B d   1       0.361  -1.388   1.652  0.00  0.00     0.002 A 
ATOM      6  C6  N4B d   1       1.271  -0.376   1.423  0.00  0.00     0.002 A 
ENDROOT
BRANCH   1   7
ATOM      7  C1' N4B d   1       2.681   0.996  -0.070  0.00  0.00     0.057 C 
BRANCH   7   8
ATOM      8  C2' N4B d   1       4.042   0.314  -0.172  0.00  0.00     0.009 C 
BRANCH   8   9
ATOM      9  C3' N4B d   1       4.358  -0.510   1.064  0.00  0.00     0.004 C 
ATOM     10  C4' N4B d   1       5.568  -0.014   1.799  0.00  0.00     0.003 C 
ENDBRANCH   8   9
ENDBRANCH   7   8
ENDBRANCH   1   7
TORSDOF 3
ENDMDL
