MODEL 1
REMARK minimizedAffinity 8.26945782
REMARK minimizedRMSD -1
REMARK  3 active torsions:
REMARK  status: ('A' for Active; 'I' for Inactive)
REMARK    1  A    between atoms: C3'_2  and  C2'_3 
REMARK    2  A    between atoms: C2'_3  and  C1'_4 
REMARK    3  A    between atoms: C1'_4  and  C1_5 
ROOT
ATOM      1  C1  N4B d   1       1.789  -1.005   0.538  0.00  0.00    -0.075 A 
ATOM      2  C2  N4B d   1       0.439  -0.596   0.473  0.00  0.00     0.002 A 
ATOM      3  C3  N4B d   1      -0.566  -1.525   0.587  0.00  0.00     0.002 A 
ATOM      4  C4  N4B d   1      -0.246  -2.866   0.746  0.00  0.00    -0.004 A 
ATOM      5  C5  N4B d   1       1.060  -3.249   0.832  0.00  0.00     0.002 A 
ATOM      6  C6  N4B d   1       2.081  -2.326   0.724  0.00  0.00     0.002 A 
ENDROOT
BRANCH   1   7
ATOM      7  C1' N4B d   1       2.923  -0.038   0.332  0.00  0.00     0.057 C 
BRANCH   7   8
ATOM      8  C2' N4B d   1       4.190  -0.611   0.959  0.00  0.00     0.009 C 
BRANCH   8   9
ATOM      9  C3' N4B d   1       4.415  -0.089   2.367  0.00  0.00     0.004 C 
ATOM     10  C4' N4B d   1       5.852  -0.155   2.789  0.00  0.00     0.003 C 
ENDBRANCH   8   9
ENDBRANCH   7   8
ENDBRANCH   1   7
TORSDOF 3
ENDMDL
