MODEL 1
REMARK minimizedAffinity 6.78240013
REMARK minimizedRMSD -1
REMARK  3 active torsions:
REMARK  status: ('A' for Active; 'I' for Inactive)
REMARK    1  A    between atoms: C3'_2  and  C2'_3 
REMARK    2  A    between atoms: C2'_3  and  C1'_4 
REMARK    3  A    between atoms: C1'_4  and  C1_5 
ROOT
ATOM      1  C1  N4B d   1       3.052   0.235   0.203  0.00  0.00    -0.075 A 
ATOM      2  C2  N4B d   1       1.723   0.634  -0.060  0.00  0.00     0.002 A 
ATOM      3  C3  N4B d   1       0.675  -0.064   0.488  0.00  0.00     0.002 A 
ATOM      4  C4  N4B d   1       0.930  -1.171   1.284  0.00  0.00    -0.004 A 
ATOM      5  C5  N4B d   1       2.216  -1.535   1.554  0.00  0.00     0.002 A 
ATOM      6  C6  N4B d   1       3.280  -0.840   1.013  0.00  0.00     0.002 A 
ENDROOT
BRANCH   1   7
ATOM      7  C1' N4B d   1       4.228   0.914  -0.443  0.00  0.00     0.057 C 
BRANCH   7   8
ATOM      8  C2' N4B d   1       4.200   2.400  -0.097  0.00  0.00     0.009 C 
BRANCH   8   9
ATOM      9  C3' N4B d   1       5.117   3.210  -0.997  0.00  0.00     0.004 C 
ATOM     10  C4' N4B d   1       5.978   4.172  -0.234  0.00  0.00     0.003 C 
ENDBRANCH   8   9
ENDBRANCH   7   8
ENDBRANCH   1   7
TORSDOF 3
ENDMDL
