MODEL 1
REMARK minimizedAffinity 3.85874605
REMARK minimizedRMSD -1
REMARK  0 active torsions:
REMARK  status: ('A' for Active; 'I' for Inactive)
ROOT
ATOM      1  C   UNL d   1       2.992  -1.063  -3.621  0.00  0.00     0.020 A 
ATOM      2  C1  UNL d   1       2.496  -2.273  -3.139  0.00  0.00     0.020 A 
ATOM      3  C2  UNL d   1       3.082  -3.476  -3.538  0.00  0.00     0.034 A 
ATOM      4  C3  UNL d   1       4.167  -3.472  -4.422  0.00  0.00     0.017 A 
ATOM      5  C4  UNL d   1       4.664  -2.257  -4.906  0.00  0.00     0.017 A 
ATOM      6  C5  UNL d   1       4.074  -1.055  -4.503  0.00  0.00     0.034 A 
ATOM      7 Cl   UNL d   1       6.000  -2.171  -6.000  0.00  0.00    -0.070 Cl
ATOM      8 Cl1  UNL d   1       4.842  -4.997  -4.873  0.00  0.00    -0.070 Cl
ENDROOT
TORSDOF 0
ENDMDL
