MODEL 1
REMARK minimizedAffinity 10.1314764
REMARK minimizedRMSD -1
REMARK  0 active torsions:
REMARK  status: ('A' for Active; 'I' for Inactive)
ROOT
ATOM      1  C   UNL d   1       4.263  -3.356   1.558  0.00  0.00     0.020 A 
ATOM      2  C1  UNL d   1       4.527  -4.159   2.666  0.00  0.00     0.020 A 
ATOM      3  C2  UNL d   1       3.819  -3.964   3.854  0.00  0.00     0.034 A 
ATOM      4  C3  UNL d   1       2.844  -2.964   3.936  0.00  0.00     0.017 A 
ATOM      5  C4  UNL d   1       2.580  -2.158   2.823  0.00  0.00     0.017 A 
ATOM      6  C5  UNL d   1       3.291  -2.357   1.636  0.00  0.00     0.034 A 
ATOM      7 Cl   UNL d   1       1.391  -0.903   2.848  0.00  0.00    -0.070 Cl
ATOM      8 Cl1  UNL d   1       2.007  -2.779   5.437  0.00  0.00    -0.070 Cl
ENDROOT
TORSDOF 0
ENDMDL
