MODEL 1
REMARK minimizedAffinity 9.51261711
REMARK minimizedRMSD -1
REMARK  0 active torsions:
REMARK  status: ('A' for Active; 'I' for Inactive)
ROOT
ATOM      1  C   UNL d   1       4.861  -2.497  -5.800  0.00  0.00     0.020 A 
ATOM      2  C1  UNL d   1       5.310  -3.803  -6.000  0.00  0.00     0.020 A 
ATOM      3  C2  UNL d   1       4.649  -4.869  -5.386  0.00  0.00     0.034 A 
ATOM      4  C3  UNL d   1       3.538  -4.632  -4.570  0.00  0.00     0.017 A 
ATOM      5  C4  UNL d   1       3.088  -3.322  -4.370  0.00  0.00     0.017 A 
ATOM      6  C5  UNL d   1       3.753  -2.258  -4.987  0.00  0.00     0.034 A 
ATOM      7 Cl   UNL d   1       1.723  -2.951  -3.377  0.00  0.00    -0.070 Cl
ATOM      8 Cl1  UNL d   1       2.770  -5.999  -3.842  0.00  0.00    -0.070 Cl
ENDROOT
TORSDOF 0
ENDMDL
