MODEL 1
REMARK minimizedAffinity 8.38892841
REMARK minimizedRMSD -1
REMARK  0 active torsions:
REMARK  status: ('A' for Active; 'I' for Inactive)
ROOT
ATOM      1  C   UNL d   1      -0.455  -1.828   0.412  0.00  0.00     0.020 A 
ATOM      2  C1  UNL d   1      -0.045  -0.932   1.398  0.00  0.00     0.020 A 
ATOM      3  C2  UNL d   1      -0.232   0.440   1.217  0.00  0.00     0.034 A 
ATOM      4  C3  UNL d   1      -0.832   0.920   0.047  0.00  0.00     0.017 A 
ATOM      5  C4  UNL d   1      -1.243   0.020  -0.943  0.00  0.00     0.017 A 
ATOM      6  C5  UNL d   1      -1.053  -1.353  -0.756  0.00  0.00     0.034 A 
ATOM      7 Cl   UNL d   1      -1.990   0.537  -2.413  0.00  0.00    -0.070 Cl
ATOM      8 Cl1  UNL d   1      -1.033   2.629  -0.110  0.00  0.00    -0.070 Cl
ENDROOT
TORSDOF 0
ENDMDL
