MODEL 1
REMARK minimizedAffinity 4.60665703
REMARK minimizedRMSD -1
REMARK  0 active torsions:
REMARK  status: ('A' for Active; 'I' for Inactive)
ROOT
ATOM      1  C   UNL d   1       5.616  -5.731  -5.757  0.00  0.00     0.020 A 
ATOM      2  C1  UNL d   1       6.000  -4.412  -5.995  0.00  0.00     0.020 A 
ATOM      3  C2  UNL d   1       5.178  -3.361  -5.584  0.00  0.00     0.034 A 
ATOM      4  C3  UNL d   1       3.967  -3.627  -4.933  0.00  0.00     0.017 A 
ATOM      5  C4  UNL d   1       3.583  -4.951  -4.695  0.00  0.00     0.017 A 
ATOM      6  C5  UNL d   1       4.410  -6.000  -5.108  0.00  0.00     0.034 A 
ATOM      7 Cl   UNL d   1       2.105  -5.358  -3.897  0.00  0.00    -0.070 Cl
ATOM      8 Cl1  UNL d   1       3.001  -2.278  -4.452  0.00  0.00    -0.070 Cl
ENDROOT
TORSDOF 0
ENDMDL
