MODEL 1
REMARK minimizedAffinity 6.47696447
REMARK minimizedRMSD -1
REMARK  0 active torsions:
REMARK  status: ('A' for Active; 'I' for Inactive)
ROOT
ATOM      1  C   UNL d   1       5.602  -3.131  -5.997  0.00  0.00     0.020 A 
ATOM      2  C1  UNL d   1       5.858  -4.502  -5.999  0.00  0.00     0.020 A 
ATOM      3  C2  UNL d   1       5.020  -5.370  -5.297  0.00  0.00     0.034 A 
ATOM      4  C3  UNL d   1       3.921  -4.869  -4.589  0.00  0.00     0.017 A 
ATOM      5  C4  UNL d   1       3.665  -3.493  -4.588  0.00  0.00     0.017 A 
ATOM      6  C5  UNL d   1       4.508  -2.628  -5.293  0.00  0.00     0.034 A 
ATOM      7 Cl   UNL d   1       2.329  -2.800  -3.738  0.00  0.00    -0.070 Cl
ATOM      8 Cl1  UNL d   1       2.926  -6.000  -3.743  0.00  0.00    -0.070 Cl
ENDROOT
TORSDOF 0
ENDMDL
