MODEL 1
REMARK minimizedAffinity 6.5862484
REMARK minimizedRMSD -1
REMARK  0 active torsions:
REMARK  status: ('A' for Active; 'I' for Inactive)
ROOT
ATOM      1  C   UNL d   1       4.219  -3.065   1.432  0.00  0.00     0.020 A 
ATOM      2  C1  UNL d   1       4.428  -3.912   2.520  0.00  0.00     0.020 A 
ATOM      3  C2  UNL d   1       3.754  -3.684   3.721  0.00  0.00     0.034 A 
ATOM      4  C3  UNL d   1       2.868  -2.607   3.838  0.00  0.00     0.017 A 
ATOM      5  C4  UNL d   1       2.660  -1.757   2.746  0.00  0.00     0.017 A 
ATOM      6  C5  UNL d   1       3.337  -1.990   1.545  0.00  0.00     0.034 A 
ATOM      7 Cl   UNL d   1       1.583  -0.407   2.815  0.00  0.00    -0.070 Cl
ATOM      8 Cl1  UNL d   1       2.069  -2.385   5.354  0.00  0.00    -0.070 Cl
ENDROOT
TORSDOF 0
ENDMDL
