MODEL 1
REMARK minimizedAffinity 0.426496565
REMARK minimizedRMSD -1
REMARK  0 active torsions:
REMARK  status: ('A' for Active; 'I' for Inactive)
ROOT
ATOM      1  C   UNL d   1       5.711   6.000  -1.875  0.00  0.00     0.020 A 
ATOM      2  C1  UNL d   1       4.456   5.997  -1.267  0.00  0.00     0.020 A 
ATOM      3  C2  UNL d   1       3.489   5.072  -1.667  0.00  0.00     0.034 A 
ATOM      4  C3  UNL d   1       3.775   4.147  -2.677  0.00  0.00     0.017 A 
ATOM      5  C4  UNL d   1       5.035   4.151  -3.287  0.00  0.00     0.017 A 
ATOM      6  C5  UNL d   1       6.000   5.079  -2.882  0.00  0.00     0.034 A 
ATOM      7 Cl   UNL d   1       5.462   3.040  -4.540  0.00  0.00    -0.070 Cl
ATOM      8 Cl1  UNL d   1       2.532   3.032  -3.121  0.00  0.00    -0.070 Cl
ENDROOT
TORSDOF 0
ENDMDL
