MODEL 1
REMARK minimizedAffinity 11.6932678
REMARK minimizedRMSD -1
REMARK  0 active torsions:
REMARK  status: ('A' for Active; 'I' for Inactive)
ROOT
ATOM      1  C   UNL d   1      -2.854   0.314  -2.997  0.00  0.00     0.020 A 
ATOM      2  C1  UNL d   1      -2.729   1.159  -1.895  0.00  0.00     0.020 A 
ATOM      3  C2  UNL d   1      -3.259   2.450  -1.941  0.00  0.00     0.034 A 
ATOM      4  C3  UNL d   1      -3.917   2.900  -3.091  0.00  0.00     0.017 A 
ATOM      5  C4  UNL d   1      -4.042   2.052  -4.197  0.00  0.00     0.017 A 
ATOM      6  C5  UNL d   1      -3.509   0.760  -4.146  0.00  0.00     0.034 A 
ATOM      7 Cl   UNL d   1      -4.839   2.537  -5.652  0.00  0.00    -0.070 Cl
ATOM      8 Cl1  UNL d   1      -4.548   4.509  -3.079  0.00  0.00    -0.070 Cl
ENDROOT
TORSDOF 0
ENDMDL
