MODEL 1
REMARK minimizedAffinity 1.61980188
REMARK minimizedRMSD -1
REMARK  0 active torsions:
REMARK  status: ('A' for Active; 'I' for Inactive)
ROOT
ATOM      1  C   UNL d   1       5.057   0.264  -5.377  0.00  0.00     0.020 A 
ATOM      2  C1  UNL d   1       6.000  -0.556  -5.997  0.00  0.00     0.020 A 
ATOM      3  C2  UNL d   1       5.999  -1.931  -5.751  0.00  0.00     0.034 A 
ATOM      4  C3  UNL d   1       5.054  -2.490  -4.883  0.00  0.00     0.017 A 
ATOM      5  C4  UNL d   1       4.108  -1.666  -4.262  0.00  0.00     0.017 A 
ATOM      6  C5  UNL d   1       4.113  -0.290  -4.512  0.00  0.00     0.034 A 
ATOM      7 Cl   UNL d   1       2.910  -2.283  -3.179  0.00  0.00    -0.070 Cl
ATOM      8 Cl1  UNL d   1       5.111  -4.197  -4.625  0.00  0.00    -0.070 Cl
ENDROOT
TORSDOF 0
ENDMDL
