MODEL 1
REMARK minimizedAffinity 0.710677624
REMARK minimizedRMSD -1
REMARK  1 active torsions:
REMARK  status: ('A' for Active; 'I' for Inactive)
REMARK    1  A    between atoms: N_2  and  C1_3 
ROOT
ATOM      1  C1  UNL d   1       0.212  -0.710  -1.288  0.00  0.00     0.143 A 
ATOM      2  C2  UNL d   1       0.761  -0.652  -2.574  0.00  0.00    -0.057 A 
ATOM      3  C3  UNL d   1       0.484   0.417  -3.434  0.00  0.00     0.033 A 
ATOM      4  C4  UNL d   1      -0.373   1.436  -3.033  0.00  0.00    -0.042 A 
ATOM      5  C5  UNL d   1      -0.950   1.387  -1.769  0.00  0.00     0.033 A 
ATOM      6  C6  UNL d   1      -0.664   0.320  -0.912  0.00  0.00    -0.057 A 
ENDROOT
BRANCH   1   7
ATOM      7  N   UNL d   1       0.371  -1.795  -0.423  0.00  0.00    -0.732 N 
ATOM      8  C   UNL d   1      -0.146  -3.100  -0.774  0.00  0.00     0.284 C 
ATOM      9  H3  UNL d   1       1.292  -1.815   0.010  0.00  0.00     0.395 HD
ENDBRANCH   1   7
TORSDOF 1
ENDMDL
