MODEL 1
REMARK minimizedAffinity 2.19695592
REMARK minimizedRMSD -1
REMARK  1 active torsions:
REMARK  status: ('A' for Active; 'I' for Inactive)
REMARK    1  A    between atoms: N_2  and  C1_3 
ROOT
ATOM      1  C1  UNL d   1       3.620  -2.559  -3.039  0.00  0.00     0.143 A 
ATOM      2  C2  UNL d   1       4.878  -1.948  -3.015  0.00  0.00    -0.057 A 
ATOM      3  C3  UNL d   1       5.874  -2.300  -3.934  0.00  0.00     0.033 A 
ATOM      4  C4  UNL d   1       5.638  -3.294  -4.878  0.00  0.00    -0.042 A 
ATOM      5  C5  UNL d   1       4.403  -3.932  -4.904  0.00  0.00     0.033 A 
ATOM      6  C6  UNL d   1       3.410  -3.571  -3.988  0.00  0.00    -0.057 A 
ENDROOT
BRANCH   1   7
ATOM      7  N   UNL d   1       2.622  -2.322  -2.090  0.00  0.00    -0.732 N 
ATOM      8  C   UNL d   1       1.576  -3.295  -1.862  0.00  0.00     0.284 C 
ATOM      9  H3  UNL d   1       2.987  -1.897  -1.241  0.00  0.00     0.395 HD
ENDBRANCH   1   7
TORSDOF 1
ENDMDL
