MODEL 1
REMARK minimizedAffinity 6.12630987
REMARK minimizedRMSD -1
REMARK  1 active torsions:
REMARK  status: ('A' for Active; 'I' for Inactive)
REMARK    1  A    between atoms: N_2  and  C1_3 
ROOT
ATOM      1  C1  UNL d   1      -0.878   3.791  -0.897  0.00  0.00     0.143 A 
ATOM      2  C2  UNL d   1      -2.119   4.362  -0.596  0.00  0.00    -0.057 A 
ATOM      3  C3  UNL d   1      -3.133   4.445  -1.558  0.00  0.00     0.033 A 
ATOM      4  C4  UNL d   1      -2.912   3.984  -2.851  0.00  0.00    -0.042 A 
ATOM      5  C5  UNL d   1      -1.677   3.435  -3.180  0.00  0.00     0.033 A 
ATOM      6  C6  UNL d   1      -0.671   3.348  -2.213  0.00  0.00    -0.057 A 
ENDROOT
BRANCH   1   7
ATOM      7  N   UNL d   1       0.203   3.768  -0.012  0.00  0.00    -0.732 N 
ATOM      8  C   UNL d   1       0.340   2.702   0.957  0.00  0.00     0.284 C 
ATOM      9  H3  UNL d   1       1.076   4.038  -0.459  0.00  0.00     0.395 HD
ENDBRANCH   1   7
TORSDOF 1
ENDMDL
