MODEL 1
REMARK minimizedAffinity 1.00049031
REMARK minimizedRMSD -1
REMARK  1 active torsions:
REMARK  status: ('A' for Active; 'I' for Inactive)
REMARK    1  A    between atoms: N_2  and  C1_3 
ROOT
ATOM      1  C1  UNL d   1       0.825  -5.582   0.726  0.00  0.00     0.143 A 
ATOM      2  C2  UNL d   1      -0.482  -5.778   0.266  0.00  0.00    -0.057 A 
ATOM      3  C3  UNL d   1      -0.749  -5.999  -1.090  0.00  0.00     0.033 A 
ATOM      4  C4  UNL d   1       0.287  -6.000  -2.018  0.00  0.00    -0.042 A 
ATOM      5  C5  UNL d   1       1.591  -5.783  -1.587  0.00  0.00     0.033 A 
ATOM      6  C6  UNL d   1       1.852  -5.569  -0.231  0.00  0.00    -0.057 A 
ENDROOT
BRANCH   1   7
ATOM      7  N   UNL d   1       1.145  -5.259   2.047  0.00  0.00    -0.732 N 
ATOM      8  C   UNL d   1       2.176  -5.987   2.755  0.00  0.00     0.284 C 
ATOM      9  H3  UNL d   1       1.158  -4.255   2.209  0.00  0.00     0.395 HD
ENDBRANCH   1   7
TORSDOF 1
ENDMDL
