MODEL 1
REMARK minimizedAffinity 4.9742384
REMARK minimizedRMSD -1
REMARK  0 active torsions:
REMARK  status: ('A' for Active; 'I' for Inactive)
ROOT
ATOM      1  C1  BNZ d   1       5.619   2.254   0.191  0.00  0.00     0.000 A 
ATOM      2  C2  BNZ d   1       5.999   1.333   1.130  0.00  0.00     0.000 A 
ATOM      3  C3  BNZ d   1       5.275   1.162   2.277  0.00  0.00     0.000 A 
ATOM      4  C4  BNZ d   1       4.196   1.940   2.501  0.00  0.00     0.000 A 
ATOM      5  C5  BNZ d   1       3.805   2.879   1.568  0.00  0.00     0.000 A 
ATOM      6  C6  BNZ d   1       4.514   3.021   0.398  0.00  0.00     0.000 A 
ENDROOT
TORSDOF 0
ENDMDL
