MODEL 1
REMARK minimizedAffinity 5.06025648
REMARK minimizedRMSD -1
REMARK  0 active torsions:
REMARK  status: ('A' for Active; 'I' for Inactive)
ROOT
ATOM      1  C1  BNZ d   1       3.812  -0.353  -2.513  0.00  0.00     0.000 A 
ATOM      2  C2  BNZ d   1       4.895  -1.144  -2.791  0.00  0.00     0.000 A 
ATOM      3  C3  BNZ d   1       5.997  -0.629  -3.414  0.00  0.00     0.000 A 
ATOM      4  C4  BNZ d   1       5.999   0.665  -3.794  0.00  0.00     0.000 A 
ATOM      5  C5  BNZ d   1       4.912   1.474  -3.529  0.00  0.00     0.000 A 
ATOM      6  C6  BNZ d   1       3.820   0.961  -2.867  0.00  0.00     0.000 A 
ENDROOT
TORSDOF 0
ENDMDL
