MODEL 1
REMARK minimizedAffinity 3.66168332
REMARK minimizedRMSD -1
REMARK  0 active torsions:
REMARK  status: ('A' for Active; 'I' for Inactive)
ROOT
ATOM      1  C1  BNZ d   1      -2.008  -1.674   2.219  0.00  0.00     0.000 A 
ATOM      2  C2  BNZ d   1      -2.314  -1.097   1.015  0.00  0.00     0.000 A 
ATOM      3  C3  BNZ d   1      -1.834  -1.619  -0.153  0.00  0.00     0.000 A 
ATOM      4  C4  BNZ d   1      -1.016  -2.691  -0.113  0.00  0.00     0.000 A 
ATOM      5  C5  BNZ d   1      -0.691  -3.278   1.093  0.00  0.00     0.000 A 
ATOM      6  C6  BNZ d   1      -1.208  -2.773   2.264  0.00  0.00     0.000 A 
ENDROOT
TORSDOF 0
ENDMDL
