MODEL 1
REMARK minimizedAffinity 9.33375549
REMARK minimizedRMSD -1
REMARK  0 active torsions:
REMARK  status: ('A' for Active; 'I' for Inactive)
ROOT
ATOM      1  C1  BNZ d   1       4.221   1.578  -2.926  0.00  0.00     0.000 A 
ATOM      2  C2  BNZ d   1       3.147   1.657  -2.080  0.00  0.00     0.000 A 
ATOM      3  C3  BNZ d   1       2.500   0.528  -1.662  0.00  0.00     0.000 A 
ATOM      4  C4  BNZ d   1       2.901  -0.675  -2.122  0.00  0.00     0.000 A 
ATOM      5  C5  BNZ d   1       3.976  -0.770  -2.984  0.00  0.00     0.000 A 
ATOM      6  C6  BNZ d   1       4.649   0.365  -3.371  0.00  0.00     0.000 A 
ENDROOT
TORSDOF 0
ENDMDL
