MODEL 1
REMARK minimizedAffinity -1.58577251
REMARK minimizedRMSD -1
REMARK  0 active torsions:
REMARK  status: ('A' for Active; 'I' for Inactive)
ROOT
ATOM      1  C1  BNZ d   1      -6.000   5.066   1.277  0.00  0.00     0.000 A 
ATOM      2  C2  BNZ d   1      -6.000   6.000   0.275  0.00  0.00     0.000 A 
ATOM      3  C3  BNZ d   1      -5.027   5.996  -0.685  0.00  0.00     0.000 A 
ATOM      4  C4  BNZ d   1      -4.034   5.086  -0.619  0.00  0.00     0.000 A 
ATOM      5  C5  BNZ d   1      -4.015   4.143   0.389  0.00  0.00     0.000 A 
ATOM      6  C6  BNZ d   1      -5.018   4.125   1.332  0.00  0.00     0.000 A 
ENDROOT
TORSDOF 0
ENDMDL
