MODEL 1
REMARK minimizedAffinity 11.7958193
REMARK minimizedRMSD -1
REMARK  0 active torsions:
REMARK  status: ('A' for Active; 'I' for Inactive)
ROOT
ATOM      1  C1  BNZ d   1       2.632  -0.001  -0.763  0.00  0.00     0.000 A 
ATOM      2  C2  BNZ d   1       3.495   0.393   0.225  0.00  0.00     0.000 A 
ATOM      3  C3  BNZ d   1       3.528   1.692   0.649  0.00  0.00     0.000 A 
ATOM      4  C4  BNZ d   1       2.727   2.602   0.059  0.00  0.00     0.000 A 
ATOM      5  C5  BNZ d   1       1.858   2.223  -0.945  0.00  0.00     0.000 A 
ATOM      6  C6  BNZ d   1       1.800   0.907  -1.342  0.00  0.00     0.000 A 
ENDROOT
TORSDOF 0
ENDMDL
