MODEL 1
REMARK minimizedAffinity 4.8772192
REMARK minimizedRMSD -1
REMARK  0 active torsions:
REMARK  status: ('A' for Active; 'I' for Inactive)
ROOT
ATOM      1  C1  BNZ d   1      -0.741  -3.596   0.743  0.00  0.00     0.000 A 
ATOM      2  C2  BNZ d   1      -0.933  -2.881  -0.410  0.00  0.00     0.000 A 
ATOM      3  C3  BNZ d   1      -1.881  -1.898  -0.474  0.00  0.00     0.000 A 
ATOM      4  C4  BNZ d   1      -2.661  -1.658   0.600  0.00  0.00     0.000 A 
ATOM      5  C5  BNZ d   1      -2.486  -2.377   1.766  0.00  0.00     0.000 A 
ATOM      6  C6  BNZ d   1      -1.505  -3.339   1.839  0.00  0.00     0.000 A 
ENDROOT
TORSDOF 0
ENDMDL
