MODEL 1
REMARK minimizedAffinity 7.94777393
REMARK minimizedRMSD -1
REMARK  0 active torsions:
REMARK  status: ('A' for Active; 'I' for Inactive)
ROOT
ATOM      1  C1  BNZ d   1      -2.577  -1.399   0.860  0.00  0.00     0.000 A 
ATOM      2  C2  BNZ d   1      -2.389  -2.456   1.711  0.00  0.00     0.000 A 
ATOM      3  C3  BNZ d   1      -1.405  -3.376   1.478  0.00  0.00     0.000 A 
ATOM      4  C4  BNZ d   1      -0.638  -3.261   0.375  0.00  0.00     0.000 A 
ATOM      5  C5  BNZ d   1      -0.822  -2.207  -0.498  0.00  0.00     0.000 A 
ATOM      6  C6  BNZ d   1      -1.787  -1.261  -0.239  0.00  0.00     0.000 A 
ENDROOT
TORSDOF 0
ENDMDL
