MODEL 1
REMARK minimizedAffinity 2.3361721
REMARK minimizedRMSD -1
REMARK  0 active torsions:
REMARK  status: ('A' for Active; 'I' for Inactive)
ROOT
ATOM      1  C1  BNZ d   1      -4.133   5.053  -0.512  0.00  0.00     0.000 A 
ATOM      2  C2  BNZ d   1      -4.137   3.858   0.156  0.00  0.00     0.000 A 
ATOM      3  C3  BNZ d   1      -5.082   3.590   1.107  0.00  0.00     0.000 A 
ATOM      4  C4  BNZ d   1      -5.996   4.532   1.416  0.00  0.00     0.000 A 
ATOM      5  C5  BNZ d   1      -6.000   5.745   0.759  0.00  0.00     0.000 A 
ATOM      6  C6  BNZ d   1      -5.071   5.997  -0.225  0.00  0.00     0.000 A 
ENDROOT
TORSDOF 0
ENDMDL
