MODEL 1
REMARK minimizedAffinity 3.51652479
REMARK minimizedRMSD -1
REMARK  0 active torsions:
REMARK  status: ('A' for Active; 'I' for Inactive)
ROOT
ATOM      1  C1  BNZ d   1       3.984   2.622   0.959  0.00  0.00     0.000 A 
ATOM      2  C2  BNZ d   1       3.906   3.978   1.138  0.00  0.00     0.000 A 
ATOM      3  C3  BNZ d   1       4.750   4.822   0.473  0.00  0.00     0.000 A 
ATOM      4  C4  BNZ d   1       5.697   4.308  -0.339  0.00  0.00     0.000 A 
ATOM      5  C5  BNZ d   1       5.794   2.943  -0.523  0.00  0.00     0.000 A 
ATOM      6  C6  BNZ d   1       4.917   2.099   0.119  0.00  0.00     0.000 A 
ENDROOT
TORSDOF 0
ENDMDL
