MODEL 1
REMARK minimizedAffinity 12.6215897
REMARK minimizedRMSD -1
REMARK  0 active torsions:
REMARK  status: ('A' for Active; 'I' for Inactive)
ROOT
ATOM      1  C1  BNZ d   1      -3.272   1.327   5.956  0.00  0.00     0.000 A 
ATOM      2  C2  BNZ d   1      -4.064   0.211   5.930  0.00  0.00     0.000 A 
ATOM      3  C3  BNZ d   1      -5.426   0.319   5.909  0.00  0.00     0.000 A 
ATOM      4  C4  BNZ d   1      -5.995   1.542   5.955  0.00  0.00     0.000 A 
ATOM      5  C5  BNZ d   1      -5.209   2.677   5.991  0.00  0.00     0.000 A 
ATOM      6  C6  BNZ d   1      -3.838   2.565   5.973  0.00  0.00     0.000 A 
ENDROOT
TORSDOF 0
ENDMDL
