MODEL 1
REMARK minimizedAffinity 7.6680336
REMARK minimizedRMSD -1
REMARK  0 active torsions:
REMARK  status: ('A' for Active; 'I' for Inactive)
ROOT
ATOM      1  C1  BNZ d   1       4.250   4.417   0.573  0.00  0.00     0.000 A 
ATOM      2  C2  BNZ d   1       5.343   4.556  -0.240  0.00  0.00     0.000 A 
ATOM      3  C3  BNZ d   1       5.995   3.459  -0.731  0.00  0.00     0.000 A 
ATOM      4  C4  BNZ d   1       5.579   2.227  -0.375  0.00  0.00     0.000 A 
ATOM      5  C5  BNZ d   1       4.485   2.070   0.452  0.00  0.00     0.000 A 
ATOM      6  C6  BNZ d   1       3.807   3.176   0.912  0.00  0.00     0.000 A 
ENDROOT
TORSDOF 0
ENDMDL
