MODEL 1
REMARK minimizedAffinity 8.16695976
REMARK minimizedRMSD -1
REMARK  0 active torsions:
REMARK  status: ('A' for Active; 'I' for Inactive)
ROOT
ATOM      1  C1  BNZ d   1      -2.558  -1.326   0.118  0.00  0.00     0.000 A 
ATOM      2  C2  BNZ d   1      -2.409  -2.317   1.052  0.00  0.00     0.000 A 
ATOM      3  C3  BNZ d   1      -1.461  -3.289   0.894  0.00  0.00     0.000 A 
ATOM      4  C4  BNZ d   1      -0.692  -3.293  -0.214  0.00  0.00     0.000 A 
ATOM      5  C5  BNZ d   1      -0.837  -2.306  -1.168  0.00  0.00     0.000 A 
ATOM      6  C6  BNZ d   1      -1.765  -1.306  -0.988  0.00  0.00     0.000 A 
ENDROOT
TORSDOF 0
ENDMDL
