MODEL 1
REMARK minimizedAffinity 15.3624992
REMARK minimizedRMSD -1
REMARK  0 active torsions:
REMARK  status: ('A' for Active; 'I' for Inactive)
ROOT
ATOM      1  C1  BNZ d   1      -2.493  -1.626  -0.008  0.00  0.00     0.000 A 
ATOM      2  C2  BNZ d   1      -1.309  -1.954  -0.613  0.00  0.00     0.000 A 
ATOM      3  C3  BNZ d   1      -0.640  -3.095  -0.268  0.00  0.00     0.000 A 
ATOM      4  C4  BNZ d   1      -1.133  -3.884   0.709  0.00  0.00     0.000 A 
ATOM      5  C5  BNZ d   1      -2.321  -3.561   1.335  0.00  0.00     0.000 A 
ATOM      6  C6  BNZ d   1      -3.012  -2.433   0.957  0.00  0.00     0.000 A 
ENDROOT
TORSDOF 0
ENDMDL
