MODEL 1
REMARK minimizedAffinity -4.23027992
REMARK minimizedRMSD -1
REMARK  0 active torsions:
REMARK  status: ('A' for Active; 'I' for Inactive)
ROOT
ATOM      1  C1  DEN d   1       0.147   0.510  -1.230  0.00  0.00     0.130 A 
ATOM      2  C2  DEN d   1       0.944  -0.713  -1.211  0.00  0.00    -0.031 A 
ATOM      3  C3  DEN d   1       0.845  -1.301   0.140  0.00  0.00     0.027 A 
ATOM      4  C4  DEN d   1      -0.461  -0.443   2.192  0.00  0.00     0.027 A 
ATOM      5  C5  DEN d   1      -1.276   0.562   2.663  0.00  0.00    -0.003 A 
ATOM      6  C6  DEN d   1      -1.644   1.629   1.887  0.00  0.00     0.001 A 
ATOM      7  C7  DEN d   1      -1.231   1.693   0.582  0.00  0.00     0.017 A 
ATOM      8  C8  DEN d   1      -0.403   0.687   0.102  0.00  0.00    -0.094 A 
ATOM      9  C9  DEN d   1      -0.053  -0.390   0.898  0.00  0.00    -0.072 A 
ENDROOT
TORSDOF 0
ENDMDL
