MODEL 1
REMARK minimizedAffinity -4.77672672
REMARK minimizedRMSD -1
REMARK  0 active torsions:
REMARK  status: ('A' for Active; 'I' for Inactive)
ROOT
ATOM      1  C1  DEN d   1      -0.726  -0.086  -1.796  0.00  0.00     0.130 A 
ATOM      2  C2  DEN d   1       0.255  -1.164  -1.890  0.00  0.00    -0.031 A 
ATOM      3  C3  DEN d   1       0.724  -1.474  -0.525  0.00  0.00     0.027 A 
ATOM      4  C4  DEN d   1       0.027  -0.400   1.714  0.00  0.00     0.027 A 
ATOM      5  C5  DEN d   1      -0.767   0.562   2.298  0.00  0.00    -0.003 A 
ATOM      6  C6  DEN d   1      -1.570   1.392   1.562  0.00  0.00     0.001 A 
ATOM      7  C7  DEN d   1      -1.632   1.245   0.201  0.00  0.00     0.017 A 
ATOM      8  C8  DEN d   1      -0.829   0.282  -0.396  0.00  0.00    -0.094 A 
ATOM      9  C9  DEN d   1      -0.033  -0.555   0.367  0.00  0.00    -0.072 A 
ENDROOT
TORSDOF 0
ENDMDL
