MODEL 1
REMARK minimizedAffinity -3.65295911
REMARK minimizedRMSD -1
REMARK  0 active torsions:
REMARK  status: ('A' for Active; 'I' for Inactive)
ROOT
ATOM      1  C1  DEN d   1       0.902  -1.464   0.254  0.00  0.00     0.130 A 
ATOM      2  C2  DEN d   1       0.607  -1.423  -1.176  0.00  0.00    -0.031 A 
ATOM      3  C3  DEN d   1      -0.369  -0.340  -1.409  0.00  0.00     0.027 A 
ATOM      4  C4  DEN d   1      -1.442   1.273   0.294  0.00  0.00     0.027 A 
ATOM      5  C5  DEN d   1      -1.510   1.616   1.626  0.00  0.00    -0.003 A 
ATOM      6  C6  DEN d   1      -0.810   0.940   2.591  0.00  0.00     0.001 A 
ATOM      7  C7  DEN d   1       0.023  -0.086   2.232  0.00  0.00     0.017 A 
ATOM      8  C8  DEN d   1       0.091  -0.443   0.891  0.00  0.00    -0.094 A 
ATOM      9  C9  DEN d   1      -0.614   0.261  -0.070  0.00  0.00    -0.072 A 
ENDROOT
TORSDOF 0
ENDMDL
