MODEL 1
REMARK minimizedAffinity -2.30689359
REMARK minimizedRMSD -1
REMARK  0 active torsions:
REMARK  status: ('A' for Active; 'I' for Inactive)
ROOT
ATOM      1  C1  DEN d   1       0.602  -0.120  -0.599  0.00  0.00     0.130 A 
ATOM      2  C2  DEN d   1       1.460  -0.808   0.362  0.00  0.00    -0.031 A 
ATOM      3  C3  DEN d   1       0.923  -0.557   1.715  0.00  0.00     0.027 A 
ATOM      4  C4  DEN d   1      -1.146   0.816   2.410  0.00  0.00     0.027 A 
ATOM      5  C5  DEN d   1      -2.183   1.596   1.948  0.00  0.00    -0.003 A 
ATOM      6  C6  DEN d   1      -2.344   1.884   0.618  0.00  0.00     0.001 A 
ATOM      7  C7  DEN d   1      -1.479   1.351  -0.301  0.00  0.00     0.017 A 
ATOM      8  C8  DEN d   1      -0.427   0.570   0.159  0.00  0.00    -0.094 A 
ATOM      9  C9  DEN d   1      -0.288   0.281   1.505  0.00  0.00    -0.072 A 
ENDROOT
TORSDOF 0
ENDMDL
