MODEL 1
REMARK minimizedAffinity -3.48919463
REMARK minimizedRMSD -1
REMARK  0 active torsions:
REMARK  status: ('A' for Active; 'I' for Inactive)
ROOT
ATOM      1  C1  DEN d   1      -1.267   1.625   2.443  0.00  0.00     0.130 A 
ATOM      2  C2  DEN d   1      -0.556   0.773   3.392  0.00  0.00    -0.031 A 
ATOM      3  C3  DEN d   1       0.195  -0.239   2.623  0.00  0.00     0.027 A 
ATOM      4  C4  DEN d   1       0.331  -0.564   0.068  0.00  0.00     0.027 A 
ATOM      5  C5  DEN d   1      -0.110  -0.092  -1.149  0.00  0.00    -0.003 A 
ATOM      6  C6  DEN d   1      -0.986   0.955  -1.251  0.00  0.00     0.001 A 
ATOM      7  C7  DEN d   1      -1.416   1.595  -0.118  0.00  0.00     0.017 A 
ATOM      8  C8  DEN d   1      -0.981   1.120   1.112  0.00  0.00    -0.094 A 
ATOM      9  C9  DEN d   1      -0.086   0.067   1.195  0.00  0.00    -0.072 A 
ENDROOT
TORSDOF 0
ENDMDL
