MODEL 1
REMARK minimizedAffinity -4.04611492
REMARK minimizedRMSD -1
REMARK  0 active torsions:
REMARK  status: ('A' for Active; 'I' for Inactive)
ROOT
ATOM      1  C1  DEN d   1      -1.699   2.264   0.540  0.00  0.00     0.130 A 
ATOM      2  C2  DEN d   1      -2.124   2.323   1.936  0.00  0.00    -0.031 A 
ATOM      3  C3  DEN d   1      -1.393   1.277   2.679  0.00  0.00     0.027 A 
ATOM      4  C4  DEN d   1       0.348  -0.416   1.810  0.00  0.00     0.027 A 
ATOM      5  C5  DEN d   1       1.024  -0.858   0.695  0.00  0.00    -0.003 A 
ATOM      6  C6  DEN d   1       0.816  -0.318  -0.547  0.00  0.00     0.001 A 
ATOM      7  C7  DEN d   1      -0.057   0.727  -0.695  0.00  0.00     0.017 A 
ATOM      8  C8  DEN d   1      -0.747   1.174   0.424  0.00  0.00    -0.094 A 
ATOM      9  C9  DEN d   1      -0.514   0.623   1.673  0.00  0.00    -0.072 A 
ENDROOT
TORSDOF 0
ENDMDL
