MODEL 1
REMARK minimizedAffinity -4.02593422
REMARK minimizedRMSD -1
REMARK  0 active torsions:
REMARK  status: ('A' for Active; 'I' for Inactive)
ROOT
ATOM      1  C1  DEN d   1       0.740  -0.977   0.500  0.00  0.00     0.130 A 
ATOM      2  C2  DEN d   1       0.647  -0.778  -0.944  0.00  0.00    -0.031 A 
ATOM      3  C3  DEN d   1      -0.155   0.437  -1.187  0.00  0.00     0.027 A 
ATOM      4  C4  DEN d   1      -1.254   2.025   0.522  0.00  0.00     0.027 A 
ATOM      5  C5  DEN d   1      -1.461   2.261   1.864  0.00  0.00    -0.003 A 
ATOM      6  C6  DEN d   1      -0.982   1.423   2.835  0.00  0.00     0.001 A 
ATOM      7  C7  DEN d   1      -0.233   0.332   2.481  0.00  0.00     0.017 A 
ATOM      8  C8  DEN d   1      -0.026   0.084   1.130  0.00  0.00    -0.094 A 
ATOM      9  C9  DEN d   1      -0.508   0.950   0.164  0.00  0.00    -0.072 A 
ENDROOT
TORSDOF 0
ENDMDL
