MODEL 1
REMARK minimizedAffinity -3.53291726
REMARK minimizedRMSD -1
REMARK  0 active torsions:
REMARK  status: ('A' for Active; 'I' for Inactive)
ROOT
ATOM      1  C1  DEN d   1       0.396   0.095  -1.090  0.00  0.00     0.130 A 
ATOM      2  C2  DEN d   1       1.202  -0.839  -0.308  0.00  0.00    -0.031 A 
ATOM      3  C3  DEN d   1       0.712  -0.809   1.085  0.00  0.00     0.027 A 
ATOM      4  C4  DEN d   1      -1.208   0.582   2.100  0.00  0.00     0.027 A 
ATOM      5  C5  DEN d   1      -2.175   1.526   1.830  0.00  0.00    -0.003 A 
ATOM      6  C6  DEN d   1      -2.329   2.079   0.586  0.00  0.00     0.001 A 
ATOM      7  C7  DEN d   1      -1.533   1.659  -0.446  0.00  0.00     0.017 A 
ATOM      8  C8  DEN d   1      -0.550   0.714  -0.181  0.00  0.00    -0.094 A 
ATOM      9  C9  DEN d   1      -0.418   0.158   1.081  0.00  0.00    -0.072 A 
ENDROOT
TORSDOF 0
ENDMDL
