MODEL 1
REMARK minimizedAffinity -5.56329012
REMARK minimizedRMSD -1
REMARK  0 active torsions:
REMARK  status: ('A' for Active; 'I' for Inactive)
ROOT
ATOM      1  C1  DEN d   1      -0.768   0.021   1.737  0.00  0.00     0.130 A 
ATOM      2  C2  DEN d   1      -1.624   1.161   2.051  0.00  0.00    -0.031 A 
ATOM      3  C3  DEN d   1      -1.336   2.232   1.076  0.00  0.00     0.027 A 
ATOM      4  C4  DEN d   1       0.341   2.233  -0.884  0.00  0.00     0.027 A 
ATOM      5  C5  DEN d   1       1.301   1.495  -1.540  0.00  0.00    -0.003 A 
ATOM      6  C6  DEN d   1       1.659   0.237  -1.134  0.00  0.00     0.001 A 
ATOM      7  C7  DEN d   1       1.022  -0.339  -0.067  0.00  0.00     0.017 A 
ATOM      8  C8  DEN d   1       0.058   0.402   0.605  0.00  0.00    -0.094 A 
ATOM      9  C9  DEN d   1      -0.299   1.668   0.171  0.00  0.00    -0.072 A 
ENDROOT
TORSDOF 0
ENDMDL
