MODEL 1
REMARK minimizedAffinity -3.39518547
REMARK minimizedRMSD -1
REMARK  0 active torsions:
REMARK  status: ('A' for Active; 'I' for Inactive)
ROOT
ATOM      1  C1  DEN d   1      -0.340  -0.287  -0.989  0.00  0.00     0.130 A 
ATOM      2  C2  DEN d   1       0.985  -0.870  -0.792  0.00  0.00    -0.031 A 
ATOM      3  C3  DEN d   1       1.343  -0.720   0.633  0.00  0.00     0.027 A 
ATOM      4  C4  DEN d   1      -0.021   0.346   2.545  0.00  0.00     0.027 A 
ATOM      5  C5  DEN d   1      -1.199   0.986   2.862  0.00  0.00    -0.003 A 
ATOM      6  C6  DEN d   1      -2.150   1.274   1.920  0.00  0.00     0.001 A 
ATOM      7  C7  DEN d   1      -1.960   0.881   0.621  0.00  0.00     0.017 A 
ATOM      8  C8  DEN d   1      -0.772   0.242   0.292  0.00  0.00    -0.094 A 
ATOM      9  C9  DEN d   1       0.172  -0.051   1.261  0.00  0.00    -0.072 A 
ENDROOT
TORSDOF 0
ENDMDL
