MODEL 1
REMARK minimizedAffinity -4.36799812
REMARK minimizedRMSD -1
REMARK  0 active torsions:
REMARK  status: ('A' for Active; 'I' for Inactive)
ROOT
ATOM      1  C1  DEN d   1      -0.318   1.311  -1.191  0.00  0.00     0.130 A 
ATOM      2  C2  DEN d   1       0.821   0.399  -1.249  0.00  0.00    -0.031 A 
ATOM      3  C3  DEN d   1       0.902  -0.313   0.042  0.00  0.00     0.027 A 
ATOM      4  C4  DEN d   1      -0.621  -0.097   2.112  0.00  0.00     0.027 A 
ATOM      5  C5  DEN d   1      -1.713   0.557   2.639  0.00  0.00    -0.003 A 
ATOM      6  C6  DEN d   1      -2.390   1.525   1.945  0.00  0.00     0.001 A 
ATOM      7  C7  DEN d   1      -2.009   1.834   0.666  0.00  0.00     0.017 A 
ATOM      8  C8  DEN d   1      -0.905   1.184   0.130  0.00  0.00    -0.094 A 
ATOM      9  C9  DEN d   1      -0.241   0.200   0.844  0.00  0.00    -0.072 A 
ENDROOT
TORSDOF 0
ENDMDL
