MODEL 1
REMARK minimizedAffinity -4.92226076
REMARK minimizedRMSD -1
REMARK  0 active torsions:
REMARK  status: ('A' for Active; 'I' for Inactive)
ROOT
ATOM      1  C1  DEN d   1       0.010  -1.057   0.474  0.00  0.00     0.130 A 
ATOM      2  C2  DEN d   1       0.941  -0.865  -0.634  0.00  0.00    -0.031 A 
ATOM      3  C3  DEN d   1       0.780   0.516  -1.131  0.00  0.00     0.027 A 
ATOM      4  C4  DEN d   1      -0.808   2.368  -0.292  0.00  0.00     0.027 A 
ATOM      5  C5  DEN d   1      -1.794   2.672   0.619  0.00  0.00    -0.003 A 
ATOM      6  C6  DEN d   1      -2.269   1.752   1.516  0.00  0.00     0.001 A 
ATOM      7  C7  DEN d   1      -1.725   0.496   1.552  0.00  0.00     0.017 A 
ATOM      8  C8  DEN d   1      -0.735   0.179   0.631  0.00  0.00    -0.094 A 
ATOM      9  C9  DEN d   1      -0.260   1.127  -0.260  0.00  0.00    -0.072 A 
ENDROOT
TORSDOF 0
ENDMDL
