MODEL 1
REMARK minimizedAffinity -4.1794591
REMARK minimizedRMSD -1
REMARK  0 active torsions:
REMARK  status: ('A' for Active; 'I' for Inactive)
ROOT
ATOM      1  C1  DEN d   1      -0.431   0.304  -1.061  0.00  0.00     0.130 A 
ATOM      2  C2  DEN d   1       0.356  -0.885  -0.745  0.00  0.00    -0.031 A 
ATOM      3  C3  DEN d   1       0.261  -1.122   0.710  0.00  0.00     0.027 A 
ATOM      4  C4  DEN d   1      -1.026   0.227   2.492  0.00  0.00     0.027 A 
ATOM      5  C5  DEN d   1      -1.830   1.325   2.705  0.00  0.00    -0.003 A 
ATOM      6  C6  DEN d   1      -2.193   2.172   1.692  0.00  0.00     0.001 A 
ATOM      7  C7  DEN d   1      -1.789   1.909   0.410  0.00  0.00     0.017 A 
ATOM      8  C8  DEN d   1      -0.971   0.808   0.188  0.00  0.00    -0.094 A 
ATOM      9  C9  DEN d   1      -0.625  -0.043   1.224  0.00  0.00    -0.072 A 
ENDROOT
TORSDOF 0
ENDMDL
