MODEL 1
REMARK minimizedAffinity -2.99372816
REMARK minimizedRMSD -1
REMARK  0 active torsions:
REMARK  status: ('A' for Active; 'I' for Inactive)
ROOT
ATOM      1  C1  DEN d   1      -0.199   0.382  -1.206  0.00  0.00     0.130 A 
ATOM      2  C2  DEN d   1       0.712  -0.756  -1.111  0.00  0.00    -0.031 A 
ATOM      3  C3  DEN d   1       0.771  -1.176   0.303  0.00  0.00     0.027 A 
ATOM      4  C4  DEN d   1      -0.457  -0.185   2.343  0.00  0.00     0.027 A 
ATOM      5  C5  DEN d   1      -1.329   0.795   2.761  0.00  0.00    -0.003 A 
ATOM      6  C6  DEN d   1      -1.855   1.721   1.898  0.00  0.00     0.001 A 
ATOM      7  C7  DEN d   1      -1.548   1.656   0.565  0.00  0.00     0.017 A 
ATOM      8  C8  DEN d   1      -0.664   0.675   0.137  0.00  0.00    -0.094 A 
ATOM      9  C9  DEN d   1      -0.153  -0.259   1.023  0.00  0.00    -0.072 A 
ENDROOT
TORSDOF 0
ENDMDL
