MODEL 1
REMARK minimizedAffinity 4.49323511
REMARK minimizedRMSD -1
REMARK  0 active torsions:
REMARK  status: ('A' for Active; 'I' for Inactive)
ROOT
ATOM      1  C   UNL d   1      -0.381   0.260  -1.019  0.00  0.00     0.077 C 
ATOM      2  C1  UNL d   1      -0.003   0.302   0.432  0.00  0.00    -0.074 A 
ATOM      3  C2  UNL d   1       0.197  -0.877   1.157  0.00  0.00    -0.005 A 
ATOM      4  C3  UNL d   1       0.558  -0.822   2.503  0.00  0.00     0.006 A 
ATOM      5  C4  UNL d   1       0.722   0.411   3.137  0.00  0.00    -0.005 A 
ATOM      6  C5  UNL d   1       0.527   1.600   2.428  0.00  0.00    -0.074 A 
ATOM      7  C6  UNL d   1       0.709   2.933   3.091  0.00  0.00     0.077 C 
ATOM      8  C7  UNL d   1       0.172   1.537   1.073  0.00  0.00    -0.001 A 
ENDROOT
TORSDOF 0
ENDMDL
