MODEL 1
REMARK minimizedAffinity -1.51390493
REMARK minimizedRMSD -1
REMARK  0 active torsions:
REMARK  status: ('A' for Active; 'I' for Inactive)
ROOT
ATOM      1  C   UNL d   1       1.186   5.909   0.178  0.00  0.00     0.077 C 
ATOM      2  C1  UNL d   1       1.327   4.729   1.094  0.00  0.00    -0.074 A 
ATOM      3  C2  UNL d   1       0.589   3.561   0.879  0.00  0.00    -0.005 A 
ATOM      4  C3  UNL d   1       0.739   2.468   1.734  0.00  0.00     0.006 A 
ATOM      5  C4  UNL d   1       1.626   2.533   2.809  0.00  0.00    -0.005 A 
ATOM      6  C5  UNL d   1       2.372   3.693   3.038  0.00  0.00    -0.074 A 
ATOM      7  C6  UNL d   1       3.337   3.776   4.184  0.00  0.00     0.077 C 
ATOM      8  C7  UNL d   1       2.222   4.784   2.171  0.00  0.00    -0.001 A 
ENDROOT
TORSDOF 0
ENDMDL
