MODEL 1
REMARK minimizedAffinity 0.00180173013
REMARK minimizedRMSD -1
REMARK  0 active torsions:
REMARK  status: ('A' for Active; 'I' for Inactive)
ROOT
ATOM      1  C   UNL d   1      -0.383   0.342  -1.598  0.00  0.00     0.077 C 
ATOM      2  C1  UNL d   1       0.519   0.303  -0.401  0.00  0.00    -0.074 A 
ATOM      3  C2  UNL d   1       1.446  -0.731  -0.233  0.00  0.00    -0.005 A 
ATOM      4  C3  UNL d   1       2.285  -0.749   0.882  0.00  0.00     0.006 A 
ATOM      5  C4  UNL d   1       2.205   0.264   1.838  0.00  0.00    -0.005 A 
ATOM      6  C5  UNL d   1       1.284   1.306   1.687  0.00  0.00    -0.074 A 
ATOM      7  C6  UNL d   1       1.192   2.408   2.700  0.00  0.00     0.077 C 
ATOM      8  C7  UNL d   1       0.450   1.321   0.561  0.00  0.00    -0.001 A 
ENDROOT
TORSDOF 0
ENDMDL
