MODEL 1
REMARK minimizedAffinity -1.45615268
REMARK minimizedRMSD -1
REMARK  0 active torsions:
REMARK  status: ('A' for Active; 'I' for Inactive)
ROOT
ATOM      1  C   UNL d   1       3.838  -1.288   3.027  0.00  0.00     0.077 C 
ATOM      2  C1  UNL d   1       2.532  -0.716   2.563  0.00  0.00    -0.074 A 
ATOM      3  C2  UNL d   1       1.499  -0.454   3.469  0.00  0.00    -0.005 A 
ATOM      4  C3  UNL d   1       0.293   0.088   3.023  0.00  0.00     0.006 A 
ATOM      5  C4  UNL d   1       0.108   0.372   1.670  0.00  0.00    -0.005 A 
ATOM      6  C5  UNL d   1       1.130   0.118   0.749  0.00  0.00    -0.074 A 
ATOM      7  C6  UNL d   1       0.952   0.428  -0.707  0.00  0.00     0.077 C 
ATOM      8  C7  UNL d   1       2.341  -0.419   1.206  0.00  0.00    -0.001 A 
ENDROOT
TORSDOF 0
ENDMDL
