MODEL 1
REMARK minimizedAffinity -1.11310339
REMARK minimizedRMSD -1
REMARK  0 active torsions:
REMARK  status: ('A' for Active; 'I' for Inactive)
ROOT
ATOM      1  C   UNL d   1      -0.407   2.214   2.200  0.00  0.00     0.077 C 
ATOM      2  C1  UNL d   1       0.185   1.147   1.327  0.00  0.00    -0.074 A 
ATOM      3  C2  UNL d   1       1.229   0.338   1.788  0.00  0.00    -0.005 A 
ATOM      4  C3  UNL d   1       1.762  -0.656   0.969  0.00  0.00     0.006 A 
ATOM      5  C4  UNL d   1       1.258  -0.852  -0.318  0.00  0.00    -0.005 A 
ATOM      6  C5  UNL d   1       0.214  -0.054  -0.795  0.00  0.00    -0.074 A 
ATOM      7  C6  UNL d   1      -0.346  -0.258  -2.171  0.00  0.00     0.077 C 
ATOM      8  C7  UNL d   1      -0.322   0.939   0.037  0.00  0.00    -0.001 A 
ENDROOT
TORSDOF 0
ENDMDL
