MODEL 1
REMARK minimizedAffinity -3.35306668
REMARK minimizedRMSD -1
REMARK  0 active torsions:
REMARK  status: ('A' for Active; 'I' for Inactive)
ROOT
ATOM      1  C   UNL d   1       0.922  -0.213  -0.156  0.00  0.00     0.077 C 
ATOM      2  C1  UNL d   1       0.569   1.063   0.550  0.00  0.00    -0.074 A 
ATOM      3  C2  UNL d   1       0.169   1.056   1.890  0.00  0.00    -0.005 A 
ATOM      4  C3  UNL d   1      -0.147   2.252   2.535  0.00  0.00     0.006 A 
ATOM      5  C4  UNL d   1      -0.067   3.464   1.848  0.00  0.00    -0.005 A 
ATOM      6  C5  UNL d   1       0.331   3.490   0.508  0.00  0.00    -0.074 A 
ATOM      7  C6  UNL d   1       0.432   4.785  -0.243  0.00  0.00     0.077 C 
ATOM      8  C7  UNL d   1       0.654   2.285  -0.132  0.00  0.00    -0.001 A 
ENDROOT
TORSDOF 0
ENDMDL
