MODEL 1
REMARK minimizedAffinity -3.7143023
REMARK minimizedRMSD -1
REMARK  0 active torsions:
REMARK  status: ('A' for Active; 'I' for Inactive)
ROOT
ATOM      1  C   UNL d   1       2.636   3.920   3.613  0.00  0.00     0.077 C 
ATOM      2  C1  UNL d   1       1.781   3.587   2.426  0.00  0.00    -0.074 A 
ATOM      3  C2  UNL d   1       1.567   4.522   1.409  0.00  0.00    -0.005 A 
ATOM      4  C3  UNL d   1       0.777   4.195   0.307  0.00  0.00     0.006 A 
ATOM      5  C4  UNL d   1       0.194   2.930   0.211  0.00  0.00    -0.005 A 
ATOM      6  C5  UNL d   1       0.397   1.982   1.218  0.00  0.00    -0.074 A 
ATOM      7  C6  UNL d   1      -0.214   0.615   1.126  0.00  0.00     0.077 C 
ATOM      8  C7  UNL d   1       1.198   2.316   2.319  0.00  0.00    -0.001 A 
ENDROOT
TORSDOF 0
ENDMDL
