MODEL 1
REMARK minimizedAffinity -2.63303518
REMARK minimizedRMSD -1
REMARK  0 active torsions:
REMARK  status: ('A' for Active; 'I' for Inactive)
ROOT
ATOM      1  C   UNL d   1       1.379   4.662  -0.310  0.00  0.00     0.077 C 
ATOM      2  C1  UNL d   1       0.846   3.412   0.326  0.00  0.00    -0.074 A 
ATOM      3  C2  UNL d   1      -0.015   2.561  -0.374  0.00  0.00    -0.005 A 
ATOM      4  C3  UNL d   1      -0.495   1.397   0.227  0.00  0.00     0.006 A 
ATOM      5  C4  UNL d   1      -0.120   1.074   1.532  0.00  0.00    -0.005 A 
ATOM      6  C5  UNL d   1       0.741   1.913   2.246  0.00  0.00    -0.074 A 
ATOM      7  C6  UNL d   1       1.162   1.575   3.646  0.00  0.00     0.077 C 
ATOM      8  C7  UNL d   1       1.225   3.077   1.633  0.00  0.00    -0.001 A 
ENDROOT
TORSDOF 0
ENDMDL
