MODEL 1
REMARK minimizedAffinity -4.6557889
REMARK minimizedRMSD -1
REMARK  0 active torsions:
REMARK  status: ('A' for Active; 'I' for Inactive)
ROOT
ATOM      1  C   UNL d   1      -3.087   0.792   1.154  0.00  0.00     0.078 C 
ATOM      2  C1  UNL d   1      -1.608   0.599   1.309  0.00  0.00    -0.077 A 
ATOM      3  C2  UNL d   1      -0.755   0.638   0.199  0.00  0.00    -0.001 A 
ATOM      4  C3  UNL d   1       0.619   0.447   0.358  0.00  0.00     0.003 A 
ATOM      5  C4  UNL d   1       1.152   0.215   1.624  0.00  0.00    -0.005 A 
ATOM      6  C5  UNL d   1       0.310   0.172   2.734  0.00  0.00     0.003 A 
ATOM      7  C6  UNL d   1      -1.064   0.362   2.578  0.00  0.00    -0.001 A 
ENDROOT
TORSDOF 0
ENDMDL
