MODEL 1
REMARK minimizedAffinity -4.56499815
REMARK minimizedRMSD -1
REMARK  0 active torsions:
REMARK  status: ('A' for Active; 'I' for Inactive)
ROOT
ATOM      1  C   UNL d   1      -2.834  -0.106   1.480  0.00  0.00     0.078 C 
ATOM      2  C1  UNL d   1      -1.341   0.012   1.422  0.00  0.00    -0.077 A 
ATOM      3  C2  UNL d   1      -0.557  -0.180   2.567  0.00  0.00    -0.001 A 
ATOM      4  C3  UNL d   1       0.831  -0.056   2.500  0.00  0.00     0.003 A 
ATOM      5  C4  UNL d   1       1.449   0.260   1.292  0.00  0.00    -0.005 A 
ATOM      6  C5  UNL d   1       0.678   0.455   0.148  0.00  0.00     0.003 A 
ATOM      7  C6  UNL d   1      -0.711   0.332   0.212  0.00  0.00    -0.001 A 
ENDROOT
TORSDOF 0
ENDMDL
