MODEL 1
REMARK minimizedAffinity -5.39913177
REMARK minimizedRMSD -1
REMARK  0 active torsions:
REMARK  status: ('A' for Active; 'I' for Inactive)
ROOT
ATOM      1  C   UNL d   1       0.382   0.478  -1.381  0.00  0.00     0.078 C 
ATOM      2  C1  UNL d   1       0.251   0.248   0.095  0.00  0.00    -0.077 A 
ATOM      3  C2  UNL d   1       1.344   0.427   0.952  0.00  0.00    -0.001 A 
ATOM      4  C3  UNL d   1       1.210   0.200   2.323  0.00  0.00     0.003 A 
ATOM      5  C4  UNL d   1      -0.015  -0.208   2.848  0.00  0.00    -0.005 A 
ATOM      6  C5  UNL d   1      -1.107  -0.391   2.003  0.00  0.00     0.003 A 
ATOM      7  C6  UNL d   1      -0.975  -0.164   0.632  0.00  0.00    -0.001 A 
ENDROOT
TORSDOF 0
ENDMDL
