MODEL 1
REMARK minimizedAffinity -4.82299757
REMARK minimizedRMSD -1
REMARK  0 active torsions:
REMARK  status: ('A' for Active; 'I' for Inactive)
ROOT
ATOM      1  C   UNL d   1       4.096  -0.559  -2.936  0.00  0.00     0.078 C 
ATOM      2  C1  UNL d   1       2.610  -0.712  -2.807  0.00  0.00    -0.077 A 
ATOM      3  C2  UNL d   1       1.928  -1.730  -3.484  0.00  0.00    -0.001 A 
ATOM      4  C3  UNL d   1       0.543  -1.855  -3.362  0.00  0.00     0.003 A 
ATOM      5  C4  UNL d   1      -0.172  -0.964  -2.564  0.00  0.00    -0.005 A 
ATOM      6  C5  UNL d   1       0.498   0.054  -1.888  0.00  0.00     0.003 A 
ATOM      7  C6  UNL d   1       1.882   0.181  -2.009  0.00  0.00    -0.001 A 
ENDROOT
TORSDOF 0
ENDMDL
