MODEL 1
REMARK minimizedAffinity -4.16043854
REMARK minimizedRMSD -1
REMARK  0 active torsions:
REMARK  status: ('A' for Active; 'I' for Inactive)
ROOT
ATOM      1  C   UNL d   1       0.501   0.009  -1.238  0.00  0.00     0.078 C 
ATOM      2  C1  UNL d   1       0.239   0.009   0.239  0.00  0.00    -0.077 A 
ATOM      3  C2  UNL d   1       1.005   0.797   1.107  0.00  0.00    -0.001 A 
ATOM      4  C3  UNL d   1       0.757   0.780   2.480  0.00  0.00     0.003 A 
ATOM      5  C4  UNL d   1      -0.256  -0.024   2.998  0.00  0.00    -0.005 A 
ATOM      6  C5  UNL d   1      -1.022  -0.813   2.142  0.00  0.00     0.003 A 
ATOM      7  C6  UNL d   1      -0.775  -0.798   0.769  0.00  0.00    -0.001 A 
ENDROOT
TORSDOF 0
ENDMDL
