MODEL 1
REMARK minimizedAffinity -5.00034857
REMARK minimizedRMSD -1
REMARK  0 active torsions:
REMARK  status: ('A' for Active; 'I' for Inactive)
ROOT
ATOM      1  C   UNL d   1      -0.376  -0.078  -1.076  0.00  0.00     0.078 C 
ATOM      2  C1  UNL d   1      -1.046   0.016   0.263  0.00  0.00    -0.077 A 
ATOM      3  C2  UNL d   1      -2.409   0.320   0.367  0.00  0.00    -0.001 A 
ATOM      4  C3  UNL d   1      -3.017   0.415   1.620  0.00  0.00     0.003 A 
ATOM      5  C4  UNL d   1      -2.269   0.207   2.778  0.00  0.00    -0.005 A 
ATOM      6  C5  UNL d   1      -0.912  -0.093   2.684  0.00  0.00     0.003 A 
ATOM      7  C6  UNL d   1      -0.302  -0.188   1.432  0.00  0.00    -0.001 A 
ENDROOT
TORSDOF 0
ENDMDL
