MODEL 1
REMARK minimizedAffinity -5.89505577
REMARK minimizedRMSD -1
REMARK  0 active torsions:
REMARK  status: ('A' for Active; 'I' for Inactive)
ROOT
ATOM      1  C   UNL d   1       0.358   0.364  -1.084  0.00  0.00     0.078 C 
ATOM      2  C1  UNL d   1      -0.187   0.111   0.290  0.00  0.00    -0.077 A 
ATOM      3  C2  UNL d   1      -1.566   0.015   0.512  0.00  0.00    -0.001 A 
ATOM      4  C3  UNL d   1      -2.060  -0.212   1.798  0.00  0.00     0.003 A 
ATOM      5  C4  UNL d   1      -1.182  -0.344   2.871  0.00  0.00    -0.005 A 
ATOM      6  C5  UNL d   1       0.192  -0.248   2.660  0.00  0.00     0.003 A 
ATOM      7  C6  UNL d   1       0.688  -0.022   1.376  0.00  0.00    -0.001 A 
ENDROOT
TORSDOF 0
ENDMDL
