MODEL 1
REMARK minimizedAffinity -5.13795471
REMARK minimizedRMSD -1
REMARK  0 active torsions:
REMARK  status: ('A' for Active; 'I' for Inactive)
ROOT
ATOM      1  C   UNL d   1       0.371   0.095  -1.212  0.00  0.00     0.078 C 
ATOM      2  C1  UNL d   1       0.140  -0.039   0.263  0.00  0.00    -0.077 A 
ATOM      3  C2  UNL d   1       1.129   0.329   1.184  0.00  0.00    -0.001 A 
ATOM      4  C3  UNL d   1       0.904   0.190   2.555  0.00  0.00     0.003 A 
ATOM      5  C4  UNL d   1      -0.308  -0.319   3.017  0.00  0.00    -0.005 A 
ATOM      6  C5  UNL d   1      -1.297  -0.690   2.108  0.00  0.00     0.003 A 
ATOM      7  C6  UNL d   1      -1.074  -0.552   0.737  0.00  0.00    -0.001 A 
ENDROOT
TORSDOF 0
ENDMDL
