MODEL 1
REMARK minimizedAffinity -5.22547388
REMARK minimizedRMSD -1
REMARK  0 active torsions:
REMARK  status: ('A' for Active; 'I' for Inactive)
ROOT
ATOM      1  C   UNL d   1      -3.548   0.170   1.035  0.00  0.00     0.078 C 
ATOM      2  C1  UNL d   1      -2.239  -0.142   1.699  0.00  0.00    -0.077 A 
ATOM      3  C2  UNL d   1      -1.060  -0.250   0.952  0.00  0.00    -0.001 A 
ATOM      4  C3  UNL d   1       0.149  -0.551   1.582  0.00  0.00     0.003 A 
ATOM      5  C4  UNL d   1       0.190  -0.746   2.961  0.00  0.00    -0.005 A 
ATOM      6  C5  UNL d   1      -0.979  -0.641   3.712  0.00  0.00     0.003 A 
ATOM      7  C6  UNL d   1      -2.189  -0.341   3.084  0.00  0.00    -0.001 A 
ENDROOT
TORSDOF 0
ENDMDL
