MODEL 1
REMARK minimizedAffinity -5.65493441
REMARK minimizedRMSD -1
REMARK  0 active torsions:
REMARK  status: ('A' for Active; 'I' for Inactive)
ROOT
ATOM      1  C   UNL d   1       0.166   0.480  -1.017  0.00  0.00     0.078 C 
ATOM      2  C1  UNL d   1      -0.015   0.270   0.457  0.00  0.00    -0.077 A 
ATOM      3  C2  UNL d   1      -1.229  -0.196   0.975  0.00  0.00    -0.001 A 
ATOM      4  C3  UNL d   1      -1.387  -0.377   2.350  0.00  0.00     0.003 A 
ATOM      5  C4  UNL d   1      -0.335  -0.094   3.219  0.00  0.00    -0.005 A 
ATOM      6  C5  UNL d   1       0.877   0.372   2.712  0.00  0.00     0.003 A 
ATOM      7  C6  UNL d   1       1.036   0.554   1.338  0.00  0.00    -0.001 A 
ENDROOT
TORSDOF 0
ENDMDL
