MODEL 1
REMARK minimizedAffinity -3.07547379
REMARK minimizedRMSD -1
REMARK  0 active torsions:
REMARK  status: ('A' for Active; 'I' for Inactive)
ROOT
ATOM      1  C   UNL d   1       0.114   0.185  -0.433  0.00  0.00     0.078 C 
ATOM      2  C1  UNL d   1       0.466  -0.314  -1.802  0.00  0.00    -0.077 A 
ATOM      3  C2  UNL d   1      -0.449  -1.060  -2.555  0.00  0.00    -0.001 A 
ATOM      4  C3  UNL d   1      -0.104  -1.527  -3.825  0.00  0.00     0.003 A 
ATOM      5  C4  UNL d   1       1.157  -1.255  -4.352  0.00  0.00    -0.005 A 
ATOM      6  C5  UNL d   1       2.075  -0.516  -3.609  0.00  0.00     0.003 A 
ATOM      7  C6  UNL d   1       1.732  -0.048  -2.339  0.00  0.00    -0.001 A 
ENDROOT
TORSDOF 0
ENDMDL
