MODEL 1
REMARK minimizedAffinity -4.63108587
REMARK minimizedRMSD -1
REMARK  0 active torsions:
REMARK  status: ('A' for Active; 'I' for Inactive)
ROOT
ATOM      1  C   UNL d   1       0.093   0.319  -0.922  0.00  0.00     0.078 C 
ATOM      2  C1  UNL d   1       0.288   0.529   0.550  0.00  0.00    -0.077 A 
ATOM      3  C2  UNL d   1      -0.608  -0.011   1.481  0.00  0.00    -0.001 A 
ATOM      4  C3  UNL d   1      -0.420   0.201   2.847  0.00  0.00     0.003 A 
ATOM      5  C4  UNL d   1       0.662   0.956   3.295  0.00  0.00    -0.005 A 
ATOM      6  C5  UNL d   1       1.558   1.500   2.377  0.00  0.00     0.003 A 
ATOM      7  C6  UNL d   1       1.371   1.288   1.010  0.00  0.00    -0.001 A 
ENDROOT
TORSDOF 0
ENDMDL
