MODEL 1
REMARK minimizedAffinity -4.69546747
REMARK minimizedRMSD -1
REMARK  0 active torsions:
REMARK  status: ('A' for Active; 'I' for Inactive)
ROOT
ATOM      1  C   UNL d   1      -1.889  -0.554   3.406  0.00  0.00     0.078 C 
ATOM      2  C1  UNL d   1      -0.994  -0.202   2.256  0.00  0.00    -0.077 A 
ATOM      3  C2  UNL d   1      -1.389  -0.444   0.934  0.00  0.00    -0.001 A 
ATOM      4  C3  UNL d   1      -0.542  -0.120  -0.126  0.00  0.00     0.003 A 
ATOM      5  C4  UNL d   1       0.706   0.448   0.124  0.00  0.00    -0.005 A 
ATOM      6  C5  UNL d   1       1.109   0.691   1.435  0.00  0.00     0.003 A 
ATOM      7  C6  UNL d   1       0.263   0.367   2.497  0.00  0.00    -0.001 A 
ENDROOT
TORSDOF 0
ENDMDL
