MODEL 1
REMARK minimizedAffinity -5.30550575
REMARK minimizedRMSD -1
REMARK  0 active torsions:
REMARK  status: ('A' for Active; 'I' for Inactive)
ROOT
ATOM      1  C   UNL d   1      -0.054   0.278  -0.976  0.00  0.00     0.078 C 
ATOM      2  C1  UNL d   1      -0.037  -0.128   0.468  0.00  0.00    -0.077 A 
ATOM      3  C2  UNL d   1       1.037   0.210   1.300  0.00  0.00    -0.001 A 
ATOM      4  C3  UNL d   1       1.044  -0.182   2.639  0.00  0.00     0.003 A 
ATOM      5  C4  UNL d   1      -0.021  -0.916   3.158  0.00  0.00    -0.005 A 
ATOM      6  C5  UNL d   1      -1.094  -1.259   2.338  0.00  0.00     0.003 A 
ATOM      7  C6  UNL d   1      -1.102  -0.868   0.998  0.00  0.00    -0.001 A 
ENDROOT
TORSDOF 0
ENDMDL
