MODEL 1
REMARK minimizedAffinity -4.8963871
REMARK minimizedRMSD -1
REMARK  0 active torsions:
REMARK  status: ('A' for Active; 'I' for Inactive)
ROOT
ATOM      1  C   UNL d   1       0.383   0.506  -1.213  0.00  0.00     0.078 C 
ATOM      2  C1  UNL d   1       0.383   0.337   0.277  0.00  0.00    -0.077 A 
ATOM      3  C2  UNL d   1      -0.621  -0.399   0.919  0.00  0.00    -0.001 A 
ATOM      4  C3  UNL d   1      -0.615  -0.541   2.307  0.00  0.00     0.003 A 
ATOM      5  C4  UNL d   1       0.392   0.052   3.066  0.00  0.00    -0.005 A 
ATOM      6  C5  UNL d   1       1.394   0.788   2.437  0.00  0.00     0.003 A 
ATOM      7  C6  UNL d   1       1.389   0.931   1.049  0.00  0.00    -0.001 A 
ENDROOT
TORSDOF 0
ENDMDL
