MODEL 1
REMARK minimizedAffinity -1.502846
REMARK minimizedRMSD -1
REMARK  0 active torsions:
REMARK  status: ('A' for Active; 'I' for Inactive)
ROOT
ATOM      1  C   UNL d   1      -1.747   0.403   3.420  0.00  0.00     0.078 C 
ATOM      2  C1  UNL d   1      -0.470   0.664   2.679  0.00  0.00    -0.077 A 
ATOM      3  C2  UNL d   1       0.557   1.420   3.256  0.00  0.00    -0.001 A 
ATOM      4  C3  UNL d   1       1.737   1.664   2.551  0.00  0.00     0.003 A 
ATOM      5  C4  UNL d   1       1.900   1.155   1.264  0.00  0.00    -0.005 A 
ATOM      6  C5  UNL d   1       0.882   0.403   0.680  0.00  0.00     0.003 A 
ATOM      7  C6  UNL d   1      -0.298   0.159   1.384  0.00  0.00    -0.001 A 
ENDROOT
TORSDOF 0
ENDMDL
