MODEL 1
REMARK minimizedAffinity 10.3848724
REMARK minimizedRMSD -1
REMARK  1 active torsions:
REMARK  status: ('A' for Active; 'I' for Inactive)
REMARK    1  A    between atoms: C1_2  and  C2_3 
ROOT
ATOM      1  C2  UNL d   1      -1.456  -5.305  -4.510  0.00  0.00    -0.077 A 
ATOM      2  C3  UNL d   1      -0.169  -5.860  -4.560  0.00  0.00     0.002 A 
ATOM      3  C4  UNL d   1       0.889  -5.251  -3.883  0.00  0.00     0.002 A 
ATOM      4  C5  UNL d   1       0.671  -4.088  -3.148  0.00  0.00    -0.004 A 
ATOM      5  C6  UNL d   1      -0.605  -3.527  -3.093  0.00  0.00     0.002 A 
ATOM      6  C7  UNL d   1      -1.663  -4.134  -3.771  0.00  0.00     0.002 A 
ENDROOT
BRANCH   1   7
ATOM      7  C1  UNL d   1      -2.609  -5.987  -5.199  0.00  0.00     0.055 C 
ATOM      8  C   UNL d   1      -3.861  -5.967  -4.335  0.00  0.00     0.019 C 
ENDBRANCH   1   7
TORSDOF 1
ENDMDL
