MODEL 1
REMARK minimizedAffinity 12.4193602
REMARK minimizedRMSD -1
REMARK  1 active torsions:
REMARK  status: ('A' for Active; 'I' for Inactive)
REMARK    1  A    between atoms: C1_2  and  C2_3 
ROOT
ATOM      1  C2  UNL d   1      -3.396  -0.394   0.938  0.00  0.00    -0.077 A 
ATOM      2  C3  UNL d   1      -2.699   0.444   1.820  0.00  0.00     0.002 A 
ATOM      3  C4  UNL d   1      -1.428   0.088   2.276  0.00  0.00     0.002 A 
ATOM      4  C5  UNL d   1      -0.842  -1.102   1.853  0.00  0.00    -0.004 A 
ATOM      5  C6  UNL d   1      -1.528  -1.943   0.977  0.00  0.00     0.002 A 
ATOM      6  C7  UNL d   1      -2.798  -1.590   0.521  0.00  0.00     0.002 A 
ENDROOT
BRANCH   1   7
ATOM      7  C1  UNL d   1      -4.745   0.012   0.406  0.00  0.00     0.055 C 
ATOM      8  C   UNL d   1      -4.736   1.450  -0.090  0.00  0.00     0.019 C 
ENDBRANCH   1   7
TORSDOF 1
ENDMDL
