MODEL 1
REMARK minimizedAffinity 6.93124199
REMARK minimizedRMSD -1
REMARK  1 active torsions:
REMARK  status: ('A' for Active; 'I' for Inactive)
REMARK    1  A    between atoms: C1_2  and  C2_3 
ROOT
ATOM      1  C2  UNL d   1      -1.199  -0.254   2.643  0.00  0.00    -0.077 A 
ATOM      2  C3  UNL d   1      -1.935   0.929   2.802  0.00  0.00     0.002 A 
ATOM      3  C4  UNL d   1      -3.010   1.211   1.956  0.00  0.00     0.002 A 
ATOM      4  C5  UNL d   1      -3.361   0.313   0.950  0.00  0.00    -0.004 A 
ATOM      5  C6  UNL d   1      -2.634  -0.865   0.783  0.00  0.00     0.002 A 
ATOM      6  C7  UNL d   1      -1.558  -1.147   1.626  0.00  0.00     0.002 A 
ENDROOT
BRANCH   1   7
ATOM      7  C1  UNL d   1      -0.070  -0.582   3.585  0.00  0.00     0.055 C 
ATOM      8  C   UNL d   1       0.785  -1.721   3.048  0.00  0.00     0.019 C 
ENDBRANCH   1   7
TORSDOF 1
ENDMDL
