MODEL 1
REMARK minimizedAffinity 4.0173173
REMARK minimizedRMSD -1
REMARK  1 active torsions:
REMARK  status: ('A' for Active; 'I' for Inactive)
REMARK    1  A    between atoms: C1_2  and  C2_3 
ROOT
ATOM      1  C2  UNL d   1      -2.553   0.706   3.599  0.00  0.00    -0.077 A 
ATOM      2  C3  UNL d   1      -3.216   0.550   2.375  0.00  0.00     0.002 A 
ATOM      3  C4  UNL d   1      -2.770  -0.391   1.444  0.00  0.00     0.002 A 
ATOM      4  C5  UNL d   1      -1.661  -1.184   1.731  0.00  0.00    -0.004 A 
ATOM      5  C6  UNL d   1      -0.993  -1.035   2.945  0.00  0.00     0.002 A 
ATOM      6  C7  UNL d   1      -1.437  -0.095   3.876  0.00  0.00     0.002 A 
ENDROOT
BRANCH   1   7
ATOM      7  C1  UNL d   1      -3.062   1.685   4.624  0.00  0.00     0.055 C 
ATOM      8  C   UNL d   1      -4.582   1.659   4.708  0.00  0.00     0.019 C 
ENDBRANCH   1   7
TORSDOF 1
ENDMDL
