MODEL 1
REMARK minimizedAffinity 14.4819307
REMARK minimizedRMSD -1
REMARK  1 active torsions:
REMARK  status: ('A' for Active; 'I' for Inactive)
REMARK    1  A    between atoms: C1_2  and  C2_3 
ROOT
ATOM      1  C2  UNL d   1       3.638   3.210  -3.534  0.00  0.00    -0.077 A 
ATOM      2  C3  UNL d   1       4.591   3.893  -2.766  0.00  0.00     0.002 A 
ATOM      3  C4  UNL d   1       5.759   4.378  -3.357  0.00  0.00     0.002 A 
ATOM      4  C5  UNL d   1       5.982   4.190  -4.720  0.00  0.00    -0.004 A 
ATOM      5  C6  UNL d   1       5.041   3.510  -5.492  0.00  0.00     0.002 A 
ATOM      6  C7  UNL d   1       3.874   3.023  -4.902  0.00  0.00     0.002 A 
ENDROOT
BRANCH   1   7
ATOM      7  C1  UNL d   1       2.355   2.729  -2.908  0.00  0.00     0.055 C 
ATOM      8  C   UNL d   1       1.399   3.885  -2.647  0.00  0.00     0.019 C 
ENDBRANCH   1   7
TORSDOF 1
ENDMDL
