MODEL 1
REMARK minimizedAffinity 9.80422974
REMARK minimizedRMSD -1
REMARK  1 active torsions:
REMARK  status: ('A' for Active; 'I' for Inactive)
REMARK    1  A    between atoms: C1_2  and  C2_3 
ROOT
ATOM      1  C2  UNL d   1      -4.037   0.455   1.768  0.00  0.00    -0.077 A 
ATOM      2  C3  UNL d   1      -3.194  -0.492   1.168  0.00  0.00     0.002 A 
ATOM      3  C4  UNL d   1      -1.949  -0.784   1.729  0.00  0.00     0.002 A 
ATOM      4  C5  UNL d   1      -1.538  -0.138   2.893  0.00  0.00    -0.004 A 
ATOM      5  C6  UNL d   1      -2.368   0.806   3.496  0.00  0.00     0.002 A 
ATOM      6  C7  UNL d   1      -3.612   1.101   2.936  0.00  0.00     0.002 A 
ENDROOT
BRANCH   1   7
ATOM      7  C1  UNL d   1      -5.400   0.736   1.192  0.00  0.00     0.055 C 
ATOM      8  C   UNL d   1      -5.363   0.770  -0.329  0.00  0.00     0.019 C 
ENDBRANCH   1   7
TORSDOF 1
ENDMDL
