MODEL 1
REMARK minimizedAffinity 6.00926876
REMARK minimizedRMSD -1
REMARK  1 active torsions:
REMARK  status: ('A' for Active; 'I' for Inactive)
REMARK    1  A    between atoms: C1_2  and  C2_3 
ROOT
ATOM      1  C2  UNL d   1      -4.140  -4.376   3.375  0.00  0.00    -0.077 A 
ATOM      2  C3  UNL d   1      -4.504  -5.686   3.714  0.00  0.00     0.002 A 
ATOM      3  C4  UNL d   1      -4.878  -5.999   5.022  0.00  0.00     0.002 A 
ATOM      4  C5  UNL d   1      -4.897  -5.007   6.000  0.00  0.00    -0.004 A 
ATOM      5  C6  UNL d   1      -4.535  -3.701   5.673  0.00  0.00     0.002 A 
ATOM      6  C7  UNL d   1      -4.159  -3.386   4.366  0.00  0.00     0.002 A 
ENDROOT
BRANCH   1   7
ATOM      7  C1  UNL d   1      -3.783  -4.026   1.954  0.00  0.00     0.055 C 
ATOM      8  C   UNL d   1      -3.186  -2.629   1.861  0.00  0.00     0.019 C 
ENDBRANCH   1   7
TORSDOF 1
ENDMDL
