MODEL 1
REMARK minimizedAffinity 10.5723581
REMARK minimizedRMSD -1
REMARK  1 active torsions:
REMARK  status: ('A' for Active; 'I' for Inactive)
REMARK    1  A    between atoms: C1_2  and  C2_3 
ROOT
ATOM      1  C2  UNL d   1       3.958   2.753   1.128  0.00  0.00    -0.077 A 
ATOM      2  C3  UNL d   1       3.917   1.576   0.369  0.00  0.00     0.002 A 
ATOM      3  C4  UNL d   1       2.693   1.025  -0.014  0.00  0.00     0.002 A 
ATOM      4  C5  UNL d   1       1.501   1.646   0.355  0.00  0.00    -0.004 A 
ATOM      5  C6  UNL d   1       1.532   2.816   1.112  0.00  0.00     0.002 A 
ATOM      6  C7  UNL d   1       2.755   3.368   1.497  0.00  0.00     0.002 A 
ENDROOT
BRANCH   1   7
ATOM      7  C1  UNL d   1       5.279   3.376   1.500  0.00  0.00     0.055 C 
ATOM      8  C   UNL d   1       6.000   3.917   0.274  0.00  0.00     0.019 C 
ENDBRANCH   1   7
TORSDOF 1
ENDMDL
