MODEL 1
REMARK minimizedAffinity 12.5999908
REMARK minimizedRMSD -1
REMARK  1 active torsions:
REMARK  status: ('A' for Active; 'I' for Inactive)
REMARK    1  A    between atoms: C1_2  and  C2_3 
ROOT
ATOM      1  C2  UNL d   1       2.305   2.193  -1.656  0.00  0.00    -0.077 A 
ATOM      2  C3  UNL d   1       1.757   2.591  -0.428  0.00  0.00     0.002 A 
ATOM      3  C4  UNL d   1       2.171   1.984   0.759  0.00  0.00     0.002 A 
ATOM      4  C5  UNL d   1       3.137   0.980   0.732  0.00  0.00    -0.004 A 
ATOM      5  C6  UNL d   1       3.686   0.576  -0.484  0.00  0.00     0.002 A 
ATOM      6  C7  UNL d   1       3.273   1.180  -1.673  0.00  0.00     0.002 A 
ENDROOT
BRANCH   1   7
ATOM      7  C1  UNL d   1       1.897   2.879  -2.933  0.00  0.00     0.055 C 
ATOM      8  C   UNL d   1       3.110   3.366  -3.712  0.00  0.00     0.019 C 
ENDBRANCH   1   7
TORSDOF 1
ENDMDL
