MODEL 1
REMARK minimizedAffinity 3.61268187
REMARK minimizedRMSD -1
REMARK  1 active torsions:
REMARK  status: ('A' for Active; 'I' for Inactive)
REMARK    1  A    between atoms: C1_2  and  C2_3 
ROOT
ATOM      1  C2  UNL d   1      -3.402  -0.235   1.128  0.00  0.00    -0.077 A 
ATOM      2  C3  UNL d   1      -3.349   0.765   2.108  0.00  0.00     0.002 A 
ATOM      3  C4  UNL d   1      -2.361   0.736   3.095  0.00  0.00     0.002 A 
ATOM      4  C5  UNL d   1      -1.417  -0.288   3.107  0.00  0.00    -0.004 A 
ATOM      5  C6  UNL d   1      -1.462  -1.289   2.137  0.00  0.00     0.002 A 
ATOM      6  C7  UNL d   1      -2.450  -1.262   1.151  0.00  0.00     0.002 A 
ENDROOT
BRANCH   1   7
ATOM      7  C1  UNL d   1      -4.437  -0.178   0.034  0.00  0.00     0.055 C 
ATOM      8  C   UNL d   1      -5.185   1.147   0.049  0.00  0.00     0.019 C 
ENDBRANCH   1   7
TORSDOF 1
ENDMDL
