MODEL 1
REMARK minimizedAffinity 18.5061874
REMARK minimizedRMSD -1
REMARK  1 active torsions:
REMARK  status: ('A' for Active; 'I' for Inactive)
REMARK    1  A    between atoms: C1_2  and  C2_3 
ROOT
ATOM      1  C2  UNL d   1       4.697   3.755  -2.950  0.00  0.00    -0.077 A 
ATOM      2  C3  UNL d   1       3.950   3.518  -4.113  0.00  0.00     0.002 A 
ATOM      3  C4  UNL d   1       2.799   2.728  -4.064  0.00  0.00     0.002 A 
ATOM      4  C5  UNL d   1       2.384   2.172  -2.856  0.00  0.00    -0.004 A 
ATOM      5  C6  UNL d   1       3.122   2.401  -1.694  0.00  0.00     0.002 A 
ATOM      6  C7  UNL d   1       4.272   3.189  -1.741  0.00  0.00     0.002 A 
ENDROOT
BRANCH   1   7
ATOM      7  C1  UNL d   1       5.910   4.647  -2.991  0.00  0.00     0.055 C 
ATOM      8  C   UNL d   1       5.947   5.587  -1.795  0.00  0.00     0.019 C 
ENDBRANCH   1   7
TORSDOF 1
ENDMDL
