MODEL 1
REMARK minimizedAffinity 9.75300694
REMARK minimizedRMSD -1
REMARK  1 active torsions:
REMARK  status: ('A' for Active; 'I' for Inactive)
REMARK    1  A    between atoms: C1_2  and  C2_3 
ROOT
ATOM      1  C2  UNL d   1       5.369   3.941  -2.067  0.00  0.00    -0.077 A 
ATOM      2  C3  UNL d   1       5.999   4.117  -3.307  0.00  0.00     0.002 A 
ATOM      3  C4  UNL d   1       5.392   3.661  -4.479  0.00  0.00     0.002 A 
ATOM      4  C5  UNL d   1       4.152   3.029  -4.423  0.00  0.00    -0.004 A 
ATOM      5  C6  UNL d   1       3.518   2.847  -3.194  0.00  0.00     0.002 A 
ATOM      6  C7  UNL d   1       4.123   3.302  -2.022  0.00  0.00     0.002 A 
ENDROOT
BRANCH   1   7
ATOM      7  C1  UNL d   1       5.998   4.476  -0.808  0.00  0.00     0.055 C 
ATOM      8  C   UNL d   1       5.942   5.997  -0.764  0.00  0.00     0.019 C 
ENDBRANCH   1   7
TORSDOF 1
ENDMDL
