MODEL 1
REMARK minimizedAffinity 8.51875591
REMARK minimizedRMSD -1
REMARK  1 active torsions:
REMARK  status: ('A' for Active; 'I' for Inactive)
REMARK    1  A    between atoms: C1_2  and  C2_3 
ROOT
ATOM      1  C2  UNL d   1      -3.293  -5.526  -4.998  0.00  0.00    -0.077 A 
ATOM      2  C3  UNL d   1      -3.800  -4.677  -4.005  0.00  0.00     0.002 A 
ATOM      3  C4  UNL d   1      -5.146  -4.306  -4.012  0.00  0.00     0.002 A 
ATOM      4  C5  UNL d   1      -5.997  -4.782  -5.006  0.00  0.00    -0.004 A 
ATOM      5  C6  UNL d   1      -5.502  -5.626  -6.000  0.00  0.00     0.002 A 
ATOM      6  C7  UNL d   1      -4.157  -5.997  -5.996  0.00  0.00     0.002 A 
ENDROOT
BRANCH   1   7
ATOM      7  C1  UNL d   1      -1.853  -5.967  -4.965  0.00  0.00     0.055 C 
ATOM      8  C   UNL d   1      -1.011  -5.042  -4.099  0.00  0.00     0.019 C 
ENDBRANCH   1   7
TORSDOF 1
ENDMDL
