MODEL 1
REMARK minimizedAffinity 10.2041063
REMARK minimizedRMSD -1
REMARK  1 active torsions:
REMARK  status: ('A' for Active; 'I' for Inactive)
REMARK    1  A    between atoms: C1_2  and  C2_3 
ROOT
ATOM      1  C2  UNL d   1      -3.341   0.190   0.894  0.00  0.00    -0.077 A 
ATOM      2  C3  UNL d   1      -3.537   0.780  -0.362  0.00  0.00     0.002 A 
ATOM      3  C4  UNL d   1      -4.817   1.159  -0.773  0.00  0.00     0.002 A 
ATOM      4  C5  UNL d   1      -5.909   0.956   0.068  0.00  0.00    -0.004 A 
ATOM      5  C6  UNL d   1      -5.724   0.367   1.319  0.00  0.00     0.002 A 
ATOM      6  C7  UNL d   1      -4.446  -0.013   1.731  0.00  0.00     0.002 A 
ENDROOT
BRANCH   1   7
ATOM      7  C1  UNL d   1      -1.955  -0.174   1.359  0.00  0.00     0.055 C 
ATOM      8  C   UNL d   1      -1.971  -0.704   2.786  0.00  0.00     0.019 C 
ENDBRANCH   1   7
TORSDOF 1
ENDMDL
