MODEL 1
REMARK minimizedAffinity 9.12817955
REMARK minimizedRMSD -1
REMARK  3 active torsions:
REMARK  status: ('A' for Active; 'I' for Inactive)
REMARK    1  A    between atoms: C3'_2  and  C2'_3 
REMARK    2  A    between atoms: C2'_3  and  C1'_4 
REMARK    3  A    between atoms: C1'_4  and  C1_5 
ROOT
ATOM      1  C1  N4B d   1      -0.397   2.109   1.836  0.00  0.00    -0.075 A 
ATOM      2  C2  N4B d   1      -0.802   1.539   0.609  0.00  0.00     0.002 A 
ATOM      3  C3  N4B d   1      -0.817   2.304  -0.531  0.00  0.00     0.002 A 
ATOM      4  C4  N4B d   1      -0.452   3.640  -0.466  0.00  0.00    -0.004 A 
ATOM      5  C5  N4B d   1      -0.037   4.176   0.719  0.00  0.00     0.002 A 
ATOM      6  C6  N4B d   1      -0.013   3.418   1.872  0.00  0.00     0.002 A 
ENDROOT
BRANCH   1   7
ATOM      7  C1' N4B d   1      -0.447   1.336   3.126  0.00  0.00     0.057 C 
BRANCH   7   8
ATOM      8  C2' N4B d   1       0.689   0.316   3.142  0.00  0.00     0.009 C 
BRANCH   8   9
ATOM      9  C3' N4B d   1       0.451  -0.782   4.164  0.00  0.00     0.004 C 
ATOM     10  C4' N4B d   1       1.506  -1.848   4.126  0.00  0.00     0.003 C 
ENDBRANCH   8   9
ENDBRANCH   7   8
ENDBRANCH   1   7
TORSDOF 3
ENDMDL
