MODEL 1
REMARK minimizedAffinity 5.44121456
REMARK minimizedRMSD -1
REMARK  3 active torsions:
REMARK  status: ('A' for Active; 'I' for Inactive)
REMARK    1  A    between atoms: C3'_2  and  C2'_3 
REMARK    2  A    between atoms: C2'_3  and  C1'_4 
REMARK    3  A    between atoms: C1'_4  and  C1_5 
ROOT
ATOM      1  C1  N4B d   1      -0.012  -1.906  -2.292  0.00  0.00    -0.075 A 
ATOM      2  C2  N4B d   1       0.063  -1.954  -3.701  0.00  0.00     0.002 A 
ATOM      3  C3  N4B d   1      -1.024  -1.591  -4.459  0.00  0.00     0.002 A 
ATOM      4  C4  N4B d   1      -2.197  -1.198  -3.832  0.00  0.00    -0.004 A 
ATOM      5  C5  N4B d   1      -2.252  -1.130  -2.470  0.00  0.00     0.002 A 
ATOM      6  C6  N4B d   1      -1.167  -1.488  -1.696  0.00  0.00     0.002 A 
ENDROOT
BRANCH   1   7
ATOM      7  C1' N4B d   1       1.121  -2.375  -1.420  0.00  0.00     0.057 C 
BRANCH   7   8
ATOM      8  C2' N4B d   1       0.739  -3.702  -0.772  0.00  0.00     0.009 C 
BRANCH   8   9
ATOM      9  C3' N4B d   1       1.957  -4.555  -0.462  0.00  0.00     0.004 C 
ATOM     10  C4' N4B d   1       1.773  -5.992  -0.848  0.00  0.00     0.003 C 
ENDBRANCH   8   9
ENDBRANCH   7   8
ENDBRANCH   1   7
TORSDOF 3
ENDMDL
