MODEL 1
REMARK minimizedAffinity 6.63070011
REMARK minimizedRMSD -1
REMARK  3 active torsions:
REMARK  status: ('A' for Active; 'I' for Inactive)
REMARK    1  A    between atoms: C3'_2  and  C2'_3 
REMARK    2  A    between atoms: C2'_3  and  C1'_4 
REMARK    3  A    between atoms: C1'_4  and  C1_5 
ROOT
ATOM      1  C1  N4B d   1      -1.082   3.277   0.917  0.00  0.00    -0.075 A 
ATOM      2  C2  N4B d   1      -0.781   2.520  -0.237  0.00  0.00     0.002 A 
ATOM      3  C3  N4B d   1      -0.471   3.156  -1.414  0.00  0.00     0.002 A 
ATOM      4  C4  N4B d   1      -0.473   4.542  -1.466  0.00  0.00    -0.004 A 
ATOM      5  C5  N4B d   1      -0.739   5.266  -0.340  0.00  0.00     0.002 A 
ATOM      6  C6  N4B d   1      -1.049   4.640   0.850  0.00  0.00     0.002 A 
ENDROOT
BRANCH   1   7
ATOM      7  C1' N4B d   1      -1.511   2.627   2.204  0.00  0.00     0.057 C 
BRANCH   7   8
ATOM      8  C2' N4B d   1      -0.299   1.974   2.863  0.00  0.00     0.009 C 
BRANCH   8   9
ATOM      9  C3' N4B d   1       1.006   2.583   2.381  0.00  0.00     0.004 C 
ATOM     10  C4' N4B d   1       1.801   3.205   3.490  0.00  0.00     0.003 C 
ENDBRANCH   8   9
ENDBRANCH   7   8
ENDBRANCH   1   7
TORSDOF 3
ENDMDL
