MODEL 1
REMARK minimizedAffinity 8.77105808
REMARK minimizedRMSD -1
REMARK  3 active torsions:
REMARK  status: ('A' for Active; 'I' for Inactive)
REMARK    1  A    between atoms: C3'_2  and  C2'_3 
REMARK    2  A    between atoms: C2'_3  and  C1'_4 
REMARK    3  A    between atoms: C1'_4  and  C1_5 
ROOT
ATOM      1  C1  N4B d   1      -0.611   0.607  -1.157  0.00  0.00    -0.075 A 
ATOM      2  C2  N4B d   1      -1.948   0.179  -1.313  0.00  0.00     0.002 A 
ATOM      3  C3  N4B d   1      -2.233  -0.906  -2.105  0.00  0.00     0.002 A 
ATOM      4  C4  N4B d   1      -1.205  -1.564  -2.763  0.00  0.00    -0.004 A 
ATOM      5  C5  N4B d   1       0.086  -1.160  -2.586  0.00  0.00     0.002 A 
ATOM      6  C6  N4B d   1       0.388  -0.074  -1.790  0.00  0.00     0.002 A 
ENDROOT
BRANCH   1   7
ATOM      7  C1' N4B d   1      -0.259   1.840  -0.370  0.00  0.00     0.057 C 
BRANCH   7   8
ATOM      8  C2' N4B d   1      -0.700   3.075  -1.150  0.00  0.00     0.009 C 
BRANCH   8   9
ATOM      9  C3' N4B d   1       0.054   4.320  -0.716  0.00  0.00     0.004 C 
ATOM     10  C4' N4B d   1      -0.598   5.587  -1.186  0.00  0.00     0.003 C 
ENDBRANCH   8   9
ENDBRANCH   7   8
ENDBRANCH   1   7
TORSDOF 3
ENDMDL
