MODEL 1
REMARK minimizedAffinity 3.67480803
REMARK minimizedRMSD -1
REMARK  3 active torsions:
REMARK  status: ('A' for Active; 'I' for Inactive)
REMARK    1  A    between atoms: C3'_2  and  C2'_3 
REMARK    2  A    between atoms: C2'_3  and  C1'_4 
REMARK    3  A    between atoms: C1'_4  and  C1_5 
ROOT
ATOM      1  C1  N4B d   1      -3.410   0.033  -0.722  0.00  0.00    -0.075 A 
ATOM      2  C2  N4B d   1      -3.372  -0.261   0.659  0.00  0.00     0.002 A 
ATOM      3  C3  N4B d   1      -4.422   0.102   1.468  0.00  0.00     0.002 A 
ATOM      4  C4  N4B d   1      -5.506   0.773   0.924  0.00  0.00    -0.004 A 
ATOM      5  C5  N4B d   1      -5.547   1.031  -0.415  0.00  0.00     0.002 A 
ATOM      6  C6  N4B d   1      -4.501   0.669  -1.241  0.00  0.00     0.002 A 
ENDROOT
BRANCH   1   7
ATOM      7  C1' N4B d   1      -2.249  -0.267  -1.630  0.00  0.00     0.057 C 
BRANCH   7   8
ATOM      8  C2' N4B d   1      -1.015   0.475  -1.126  0.00  0.00     0.009 C 
BRANCH   8   9
ATOM      9  C3' N4B d   1      -1.105   1.969  -1.385  0.00  0.00     0.004 C 
ATOM     10  C4' N4B d   1      -0.298   2.777  -0.413  0.00  0.00     0.003 C 
ENDBRANCH   8   9
ENDBRANCH   7   8
ENDBRANCH   1   7
TORSDOF 3
ENDMDL
