MODEL 1
REMARK minimizedAffinity 7.73619604
REMARK minimizedRMSD -1
REMARK  3 active torsions:
REMARK  status: ('A' for Active; 'I' for Inactive)
REMARK    1  A    between atoms: C3'_2  and  C2'_3 
REMARK    2  A    between atoms: C2'_3  and  C1'_4 
REMARK    3  A    between atoms: C1'_4  and  C1_5 
ROOT
ATOM      1  C1  N4B d   1      -0.717   2.186   1.190  0.00  0.00    -0.075 A 
ATOM      2  C2  N4B d   1      -0.608   1.401   0.022  0.00  0.00     0.002 A 
ATOM      3  C3  N4B d   1      -0.544   2.007  -1.209  0.00  0.00     0.002 A 
ATOM      4  C4  N4B d   1      -0.607   3.389  -1.297  0.00  0.00    -0.004 A 
ATOM      5  C5  N4B d   1      -0.687   4.141  -0.162  0.00  0.00     0.002 A 
ATOM      6  C6  N4B d   1      -0.747   3.546   1.082  0.00  0.00     0.002 A 
ENDROOT
BRANCH   1   7
ATOM      7  C1' N4B d   1      -0.876   1.566   2.552  0.00  0.00     0.057 C 
BRANCH   7   8
ATOM      8  C2' N4B d   1       0.454   0.954   2.982  0.00  0.00     0.009 C 
BRANCH   8   9
ATOM      9  C3' N4B d   1       0.301   0.065   4.204  0.00  0.00     0.004 C 
ATOM     10  C4' N4B d   1       1.057  -1.225   4.082  0.00  0.00     0.003 C 
ENDBRANCH   8   9
ENDBRANCH   7   8
ENDBRANCH   1   7
TORSDOF 3
ENDMDL
