MODEL 1
REMARK minimizedAffinity 8.97440052
REMARK minimizedRMSD -1
REMARK  3 active torsions:
REMARK  status: ('A' for Active; 'I' for Inactive)
REMARK    1  A    between atoms: C3'_2  and  C2'_3 
REMARK    2  A    between atoms: C2'_3  and  C1'_4 
REMARK    3  A    between atoms: C1'_4  and  C1_5 
ROOT
ATOM      1  C1  N4B d   1      -1.076   0.640  -0.997  0.00  0.00    -0.075 A 
ATOM      2  C2  N4B d   1      -0.712  -0.661  -1.408  0.00  0.00     0.002 A 
ATOM      3  C3  N4B d   1      -1.682  -1.609  -1.626  0.00  0.00     0.002 A 
ATOM      4  C4  N4B d   1      -3.015  -1.286  -1.423  0.00  0.00    -0.004 A 
ATOM      5  C5  N4B d   1      -3.360  -0.020  -1.051  0.00  0.00     0.002 A 
ATOM      6  C6  N4B d   1      -2.397   0.944  -0.832  0.00  0.00     0.002 A 
ENDROOT
BRANCH   1   7
ATOM      7  C1' N4B d   1      -0.047   1.685  -0.663  0.00  0.00     0.057 C 
BRANCH   7   8
ATOM      8  C2' N4B d   1      -0.542   3.046  -1.142  0.00  0.00     0.009 C 
BRANCH   8   9
ATOM      9  C3' N4B d   1       0.390   4.170  -0.721  0.00  0.00     0.004 C 
ATOM     10  C4' N4B d   1      -0.086   5.519  -1.171  0.00  0.00     0.003 C 
ENDBRANCH   8   9
ENDBRANCH   7   8
ENDBRANCH   1   7
TORSDOF 3
ENDMDL
