MODEL 1
REMARK minimizedAffinity 4.69184875
REMARK minimizedRMSD -1
REMARK  0 active torsions:
REMARK  status: ('A' for Active; 'I' for Inactive)
ROOT
ATOM      1  C   UNL d   1       2.796   0.009  -6.000  0.00  0.00     0.078 C 
ATOM      2  C1  UNL d   1       1.636  -0.656  -5.320  0.00  0.00    -0.077 A 
ATOM      3  C2  UNL d   1       0.387  -0.746  -5.946  0.00  0.00    -0.001 A 
ATOM      4  C3  UNL d   1      -0.685  -1.359  -5.297  0.00  0.00     0.003 A 
ATOM      5  C4  UNL d   1      -0.520  -1.885  -4.017  0.00  0.00    -0.005 A 
ATOM      6  C5  UNL d   1       0.718  -1.798  -3.385  0.00  0.00     0.003 A 
ATOM      7  C6  UNL d   1       1.792  -1.186  -4.033  0.00  0.00    -0.001 A 
ENDROOT
TORSDOF 0
ENDMDL
