MODEL 1
REMARK minimizedAffinity 3.70757532
REMARK minimizedRMSD -1
REMARK  0 active torsions:
REMARK  status: ('A' for Active; 'I' for Inactive)
ROOT
ATOM      1  C   UNL d   1      -1.546  -1.630   2.969  0.00  0.00     0.078 C 
ATOM      2  C1  UNL d   1      -0.062  -1.586   3.180  0.00  0.00    -0.077 A 
ATOM      3  C2  UNL d   1       0.823  -1.697   2.100  0.00  0.00    -0.001 A 
ATOM      4  C3  UNL d   1       2.202  -1.664   2.312  0.00  0.00     0.003 A 
ATOM      5  C4  UNL d   1       2.709  -1.522   3.603  0.00  0.00    -0.005 A 
ATOM      6  C5  UNL d   1       1.836  -1.413   4.683  0.00  0.00     0.003 A 
ATOM      7  C6  UNL d   1       0.456  -1.446   4.473  0.00  0.00    -0.001 A 
ENDROOT
TORSDOF 0
ENDMDL
