MODEL 1
REMARK minimizedAffinity 0.0806091204
REMARK minimizedRMSD -1
REMARK  0 active torsions:
REMARK  status: ('A' for Active; 'I' for Inactive)
ROOT
ATOM      1  C   UNL d   1       2.246  -2.454  -2.361  0.00  0.00     0.078 C 
ATOM      2  C1  UNL d   1       1.758  -1.829  -3.633  0.00  0.00    -0.077 A 
ATOM      3  C2  UNL d   1       2.554  -0.921  -4.343  0.00  0.00    -0.001 A 
ATOM      4  C3  UNL d   1       2.083  -0.340  -5.521  0.00  0.00     0.003 A 
ATOM      5  C4  UNL d   1       0.813  -0.659  -6.000  0.00  0.00    -0.005 A 
ATOM      6  C5  UNL d   1       0.013  -1.560  -5.299  0.00  0.00     0.003 A 
ATOM      7  C6  UNL d   1       0.483  -2.142  -4.121  0.00  0.00    -0.001 A 
ENDROOT
TORSDOF 0
ENDMDL
