MODEL 1
REMARK minimizedAffinity -4.66042185
REMARK minimizedRMSD -1
REMARK  0 active torsions:
REMARK  status: ('A' for Active; 'I' for Inactive)
ROOT
ATOM      1  C   UNL d   1       1.745  -1.445   3.265  0.00  0.00     0.078 C 
ATOM      2  C1  UNL d   1       0.597  -0.877   2.485  0.00  0.00    -0.077 A 
ATOM      3  C2  UNL d   1      -0.706  -1.357   2.666  0.00  0.00    -0.001 A 
ATOM      4  C3  UNL d   1      -1.763  -0.825   1.926  0.00  0.00     0.003 A 
ATOM      5  C4  UNL d   1      -1.529   0.188   0.999  0.00  0.00    -0.005 A 
ATOM      6  C5  UNL d   1      -0.235   0.670   0.810  0.00  0.00     0.003 A 
ATOM      7  C6  UNL d   1       0.823   0.140   1.549  0.00  0.00    -0.001 A 
ENDROOT
TORSDOF 0
ENDMDL
