MODEL 1
REMARK minimizedAffinity 3.44945979
REMARK minimizedRMSD -1
REMARK  0 active torsions:
REMARK  status: ('A' for Active; 'I' for Inactive)
ROOT
ATOM      1  C   UNL d   1       0.602  -1.845   2.442  0.00  0.00     0.078 C 
ATOM      2  C1  UNL d   1       1.425  -1.618   3.675  0.00  0.00    -0.077 A 
ATOM      3  C2  UNL d   1       2.799  -1.891   3.686  0.00  0.00    -0.001 A 
ATOM      4  C3  UNL d   1       3.551  -1.684   4.843  0.00  0.00     0.003 A 
ATOM      5  C4  UNL d   1       2.938  -1.204   5.999  0.00  0.00    -0.005 A 
ATOM      6  C5  UNL d   1       1.571  -0.932   5.999  0.00  0.00     0.003 A 
ATOM      7  C6  UNL d   1       0.818  -1.138   4.842  0.00  0.00    -0.001 A 
ENDROOT
TORSDOF 0
ENDMDL
