MODEL 1
REMARK minimizedAffinity 0.65406698
REMARK minimizedRMSD -1
REMARK  0 active torsions:
REMARK  status: ('A' for Active; 'I' for Inactive)
ROOT
ATOM      1  C   UNL d   1      -0.590  -0.963  -4.959  0.00  0.00     0.078 C 
ATOM      2  C1  UNL d   1       0.907  -0.974  -4.877  0.00  0.00    -0.077 A 
ATOM      3  C2  UNL d   1       1.691  -0.484  -5.930  0.00  0.00    -0.001 A 
ATOM      4  C3  UNL d   1       3.084  -0.510  -5.844  0.00  0.00     0.003 A 
ATOM      5  C4  UNL d   1       3.705  -1.026  -4.709  0.00  0.00    -0.005 A 
ATOM      6  C5  UNL d   1       2.934  -1.517  -3.658  0.00  0.00     0.003 A 
ATOM      7  C6  UNL d   1       1.541  -1.493  -3.741  0.00  0.00    -0.001 A 
ENDROOT
TORSDOF 0
ENDMDL
