MODEL 1
REMARK minimizedAffinity -0.404565305
REMARK minimizedRMSD -1
REMARK  0 active torsions:
REMARK  status: ('A' for Active; 'I' for Inactive)
ROOT
ATOM      1  C   UNL d   1      -2.188  -2.008   2.289  0.00  0.00     0.078 C 
ATOM      2  C1  UNL d   1      -0.871  -1.333   2.533  0.00  0.00    -0.077 A 
ATOM      3  C2  UNL d   1       0.264  -2.073   2.887  0.00  0.00    -0.001 A 
ATOM      4  C3  UNL d   1       1.481  -1.430   3.121  0.00  0.00     0.003 A 
ATOM      5  C4  UNL d   1       1.574  -0.045   3.005  0.00  0.00    -0.005 A 
ATOM      6  C5  UNL d   1       0.449   0.700   2.656  0.00  0.00     0.003 A 
ATOM      7  C6  UNL d   1      -0.768   0.059   2.422  0.00  0.00    -0.001 A 
ENDROOT
TORSDOF 0
ENDMDL
