MODEL 1
REMARK minimizedAffinity 4.12615919
REMARK minimizedRMSD -1
REMARK  0 active torsions:
REMARK  status: ('A' for Active; 'I' for Inactive)
ROOT
ATOM      1  C   UNL d   1       1.242  -0.415  -5.355  0.00  0.00     0.078 C 
ATOM      2  C1  UNL d   1       2.704  -0.416  -5.024  0.00  0.00    -0.077 A 
ATOM      3  C2  UNL d   1       3.163  -0.881  -3.785  0.00  0.00    -0.001 A 
ATOM      4  C3  UNL d   1       4.527  -0.866  -3.487  0.00  0.00     0.003 A 
ATOM      5  C4  UNL d   1       5.442  -0.387  -4.421  0.00  0.00    -0.005 A 
ATOM      6  C5  UNL d   1       4.995   0.080  -5.656  0.00  0.00     0.003 A 
ATOM      7  C6  UNL d   1       3.632   0.066  -5.956  0.00  0.00    -0.001 A 
ENDROOT
TORSDOF 0
ENDMDL
