MODEL 1
REMARK minimizedAffinity -3.74398661
REMARK minimizedRMSD -1
REMARK  0 active torsions:
REMARK  status: ('A' for Active; 'I' for Inactive)
ROOT
ATOM      1  C   UNL d   1       1.776   2.793  -3.926  0.00  0.00     0.077 C 
ATOM      2  C1  UNL d   1       1.879   2.429  -2.474  0.00  0.00    -0.074 A 
ATOM      3  C2  UNL d   1       3.082   2.583  -1.779  0.00  0.00    -0.005 A 
ATOM      4  C3  UNL d   1       3.161   2.249  -0.427  0.00  0.00     0.006 A 
ATOM      5  C4  UNL d   1       2.038   1.759   0.242  0.00  0.00    -0.005 A 
ATOM      6  C5  UNL d   1       0.826   1.600  -0.437  0.00  0.00    -0.074 A 
ATOM      7  C6  UNL d   1      -0.392   1.084   0.269  0.00  0.00     0.077 C 
ATOM      8  C7  UNL d   1       0.754   1.944  -1.794  0.00  0.00    -0.001 A 
ENDROOT
TORSDOF 0
ENDMDL
