MODEL 1
REMARK minimizedAffinity -3.58319449
REMARK minimizedRMSD -1
REMARK  0 active torsions:
REMARK  status: ('A' for Active; 'I' for Inactive)
ROOT
ATOM      1  C   UNL d   1       0.181   1.905  -0.533  0.00  0.00     0.077 C 
ATOM      2  C1  UNL d   1       0.653   2.249  -1.914  0.00  0.00    -0.074 A 
ATOM      3  C2  UNL d   1      -0.185   2.914  -2.815  0.00  0.00    -0.005 A 
ATOM      4  C3  UNL d   1       0.271   3.236  -4.093  0.00  0.00     0.006 A 
ATOM      5  C4  UNL d   1       1.567   2.897  -4.483  0.00  0.00    -0.005 A 
ATOM      6  C5  UNL d   1       2.420   2.232  -3.595  0.00  0.00    -0.074 A 
ATOM      7  C6  UNL d   1       3.819   1.869  -3.995  0.00  0.00     0.077 C 
ATOM      8  C7  UNL d   1       1.956   1.919  -2.310  0.00  0.00    -0.001 A 
ENDROOT
TORSDOF 0
ENDMDL
