MODEL 1
REMARK minimizedAffinity 3.4552331
REMARK minimizedRMSD -1
REMARK  0 active torsions:
REMARK  status: ('A' for Active; 'I' for Inactive)
ROOT
ATOM      1  C   UNL d   1       3.518   1.560  -3.151  0.00  0.00     0.077 C 
ATOM      2  C1  UNL d   1       2.046   1.425  -3.406  0.00  0.00    -0.074 A 
ATOM      3  C2  UNL d   1       1.391   2.277  -4.301  0.00  0.00    -0.005 A 
ATOM      4  C3  UNL d   1       0.023   2.134  -4.535  0.00  0.00     0.006 A 
ATOM      5  C4  UNL d   1      -0.701   1.138  -3.878  0.00  0.00    -0.005 A 
ATOM      6  C5  UNL d   1      -0.062   0.276  -2.981  0.00  0.00    -0.074 A 
ATOM      7  C6  UNL d   1      -0.824  -0.806  -2.275  0.00  0.00     0.077 C 
ATOM      8  C7  UNL d   1       1.313   0.422  -2.757  0.00  0.00    -0.001 A 
ENDROOT
TORSDOF 0
ENDMDL
