MODEL 1
REMARK minimizedAffinity -1.57660246
REMARK minimizedRMSD -1
REMARK  0 active torsions:
REMARK  status: ('A' for Active; 'I' for Inactive)
ROOT
ATOM      1  C   UNL d   1       3.561   3.302   1.515  0.00  0.00     0.077 C 
ATOM      2  C1  UNL d   1       3.475   1.808   1.618  0.00  0.00    -0.074 A 
ATOM      3  C2  UNL d   1       2.319   1.126   1.224  0.00  0.00    -0.005 A 
ATOM      4  C3  UNL d   1       2.257  -0.265   1.317  0.00  0.00     0.006 A 
ATOM      5  C4  UNL d   1       3.348  -0.986   1.804  0.00  0.00    -0.005 A 
ATOM      6  C5  UNL d   1       4.512  -0.321   2.203  0.00  0.00    -0.074 A 
ATOM      7  C6  UNL d   1       5.697  -1.081   2.720  0.00  0.00     0.077 C 
ATOM      8  C7  UNL d   1       4.569   1.076   2.100  0.00  0.00    -0.001 A 
ENDROOT
TORSDOF 0
ENDMDL
