MODEL 1
REMARK minimizedAffinity -3.83222485
REMARK minimizedRMSD -1
REMARK  0 active torsions:
REMARK  status: ('A' for Active; 'I' for Inactive)
ROOT
ATOM      1  C   UNL d   1      -2.163  -2.330   0.720  0.00  0.00     0.077 C 
ATOM      2  C1  UNL d   1      -1.290  -1.135   0.480  0.00  0.00    -0.074 A 
ATOM      3  C2  UNL d   1      -0.056  -1.265  -0.166  0.00  0.00    -0.005 A 
ATOM      4  C3  UNL d   1       0.741  -0.143  -0.391  0.00  0.00     0.006 A 
ATOM      5  C4  UNL d   1       0.314   1.118   0.028  0.00  0.00    -0.005 A 
ATOM      6  C5  UNL d   1      -0.916   1.267   0.675  0.00  0.00    -0.074 A 
ATOM      7  C6  UNL d   1      -1.394   2.617   1.123  0.00  0.00     0.077 C 
ATOM      8  C7  UNL d   1      -1.715   0.136   0.891  0.00  0.00    -0.001 A 
ENDROOT
TORSDOF 0
ENDMDL
