MODEL 1
REMARK minimizedAffinity -3.0149157
REMARK minimizedRMSD -1
REMARK  0 active torsions:
REMARK  status: ('A' for Active; 'I' for Inactive)
ROOT
ATOM      1  C   UNL d   1       0.512   1.130  -0.545  0.00  0.00     0.077 C 
ATOM      2  C1  UNL d   1       1.087   1.648  -1.830  0.00  0.00    -0.074 A 
ATOM      3  C2  UNL d   1       0.262   2.200  -2.815  0.00  0.00    -0.005 A 
ATOM      4  C3  UNL d   1       0.812   2.686  -4.001  0.00  0.00     0.006 A 
ATOM      5  C4  UNL d   1       2.190   2.626  -4.213  0.00  0.00    -0.005 A 
ATOM      6  C5  UNL d   1       3.031   2.079  -3.239  0.00  0.00    -0.074 A 
ATOM      7  C6  UNL d   1       4.515   2.015  -3.447  0.00  0.00     0.077 C 
ATOM      8  C7  UNL d   1       2.471   1.598  -2.047  0.00  0.00    -0.001 A 
ENDROOT
TORSDOF 0
ENDMDL
