MODEL 1
REMARK minimizedAffinity 0.965839088
REMARK minimizedRMSD -1
REMARK  0 active torsions:
REMARK  status: ('A' for Active; 'I' for Inactive)
ROOT
ATOM      1  C   UNL d   1       1.567   1.829  -4.768  0.00  0.00     0.077 C 
ATOM      2  C1  UNL d   1       0.733   2.206  -3.580  0.00  0.00    -0.074 A 
ATOM      3  C2  UNL d   1       0.086   3.444  -3.519  0.00  0.00    -0.005 A 
ATOM      4  C3  UNL d   1      -0.694   3.776  -2.412  0.00  0.00     0.006 A 
ATOM      5  C4  UNL d   1      -0.835   2.876  -1.355  0.00  0.00    -0.005 A 
ATOM      6  C5  UNL d   1      -0.196   1.632  -1.398  0.00  0.00    -0.074 A 
ATOM      7  C6  UNL d   1      -0.344   0.649  -0.276  0.00  0.00     0.077 C 
ATOM      8  C7  UNL d   1       0.580   1.303  -2.518  0.00  0.00    -0.001 A 
ENDROOT
TORSDOF 0
ENDMDL
