MODEL 1
REMARK minimizedAffinity -0.106428675
REMARK minimizedRMSD -1
REMARK  0 active torsions:
REMARK  status: ('A' for Active; 'I' for Inactive)
ROOT
ATOM      1  C   UNL d   1       0.049  -0.232  -0.455  0.00  0.00     0.077 C 
ATOM      2  C1  UNL d   1       1.213   0.417   0.233  0.00  0.00    -0.074 A 
ATOM      3  C2  UNL d   1       1.191   1.778   0.553  0.00  0.00    -0.005 A 
ATOM      4  C3  UNL d   1       2.277   2.366   1.202  0.00  0.00     0.006 A 
ATOM      5  C4  UNL d   1       3.394   1.600   1.537  0.00  0.00    -0.005 A 
ATOM      6  C5  UNL d   1       3.434   0.237   1.226  0.00  0.00    -0.074 A 
ATOM      7  C6  UNL d   1       4.623  -0.603   1.588  0.00  0.00     0.077 C 
ATOM      8  C7  UNL d   1       2.336  -0.348   0.580  0.00  0.00    -0.001 A 
ENDROOT
TORSDOF 0
ENDMDL
