MODEL 1
REMARK minimizedAffinity -3.84595275
REMARK minimizedRMSD -1
REMARK  0 active torsions:
REMARK  status: ('A' for Active; 'I' for Inactive)
ROOT
ATOM      1  C   UNL d   1      -1.739  -2.685   1.012  0.00  0.00     0.077 C 
ATOM      2  C1  UNL d   1      -1.262  -1.291   0.729  0.00  0.00    -0.074 A 
ATOM      3  C2  UNL d   1      -2.170  -0.239   0.572  0.00  0.00    -0.005 A 
ATOM      4  C3  UNL d   1      -1.712   1.054   0.319  0.00  0.00     0.006 A 
ATOM      5  C4  UNL d   1      -0.343   1.307   0.221  0.00  0.00    -0.005 A 
ATOM      6  C5  UNL d   1       0.580   0.268   0.376  0.00  0.00    -0.074 A 
ATOM      7  C6  UNL d   1       2.055   0.525   0.283  0.00  0.00     0.077 C 
ATOM      8  C7  UNL d   1       0.111  -1.027   0.637  0.00  0.00    -0.001 A 
ENDROOT
TORSDOF 0
ENDMDL
