MODEL 1
REMARK minimizedAffinity -2.44887853
REMARK minimizedRMSD -1
REMARK  0 active torsions:
REMARK  status: ('A' for Active; 'I' for Inactive)
ROOT
ATOM      1  C   UNL d   1      -1.310   1.486   0.218  0.00  0.00     0.077 C 
ATOM      2  C1  UNL d   1      -0.264   0.775  -0.589  0.00  0.00    -0.074 A 
ATOM      3  C2  UNL d   1      -0.124  -0.615  -0.519  0.00  0.00    -0.005 A 
ATOM      4  C3  UNL d   1       0.847  -1.263  -1.283  0.00  0.00     0.006 A 
ATOM      5  C4  UNL d   1       1.686  -0.529  -2.122  0.00  0.00    -0.005 A 
ATOM      6  C5  UNL d   1       1.559   0.861  -2.206  0.00  0.00    -0.074 A 
ATOM      7  C6  UNL d   1       2.446   1.663  -3.111  0.00  0.00     0.077 C 
ATOM      8  C7  UNL d   1       0.577   1.504  -1.441  0.00  0.00    -0.001 A 
ENDROOT
TORSDOF 0
ENDMDL
