MODEL 1
REMARK minimizedAffinity -2.3294754
REMARK minimizedRMSD -1
REMARK  0 active torsions:
REMARK  status: ('A' for Active; 'I' for Inactive)
ROOT
ATOM      1  C   UNL d   1       3.472   0.453   1.427  0.00  0.00     0.077 C 
ATOM      2  C1  UNL d   1       2.118   0.237   0.817  0.00  0.00    -0.074 A 
ATOM      3  C2  UNL d   1       1.592   1.148  -0.105  0.00  0.00    -0.005 A 
ATOM      4  C3  UNL d   1       0.337   0.929  -0.671  0.00  0.00     0.006 A 
ATOM      5  C4  UNL d   1      -0.405  -0.200  -0.322  0.00  0.00    -0.005 A 
ATOM      6  C5  UNL d   1       0.106  -1.122   0.598  0.00  0.00    -0.074 A 
ATOM      7  C6  UNL d   1      -0.674  -2.346   0.977  0.00  0.00     0.077 C 
ATOM      8  C7  UNL d   1       1.371  -0.899   1.157  0.00  0.00    -0.001 A 
ENDROOT
TORSDOF 0
ENDMDL
