MODEL 1
REMARK minimizedAffinity -5.17486525
REMARK minimizedRMSD -1
REMARK  0 active torsions:
REMARK  status: ('A' for Active; 'I' for Inactive)
ROOT
ATOM      1  C   UNL d   1      -1.573  -2.957   0.803  0.00  0.00     0.077 C 
ATOM      2  C1  UNL d   1      -0.697  -1.740   0.757  0.00  0.00    -0.074 A 
ATOM      3  C2  UNL d   1      -1.235  -0.478   0.485  0.00  0.00    -0.005 A 
ATOM      4  C3  UNL d   1      -0.410   0.646   0.455  0.00  0.00     0.006 A 
ATOM      5  C4  UNL d   1       0.959   0.520   0.697  0.00  0.00    -0.005 A 
ATOM      6  C5  UNL d   1       1.514  -0.734   0.971  0.00  0.00    -0.074 A 
ATOM      7  C6  UNL d   1       2.981  -0.885   1.243  0.00  0.00     0.077 C 
ATOM      8  C7  UNL d   1       0.677  -1.858   1.007  0.00  0.00    -0.001 A 
ENDROOT
TORSDOF 0
ENDMDL
