MODEL 1
REMARK minimizedAffinity -4.92426348
REMARK minimizedRMSD -1
REMARK  0 active torsions:
REMARK  status: ('A' for Active; 'I' for Inactive)
ROOT
ATOM      1  C   UNL d   1      -1.901  -2.679   1.148  0.00  0.00     0.077 C 
ATOM      2  C1  UNL d   1      -1.032  -1.476   0.932  0.00  0.00    -0.074 A 
ATOM      3  C2  UNL d   1      -1.589  -0.240   0.589  0.00  0.00    -0.005 A 
ATOM      4  C3  UNL d   1      -0.769   0.872   0.400  0.00  0.00     0.006 A 
ATOM      5  C4  UNL d   1       0.614   0.760   0.551  0.00  0.00    -0.005 A 
ATOM      6  C5  UNL d   1       1.188  -0.468   0.895  0.00  0.00    -0.074 A 
ATOM      7  C6  UNL d   1       2.672  -0.605   1.071  0.00  0.00     0.077 C 
ATOM      8  C7  UNL d   1       0.357  -1.580   1.090  0.00  0.00    -0.001 A 
ENDROOT
TORSDOF 0
ENDMDL
