MODEL 1
REMARK minimizedAffinity -3.96462512
REMARK minimizedRMSD -1
REMARK  0 active torsions:
REMARK  status: ('A' for Active; 'I' for Inactive)
ROOT
ATOM      1  C   UNL d   1      -0.613   1.359   0.484  0.00  0.00     0.077 C 
ATOM      2  C1  UNL d   1      -0.649  -0.140   0.511  0.00  0.00    -0.074 A 
ATOM      3  C2  UNL d   1      -1.865  -0.829   0.566  0.00  0.00    -0.005 A 
ATOM      4  C3  UNL d   1      -1.883  -2.224   0.581  0.00  0.00     0.006 A 
ATOM      5  C4  UNL d   1      -0.688  -2.942   0.542  0.00  0.00    -0.005 A 
ATOM      6  C5  UNL d   1       0.538  -2.271   0.486  0.00  0.00    -0.074 A 
ATOM      7  C6  UNL d   1       1.831  -3.028   0.434  0.00  0.00     0.077 C 
ATOM      8  C7  UNL d   1       0.547  -0.869   0.464  0.00  0.00    -0.001 A 
ENDROOT
TORSDOF 0
ENDMDL
