MODEL 1
REMARK minimizedAffinity -3.89846349
REMARK minimizedRMSD -1
REMARK  0 active torsions:
REMARK  status: ('A' for Active; 'I' for Inactive)
ROOT
ATOM      1  C   UNL d   1       0.983  -3.034   2.363  0.00  0.00     0.077 C 
ATOM      2  C1  UNL d   1       0.065  -2.223   1.498  0.00  0.00    -0.074 A 
ATOM      3  C2  UNL d   1      -1.211  -2.692   1.166  0.00  0.00    -0.005 A 
ATOM      4  C3  UNL d   1      -2.057  -1.922   0.368  0.00  0.00     0.006 A 
ATOM      5  C4  UNL d   1      -1.638  -0.678  -0.105  0.00  0.00    -0.005 A 
ATOM      6  C5  UNL d   1      -0.366  -0.193   0.216  0.00  0.00    -0.074 A 
ATOM      7  C6  UNL d   1       0.097   1.146  -0.276  0.00  0.00     0.077 C 
ATOM      8  C7  UNL d   1       0.476  -0.969   1.024  0.00  0.00    -0.001 A 
ENDROOT
TORSDOF 0
ENDMDL
