MODEL 1
REMARK minimizedAffinity -2.21696496
REMARK minimizedRMSD -1
REMARK  0 active torsions:
REMARK  status: ('A' for Active; 'I' for Inactive)
ROOT
ATOM      1  C   UNL d   1      -1.686  -2.610   0.386  0.00  0.00     0.077 C 
ATOM      2  C1  UNL d   1      -1.329  -1.154   0.418  0.00  0.00    -0.074 A 
ATOM      3  C2  UNL d   1      -2.312  -0.176   0.601  0.00  0.00    -0.005 A 
ATOM      4  C3  UNL d   1      -1.963   1.174   0.638  0.00  0.00     0.006 A 
ATOM      5  C4  UNL d   1      -0.630   1.559   0.493  0.00  0.00    -0.005 A 
ATOM      6  C5  UNL d   1       0.367   0.596   0.310  0.00  0.00    -0.074 A 
ATOM      7  C6  UNL d   1       1.806   0.992   0.162  0.00  0.00     0.077 C 
ATOM      8  C7  UNL d   1       0.010  -0.759   0.281  0.00  0.00    -0.001 A 
ENDROOT
TORSDOF 0
ENDMDL
