MODEL 1
REMARK minimizedAffinity -1.38565767
REMARK minimizedRMSD -1
REMARK  0 active torsions:
REMARK  status: ('A' for Active; 'I' for Inactive)
ROOT
ATOM      1  C2' OXE d   1       5.611   5.999  -1.885  0.00  0.00     0.078 C 
ATOM      2  C1' OXE d   1       3.327   4.371  -1.777  0.00  0.00     0.078 C 
ATOM      3  C1  OXE d   1       4.116   4.392  -3.062  0.00  0.00    -0.078 A 
ATOM      4  C2  OXE d   1       5.205   5.227  -3.122  0.00  0.00    -0.078 A 
ATOM      5  C3  OXE d   1       6.000   5.244  -4.264  0.00  0.00     0.003 A 
ATOM      6  C4  OXE d   1       5.612   4.535  -5.408  0.00  0.00    -0.002 A 
ATOM      7  C5  OXE d   1       4.483   3.708  -5.382  0.00  0.00    -0.002 A 
ATOM      8  C6  OXE d   1       3.750   3.593  -4.206  0.00  0.00     0.003 A 
ENDROOT
TORSDOF 0
ENDMDL
