MODEL 1
REMARK minimizedAffinity 1.82863879
REMARK minimizedRMSD -1
REMARK  0 active torsions:
REMARK  status: ('A' for Active; 'I' for Inactive)
ROOT
ATOM      1  C2' OXE d   1       3.191   5.995  -4.215  0.00  0.00     0.078 C 
ATOM      2  C1' OXE d   1       4.949   5.185  -2.181  0.00  0.00     0.078 C 
ATOM      3  C1  OXE d   1       5.037   4.478  -3.511  0.00  0.00    -0.078 A 
ATOM      4  C2  OXE d   1       4.142   4.849  -4.485  0.00  0.00    -0.078 A 
ATOM      5  C3  OXE d   1       4.216   4.266  -5.747  0.00  0.00     0.003 A 
ATOM      6  C4  OXE d   1       5.091   3.200  -5.985  0.00  0.00    -0.002 A 
ATOM      7  C5  OXE d   1       5.985   2.779  -4.994  0.00  0.00    -0.002 A 
ATOM      8  C6  OXE d   1       5.999   3.435  -3.768  0.00  0.00     0.003 A 
ENDROOT
TORSDOF 0
ENDMDL
