MODEL 1
REMARK minimizedAffinity 1.28715694
REMARK minimizedRMSD -1
REMARK  0 active torsions:
REMARK  status: ('A' for Active; 'I' for Inactive)
ROOT
ATOM      1  C2' OXE d   1       3.722   3.527  -4.757  0.00  0.00     0.078 C 
ATOM      2  C1' OXE d   1       6.000   5.110  -4.323  0.00  0.00     0.078 C 
ATOM      3  C1  OXE d   1       4.906   5.152  -3.286  0.00  0.00    -0.078 A 
ATOM      4  C2  OXE d   1       3.775   4.410  -3.529  0.00  0.00    -0.078 A 
ATOM      5  C3  OXE d   1       2.759   4.371  -2.578  0.00  0.00     0.003 A 
ATOM      6  C4  OXE d   1       2.810   5.198  -1.450  0.00  0.00    -0.002 A 
ATOM      7  C5  OXE d   1       3.936   5.992  -1.203  0.00  0.00    -0.002 A 
ATOM      8  C6  OXE d   1       5.008   5.948  -2.087  0.00  0.00     0.003 A 
ENDROOT
TORSDOF 0
ENDMDL
