MODEL 1
REMARK minimizedAffinity 5.0532918
REMARK minimizedRMSD -1
REMARK  0 active torsions:
REMARK  status: ('A' for Active; 'I' for Inactive)
ROOT
ATOM      1  C2' OXE d   1       5.998   5.956  -1.256  0.00  0.00     0.078 C 
ATOM      2  C1' OXE d   1       3.651   4.417  -1.294  0.00  0.00     0.078 C 
ATOM      3  C1  OXE d   1       4.249   4.818  -2.618  0.00  0.00    -0.078 A 
ATOM      4  C2  OXE d   1       5.372   5.611  -2.590  0.00  0.00    -0.078 A 
ATOM      5  C3  OXE d   1       5.996   5.965  -3.783  0.00  0.00     0.003 A 
ATOM      6  C4  OXE d   1       5.405   5.650  -5.013  0.00  0.00    -0.002 A 
ATOM      7  C5  OXE d   1       4.240   4.877  -5.063  0.00  0.00    -0.002 A 
ATOM      8  C6  OXE d   1       3.674   4.419  -3.879  0.00  0.00     0.003 A 
ENDROOT
TORSDOF 0
ENDMDL
