MODEL 1
REMARK minimizedAffinity -1.74254537
REMARK minimizedRMSD -1
REMARK  0 active torsions:
REMARK  status: ('A' for Active; 'I' for Inactive)
ROOT
ATOM      1  C2' OXE d   1       3.332   4.874  -1.115  0.00  0.00     0.078 C 
ATOM      2  C1' OXE d   1       5.903   5.997  -1.216  0.00  0.00     0.078 C 
ATOM      3  C1  OXE d   1       5.306   5.490  -2.505  0.00  0.00    -0.078 A 
ATOM      4  C2  OXE d   1       4.067   4.899  -2.438  0.00  0.00    -0.078 A 
ATOM      5  C3  OXE d   1       3.447   4.464  -3.606  0.00  0.00     0.003 A 
ATOM      6  C4  OXE d   1       4.137   4.482  -4.824  0.00  0.00    -0.002 A 
ATOM      7  C5  OXE d   1       5.416   5.043  -4.907  0.00  0.00    -0.002 A 
ATOM      8  C6  OXE d   1       5.996   5.589  -3.767  0.00  0.00     0.003 A 
ENDROOT
TORSDOF 0
ENDMDL
