MODEL 1
REMARK minimizedAffinity 5.68810654
REMARK minimizedRMSD -1
REMARK  0 active torsions:
REMARK  status: ('A' for Active; 'I' for Inactive)
ROOT
ATOM      1  C2' OXE d   1       4.178   5.229  -5.723  0.00  0.00     0.078 C 
ATOM      2  C1' OXE d   1       2.548   3.879  -3.879  0.00  0.00     0.078 C 
ATOM      3  C1  OXE d   1       3.743   4.628  -3.345  0.00  0.00    -0.078 A 
ATOM      4  C2  OXE d   1       4.561   5.247  -4.259  0.00  0.00    -0.078 A 
ATOM      5  C3  OXE d   1       5.646   5.997  -3.815  0.00  0.00     0.003 A 
ATOM      6  C4  OXE d   1       6.000   6.000  -2.460  0.00  0.00    -0.002 A 
ATOM      7  C5  OXE d   1       5.202   5.343  -1.517  0.00  0.00    -0.002 A 
ATOM      8  C6  OXE d   1       4.049   4.689  -1.937  0.00  0.00     0.003 A 
ENDROOT
TORSDOF 0
ENDMDL
