MODEL 1
REMARK minimizedAffinity 1.3212353
REMARK minimizedRMSD -1
REMARK  0 active torsions:
REMARK  status: ('A' for Active; 'I' for Inactive)
ROOT
ATOM      1  C2' OXE d   1       2.814   3.740  -4.089  0.00  0.00     0.078 C 
ATOM      2  C1' OXE d   1       2.765   4.131  -1.310  0.00  0.00     0.078 C 
ATOM      3  C1  OXE d   1       3.907   4.739  -2.086  0.00  0.00    -0.078 A 
ATOM      4  C2  OXE d   1       3.948   4.503  -3.439  0.00  0.00    -0.078 A 
ATOM      5  C3  OXE d   1       4.949   5.086  -4.210  0.00  0.00     0.003 A 
ATOM      6  C4  OXE d   1       6.000   5.782  -3.600  0.00  0.00    -0.002 A 
ATOM      7  C5  OXE d   1       5.998   6.000  -2.218  0.00  0.00    -0.002 A 
ATOM      8  C6  OXE d   1       4.939   5.523  -1.454  0.00  0.00     0.003 A 
ENDROOT
TORSDOF 0
ENDMDL
