MODEL 1
REMARK minimizedAffinity -2.00895166
REMARK minimizedRMSD -1
REMARK  0 active torsions:
REMARK  status: ('A' for Active; 'I' for Inactive)
ROOT
ATOM      1  C2' OXE d   1       2.885   4.223  -2.242  0.00  0.00     0.078 C 
ATOM      2  C1' OXE d   1       5.000   6.000  -1.738  0.00  0.00     0.078 C 
ATOM      3  C1  OXE d   1       4.988   5.277  -3.062  0.00  0.00    -0.078 A 
ATOM      4  C2  OXE d   1       3.975   4.375  -3.281  0.00  0.00    -0.078 A 
ATOM      5  C3  OXE d   1       3.886   3.722  -4.508  0.00  0.00     0.003 A 
ATOM      6  C4  OXE d   1       4.904   3.860  -5.459  0.00  0.00    -0.002 A 
ATOM      7  C5  OXE d   1       5.966   4.744  -5.240  0.00  0.00    -0.002 A 
ATOM      8  C6  OXE d   1       6.000   5.491  -4.067  0.00  0.00     0.003 A 
ENDROOT
TORSDOF 0
ENDMDL
