MODEL 1
REMARK minimizedAffinity -0.871361971
REMARK minimizedRMSD -1
REMARK  0 active torsions:
REMARK  status: ('A' for Active; 'I' for Inactive)
ROOT
ATOM      1  C2' OXE d   1       3.123   4.180  -1.855  0.00  0.00     0.078 C 
ATOM      2  C1' OXE d   1       5.261   5.999  -1.826  0.00  0.00     0.078 C 
ATOM      3  C1  OXE d   1       5.109   5.111  -3.036  0.00  0.00    -0.078 A 
ATOM      4  C2  OXE d   1       4.088   4.192  -3.021  0.00  0.00    -0.078 A 
ATOM      5  C3  OXE d   1       3.870   3.386  -4.134  0.00  0.00     0.003 A 
ATOM      6  C4  OXE d   1       4.772   3.396  -5.205  0.00  0.00    -0.002 A 
ATOM      7  C5  OXE d   1       5.843   4.297  -5.222  0.00  0.00    -0.002 A 
ATOM      8  C6  OXE d   1       6.000   5.189  -4.167  0.00  0.00     0.003 A 
ENDROOT
TORSDOF 0
ENDMDL
