MODEL 1
REMARK minimizedAffinity -1.57529676
REMARK minimizedRMSD -1
REMARK  0 active torsions:
REMARK  status: ('A' for Active; 'I' for Inactive)
ROOT
ATOM      1  C2' OXE d   1       2.798   3.990  -2.519  0.00  0.00     0.078 C 
ATOM      2  C1' OXE d   1       4.793   5.654  -1.455  0.00  0.00     0.078 C 
ATOM      3  C1  OXE d   1       4.852   5.338  -2.929  0.00  0.00    -0.078 A 
ATOM      4  C2  OXE d   1       3.899   4.486  -3.431  0.00  0.00    -0.078 A 
ATOM      5  C3  OXE d   1       3.875   4.205  -4.795  0.00  0.00     0.003 A 
ATOM      6  C4  OXE d   1       4.902   4.659  -5.630  0.00  0.00    -0.002 A 
ATOM      7  C5  OXE d   1       5.905   5.497  -5.131  0.00  0.00    -0.002 A 
ATOM      8  C6  OXE d   1       5.871   5.880  -3.794  0.00  0.00     0.003 A 
ENDROOT
TORSDOF 0
ENDMDL
