MODEL 1
REMARK minimizedAffinity 6.58169031
REMARK minimizedRMSD -1
REMARK  0 active torsions:
REMARK  status: ('A' for Active; 'I' for Inactive)
ROOT
ATOM      1  C2' OXE d   1       5.354   3.051  -4.660  0.00  0.00     0.078 C 
ATOM      2  C1' OXE d   1       6.000   5.744  -4.199  0.00  0.00     0.078 C 
ATOM      3  C1  OXE d   1       4.756   5.197  -3.544  0.00  0.00    -0.078 A 
ATOM      4  C2  OXE d   1       4.422   3.891  -3.812  0.00  0.00    -0.078 A 
ATOM      5  C3  OXE d   1       3.316   3.321  -3.190  0.00  0.00     0.003 A 
ATOM      6  C4  OXE d   1       2.454   4.107  -2.416  0.00  0.00    -0.002 A 
ATOM      7  C5  OXE d   1       2.754   5.450  -2.162  0.00  0.00    -0.002 A 
ATOM      8  C6  OXE d   1       3.921   5.997  -2.682  0.00  0.00     0.003 A 
ENDROOT
TORSDOF 0
ENDMDL
