MODEL 1
REMARK minimizedAffinity -0.805849731
REMARK minimizedRMSD -1
REMARK  0 active torsions:
REMARK  status: ('A' for Active; 'I' for Inactive)
ROOT
ATOM      1  C2' OXE d   1       2.951   4.121  -1.046  0.00  0.00     0.078 C 
ATOM      2  C1' OXE d   1       2.892   3.382  -3.753  0.00  0.00     0.078 C 
ATOM      3  C1  OXE d   1       4.007   4.289  -3.296  0.00  0.00    -0.078 A 
ATOM      4  C2  OXE d   1       4.001   4.684  -1.979  0.00  0.00    -0.078 A 
ATOM      5  C3  OXE d   1       5.036   5.476  -1.493  0.00  0.00     0.003 A 
ATOM      6  C4  OXE d   1       5.998   6.000  -2.365  0.00  0.00    -0.002 A 
ATOM      7  C5  OXE d   1       5.999   5.643  -3.717  0.00  0.00    -0.002 A 
ATOM      8  C6  OXE d   1       5.038   4.756  -4.189  0.00  0.00     0.003 A 
ENDROOT
TORSDOF 0
ENDMDL
