MODEL 1
REMARK minimizedAffinity -0.659404516
REMARK minimizedRMSD -1
REMARK  0 active torsions:
REMARK  status: ('A' for Active; 'I' for Inactive)
ROOT
ATOM      1  C2' OXE d   1       5.588   3.007  -5.430  0.00  0.00     0.078 C 
ATOM      2  C1' OXE d   1       3.601   4.924  -5.933  0.00  0.00     0.078 C 
ATOM      3  C1  OXE d   1       4.318   4.985  -4.608  0.00  0.00    -0.078 A 
ATOM      4  C2  OXE d   1       5.256   4.015  -4.351  0.00  0.00    -0.078 A 
ATOM      5  C3  OXE d   1       5.985   4.057  -3.166  0.00  0.00     0.003 A 
ATOM      6  C4  OXE d   1       5.665   4.987  -2.170  0.00  0.00    -0.002 A 
ATOM      7  C5  OXE d   1       4.685   5.960  -2.395  0.00  0.00    -0.002 A 
ATOM      8  C6  OXE d   1       4.033   5.999  -3.622  0.00  0.00     0.003 A 
ENDROOT
TORSDOF 0
ENDMDL
