MODEL 1
REMARK minimizedAffinity 8.52744865
REMARK minimizedRMSD -1
REMARK  0 active torsions:
REMARK  status: ('A' for Active; 'I' for Inactive)
ROOT
ATOM      1  C2' OXE d   1       2.304   5.955  -3.641  0.00  0.00     0.078 C 
ATOM      2  C1' OXE d   1       3.415   3.656  -4.807  0.00  0.00     0.078 C 
ATOM      3  C1  OXE d   1       4.139   4.270  -3.634  0.00  0.00    -0.078 A 
ATOM      4  C2  OXE d   1       3.613   5.421  -3.100  0.00  0.00    -0.078 A 
ATOM      5  C3  OXE d   1       4.210   5.998  -1.982  0.00  0.00     0.003 A 
ATOM      6  C4  OXE d   1       5.426   5.504  -1.494  0.00  0.00    -0.002 A 
ATOM      7  C5  OXE d   1       5.999   4.355  -2.049  0.00  0.00    -0.002 A 
ATOM      8  C6  OXE d   1       5.348   3.703  -3.090  0.00  0.00     0.003 A 
ENDROOT
TORSDOF 0
ENDMDL
