MODEL 1
REMARK minimizedAffinity -0.0928075537
REMARK minimizedRMSD -1
REMARK  0 active torsions:
REMARK  status: ('A' for Active; 'I' for Inactive)
ROOT
ATOM      1  C2' OXE d   1       2.578   4.502  -1.980  0.00  0.00     0.078 C 
ATOM      2  C1' OXE d   1       4.883   5.998  -1.404  0.00  0.00     0.078 C 
ATOM      3  C1  OXE d   1       4.880   5.166  -2.663  0.00  0.00    -0.078 A 
ATOM      4  C2  OXE d   1       3.766   4.402  -2.913  0.00  0.00    -0.078 A 
ATOM      5  C3  OXE d   1       3.689   3.659  -4.087  0.00  0.00     0.003 A 
ATOM      6  C4  OXE d   1       4.796   3.563  -4.939  0.00  0.00    -0.002 A 
ATOM      7  C5  OXE d   1       5.956   4.303  -4.682  0.00  0.00    -0.002 A 
ATOM      8  C6  OXE d   1       5.998   5.141  -3.574  0.00  0.00     0.003 A 
ENDROOT
TORSDOF 0
ENDMDL
