MODEL 1
REMARK minimizedAffinity 0.0881060958
REMARK minimizedRMSD -1
REMARK  0 active torsions:
REMARK  status: ('A' for Active; 'I' for Inactive)
ROOT
ATOM      1  C2' OXE d   1       3.461   4.930  -2.097  0.00  0.00     0.078 C 
ATOM      2  C1' OXE d   1       5.997   6.000  -2.650  0.00  0.00     0.078 C 
ATOM      3  C1  OXE d   1       5.362   5.117  -3.695  0.00  0.00    -0.078 A 
ATOM      4  C2  OXE d   1       4.142   4.560  -3.397  0.00  0.00    -0.078 A 
ATOM      5  C3  OXE d   1       3.488   3.783  -4.348  0.00  0.00     0.003 A 
ATOM      6  C4  OXE d   1       4.129   3.437  -5.544  0.00  0.00    -0.002 A 
ATOM      7  C5  OXE d   1       5.389   3.961  -5.851  0.00  0.00    -0.002 A 
ATOM      8  C6  OXE d   1       6.000   4.835  -4.958  0.00  0.00     0.003 A 
ENDROOT
TORSDOF 0
ENDMDL
