MODEL 1
REMARK minimizedAffinity 6.62610865
REMARK minimizedRMSD -1
REMARK  0 active torsions:
REMARK  status: ('A' for Active; 'I' for Inactive)
ROOT
ATOM      1  C2' OXE d   1       5.999   6.000  -0.914  0.00  0.00     0.078 C 
ATOM      2  C1' OXE d   1       3.390   5.111  -0.383  0.00  0.00     0.078 C 
ATOM      3  C1  OXE d   1       3.775   5.342  -1.823  0.00  0.00    -0.078 A 
ATOM      4  C2  OXE d   1       5.039   5.821  -2.071  0.00  0.00    -0.078 A 
ATOM      5  C3  OXE d   1       5.464   6.000  -3.384  0.00  0.00     0.003 A 
ATOM      6  C4  OXE d   1       4.566   5.842  -4.447  0.00  0.00    -0.002 A 
ATOM      7  C5  OXE d   1       3.262   5.392  -4.214  0.00  0.00    -0.002 A 
ATOM      8  C6  OXE d   1       2.865   5.097  -2.915  0.00  0.00     0.003 A 
ENDROOT
TORSDOF 0
ENDMDL
