MODEL 1
REMARK minimizedAffinity 4.51539326
REMARK minimizedRMSD -1
REMARK  0 active torsions:
REMARK  status: ('A' for Active; 'I' for Inactive)
ROOT
ATOM      1  C2' OXE d   1       1.987   5.999  -3.174  0.00  0.00     0.078 C 
ATOM      2  C1' OXE d   1       3.076   5.999  -5.762  0.00  0.00     0.078 C 
ATOM      3  C1  OXE d   1       3.924   5.450  -4.641  0.00  0.00    -0.078 A 
ATOM      4  C2  OXE d   1       3.401   5.497  -3.371  0.00  0.00    -0.078 A 
ATOM      5  C3  OXE d   1       4.120   4.955  -2.310  0.00  0.00     0.003 A 
ATOM      6  C4  OXE d   1       5.431   4.502  -2.499  0.00  0.00    -0.002 A 
ATOM      7  C5  OXE d   1       5.998   4.482  -3.777  0.00  0.00    -0.002 A 
ATOM      8  C6  OXE d   1       5.244   4.912  -4.864  0.00  0.00     0.003 A 
ENDROOT
TORSDOF 0
ENDMDL
