MODEL 1
REMARK minimizedAffinity -4.33990097
REMARK minimizedRMSD -1
REMARK  0 active torsions:
REMARK  status: ('A' for Active; 'I' for Inactive)
ROOT
ATOM      1  O1  BZF d   1      -0.077   1.004  -0.010  0.00  0.00    -0.204 OA
ATOM      2  C2  BZF d   1      -1.150   0.168  -0.254  0.00  0.00     0.174 A 
ATOM      3  C3  BZF d   1      -0.757  -1.122  -0.270  0.00  0.00    -0.012 A 
ATOM      4  C3A BZF d   1       0.633  -1.097   0.071  0.00  0.00    -0.107 A 
ATOM      5  C4  BZF d   1       1.578  -2.069   0.232  0.00  0.00     0.055 A 
ATOM      6  C5  BZF d   1       2.861  -1.706   0.495  0.00  0.00    -0.016 A 
ATOM      7  C6  BZF d   1       3.234  -0.382   0.597  0.00  0.00     0.022 A 
ATOM      8  C7  BZF d   1       2.331   0.618   0.450  0.00  0.00     0.029 A 
ATOM      9  C7A BZF d   1       1.027   0.253   0.217  0.00  0.00     0.058 A 
ENDROOT
TORSDOF 0
ENDMDL
