MODEL 1
REMARK minimizedAffinity -5.54424429
REMARK minimizedRMSD -1
REMARK  0 active torsions:
REMARK  status: ('A' for Active; 'I' for Inactive)
ROOT
ATOM      1  O1  BZF d   1       0.978  -1.862   0.063  0.00  0.00    -0.204 OA
ATOM      2  C2  BZF d   1       2.214  -2.060   0.650  0.00  0.00     0.174 A 
ATOM      3  C3  BZF d   1       2.837  -0.883   0.860  0.00  0.00    -0.012 A 
ATOM      4  C3A BZF d   1       1.897   0.119   0.460  0.00  0.00    -0.107 A 
ATOM      5  C4  BZF d   1       1.928   1.484   0.446  0.00  0.00     0.055 A 
ATOM      6  C5  BZF d   1       0.872   2.163  -0.075  0.00  0.00    -0.016 A 
ATOM      7  C6  BZF d   1      -0.226   1.510  -0.596  0.00  0.00     0.022 A 
ATOM      8  C7  BZF d   1      -0.304   0.157  -0.600  0.00  0.00     0.029 A 
ATOM      9  C7A BZF d   1       0.747  -0.531  -0.044  0.00  0.00     0.058 A 
ENDROOT
TORSDOF 0
ENDMDL
