MODEL 1
REMARK minimizedAffinity -3.60928226
REMARK minimizedRMSD -1
REMARK  0 active torsions:
REMARK  status: ('A' for Active; 'I' for Inactive)
ROOT
ATOM      1  O1  BZF d   1       1.253  -2.409  -0.199  0.00  0.00    -0.204 OA
ATOM      2  C2  BZF d   1       2.501  -2.362   0.393  0.00  0.00     0.174 A 
ATOM      3  C3  BZF d   1       2.860  -1.088   0.651  0.00  0.00    -0.012 A 
ATOM      4  C3A BZF d   1       1.730  -0.295   0.277  0.00  0.00    -0.107 A 
ATOM      5  C4  BZF d   1       1.470   1.045   0.312  0.00  0.00     0.055 A 
ATOM      6  C5  BZF d   1       0.296   1.504  -0.196  0.00  0.00    -0.016 A 
ATOM      7  C6  BZF d   1      -0.637   0.653  -0.751  0.00  0.00     0.022 A 
ATOM      8  C7  BZF d   1      -0.426  -0.685  -0.804  0.00  0.00     0.029 A 
ATOM      9  C7A BZF d   1       0.745  -1.155  -0.261  0.00  0.00     0.058 A 
ENDROOT
TORSDOF 0
ENDMDL
