MODEL 1
REMARK minimizedAffinity 6.1218195
REMARK minimizedRMSD -1
REMARK  0 active torsions:
REMARK  status: ('A' for Active; 'I' for Inactive)
ROOT
ATOM      1  C   UNL d   1       1.941  -1.665   0.238  0.00  0.00     0.020 A 
ATOM      2  C1  UNL d   1       1.892  -1.577  -1.153  0.00  0.00     0.020 A 
ATOM      3  C2  UNL d   1       2.433  -0.465  -1.801  0.00  0.00     0.034 A 
ATOM      4  C3  UNL d   1       3.025   0.563  -1.060  0.00  0.00     0.017 A 
ATOM      5  C4  UNL d   1       3.074   0.474   0.336  0.00  0.00     0.017 A 
ATOM      6  C5  UNL d   1       2.531  -0.642   0.981  0.00  0.00     0.034 A 
ATOM      7 Cl   UNL d   1       3.789   1.703   1.319  0.00  0.00    -0.070 Cl
ATOM      8 Cl1  UNL d   1       3.675   1.909  -1.928  0.00  0.00    -0.070 Cl
ENDROOT
TORSDOF 0
ENDMDL
