MODEL 1
REMARK minimizedAffinity 8.44472122
REMARK minimizedRMSD -1
REMARK  0 active torsions:
REMARK  status: ('A' for Active; 'I' for Inactive)
ROOT
ATOM      1  C   UNL d   1       3.631   3.213  -1.734  0.00  0.00     0.020 A 
ATOM      2  C1  UNL d   1       4.312   2.916  -0.554  0.00  0.00     0.020 A 
ATOM      3  C2  UNL d   1       3.848   1.899   0.283  0.00  0.00     0.034 A 
ATOM      4  C3  UNL d   1       2.700   1.176  -0.058  0.00  0.00     0.017 A 
ATOM      5  C4  UNL d   1       2.016   1.475  -1.242  0.00  0.00     0.017 A 
ATOM      6  C5  UNL d   1       2.485   2.494  -2.077  0.00  0.00     0.034 A 
ATOM      7 Cl   UNL d   1       0.592   0.626  -1.729  0.00  0.00    -0.070 Cl
ATOM      8 Cl1  UNL d   1       2.183  -0.068   1.025  0.00  0.00    -0.070 Cl
ENDROOT
TORSDOF 0
ENDMDL
