MODEL 1
REMARK minimizedAffinity 17.8329086
REMARK minimizedRMSD -1
REMARK  0 active torsions:
REMARK  status: ('A' for Active; 'I' for Inactive)
ROOT
ATOM      1  C   UNL d   1      -0.233  -5.978   0.587  0.00  0.00     0.020 A 
ATOM      2  C1  UNL d   1      -1.496  -5.993   1.179  0.00  0.00     0.020 A 
ATOM      3  C2  UNL d   1      -2.641  -5.984   0.380  0.00  0.00     0.034 A 
ATOM      4  C3  UNL d   1      -2.526  -5.959  -1.015  0.00  0.00     0.017 A 
ATOM      5  C4  UNL d   1      -1.258  -5.943  -1.608  0.00  0.00     0.017 A 
ATOM      6  C5  UNL d   1      -0.115  -5.953  -0.803  0.00  0.00     0.034 A 
ATOM      7 Cl   UNL d   1      -1.037  -5.912  -3.321  0.00  0.00    -0.070 Cl
ATOM      8 Cl1  UNL d   1      -3.985  -5.949  -1.941  0.00  0.00    -0.070 Cl
ENDROOT
TORSDOF 0
ENDMDL
