MODEL 1
REMARK minimizedAffinity 13.7279406
REMARK minimizedRMSD -1
REMARK  0 active torsions:
REMARK  status: ('A' for Active; 'I' for Inactive)
ROOT
ATOM      1  C   UNL d   1      -4.119   0.175  -0.598  0.00  0.00     0.020 A 
ATOM      2  C1  UNL d   1      -5.057   0.491  -1.581  0.00  0.00     0.020 A 
ATOM      3  C2  UNL d   1      -5.625   1.766  -1.620  0.00  0.00     0.034 A 
ATOM      4  C3  UNL d   1      -5.257   2.730  -0.675  0.00  0.00     0.017 A 
ATOM      5  C4  UNL d   1      -4.315   2.413   0.311  0.00  0.00     0.017 A 
ATOM      6  C5  UNL d   1      -3.749   1.134   0.346  0.00  0.00     0.034 A 
ATOM      7 Cl   UNL d   1      -3.810   3.549   1.511  0.00  0.00    -0.070 Cl
ATOM      8 Cl1  UNL d   1      -6.000   4.286  -0.783  0.00  0.00    -0.070 Cl
ENDROOT
TORSDOF 0
ENDMDL
