MODEL 1
REMARK minimizedAffinity 10.1493282
REMARK minimizedRMSD -1
REMARK  0 active torsions:
REMARK  status: ('A' for Active; 'I' for Inactive)
ROOT
ATOM      1  C   UNL d   1       2.514  -0.560   0.163  0.00  0.00     0.020 A 
ATOM      2  C1  UNL d   1       2.514  -0.510  -1.231  0.00  0.00     0.020 A 
ATOM      3  C2  UNL d   1       3.134   0.552  -1.891  0.00  0.00     0.034 A 
ATOM      4  C3  UNL d   1       3.756   1.569  -1.158  0.00  0.00     0.017 A 
ATOM      5  C4  UNL d   1       3.756   1.518   0.240  0.00  0.00     0.017 A 
ATOM      6  C5  UNL d   1       3.133   0.452   0.897  0.00  0.00     0.034 A 
ATOM      7 Cl   UNL d   1       4.503   2.736   1.213  0.00  0.00    -0.070 Cl
ATOM      8 Cl1  UNL d   1       4.504   2.853  -2.040  0.00  0.00    -0.070 Cl
ENDROOT
TORSDOF 0
ENDMDL
