MODEL 1
REMARK minimizedAffinity 10.2008562
REMARK minimizedRMSD -1
REMARK  0 active torsions:
REMARK  status: ('A' for Active; 'I' for Inactive)
ROOT
ATOM      1  C   UNL d   1       2.996   0.554  -0.001  0.00  0.00     0.020 A 
ATOM      2  C1  UNL d   1       3.211   0.747  -1.366  0.00  0.00     0.020 A 
ATOM      3  C2  UNL d   1       4.142   1.694  -1.799  0.00  0.00     0.034 A 
ATOM      4  C3  UNL d   1       4.862   2.450  -0.867  0.00  0.00     0.017 A 
ATOM      5  C4  UNL d   1       4.646   2.255   0.502  0.00  0.00     0.017 A 
ATOM      6  C5  UNL d   1       3.713   1.306   0.930  0.00  0.00     0.034 A 
ATOM      7 Cl   UNL d   1       5.497   3.150   1.712  0.00  0.00    -0.070 Cl
ATOM      8 Cl1  UNL d   1       5.998   3.602  -1.473  0.00  0.00    -0.070 Cl
ENDROOT
TORSDOF 0
ENDMDL
