MODEL 1
REMARK minimizedAffinity 1.33351147
REMARK minimizedRMSD -1
REMARK  0 active torsions:
REMARK  status: ('A' for Active; 'I' for Inactive)
ROOT
ATOM      1  C   UNL d   1       3.069   1.365  -0.318  0.00  0.00     0.020 A 
ATOM      2  C1  UNL d   1       3.706   1.358  -1.559  0.00  0.00     0.020 A 
ATOM      3  C2  UNL d   1       3.793   0.172  -2.291  0.00  0.00     0.034 A 
ATOM      4  C3  UNL d   1       3.243  -1.011  -1.784  0.00  0.00     0.017 A 
ATOM      5  C4  UNL d   1       2.604  -1.002  -0.539  0.00  0.00     0.017 A 
ATOM      6  C5  UNL d   1       2.519   0.188   0.190  0.00  0.00     0.034 A 
ATOM      7 Cl   UNL d   1       1.901  -2.422   0.152  0.00  0.00    -0.070 Cl
ATOM      8 Cl1  UNL d   1       3.388  -2.440  -2.744  0.00  0.00    -0.070 Cl
ENDROOT
TORSDOF 0
ENDMDL
