MODEL 1
REMARK minimizedAffinity 16.8949051
REMARK minimizedRMSD -1
REMARK  0 active torsions:
REMARK  status: ('A' for Active; 'I' for Inactive)
ROOT
ATOM      1  C   UNL d   1       2.403   1.267  -1.142  0.00  0.00     0.020 A 
ATOM      2  C1  UNL d   1       2.396   1.053   0.236  0.00  0.00     0.020 A 
ATOM      3  C2  UNL d   1       3.510   1.403   1.002  0.00  0.00     0.034 A 
ATOM      4  C3  UNL d   1       4.636   1.967   0.391  0.00  0.00     0.017 A 
ATOM      5  C4  UNL d   1       4.642   2.182  -0.992  0.00  0.00     0.017 A 
ATOM      6  C5  UNL d   1       3.524   1.830  -1.754  0.00  0.00     0.034 A 
ATOM      7 Cl   UNL d   1       5.994   2.874  -1.817  0.00  0.00    -0.070 Cl
ATOM      8 Cl1  UNL d   1       5.978   2.375   1.400  0.00  0.00    -0.070 Cl
ENDROOT
TORSDOF 0
ENDMDL
