MODEL 1
REMARK minimizedAffinity 5.10559511
REMARK minimizedRMSD -1
REMARK  0 active torsions:
REMARK  status: ('A' for Active; 'I' for Inactive)
ROOT
ATOM      1  C   UNL d   1      -1.191  -6.000   5.537  0.00  0.00     0.020 A 
ATOM      2  C1  UNL d   1      -1.869  -5.484   4.433  0.00  0.00     0.020 A 
ATOM      3  C2  UNL d   1      -1.390  -4.340   3.791  0.00  0.00     0.034 A 
ATOM      4  C3  UNL d   1      -0.230  -3.708   4.253  0.00  0.00     0.017 A 
ATOM      5  C4  UNL d   1       0.450  -4.226   5.362  0.00  0.00     0.017 A 
ATOM      6  C5  UNL d   1      -0.034  -5.372   6.000  0.00  0.00     0.034 A 
ATOM      7 Cl   UNL d   1       1.888  -3.501   5.989  0.00  0.00    -0.070 Cl
ATOM      8 Cl1  UNL d   1       0.306  -2.297   3.412  0.00  0.00    -0.070 Cl
ENDROOT
TORSDOF 0
ENDMDL
