MODEL 1
REMARK minimizedAffinity -0.254586846
REMARK minimizedRMSD -1
REMARK  1 active torsions:
REMARK  status: ('A' for Active; 'I' for Inactive)
REMARK    1  A    between atoms: C1_2  and  C2_3 
ROOT
ATOM      1  C2  UNL d   1      -0.065   1.911   0.759  0.00  0.00    -0.076 A 
ATOM      2  C3  UNL d   1      -0.178   3.235   1.216  0.00  0.00     0.004 A 
ATOM      3  C4  UNL d   1      -0.419   4.283   0.329  0.00  0.00    -0.003 A 
ATOM      4  C5  UNL d   1      -0.552   4.023  -1.030  0.00  0.00     0.000 A 
ATOM      5  C6  UNL d   1      -0.460   2.713  -1.500  0.00  0.00     0.000 A 
ATOM      6  C7  UNL d   1      -0.234   1.643  -0.617  0.00  0.00    -0.073 A 
ATOM      7  C8  UNL d   1      -0.138   0.251  -1.178  0.00  0.00     0.078 C 
ENDROOT
BRANCH   1   8
ATOM      8  C1  UNL d   1       0.224   0.819   1.764  0.00  0.00     0.053 C 
ATOM      9  C   UNL d   1      -0.330   1.137   3.145  0.00  0.00     0.018 C 
ENDBRANCH   1   8
TORSDOF 1
ENDMDL
