MODEL 1
REMARK minimizedAffinity 2.60333347
REMARK minimizedRMSD -1
REMARK  1 active torsions:
REMARK  status: ('A' for Active; 'I' for Inactive)
REMARK    1  A    between atoms: C1_2  and  C2_3 
ROOT
ATOM      1  C2  UNL d   1       0.039   0.251   2.660  0.00  0.00    -0.076 A 
ATOM      2  C3  UNL d   1      -0.514   1.106   3.629  0.00  0.00     0.004 A 
ATOM      3  C4  UNL d   1      -0.634   2.475   3.395  0.00  0.00    -0.003 A 
ATOM      4  C5  UNL d   1      -0.203   3.011   2.186  0.00  0.00     0.000 A 
ATOM      5  C6  UNL d   1       0.332   2.176   1.207  0.00  0.00     0.000 A 
ATOM      6  C7  UNL d   1       0.445   0.791   1.421  0.00  0.00    -0.073 A 
ATOM      7  C8  UNL d   1       1.036  -0.062   0.332  0.00  0.00     0.078 C 
ENDROOT
BRANCH   1   8
ATOM      8  C1  UNL d   1       0.169  -1.220   2.981  0.00  0.00     0.053 C 
ATOM      9  C   UNL d   1       0.369  -1.477   4.467  0.00  0.00     0.018 C 
ENDBRANCH   1   8
TORSDOF 1
ENDMDL
