MODEL 1
REMARK minimizedAffinity 4.30911112
REMARK minimizedRMSD -1
REMARK  1 active torsions:
REMARK  status: ('A' for Active; 'I' for Inactive)
REMARK    1  A    between atoms: C1_2  and  C2_3 
ROOT
ATOM      1  C2  UNL d   1      -0.540  -1.544  -1.703  0.00  0.00    -0.076 A 
ATOM      2  C3  UNL d   1       0.049  -2.757  -1.305  0.00  0.00     0.004 A 
ATOM      3  C4  UNL d   1       1.351  -2.795  -0.810  0.00  0.00    -0.003 A 
ATOM      4  C5  UNL d   1       2.086  -1.620  -0.704  0.00  0.00     0.000 A 
ATOM      5  C6  UNL d   1       1.513  -0.405  -1.077  0.00  0.00     0.000 A 
ATOM      6  C7  UNL d   1       0.195  -0.347  -1.563  0.00  0.00    -0.073 A 
ATOM      7  C8  UNL d   1      -0.372   0.990  -1.956  0.00  0.00     0.078 C 
ENDROOT
BRANCH   1   8
ATOM      8  C1  UNL d   1      -1.946  -1.568  -2.257  0.00  0.00     0.053 C 
ATOM      9  C   UNL d   1      -3.003  -1.441  -1.171  0.00  0.00     0.018 C 
ENDBRANCH   1   8
TORSDOF 1
ENDMDL
