MODEL 1
REMARK minimizedAffinity -1.10077846
REMARK minimizedRMSD -1
REMARK  1 active torsions:
REMARK  status: ('A' for Active; 'I' for Inactive)
REMARK    1  A    between atoms: C1_2  and  C2_3 
ROOT
ATOM      1  C2  UNL d   1      -3.831   1.060  -2.164  0.00  0.00    -0.076 A 
ATOM      2  C3  UNL d   1      -5.139   1.342  -2.595  0.00  0.00     0.004 A 
ATOM      3  C4  UNL d   1      -5.454   2.567  -3.180  0.00  0.00    -0.003 A 
ATOM      4  C5  UNL d   1      -4.464   3.530  -3.346  0.00  0.00     0.000 A 
ATOM      5  C6  UNL d   1      -3.157   3.261  -2.941  0.00  0.00     0.000 A 
ATOM      6  C7  UNL d   1      -2.820   2.025  -2.364  0.00  0.00    -0.073 A 
ATOM      7  C8  UNL d   1      -1.396   1.790  -1.940  0.00  0.00     0.078 C 
ENDROOT
BRANCH   1   8
ATOM      8  C1  UNL d   1      -3.555  -0.275  -1.511  0.00  0.00     0.053 C 
ATOM      9  C   UNL d   1      -2.831  -1.239  -2.438  0.00  0.00     0.018 C 
ENDBRANCH   1   8
TORSDOF 1
ENDMDL
