MODEL 1
REMARK minimizedAffinity 5.01840115
REMARK minimizedRMSD -1
REMARK  1 active torsions:
REMARK  status: ('A' for Active; 'I' for Inactive)
REMARK    1  A    between atoms: C1_2  and  C2_3 
ROOT
ATOM      1  C2  UNL d   1      -4.203   4.928  -3.471  0.00  0.00    -0.076 A 
ATOM      2  C3  UNL d   1      -5.510   4.594  -3.867  0.00  0.00     0.004 A 
ATOM      3  C4  UNL d   1      -5.997   4.965  -5.119  0.00  0.00    -0.003 A 
ATOM      4  C5  UNL d   1      -5.185   5.675  -5.996  0.00  0.00     0.000 A 
ATOM      5  C6  UNL d   1      -3.880   5.999  -5.627  0.00  0.00     0.000 A 
ATOM      6  C7  UNL d   1      -3.368   5.618  -4.374  0.00  0.00    -0.073 A 
ATOM      7  C8  UNL d   1      -1.955   5.999  -4.026  0.00  0.00     0.078 C 
ENDROOT
BRANCH   1   8
ATOM      8  C1  UNL d   1      -3.739   4.523  -2.090  0.00  0.00     0.053 C 
ATOM      9  C   UNL d   1      -3.138   3.126  -2.063  0.00  0.00     0.018 C 
ENDBRANCH   1   8
TORSDOF 1
ENDMDL
