MODEL 1
REMARK minimizedAffinity 7.32984829
REMARK minimizedRMSD -1
REMARK  1 active torsions:
REMARK  status: ('A' for Active; 'I' for Inactive)
REMARK    1  A    between atoms: C1_2  and  C2_3 
ROOT
ATOM      1  C2  UNL d   1      -1.626  -0.900  -2.538  0.00  0.00    -0.076 A 
ATOM      2  C3  UNL d   1      -2.748  -1.421  -1.871  0.00  0.00     0.004 A 
ATOM      3  C4  UNL d   1      -3.380  -0.701  -0.858  0.00  0.00    -0.003 A 
ATOM      4  C5  UNL d   1      -2.900   0.553  -0.497  0.00  0.00     0.000 A 
ATOM      5  C6  UNL d   1      -1.798   1.093  -1.160  0.00  0.00     0.000 A 
ATOM      6  C7  UNL d   1      -1.160   0.387  -2.194  0.00  0.00    -0.073 A 
ATOM      7  C8  UNL d   1       0.028   1.015  -2.871  0.00  0.00     0.078 C 
ENDROOT
BRANCH   1   8
ATOM      8  C1  UNL d   1      -0.966  -1.738  -3.609  0.00  0.00     0.053 C 
ATOM      9  C   UNL d   1      -1.819  -1.859  -4.863  0.00  0.00     0.018 C 
ENDBRANCH   1   8
TORSDOF 1
ENDMDL
