MODEL 1
REMARK minimizedAffinity -3.38468194
REMARK minimizedRMSD -1
REMARK  1 active torsions:
REMARK  status: ('A' for Active; 'I' for Inactive)
REMARK    1  A    between atoms: C1_2  and  C2_3 
ROOT
ATOM      1  C2  UNL d   1       0.548  -0.767  -0.492  0.00  0.00    -0.081 A 
ATOM      2  C3  UNL d   1       0.138  -1.100   0.805  0.00  0.00     0.006 A 
ATOM      3  C4  UNL d   1      -0.706  -0.249   1.521  0.00  0.00     0.002 A 
ATOM      4  C5  UNL d   1      -1.162   0.944   0.950  0.00  0.00    -0.080 A 
ATOM      5  C6  UNL d   1      -2.094   1.852   1.697  0.00  0.00     0.076 C 
ATOM      6  C7  UNL d   1      -0.739   1.285  -0.339  0.00  0.00     0.002 A 
ATOM      7  C8  UNL d   1       0.106   0.435  -1.055  0.00  0.00     0.006 A 
ENDROOT
BRANCH   1   8
ATOM      8  C1  UNL d   1       1.407  -1.714  -1.291  0.00  0.00     0.054 C 
ATOM      9  C   UNL d   1       0.590  -2.441  -2.350  0.00  0.00     0.018 C 
ENDBRANCH   1   8
TORSDOF 1
ENDMDL
