MODEL 1
REMARK minimizedAffinity -5.36209154
REMARK minimizedRMSD -1
REMARK  1 active torsions:
REMARK  status: ('A' for Active; 'I' for Inactive)
REMARK    1  A    between atoms: C1_2  and  C2_3 
ROOT
ATOM      1  C2  UNL d   1      -0.043  -0.038  -0.076  0.00  0.00    -0.081 A 
ATOM      2  C3  UNL d   1      -0.160   0.973  -1.038  0.00  0.00     0.006 A 
ATOM      3  C4  UNL d   1      -0.844   2.155  -0.742  0.00  0.00     0.002 A 
ATOM      4  C5  UNL d   1      -1.415   2.348   0.520  0.00  0.00    -0.080 A 
ATOM      5  C6  UNL d   1      -2.125   3.625   0.860  0.00  0.00     0.076 C 
ATOM      6  C7  UNL d   1      -1.313   1.331   1.475  0.00  0.00     0.002 A 
ATOM      7  C8  UNL d   1      -0.630   0.149   1.180  0.00  0.00     0.006 A 
ENDROOT
BRANCH   1   8
ATOM      8  C1  UNL d   1       0.749  -1.286  -0.370  0.00  0.00     0.054 C 
ATOM      9  C   UNL d   1       0.292  -1.940  -1.666  0.00  0.00     0.018 C 
ENDBRANCH   1   8
TORSDOF 1
ENDMDL
