MODEL 1
REMARK minimizedAffinity -4.55514336
REMARK minimizedRMSD -1
REMARK  1 active torsions:
REMARK  status: ('A' for Active; 'I' for Inactive)
REMARK    1  A    between atoms: C1_2  and  C2_3 
ROOT
ATOM      1  C2  UNL d   1       0.320  -1.025  -0.882  0.00  0.00    -0.081 A 
ATOM      2  C3  UNL d   1       0.413  -0.916   0.511  0.00  0.00     0.006 A 
ATOM      3  C4  UNL d   1      -0.188   0.153   1.179  0.00  0.00     0.002 A 
ATOM      4  C5  UNL d   1      -0.899   1.125   0.467  0.00  0.00    -0.080 A 
ATOM      5  C6  UNL d   1      -1.576   2.262   1.175  0.00  0.00     0.076 C 
ATOM      6  C7  UNL d   1      -0.977   1.026  -0.926  0.00  0.00     0.002 A 
ATOM      7  C8  UNL d   1      -0.375  -0.042  -1.595  0.00  0.00     0.006 A 
ENDROOT
BRANCH   1   8
ATOM      8  C1  UNL d   1       0.913  -2.211  -1.599  0.00  0.00     0.054 C 
ATOM      9  C   UNL d   1       0.093  -2.583  -2.826  0.00  0.00     0.018 C 
ENDBRANCH   1   8
TORSDOF 1
ENDMDL
