MODEL 1
REMARK minimizedAffinity -2.00002432
REMARK minimizedRMSD -1
REMARK  1 active torsions:
REMARK  status: ('A' for Active; 'I' for Inactive)
REMARK    1  A    between atoms: C1_2  and  C2_3 
ROOT
ATOM      1  C2  UNL d   1       0.923  -0.897  -0.650  0.00  0.00    -0.081 A 
ATOM      2  C3  UNL d   1       0.701  -1.243   0.688  0.00  0.00     0.006 A 
ATOM      3  C4  UNL d   1      -0.112  -0.448   1.500  0.00  0.00     0.002 A 
ATOM      4  C5  UNL d   1      -0.721   0.702   0.985  0.00  0.00    -0.080 A 
ATOM      5  C6  UNL d   1      -1.620   1.548   1.837  0.00  0.00     0.076 C 
ATOM      6  C7  UNL d   1      -0.485   1.057  -0.347  0.00  0.00     0.002 A 
ATOM      7  C8  UNL d   1       0.328   0.262  -1.159  0.00  0.00     0.006 A 
ENDROOT
BRANCH   1   8
ATOM      8  C1  UNL d   1       1.746  -1.788  -1.545  0.00  0.00     0.054 C 
ATOM      9  C   UNL d   1       1.052  -3.120  -1.791  0.00  0.00     0.018 C 
ENDBRANCH   1   8
TORSDOF 1
ENDMDL
