MODEL 1
REMARK minimizedAffinity -4.29304886
REMARK minimizedRMSD -1
REMARK  1 active torsions:
REMARK  status: ('A' for Active; 'I' for Inactive)
REMARK    1  A    between atoms: C1_2  and  C2_3 
ROOT
ATOM      1  C2  UNL d   1       0.590  -0.873  -0.297  0.00  0.00    -0.081 A 
ATOM      2  C3  UNL d   1       0.113  -1.093   1.001  0.00  0.00     0.006 A 
ATOM      3  C4  UNL d   1      -0.708  -0.149   1.623  0.00  0.00     0.002 A 
ATOM      4  C5  UNL d   1      -1.073   1.025   0.956  0.00  0.00    -0.080 A 
ATOM      5  C6  UNL d   1      -1.978   2.031   1.600  0.00  0.00     0.076 C 
ATOM      6  C7  UNL d   1      -0.583   1.252  -0.335  0.00  0.00     0.002 A 
ATOM      7  C8  UNL d   1       0.239   0.310  -0.957  0.00  0.00     0.006 A 
ENDROOT
BRANCH   1   8
ATOM      8  C1  UNL d   1       1.423  -1.918  -0.995  0.00  0.00     0.054 C 
ATOM      9  C   UNL d   1       0.619  -2.641  -2.066  0.00  0.00     0.018 C 
ENDBRANCH   1   8
TORSDOF 1
ENDMDL
