MODEL 1
REMARK minimizedAffinity -5.14220572
REMARK minimizedRMSD -1
REMARK  1 active torsions:
REMARK  status: ('A' for Active; 'I' for Inactive)
REMARK    1  A    between atoms: C1_2  and  C2_3 
ROOT
ATOM      1  C2  UNL d   1       0.141  -0.587  -0.451  0.00  0.00    -0.081 A 
ATOM      2  C3  UNL d   1      -0.173  -0.711   0.908  0.00  0.00     0.006 A 
ATOM      3  C4  UNL d   1      -0.778   0.345   1.594  0.00  0.00     0.002 A 
ATOM      4  C5  UNL d   1      -1.087   1.538   0.932  0.00  0.00    -0.080 A 
ATOM      5  C6  UNL d   1      -1.764   2.667   1.649  0.00  0.00     0.076 C 
ATOM      6  C7  UNL d   1      -0.758   1.668  -0.422  0.00  0.00     0.002 A 
ATOM      7  C8  UNL d   1      -0.152   0.613  -1.108  0.00  0.00     0.006 A 
ENDROOT
BRANCH   1   8
ATOM      8  C1  UNL d   1       0.734  -1.747  -1.209  0.00  0.00     0.054 C 
ATOM      9  C   UNL d   1      -0.140  -2.140  -2.392  0.00  0.00     0.018 C 
ENDBRANCH   1   8
TORSDOF 1
ENDMDL
