MODEL 1
REMARK minimizedAffinity -1.22620738
REMARK minimizedRMSD -1
REMARK  1 active torsions:
REMARK  status: ('A' for Active; 'I' for Inactive)
REMARK    1  A    between atoms: C1_2  and  C2_3 
ROOT
ATOM      1  C2  UNL d   1       0.416  -0.436  -0.567  0.00  0.00    -0.081 A 
ATOM      2  C3  UNL d   1      -0.001  -0.836   0.709  0.00  0.00     0.006 A 
ATOM      3  C4  UNL d   1      -0.822  -0.008   1.478  0.00  0.00     0.002 A 
ATOM      4  C5  UNL d   1      -1.245   1.230   0.982  0.00  0.00    -0.080 A 
ATOM      5  C6  UNL d   1      -2.151   2.116   1.785  0.00  0.00     0.076 C 
ATOM      6  C7  UNL d   1      -0.815   1.638  -0.285  0.00  0.00     0.002 A 
ATOM      7  C8  UNL d   1       0.006   0.810  -1.054  0.00  0.00     0.006 A 
ENDROOT
BRANCH   1   8
ATOM      8  C1  UNL d   1       1.247  -1.355  -1.425  0.00  0.00     0.054 C 
ATOM      9  C   UNL d   1       0.460  -1.849  -2.630  0.00  0.00     0.018 C 
ENDBRANCH   1   8
TORSDOF 1
ENDMDL
