MODEL 1
REMARK minimizedAffinity -4.03647661
REMARK minimizedRMSD -1
REMARK  1 active torsions:
REMARK  status: ('A' for Active; 'I' for Inactive)
REMARK    1  A    between atoms: C1_2  and  C2_3 
ROOT
ATOM      1  C2  UNL d   1      -0.515   2.167  -0.021  0.00  0.00    -0.081 A 
ATOM      2  C3  UNL d   1       0.389   1.952  -1.069  0.00  0.00     0.006 A 
ATOM      3  C4  UNL d   1       0.934   0.684  -1.286  0.00  0.00     0.002 A 
ATOM      4  C5  UNL d   1       0.579  -0.391  -0.464  0.00  0.00    -0.080 A 
ATOM      5  C6  UNL d   1       1.134  -1.763  -0.705  0.00  0.00     0.076 C 
ATOM      6  C7  UNL d   1      -0.310  -0.173   0.594  0.00  0.00     0.002 A 
ATOM      7  C8  UNL d   1      -0.855   1.095   0.811  0.00  0.00     0.006 A 
ENDROOT
BRANCH   1   8
ATOM      8  C1  UNL d   1      -1.154   3.517   0.175  0.00  0.00     0.054 C 
ATOM      9  C   UNL d   1      -1.858   3.606   1.522  0.00  0.00     0.018 C 
ENDBRANCH   1   8
TORSDOF 1
ENDMDL
