MODEL 1
REMARK minimizedAffinity -3.96944976
REMARK minimizedRMSD -1
REMARK  1 active torsions:
REMARK  status: ('A' for Active; 'I' for Inactive)
REMARK    1  A    between atoms: C1_2  and  C2_3 
ROOT
ATOM      1  C2  UNL d   1      -0.135   1.961   0.571  0.00  0.00    -0.081 A 
ATOM      2  C3  UNL d   1       0.631   1.800  -0.590  0.00  0.00     0.006 A 
ATOM      3  C4  UNL d   1       0.942   0.522  -1.061  0.00  0.00     0.002 A 
ATOM      4  C5  UNL d   1       0.487  -0.615  -0.384  0.00  0.00    -0.080 A 
ATOM      5  C6  UNL d   1       0.788  -1.992  -0.896  0.00  0.00     0.076 C 
ATOM      6  C7  UNL d   1      -0.264  -0.453   0.785  0.00  0.00     0.002 A 
ATOM      7  C8  UNL d   1      -0.575   0.824   1.257  0.00  0.00     0.006 A 
ENDROOT
BRANCH   1   8
ATOM      8  C1  UNL d   1      -0.527   3.337   1.045  0.00  0.00     0.054 C 
ATOM      9  C   UNL d   1       0.070   4.420   0.156  0.00  0.00     0.018 C 
ENDBRANCH   1   8
TORSDOF 1
ENDMDL
