MODEL 1
REMARK minimizedAffinity -3.92287755
REMARK minimizedRMSD -1
REMARK  1 active torsions:
REMARK  status: ('A' for Active; 'I' for Inactive)
REMARK    1  A    between atoms: C1_2  and  C2_3 
ROOT
ATOM      1  C2  UNL d   1      -0.916   2.195   0.140  0.00  0.00    -0.081 A 
ATOM      2  C3  UNL d   1      -1.644   1.948   1.310  0.00  0.00     0.006 A 
ATOM      3  C4  UNL d   1      -1.460   0.760   2.021  0.00  0.00     0.002 A 
ATOM      4  C5  UNL d   1      -0.540  -0.196   1.580  0.00  0.00    -0.080 A 
ATOM      5  C6  UNL d   1      -0.311  -1.462   2.351  0.00  0.00     0.076 C 
ATOM      6  C7  UNL d   1       0.175   0.043   0.401  0.00  0.00     0.002 A 
ATOM      7  C8  UNL d   1      -0.009   1.230  -0.311  0.00  0.00     0.006 A 
ENDROOT
BRANCH   1   8
ATOM      8  C1  UNL d   1      -1.065   3.503  -0.594  0.00  0.00     0.054 C 
ATOM      9  C   UNL d   1       0.206   3.860  -1.352  0.00  0.00     0.018 C 
ENDBRANCH   1   8
TORSDOF 1
ENDMDL
