MODEL 1
REMARK minimizedAffinity -0.159463301
REMARK minimizedRMSD -1
REMARK  0 active torsions:
REMARK  status: ('A' for Active; 'I' for Inactive)
ROOT
ATOM      1  C1  DEN d   1       1.357  -0.012   1.847  0.00  0.00     0.130 A 
ATOM      2  C2  DEN d   1       1.941  -0.745   0.727  0.00  0.00    -0.031 A 
ATOM      3  C3  DEN d   1       0.890  -0.932  -0.293  0.00  0.00     0.027 A 
ATOM      4  C4  DEN d   1      -1.570  -0.157  -0.249  0.00  0.00     0.027 A 
ATOM      5  C5  DEN d   1      -2.530   0.492   0.496  0.00  0.00    -0.003 A 
ATOM      6  C6  DEN d   1      -2.272   0.984   1.748  0.00  0.00     0.001 A 
ATOM      7  C7  DEN d   1      -1.012   0.876   2.274  0.00  0.00     0.017 A 
ATOM      8  C8  DEN d   1      -0.041   0.216   1.532  0.00  0.00    -0.094 A 
ATOM      9  C9  DEN d   1      -0.318  -0.264   0.263  0.00  0.00    -0.072 A 
ENDROOT
TORSDOF 0
ENDMDL
