MODEL 1
REMARK minimizedAffinity -3.81270552
REMARK minimizedRMSD -1
REMARK  0 active torsions:
REMARK  status: ('A' for Active; 'I' for Inactive)
ROOT
ATOM      1  C1  DEN d   1      -2.684  -2.506  -0.258  0.00  0.00     0.130 A 
ATOM      2  C2  DEN d   1      -1.987  -3.571  -0.974  0.00  0.00    -0.031 A 
ATOM      3  C3  DEN d   1      -0.660  -3.060  -1.374  0.00  0.00     0.027 A 
ATOM      4  C4  DEN d   1       0.378  -0.737  -0.952  0.00  0.00     0.027 A 
ATOM      5  C5  DEN d   1       0.162   0.505  -0.397  0.00  0.00    -0.003 A 
ATOM      6  C6  DEN d   1      -1.020   0.839   0.208  0.00  0.00     0.001 A 
ATOM      7  C7  DEN d   1      -2.017  -0.096   0.313  0.00  0.00     0.017 A 
ATOM      8  C8  DEN d   1      -1.809  -1.348  -0.251  0.00  0.00    -0.094 A 
ATOM      9  C9  DEN d   1      -0.602  -1.670  -0.848  0.00  0.00    -0.072 A 
ENDROOT
TORSDOF 0
ENDMDL
