MODEL 1
REMARK minimizedAffinity -0.414630353
REMARK minimizedRMSD -1
REMARK  0 active torsions:
REMARK  status: ('A' for Active; 'I' for Inactive)
ROOT
ATOM      1  C1  DEN d   1      -1.145   0.261   0.467  0.00  0.00     0.130 A 
ATOM      2  C2  DEN d   1       0.126   0.435  -0.230  0.00  0.00    -0.031 A 
ATOM      3  C3  DEN d   1       0.271  -0.670  -1.199  0.00  0.00     0.027 A 
ATOM      4  C4  DEN d   1      -1.345  -2.620  -1.688  0.00  0.00     0.027 A 
ATOM      5  C5  DEN d   1      -2.546  -3.197  -1.340  0.00  0.00    -0.003 A 
ATOM      6  C6  DEN d   1      -3.342  -2.686  -0.350  0.00  0.00     0.001 A 
ATOM      7  C7  DEN d   1      -2.967  -1.537   0.297  0.00  0.00     0.017 A 
ATOM      8  C8  DEN d   1      -1.754  -0.954  -0.044  0.00  0.00    -0.094 A 
ATOM      9  C9  DEN d   1      -0.969  -1.480  -1.056  0.00  0.00    -0.072 A 
ENDROOT
TORSDOF 0
ENDMDL
