MODEL 1
REMARK minimizedAffinity -4.43184948
REMARK minimizedRMSD -1
REMARK  0 active torsions:
REMARK  status: ('A' for Active; 'I' for Inactive)
ROOT
ATOM      1  C1  DEN d   1      -2.942  -2.131  -0.314  0.00  0.00     0.130 A 
ATOM      2  C2  DEN d   1      -2.428  -3.239  -1.114  0.00  0.00    -0.031 A 
ATOM      3  C3  DEN d   1      -0.985  -3.016  -1.329  0.00  0.00     0.027 A 
ATOM      4  C4  DEN d   1       0.498  -1.075  -0.500  0.00  0.00     0.027 A 
ATOM      5  C5  DEN d   1       0.508   0.107   0.205  0.00  0.00    -0.003 A 
ATOM      6  C6  DEN d   1      -0.628   0.640   0.754  0.00  0.00     0.001 A 
ATOM      7  C7  DEN d   1      -1.815  -0.035   0.645  0.00  0.00     0.017 A 
ATOM      8  C8  DEN d   1      -1.835  -1.224  -0.072  0.00  0.00    -0.094 A 
ATOM      9  C9  DEN d   1      -0.673  -1.752  -0.609  0.00  0.00    -0.072 A 
ENDROOT
TORSDOF 0
ENDMDL
