MODEL 1
REMARK minimizedAffinity -4.74512863
REMARK minimizedRMSD -1
REMARK  0 active torsions:
REMARK  status: ('A' for Active; 'I' for Inactive)
ROOT
ATOM      1  C1  DEN d   1      -1.148  -0.888   0.040  0.00  0.00     0.130 A 
ATOM      2  C2  DEN d   1       0.134  -1.250  -0.560  0.00  0.00    -0.031 A 
ATOM      3  C3  DEN d   1       1.183  -0.425   0.072  0.00  0.00     0.027 A 
ATOM      4  C4  DEN d   1       0.949   1.367   1.912  0.00  0.00     0.027 A 
ATOM      5  C5  DEN d   1       0.058   2.032   2.725  0.00  0.00    -0.003 A 
ATOM      6  C6  DEN d   1      -1.291   1.796   2.676  0.00  0.00     0.001 A 
ATOM      7  C7  DEN d   1      -1.782   0.840   1.828  0.00  0.00     0.017 A 
ATOM      8  C8  DEN d   1      -0.891   0.171   1.000  0.00  0.00    -0.094 A 
ATOM      9  C9  DEN d   1       0.470   0.414   1.073  0.00  0.00    -0.072 A 
ENDROOT
TORSDOF 0
ENDMDL
