MODEL 1
REMARK minimizedAffinity 4.07615137
REMARK minimizedRMSD -1
REMARK  0 active torsions:
REMARK  status: ('A' for Active; 'I' for Inactive)
ROOT
ATOM      1  C1  DEN d   1       2.024  -0.134  -3.651  0.00  0.00     0.130 A 
ATOM      2  C2  DEN d   1       1.344   0.870  -4.463  0.00  0.00    -0.031 A 
ATOM      3  C3  DEN d   1       0.361   1.562  -3.605  0.00  0.00     0.027 A 
ATOM      4  C4  DEN d   1      -0.167   1.181  -1.110  0.00  0.00     0.027 A 
ATOM      5  C5  DEN d   1       0.144   0.428   0.001  0.00  0.00    -0.003 A 
ATOM      6  C6  DEN d   1       1.072  -0.578  -0.035  0.00  0.00     0.001 A 
ATOM      7  C7  DEN d   1       1.754  -0.831  -1.196  0.00  0.00     0.017 A 
ATOM      8  C8  DEN d   1       1.441  -0.082  -2.322  0.00  0.00    -0.094 A 
ATOM      9  C9  DEN d   1       0.508   0.940  -2.262  0.00  0.00    -0.072 A 
ENDROOT
TORSDOF 0
ENDMDL
