MODEL 1
REMARK minimizedAffinity -2.83952999
REMARK minimizedRMSD -1
REMARK  0 active torsions:
REMARK  status: ('A' for Active; 'I' for Inactive)
ROOT
ATOM      1  C1  DEN d   1      -2.054  -1.060   0.058  0.00  0.00     0.130 A 
ATOM      2  C2  DEN d   1      -3.027  -1.353   1.107  0.00  0.00    -0.031 A 
ATOM      3  C3  DEN d   1      -2.654  -0.577   2.307  0.00  0.00     0.027 A 
ATOM      4  C4  DEN d   1      -0.676   1.044   2.639  0.00  0.00     0.027 A 
ATOM      5  C5  DEN d   1       0.429   1.606   2.038  0.00  0.00    -0.003 A 
ATOM      6  C6  DEN d   1       0.799   1.295   0.756  0.00  0.00     0.001 A 
ATOM      7  C7  DEN d   1       0.033   0.432   0.018  0.00  0.00     0.017 A 
ATOM      8  C8  DEN d   1      -1.078  -0.144   0.620  0.00  0.00    -0.094 A 
ATOM      9  C9  DEN d   1      -1.443   0.192   1.913  0.00  0.00    -0.072 A 
ENDROOT
TORSDOF 0
ENDMDL
