MODEL 1
REMARK minimizedAffinity 0.320093423
REMARK minimizedRMSD -1
REMARK  0 active torsions:
REMARK  status: ('A' for Active; 'I' for Inactive)
ROOT
ATOM      1  C1  DEN d   1      -0.023   2.116   2.044  0.00  0.00     0.130 A 
ATOM      2  C2  DEN d   1      -1.046   1.686   2.993  0.00  0.00    -0.031 A 
ATOM      3  C3  DEN d   1      -1.649   0.440   2.481  0.00  0.00     0.027 A 
ATOM      4  C4  DEN d   1      -1.097  -0.862   0.324  0.00  0.00     0.027 A 
ATOM      5  C5  DEN d   1      -0.309  -0.881  -0.806  0.00  0.00    -0.003 A 
ATOM      6  C6  DEN d   1       0.598   0.108  -1.079  0.00  0.00     0.001 A 
ATOM      7  C7  DEN d   1       0.772   1.135  -0.189  0.00  0.00     0.017 A 
ATOM      8  C8  DEN d   1      -0.024   1.164   0.948  0.00  0.00    -0.094 A 
ATOM      9  C9  DEN d   1      -0.927   0.148   1.213  0.00  0.00    -0.072 A 
ENDROOT
TORSDOF 0
ENDMDL
