MODEL 1
REMARK minimizedAffinity -2.41421747
REMARK minimizedRMSD -1
REMARK  0 active torsions:
REMARK  status: ('A' for Active; 'I' for Inactive)
ROOT
ATOM      1  C1  DEN d   1       1.740   1.872  -4.882  0.00  0.00     0.130 A 
ATOM      2  C2  DEN d   1       2.385   1.799  -3.574  0.00  0.00    -0.031 A 
ATOM      3  C3  DEN d   1       1.842   0.624  -2.863  0.00  0.00     0.027 A 
ATOM      4  C4  DEN d   1       0.080  -1.083  -3.658  0.00  0.00     0.027 A 
ATOM      5  C5  DEN d   1      -0.762  -1.428  -4.693  0.00  0.00    -0.003 A 
ATOM      6  C6  DEN d   1      -0.853  -0.684  -5.839  0.00  0.00     0.001 A 
ATOM      7  C7  DEN d   1      -0.056   0.418  -5.998  0.00  0.00     0.017 A 
ATOM      8  C8  DEN d   1       0.790   0.777  -4.956  0.00  0.00    -0.094 A 
ATOM      9  C9  DEN d   1       0.877   0.005  -3.810  0.00  0.00    -0.072 A 
ENDROOT
TORSDOF 0
ENDMDL
