MODEL 1
REMARK minimizedAffinity 4.70327473
REMARK minimizedRMSD -1
REMARK  2 active torsions:
REMARK  status: ('A' for Active; 'I' for Inactive)
REMARK    1  A    between atoms: C1_2  and  C2_3 
REMARK    2  A    between atoms: C2_3  and  C3_4 
ROOT
ATOM      1  C3  UNL d   1       0.154   1.162  -1.137  0.00  0.00    -0.075 A 
ATOM      2  C4  UNL d   1      -0.115   1.219   0.239  0.00  0.00     0.002 A 
ATOM      3  C5  UNL d   1      -0.230   2.448   0.888  0.00  0.00     0.002 A 
ATOM      4  C6  UNL d   1      -0.068   3.634   0.175  0.00  0.00    -0.004 A 
ATOM      5  C7  UNL d   1       0.216   3.590  -1.189  0.00  0.00     0.002 A 
ATOM      6  C8  UNL d   1       0.327   2.361  -1.842  0.00  0.00     0.002 A 
ENDROOT
BRANCH   1   7
ATOM      7  C2  UNL d   1       0.250  -0.165  -1.851  0.00  0.00     0.056 C 
BRANCH   7   8
ATOM      8  C1  UNL d   1      -0.678  -0.288  -3.065  0.00  0.00     0.007 C 
ATOM      9  C   UNL d   1      -2.126  -0.570  -2.687  0.00  0.00     0.009 C 
ENDBRANCH   7   8
ENDBRANCH   1   7
TORSDOF 2
ENDMDL
