MODEL 1
REMARK minimizedAffinity 0.674724698
REMARK minimizedRMSD -1
REMARK  2 active torsions:
REMARK  status: ('A' for Active; 'I' for Inactive)
REMARK    1  A    between atoms: C1_2  and  C2_3 
REMARK    2  A    between atoms: C2_3  and  C3_4 
ROOT
ATOM      1  C3  UNL d   1      -0.768   2.225   0.450  0.00  0.00    -0.075 A 
ATOM      2  C4  UNL d   1       0.058   1.459   1.285  0.00  0.00     0.002 A 
ATOM      3  C5  UNL d   1      -0.495   0.658   2.285  0.00  0.00     0.002 A 
ATOM      4  C6  UNL d   1      -1.875   0.621   2.470  0.00  0.00    -0.004 A 
ATOM      5  C7  UNL d   1      -2.704   1.391   1.657  0.00  0.00     0.002 A 
ATOM      6  C8  UNL d   1      -2.154   2.190   0.652  0.00  0.00     0.002 A 
ENDROOT
BRANCH   1   7
ATOM      7  C2  UNL d   1      -0.179   3.071  -0.653  0.00  0.00     0.056 C 
BRANCH   7   8
ATOM      8  C1  UNL d   1      -0.379   4.578  -0.458  0.00  0.00     0.007 C 
ATOM      9  C   UNL d   1       0.929   5.339  -0.284  0.00  0.00     0.009 C 
ENDBRANCH   7   8
ENDBRANCH   1   7
TORSDOF 2
ENDMDL
