MODEL 1
REMARK minimizedAffinity 7.64761066
REMARK minimizedRMSD -1
REMARK  2 active torsions:
REMARK  status: ('A' for Active; 'I' for Inactive)
REMARK    1  A    between atoms: C1_2  and  C2_3 
REMARK    2  A    between atoms: C2_3  and  C3_4 
ROOT
ATOM      1  C3  UNL d   1      -0.754   2.870   0.061  0.00  0.00    -0.075 A 
ATOM      2  C4  UNL d   1      -0.184   3.987  -0.565  0.00  0.00     0.002 A 
ATOM      3  C5  UNL d   1       0.828   3.829  -1.511  0.00  0.00     0.002 A 
ATOM      4  C6  UNL d   1       1.291   2.556  -1.836  0.00  0.00    -0.004 A 
ATOM      5  C7  UNL d   1       0.743   1.439  -1.207  0.00  0.00     0.002 A 
ATOM      6  C8  UNL d   1      -0.274   1.594  -0.263  0.00  0.00     0.002 A 
ENDROOT
BRANCH   1   7
ATOM      7  C2  UNL d   1      -1.871   3.032   1.065  0.00  0.00     0.056 C 
BRANCH   7   8
ATOM      8  C1  UNL d   1      -2.417   1.708   1.610  0.00  0.00     0.007 C 
ATOM      9  C   UNL d   1      -1.619   1.171   2.791  0.00  0.00     0.009 C 
ENDBRANCH   7   8
ENDBRANCH   1   7
TORSDOF 2
ENDMDL
