MODEL 1
REMARK minimizedAffinity 4.47666645
REMARK minimizedRMSD -1
REMARK  2 active torsions:
REMARK  status: ('A' for Active; 'I' for Inactive)
REMARK    1  A    between atoms: C1_2  and  C2_3 
REMARK    2  A    between atoms: C2_3  and  C3_4 
ROOT
ATOM      1  C3  UNL d   1      -1.158   1.717   1.191  0.00  0.00    -0.075 A 
ATOM      2  C4  UNL d   1      -1.315   3.105   1.312  0.00  0.00     0.002 A 
ATOM      3  C5  UNL d   1      -0.774   3.966   0.357  0.00  0.00     0.002 A 
ATOM      4  C6  UNL d   1      -0.061   3.452  -0.724  0.00  0.00    -0.004 A 
ATOM      5  C7  UNL d   1       0.116   2.075  -0.846  0.00  0.00     0.002 A 
ATOM      6  C8  UNL d   1      -0.428   1.211   0.106  0.00  0.00     0.002 A 
ENDROOT
BRANCH   1   7
ATOM      7  C2  UNL d   1      -1.766   0.778   2.205  0.00  0.00     0.056 C 
BRANCH   7   8
ATOM      8  C1  UNL d   1      -0.844  -0.372   2.622  0.00  0.00     0.007 C 
ATOM      9  C   UNL d   1      -1.593  -1.555   3.220  0.00  0.00     0.009 C 
ENDBRANCH   7   8
ENDBRANCH   1   7
TORSDOF 2
ENDMDL
