MODEL 1
REMARK minimizedAffinity 1.88587391
REMARK minimizedRMSD -1
REMARK  2 active torsions:
REMARK  status: ('A' for Active; 'I' for Inactive)
REMARK    1  A    between atoms: C1_2  and  C2_3 
REMARK    2  A    between atoms: C2_3  and  C3_4 
ROOT
ATOM      1  C3  UNL d   1      -3.643  -3.061   4.023  0.00  0.00    -0.075 A 
ATOM      2  C4  UNL d   1      -3.860  -2.864   5.395  0.00  0.00     0.002 A 
ATOM      3  C5  UNL d   1      -5.030  -3.325   6.000  0.00  0.00     0.002 A 
ATOM      4  C6  UNL d   1      -6.000  -3.977   5.242  0.00  0.00    -0.004 A 
ATOM      5  C7  UNL d   1      -5.802  -4.162   3.875  0.00  0.00     0.002 A 
ATOM      6  C8  UNL d   1      -4.631  -3.707   3.268  0.00  0.00     0.002 A 
ENDROOT
BRANCH   1   7
ATOM      7  C2  UNL d   1      -2.367  -2.591   3.368  0.00  0.00     0.056 C 
BRANCH   7   8
ATOM      8  C1  UNL d   1      -1.138  -3.438   3.716  0.00  0.00     0.007 C 
ATOM      9  C   UNL d   1       0.116  -3.015   2.963  0.00  0.00     0.009 C 
ENDBRANCH   7   8
ENDBRANCH   1   7
TORSDOF 2
ENDMDL
