MODEL 1
REMARK minimizedAffinity 0.780014634
REMARK minimizedRMSD -1
REMARK  2 active torsions:
REMARK  status: ('A' for Active; 'I' for Inactive)
REMARK    1  A    between atoms: C1_2  and  C2_3 
REMARK    2  A    between atoms: C2_3  and  C3_4 
ROOT
ATOM      1  C3  UNL d   1      -0.931   0.574   2.022  0.00  0.00    -0.075 A 
ATOM      2  C4  UNL d   1       0.329  -0.005   1.817  0.00  0.00     0.002 A 
ATOM      3  C5  UNL d   1       0.586  -1.310   2.238  0.00  0.00     0.002 A 
ATOM      4  C6  UNL d   1      -0.408  -2.048   2.876  0.00  0.00    -0.004 A 
ATOM      5  C7  UNL d   1      -1.659  -1.477   3.100  0.00  0.00     0.002 A 
ATOM      6  C8  UNL d   1      -1.920  -0.173   2.676  0.00  0.00     0.002 A 
ENDROOT
BRANCH   1   7
ATOM      7  C2  UNL d   1      -1.225   1.975   1.543  0.00  0.00     0.056 C 
BRANCH   7   8
ATOM      8  C1  UNL d   1      -0.496   2.359   0.251  0.00  0.00     0.007 C 
ATOM      9  C   UNL d   1      -0.101   3.828   0.198  0.00  0.00     0.009 C 
ENDBRANCH   7   8
ENDBRANCH   1   7
TORSDOF 2
ENDMDL
