MODEL 1
REMARK minimizedAffinity 3.06557655
REMARK minimizedRMSD -1
REMARK  2 active torsions:
REMARK  status: ('A' for Active; 'I' for Inactive)
REMARK    1  A    between atoms: C1_2  and  C2_3 
REMARK    2  A    between atoms: C2_3  and  C3_4 
ROOT
ATOM      1  C3  UNL d   1      -1.705   2.327  -3.260  0.00  0.00    -0.075 A 
ATOM      2  C4  UNL d   1      -2.106   0.993  -3.424  0.00  0.00     0.002 A 
ATOM      3  C5  UNL d   1      -1.375  -0.043  -2.842  0.00  0.00     0.002 A 
ATOM      4  C6  UNL d   1      -0.231   0.239  -2.099  0.00  0.00    -0.004 A 
ATOM      5  C7  UNL d   1       0.185   1.560  -1.943  0.00  0.00     0.002 A 
ATOM      6  C8  UNL d   1      -0.546   2.599  -2.520  0.00  0.00     0.002 A 
ENDROOT
BRANCH   1   7
ATOM      7  C2  UNL d   1      -2.508   3.455  -3.862  0.00  0.00     0.056 C 
BRANCH   7   8
ATOM      8  C1  UNL d   1      -2.071   4.849  -3.398  0.00  0.00     0.007 C 
ATOM      9  C   UNL d   1      -2.133   5.896  -4.503  0.00  0.00     0.009 C 
ENDBRANCH   7   8
ENDBRANCH   1   7
TORSDOF 2
ENDMDL
