MODEL 1
REMARK minimizedAffinity 12.9748545
REMARK minimizedRMSD -1
REMARK  2 active torsions:
REMARK  status: ('A' for Active; 'I' for Inactive)
REMARK    1  A    between atoms: C1_2  and  C2_3 
REMARK    2  A    between atoms: C2_3  and  C3_4 
ROOT
ATOM      1  C3  UNL d   1      -0.492   0.980  -2.104  0.00  0.00    -0.075 A 
ATOM      2  C4  UNL d   1      -0.042  -0.346  -2.034  0.00  0.00     0.002 A 
ATOM      3  C5  UNL d   1      -0.786  -1.378  -2.608  0.00  0.00     0.002 A 
ATOM      4  C6  UNL d   1      -1.992  -1.098  -3.248  0.00  0.00    -0.004 A 
ATOM      5  C7  UNL d   1      -2.456   0.214  -3.309  0.00  0.00     0.002 A 
ATOM      6  C8  UNL d   1      -1.711   1.248  -2.740  0.00  0.00     0.002 A 
ENDROOT
BRANCH   1   7
ATOM      7  C2  UNL d   1       0.324   2.104  -1.511  0.00  0.00     0.056 C 
BRANCH   7   8
ATOM      8  C1  UNL d   1       0.228   3.422  -2.288  0.00  0.00     0.007 C 
ATOM      9  C   UNL d   1       0.174   4.648  -1.387  0.00  0.00     0.009 C 
ENDBRANCH   7   8
ENDBRANCH   1   7
TORSDOF 2
ENDMDL
