MODEL 1
REMARK minimizedAffinity 3.22881746
REMARK minimizedRMSD -1
REMARK  2 active torsions:
REMARK  status: ('A' for Active; 'I' for Inactive)
REMARK    1  A    between atoms: C1_2  and  C2_3 
REMARK    2  A    between atoms: C2_3  and  C3_4 
ROOT
ATOM      1  C3  UNL d   1      -0.345   4.298  -1.822  0.00  0.00    -0.075 A 
ATOM      2  C4  UNL d   1       0.006   3.351  -2.795  0.00  0.00     0.002 A 
ATOM      3  C5  UNL d   1       0.292   2.035  -2.431  0.00  0.00     0.002 A 
ATOM      4  C6  UNL d   1       0.242   1.653  -1.092  0.00  0.00    -0.004 A 
ATOM      5  C7  UNL d   1      -0.089   2.590  -0.116  0.00  0.00     0.002 A 
ATOM      6  C8  UNL d   1      -0.380   3.906  -0.478  0.00  0.00     0.002 A 
ENDROOT
BRANCH   1   7
ATOM      7  C2  UNL d   1      -0.685   5.717  -2.213  0.00  0.00     0.056 C 
BRANCH   7   8
ATOM      8  C1  UNL d   1      -2.189   6.000  -2.287  0.00  0.00     0.007 C 
ATOM      9  C   UNL d   1      -2.732   5.999  -3.710  0.00  0.00     0.009 C 
ENDBRANCH   7   8
ENDBRANCH   1   7
TORSDOF 2
ENDMDL
