MODEL 1
REMARK minimizedAffinity 5.41848993
REMARK minimizedRMSD -1
REMARK  2 active torsions:
REMARK  status: ('A' for Active; 'I' for Inactive)
REMARK    1  A    between atoms: C1_2  and  C2_3 
REMARK    2  A    between atoms: C2_3  and  C3_4 
ROOT
ATOM      1  C3  UNL d   1      -0.916   1.728  -0.674  0.00  0.00    -0.075 A 
ATOM      2  C4  UNL d   1      -1.898   0.854  -1.162  0.00  0.00     0.002 A 
ATOM      3  C5  UNL d   1      -1.657   0.079  -2.296  0.00  0.00     0.002 A 
ATOM      4  C6  UNL d   1      -0.438   0.175  -2.963  0.00  0.00    -0.004 A 
ATOM      5  C7  UNL d   1       0.539   1.053  -2.498  0.00  0.00     0.002 A 
ATOM      6  C8  UNL d   1       0.303   1.826  -1.360  0.00  0.00     0.002 A 
ENDROOT
BRANCH   1   7
ATOM      7  C2  UNL d   1      -1.159   2.548   0.570  0.00  0.00     0.056 C 
BRANCH   7   8
ATOM      8  C1  UNL d   1      -1.021   1.756   1.875  0.00  0.00     0.007 C 
ATOM      9  C   UNL d   1      -2.314   1.075   2.303  0.00  0.00     0.009 C 
ENDBRANCH   7   8
ENDBRANCH   1   7
TORSDOF 2
ENDMDL
