MODEL 1
REMARK minimizedAffinity 6.54733181
REMARK minimizedRMSD -1
REMARK  2 active torsions:
REMARK  status: ('A' for Active; 'I' for Inactive)
REMARK    1  A    between atoms: C1_2  and  C2_3 
REMARK    2  A    between atoms: C2_3  and  C3_4 
ROOT
ATOM      1  C3  UNL d   1      -0.600   2.802   0.370  0.00  0.00    -0.075 A 
ATOM      2  C4  UNL d   1      -0.575   4.063  -0.244  0.00  0.00     0.002 A 
ATOM      3  C5  UNL d   1      -0.087   4.209  -1.543  0.00  0.00     0.002 A 
ATOM      4  C6  UNL d   1       0.392   3.101  -2.239  0.00  0.00    -0.004 A 
ATOM      5  C7  UNL d   1       0.387   1.847  -1.633  0.00  0.00     0.002 A 
ATOM      6  C8  UNL d   1      -0.105   1.697  -0.335  0.00  0.00     0.002 A 
ENDROOT
BRANCH   1   7
ATOM      7  C2  UNL d   1      -1.155   2.632   1.764  0.00  0.00     0.056 C 
BRANCH   7   8
ATOM      8  C1  UNL d   1      -2.136   1.464   1.907  0.00  0.00     0.007 C 
ATOM      9  C   UNL d   1      -1.548   0.274   2.653  0.00  0.00     0.009 C 
ENDBRANCH   7   8
ENDBRANCH   1   7
TORSDOF 2
ENDMDL
