MODEL 1
REMARK minimizedAffinity 3.78697419
REMARK minimizedRMSD -1
REMARK  2 active torsions:
REMARK  status: ('A' for Active; 'I' for Inactive)
REMARK    1  A    between atoms: C1_2  and  C2_3 
REMARK    2  A    between atoms: C2_3  and  C3_4 
ROOT
ATOM      1  C3  UNL d   1       0.146   2.458  -0.596  0.00  0.00    -0.075 A 
ATOM      2  C4  UNL d   1       0.361   1.135  -0.184  0.00  0.00     0.002 A 
ATOM      3  C5  UNL d   1       0.793   0.171  -1.096  0.00  0.00     0.002 A 
ATOM      4  C6  UNL d   1       1.004   0.514  -2.429  0.00  0.00    -0.004 A 
ATOM      5  C7  UNL d   1       0.778   1.822  -2.853  0.00  0.00     0.002 A 
ATOM      6  C8  UNL d   1       0.350   2.790  -1.942  0.00  0.00     0.002 A 
ENDROOT
BRANCH   1   7
ATOM      7  C2  UNL d   1      -0.292   3.513   0.392  0.00  0.00     0.056 C 
BRANCH   7   8
ATOM      8  C1  UNL d   1       0.147   4.934   0.023  0.00  0.00     0.007 C 
ATOM      9  C   UNL d   1       1.114   5.544   1.030  0.00  0.00     0.009 C 
ENDBRANCH   7   8
ENDBRANCH   1   7
TORSDOF 2
ENDMDL
