MODEL 1
REMARK minimizedAffinity 10.1133184
REMARK minimizedRMSD -1
REMARK  0 active torsions:
REMARK  status: ('A' for Active; 'I' for Inactive)
ROOT
ATOM      1  C   UNL d   1       1.780   1.639   0.475  0.00  0.00     0.023 A 
ATOM      2  C1  UNL d   1       1.816   0.380   1.074  0.00  0.00     0.003 A 
ATOM      3  C2  UNL d   1       3.026  -0.309   1.183  0.00  0.00     0.048 A 
ATOM      4  C3  UNL d   1       4.197   0.269   0.693  0.00  0.00     0.023 A 
ATOM      5  C4  UNL d   1       4.166   1.529   0.094  0.00  0.00     0.048 A 
ATOM      6  C5  UNL d   1       2.954   2.213  -0.014  0.00  0.00     0.003 A 
ATOM      7  I   UNL d   1       5.999  -0.753   0.854  0.00  0.00    -0.146 I 
ENDROOT
TORSDOF 0
ENDMDL
