MODEL 1
REMARK minimizedAffinity 12.2907658
REMARK minimizedRMSD -1
REMARK  0 active torsions:
REMARK  status: ('A' for Active; 'I' for Inactive)
ROOT
ATOM      1  C   UNL d   1       6.000   0.203   1.878  0.00  0.00     0.023 A 
ATOM      2  C1  UNL d   1       5.090  -0.741   1.400  0.00  0.00     0.003 A 
ATOM      3  C2  UNL d   1       3.827  -0.336   0.964  0.00  0.00     0.048 A 
ATOM      4  C3  UNL d   1       3.480   1.014   1.008  0.00  0.00     0.023 A 
ATOM      5  C4  UNL d   1       4.387   1.962   1.485  0.00  0.00     0.048 A 
ATOM      6  C5  UNL d   1       5.648   1.552   1.921  0.00  0.00     0.003 A 
ATOM      7  I   UNL d   1       1.600   1.618   0.359  0.00  0.00    -0.146 I 
ENDROOT
TORSDOF 0
ENDMDL
