MODEL 1
REMARK minimizedAffinity 17.9766693
REMARK minimizedRMSD -1
REMARK  0 active torsions:
REMARK  status: ('A' for Active; 'I' for Inactive)
ROOT
ATOM      1  C   UNL d   1      -2.326  -2.894  -4.126  0.00  0.00     0.023 A 
ATOM      2  C1  UNL d   1      -2.762  -1.913  -3.235  0.00  0.00     0.003 A 
ATOM      3  C2  UNL d   1      -2.379  -1.966  -1.894  0.00  0.00     0.048 A 
ATOM      4  C3  UNL d   1      -1.558  -3.003  -1.450  0.00  0.00     0.023 A 
ATOM      5  C4  UNL d   1      -1.119  -3.986  -2.337  0.00  0.00     0.048 A 
ATOM      6  C5  UNL d   1      -1.505  -3.929  -3.678  0.00  0.00     0.003 A 
ATOM      7  I   UNL d   1      -0.987  -3.084   0.547  0.00  0.00    -0.146 I 
ENDROOT
TORSDOF 0
ENDMDL
