MODEL 1
REMARK minimizedAffinity 5.06014204
REMARK minimizedRMSD -1
REMARK  0 active torsions:
REMARK  status: ('A' for Active; 'I' for Inactive)
ROOT
ATOM      1  C   UNL d   1      -1.939  -2.593  -3.821  0.00  0.00     0.023 A 
ATOM      2  C1  UNL d   1      -2.418  -1.617  -2.947  0.00  0.00     0.003 A 
ATOM      3  C2  UNL d   1      -2.246  -1.766  -1.569  0.00  0.00     0.048 A 
ATOM      4  C3  UNL d   1      -1.593  -2.894  -1.073  0.00  0.00     0.023 A 
ATOM      5  C4  UNL d   1      -1.111  -3.872  -1.944  0.00  0.00     0.048 A 
ATOM      6  C5  UNL d   1      -1.287  -3.719  -3.320  0.00  0.00     0.003 A 
ATOM      7  I   UNL d   1      -1.335  -3.118   0.977  0.00  0.00    -0.146 I 
ENDROOT
TORSDOF 0
ENDMDL
