MODEL 1
REMARK minimizedAffinity 6.85507536
REMARK minimizedRMSD -1
REMARK  0 active torsions:
REMARK  status: ('A' for Active; 'I' for Inactive)
ROOT
ATOM      1  C   UNL d   1       4.796   2.488  -4.231  0.00  0.00     0.023 A 
ATOM      2  C1  UNL d   1       4.999   3.110  -2.999  0.00  0.00     0.003 A 
ATOM      3  C2  UNL d   1       4.976   2.357  -1.823  0.00  0.00     0.048 A 
ATOM      4  C3  UNL d   1       4.750   0.983  -1.886  0.00  0.00     0.023 A 
ATOM      5  C4  UNL d   1       4.547   0.356  -3.117  0.00  0.00     0.048 A 
ATOM      6  C5  UNL d   1       4.570   1.113  -4.290  0.00  0.00     0.003 A 
ATOM      7  I   UNL d   1       4.716  -0.140  -0.138  0.00  0.00    -0.146 I 
ENDROOT
TORSDOF 0
ENDMDL
