MODEL 1
REMARK minimizedAffinity 5.24286747
REMARK minimizedRMSD -1
REMARK  0 active torsions:
REMARK  status: ('A' for Active; 'I' for Inactive)
ROOT
ATOM      1  C   UNL d   1       3.518   0.011  -0.249  0.00  0.00     0.023 A 
ATOM      2  C1  UNL d   1       2.348   0.769  -0.191  0.00  0.00     0.003 A 
ATOM      3  C2  UNL d   1       1.655   0.895   1.015  0.00  0.00     0.048 A 
ATOM      4  C3  UNL d   1       2.139   0.262   2.159  0.00  0.00     0.023 A 
ATOM      5  C4  UNL d   1       3.309  -0.496   2.106  0.00  0.00     0.048 A 
ATOM      6  C5  UNL d   1       3.998  -0.621   0.898  0.00  0.00     0.003 A 
ATOM      7  I   UNL d   1       1.110   0.449   3.955  0.00  0.00    -0.146 I 
ENDROOT
TORSDOF 0
ENDMDL
