MODEL 1
REMARK minimizedAffinity 6.61625099
REMARK minimizedRMSD -1
REMARK  0 active torsions:
REMARK  status: ('A' for Active; 'I' for Inactive)
ROOT
ATOM      1  C   UNL d   1       1.508   0.909   0.408  0.00  0.00     0.023 A 
ATOM      2  C1  UNL d   1       1.702  -0.468   0.527  0.00  0.00     0.003 A 
ATOM      3  C2  UNL d   1       2.991  -0.981   0.689  0.00  0.00     0.048 A 
ATOM      4  C3  UNL d   1       4.081  -0.112   0.731  0.00  0.00     0.023 A 
ATOM      5  C4  UNL d   1       3.891   1.266   0.614  0.00  0.00     0.048 A 
ATOM      6  C5  UNL d   1       2.601   1.774   0.452  0.00  0.00     0.003 A 
ATOM      7  I   UNL d   1       5.999  -0.874   0.972  0.00  0.00    -0.146 I 
ENDROOT
TORSDOF 0
ENDMDL
