MODEL 1
REMARK minimizedAffinity 1.72598171
REMARK minimizedRMSD -1
REMARK  0 active torsions:
REMARK  status: ('A' for Active; 'I' for Inactive)
ROOT
ATOM      1  C   UNL d   1       1.142   0.923   3.254  0.00  0.00     0.023 A 
ATOM      2  C1  UNL d   1       1.403   1.487   2.005  0.00  0.00     0.003 A 
ATOM      3  C2  UNL d   1       2.362   0.916   1.166  0.00  0.00     0.048 A 
ATOM      4  C3  UNL d   1       3.056  -0.220   1.582  0.00  0.00     0.023 A 
ATOM      5  C4  UNL d   1       2.798  -0.788   2.831  0.00  0.00     0.048 A 
ATOM      6  C5  UNL d   1       1.838  -0.213   3.666  0.00  0.00     0.003 A 
ATOM      7  I   UNL d   1       4.484  -1.072   0.336  0.00  0.00    -0.146 I 
ENDROOT
TORSDOF 0
ENDMDL
