MODEL 1
REMARK minimizedAffinity 0.853693128
REMARK minimizedRMSD -1
REMARK  0 active torsions:
REMARK  status: ('A' for Active; 'I' for Inactive)
ROOT
ATOM      1  C   UNL d   1       3.087   0.892  -0.025  0.00  0.00     0.023 A 
ATOM      2  C1  UNL d   1       3.159  -0.308   0.682  0.00  0.00     0.003 A 
ATOM      3  C2  UNL d   1       2.498  -0.440   1.905  0.00  0.00     0.048 A 
ATOM      4  C3  UNL d   1       1.765   0.631   2.414  0.00  0.00     0.023 A 
ATOM      5  C4  UNL d   1       1.689   1.834   1.710  0.00  0.00     0.048 A 
ATOM      6  C5  UNL d   1       2.352   1.962   0.488  0.00  0.00     0.003 A 
ATOM      7  I   UNL d   1       0.780   0.437   4.234  0.00  0.00    -0.146 I 
ENDROOT
TORSDOF 0
ENDMDL
