MODEL 1
REMARK minimizedAffinity 5.70354223
REMARK minimizedRMSD -1
REMARK  0 active torsions:
REMARK  status: ('A' for Active; 'I' for Inactive)
ROOT
ATOM      1  C   UNL d   1      -4.878   0.649   4.415  0.00  0.00     0.023 A 
ATOM      2  C1  UNL d   1      -5.664   0.914   5.536  0.00  0.00     0.003 A 
ATOM      3  C2  UNL d   1      -5.813   2.226   5.991  0.00  0.00     0.048 A 
ATOM      4  C3  UNL d   1      -5.173   3.268   5.320  0.00  0.00     0.023 A 
ATOM      5  C4  UNL d   1      -4.386   3.007   4.197  0.00  0.00     0.048 A 
ATOM      6  C5  UNL d   1      -4.239   1.693   3.746  0.00  0.00     0.003 A 
ATOM      7  I   UNL d   1      -5.393   5.221   5.996  0.00  0.00    -0.146 I 
ENDROOT
TORSDOF 0
ENDMDL
