MODEL 1
REMARK minimizedAffinity 8.39130974
REMARK minimizedRMSD -1
REMARK  0 active torsions:
REMARK  status: ('A' for Active; 'I' for Inactive)
ROOT
ATOM      1  C   UNL d   1       2.315   2.700   0.937  0.00  0.00     0.023 A 
ATOM      2  C1  UNL d   1       1.734   1.456   1.183  0.00  0.00     0.003 A 
ATOM      3  C2  UNL d   1       2.491   0.291   1.046  0.00  0.00     0.048 A 
ATOM      4  C3  UNL d   1       3.830   0.377   0.663  0.00  0.00     0.023 A 
ATOM      5  C4  UNL d   1       4.415   1.620   0.416  0.00  0.00     0.048 A 
ATOM      6  C5  UNL d   1       3.654   2.782   0.554  0.00  0.00     0.003 A 
ATOM      7  I   UNL d   1       4.959  -1.355   0.457  0.00  0.00    -0.146 I 
ENDROOT
TORSDOF 0
ENDMDL
