MODEL 1
REMARK minimizedAffinity 18.0718708
REMARK minimizedRMSD -1
REMARK  0 active torsions:
REMARK  status: ('A' for Active; 'I' for Inactive)
ROOT
ATOM      1  C   UNL d   1      -1.660  -2.668   1.448  0.00  0.00     0.023 A 
ATOM      2  C1  UNL d   1      -0.487  -3.010   0.775  0.00  0.00     0.003 A 
ATOM      3  C2  UNL d   1      -0.456  -3.010  -0.621  0.00  0.00     0.048 A 
ATOM      4  C3  UNL d   1      -1.602  -2.665  -1.338  0.00  0.00     0.023 A 
ATOM      5  C4  UNL d   1      -2.777  -2.321  -0.669  0.00  0.00     0.048 A 
ATOM      6  C5  UNL d   1      -2.803  -2.323   0.727  0.00  0.00     0.003 A 
ATOM      7  I   UNL d   1      -1.558  -2.664  -3.416  0.00  0.00    -0.146 I 
ENDROOT
TORSDOF 0
ENDMDL
