MODEL 1
REMARK minimizedAffinity 7.57086277
REMARK minimizedRMSD -1
REMARK  0 active torsions:
REMARK  status: ('A' for Active; 'I' for Inactive)
ROOT
ATOM      1  C   UNL d   1      -5.632   6.000   4.336  0.00  0.00     0.023 A 
ATOM      2  C1  UNL d   1      -6.000   5.396   3.134  0.00  0.00     0.003 A 
ATOM      3  C2  UNL d   1      -5.620   4.079   2.867  0.00  0.00     0.048 A 
ATOM      4  C3  UNL d   1      -4.872   3.371   3.808  0.00  0.00     0.023 A 
ATOM      5  C4  UNL d   1      -4.503   3.971   5.013  0.00  0.00     0.048 A 
ATOM      6  C5  UNL d   1      -4.884   5.288   5.275  0.00  0.00     0.003 A 
ATOM      7  I   UNL d   1      -4.305   1.411   3.414  0.00  0.00    -0.146 I 
ENDROOT
TORSDOF 0
ENDMDL
