MODEL 1
REMARK minimizedAffinity 4.43742037
REMARK minimizedRMSD -1
REMARK  0 active torsions:
REMARK  status: ('A' for Active; 'I' for Inactive)
ROOT
ATOM      1  C   UNL d   1       3.274   1.109  -0.022  0.00  0.00     0.023 A 
ATOM      2  C1  UNL d   1       2.036   1.683   0.266  0.00  0.00     0.003 A 
ATOM      3  C2  UNL d   1       0.942   0.871   0.569  0.00  0.00     0.048 A 
ATOM      4  C3  UNL d   1       1.093  -0.515   0.583  0.00  0.00     0.023 A 
ATOM      5  C4  UNL d   1       2.330  -1.094   0.296  0.00  0.00     0.048 A 
ATOM      6  C5  UNL d   1       3.421  -0.278  -0.007  0.00  0.00     0.003 A 
ATOM      7  I   UNL d   1      -0.535  -1.726   1.035  0.00  0.00    -0.146 I 
ENDROOT
TORSDOF 0
ENDMDL
