MODEL 1
REMARK minimizedAffinity 4.34352922
REMARK minimizedRMSD -1
REMARK  0 active torsions:
REMARK  status: ('A' for Active; 'I' for Inactive)
ROOT
ATOM      1  C   UNL d   1       4.597  -0.731   1.220  0.00  0.00     0.023 A 
ATOM      2  C1  UNL d   1       3.823  -0.277   0.152  0.00  0.00     0.003 A 
ATOM      3  C2  UNL d   1       2.682   0.491   0.391  0.00  0.00     0.048 A 
ATOM      4  C3  UNL d   1       2.321   0.803   1.702  0.00  0.00     0.023 A 
ATOM      5  C4  UNL d   1       3.093   0.352   2.774  0.00  0.00     0.048 A 
ATOM      6  C5  UNL d   1       4.232  -0.417   2.529  0.00  0.00     0.003 A 
ATOM      7  I   UNL d   1       0.624   1.947   2.061  0.00  0.00    -0.146 I 
ENDROOT
TORSDOF 0
ENDMDL
