MODEL 1
REMARK minimizedAffinity 6.24433947
REMARK minimizedRMSD -1
REMARK  0 active torsions:
REMARK  status: ('A' for Active; 'I' for Inactive)
ROOT
ATOM      1  C   UNL d   1      -2.258  -1.945  -1.541  0.00  0.00     0.023 A 
ATOM      2  C1  UNL d   1      -1.524  -1.825  -0.361  0.00  0.00     0.003 A 
ATOM      3  C2  UNL d   1      -1.460  -2.894   0.534  0.00  0.00     0.048 A 
ATOM      4  C3  UNL d   1      -2.132  -4.081   0.243  0.00  0.00     0.023 A 
ATOM      5  C4  UNL d   1      -2.866  -4.206  -0.938  0.00  0.00     0.048 A 
ATOM      6  C5  UNL d   1      -2.928  -3.134  -1.829  0.00  0.00     0.003 A 
ATOM      7  I   UNL d   1      -2.038  -5.675   1.574  0.00  0.00    -0.146 I 
ENDROOT
TORSDOF 0
ENDMDL
