MODEL 1
REMARK minimizedAffinity 11.6854439
REMARK minimizedRMSD -1
REMARK  0 active torsions:
REMARK  status: ('A' for Active; 'I' for Inactive)
ROOT
ATOM      1  C   UNL d   1      -2.305  -6.000   2.188  0.00  0.00     0.023 A 
ATOM      2  C1  UNL d   1      -3.224  -5.994   1.138  0.00  0.00     0.003 A 
ATOM      3  C2  UNL d   1      -3.198  -4.968   0.191  0.00  0.00     0.048 A 
ATOM      4  C3  UNL d   1      -2.249  -3.952   0.298  0.00  0.00     0.023 A 
ATOM      5  C4  UNL d   1      -1.327  -3.954   1.346  0.00  0.00     0.048 A 
ATOM      6  C5  UNL d   1      -1.357  -4.981   2.291  0.00  0.00     0.003 A 
ATOM      7  I   UNL d   1      -2.208  -2.424  -1.110  0.00  0.00    -0.146 I 
ENDROOT
TORSDOF 0
ENDMDL
