MODEL 1
REMARK minimizedAffinity 10.1983242
REMARK minimizedRMSD -1
REMARK  0 active torsions:
REMARK  status: ('A' for Active; 'I' for Inactive)
ROOT
ATOM      1  C   UNL d   1      -5.859   6.000   3.876  0.00  0.00     0.023 A 
ATOM      2  C1  UNL d   1      -5.999   5.400   2.624  0.00  0.00     0.003 A 
ATOM      3  C2  UNL d   1      -5.401   4.164   2.370  0.00  0.00     0.048 A 
ATOM      4  C3  UNL d   1      -4.667   3.532   3.373  0.00  0.00     0.023 A 
ATOM      5  C4  UNL d   1      -4.526   4.128   4.628  0.00  0.00     0.048 A 
ATOM      6  C5  UNL d   1      -5.124   5.365   4.876  0.00  0.00     0.003 A 
ATOM      7  I   UNL d   1      -3.777   1.691   2.999  0.00  0.00    -0.146 I 
ENDROOT
TORSDOF 0
ENDMDL
