MODEL 1
REMARK minimizedAffinity 4.21813488
REMARK minimizedRMSD -1
REMARK  0 active torsions:
REMARK  status: ('A' for Active; 'I' for Inactive)
ROOT
ATOM      1  C   UNL d   1      -1.904  -4.056  -4.429  0.00  0.00     0.023 A 
ATOM      2  C1  UNL d   1      -2.994  -3.718  -3.628  0.00  0.00     0.003 A 
ATOM      3  C2  UNL d   1      -2.806  -3.436  -2.273  0.00  0.00     0.048 A 
ATOM      4  C3  UNL d   1      -1.524  -3.492  -1.727  0.00  0.00     0.023 A 
ATOM      5  C4  UNL d   1      -0.430  -3.828  -2.526  0.00  0.00     0.048 A 
ATOM      6  C5  UNL d   1      -0.623  -4.111  -3.879  0.00  0.00     0.003 A 
ATOM      7  I   UNL d   1      -1.241  -3.071   0.289  0.00  0.00    -0.146 I 
ENDROOT
TORSDOF 0
ENDMDL
