MODEL 1
REMARK minimizedAffinity 6.40873146
REMARK minimizedRMSD -1
REMARK  0 active torsions:
REMARK  status: ('A' for Active; 'I' for Inactive)
ROOT
ATOM      1  C   UNL d   1       2.185   4.554  -5.936  0.00  0.00     0.020 A 
ATOM      2  C1  UNL d   1       1.803   5.802  -5.445  0.00  0.00     0.020 A 
ATOM      3  C2  UNL d   1       0.509   5.994  -4.955  0.00  0.00     0.034 A 
ATOM      4  C3  UNL d   1      -0.407   4.935  -4.955  0.00  0.00     0.017 A 
ATOM      5  C4  UNL d   1      -0.022   3.683  -5.448  0.00  0.00     0.017 A 
ATOM      6  C5  UNL d   1       1.274   3.497  -5.937  0.00  0.00     0.034 A 
ATOM      7 Cl   UNL d   1      -1.097   2.330  -5.480  0.00  0.00    -0.070 Cl
ATOM      8 Cl1  UNL d   1      -1.989   5.243  -4.333  0.00  0.00    -0.070 Cl
ENDROOT
TORSDOF 0
ENDMDL
