MODEL 1
REMARK minimizedAffinity 1.70265901
REMARK minimizedRMSD -1
REMARK  0 active torsions:
REMARK  status: ('A' for Active; 'I' for Inactive)
ROOT
ATOM      1  C   UNL d   1       1.449   3.111   0.512  0.00  0.00     0.020 A 
ATOM      2  C1  UNL d   1       1.947   3.042  -0.789  0.00  0.00     0.020 A 
ATOM      3  C2  UNL d   1       1.891   1.838  -1.494  0.00  0.00     0.034 A 
ATOM      4  C3  UNL d   1       1.337   0.699  -0.899  0.00  0.00     0.017 A 
ATOM      5  C4  UNL d   1       0.837   0.770   0.406  0.00  0.00     0.017 A 
ATOM      6  C5  UNL d   1       0.895   1.978   1.108  0.00  0.00     0.034 A 
ATOM      7 Cl   UNL d   1       0.138  -0.593   1.206  0.00  0.00    -0.070 Cl
ATOM      8 Cl1  UNL d   1       1.300  -0.757  -1.830  0.00  0.00    -0.070 Cl
ENDROOT
TORSDOF 0
ENDMDL
