MODEL 1
REMARK minimizedAffinity 7.62222767
REMARK minimizedRMSD -1
REMARK  0 active torsions:
REMARK  status: ('A' for Active; 'I' for Inactive)
ROOT
ATOM      1  C   UNL d   1      -0.323   5.991  -2.451  0.00  0.00     0.020 A 
ATOM      2  C1  UNL d   1      -0.754   5.997  -3.777  0.00  0.00     0.020 A 
ATOM      3  C2  UNL d   1      -2.120   5.999  -4.068  0.00  0.00     0.034 A 
ATOM      4  C3  UNL d   1      -3.060   5.995  -3.031  0.00  0.00     0.017 A 
ATOM      5  C4  UNL d   1      -2.627   5.990  -1.700  0.00  0.00     0.017 A 
ATOM      6  C5  UNL d   1      -1.258   5.988  -1.415  0.00  0.00     0.034 A 
ATOM      7 Cl   UNL d   1      -3.727   5.985  -0.367  0.00  0.00    -0.070 Cl
ATOM      8 Cl1  UNL d   1      -4.733   5.998  -3.464  0.00  0.00    -0.070 Cl
ENDROOT
TORSDOF 0
ENDMDL
