MODEL 1
REMARK minimizedAffinity 1.72432864
REMARK minimizedRMSD -1
REMARK  0 active torsions:
REMARK  status: ('A' for Active; 'I' for Inactive)
ROOT
ATOM      1  C   UNL d   1       1.342   5.743  -4.875  0.00  0.00     0.020 A 
ATOM      2  C1  UNL d   1       0.190   5.923  -5.639  0.00  0.00     0.020 A 
ATOM      3  C2  UNL d   1      -1.057   6.000  -5.016  0.00  0.00     0.034 A 
ATOM      4  C3  UNL d   1      -1.155   5.896  -3.623  0.00  0.00     0.017 A 
ATOM      5  C4  UNL d   1       0.002   5.715  -2.857  0.00  0.00     0.017 A 
ATOM      6  C5  UNL d   1       1.248   5.640  -3.487  0.00  0.00     0.034 A 
ATOM      7 Cl   UNL d   1      -0.039   5.579  -1.134  0.00  0.00    -0.070 Cl
ATOM      8 Cl1  UNL d   1      -2.729   6.000  -2.919  0.00  0.00    -0.070 Cl
ENDROOT
TORSDOF 0
ENDMDL
