MODEL 1
REMARK minimizedAffinity 1.19942355
REMARK minimizedRMSD -1
REMARK  0 active torsions:
REMARK  status: ('A' for Active; 'I' for Inactive)
ROOT
ATOM      1  C   UNL d   1       5.961   5.062  -4.699  0.00  0.00     0.020 A 
ATOM      2  C1  UNL d   1       5.475   6.000  -5.609  0.00  0.00     0.020 A 
ATOM      3  C2  UNL d   1       4.122   6.000  -5.957  0.00  0.00     0.034 A 
ATOM      4  C3  UNL d   1       3.251   5.060  -5.394  0.00  0.00     0.017 A 
ATOM      5  C4  UNL d   1       3.740   4.119  -4.481  0.00  0.00     0.017 A 
ATOM      6  C5  UNL d   1       5.095   4.123  -4.137  0.00  0.00     0.034 A 
ATOM      7 Cl   UNL d   1       2.726   2.928  -3.745  0.00  0.00    -0.070 Cl
ATOM      8 Cl1  UNL d   1       1.590   5.118  -5.869  0.00  0.00    -0.070 Cl
ENDROOT
TORSDOF 0
ENDMDL
