MODEL 1
REMARK minimizedAffinity -0.278174907
REMARK minimizedRMSD -1
REMARK  0 active torsions:
REMARK  status: ('A' for Active; 'I' for Inactive)
ROOT
ATOM      1  C   UNL d   1      -3.700   5.980  -1.350  0.00  0.00     0.020 A 
ATOM      2  C1  UNL d   1      -4.555   5.999  -2.452  0.00  0.00     0.020 A 
ATOM      3  C2  UNL d   1      -4.028   6.000  -3.745  0.00  0.00     0.034 A 
ATOM      4  C3  UNL d   1      -2.642   5.981  -3.940  0.00  0.00     0.017 A 
ATOM      5  C4  UNL d   1      -1.785   5.961  -2.834  0.00  0.00     0.017 A 
ATOM      6  C5  UNL d   1      -2.318   5.961  -1.541  0.00  0.00     0.034 A 
ATOM      7 Cl   UNL d   1      -0.064   5.937  -2.996  0.00  0.00    -0.070 Cl
ATOM      8 Cl1  UNL d   1      -2.060   5.982  -5.567  0.00  0.00    -0.070 Cl
ENDROOT
TORSDOF 0
ENDMDL
