MODEL 1
REMARK minimizedAffinity 2.75371861
REMARK minimizedRMSD -1
REMARK  0 active torsions:
REMARK  status: ('A' for Active; 'I' for Inactive)
ROOT
ATOM      1  C   UNL d   1      -0.378   5.961  -3.066  0.00  0.00     0.020 A 
ATOM      2  C1  UNL d   1      -0.778   5.978  -4.401  0.00  0.00     0.020 A 
ATOM      3  C2  UNL d   1      -2.137   5.990  -4.723  0.00  0.00     0.034 A 
ATOM      4  C3  UNL d   1      -3.100   5.984  -3.708  0.00  0.00     0.017 A 
ATOM      5  C4  UNL d   1      -2.698   5.968  -2.368  0.00  0.00     0.017 A 
ATOM      6  C5  UNL d   1      -1.336   5.956  -2.051  0.00  0.00     0.034 A 
ATOM      7 Cl   UNL d   1      -3.829   5.960  -1.060  0.00  0.00    -0.070 Cl
ATOM      8 Cl1  UNL d   1      -4.763   6.000  -4.179  0.00  0.00    -0.070 Cl
ENDROOT
TORSDOF 0
ENDMDL
