MODEL 1
REMARK minimizedAffinity 3.81301808
REMARK minimizedRMSD -1
REMARK  0 active torsions:
REMARK  status: ('A' for Active; 'I' for Inactive)
ROOT
ATOM      1  C   UNL d   1      -0.377   5.973  -1.609  0.00  0.00     0.020 A 
ATOM      2  C1  UNL d   1      -0.462   5.969  -3.001  0.00  0.00     0.020 A 
ATOM      3  C2  UNL d   1      -1.711   5.975  -3.624  0.00  0.00     0.034 A 
ATOM      4  C3  UNL d   1      -2.881   5.984  -2.856  0.00  0.00     0.017 A 
ATOM      5  C4  UNL d   1      -2.795   5.988  -1.459  0.00  0.00     0.017 A 
ATOM      6  C5  UNL d   1      -1.542   5.982  -0.840  0.00  0.00     0.034 A 
ATOM      7 Cl   UNL d   1      -4.194   6.000  -0.445  0.00  0.00    -0.070 Cl
ATOM      8 Cl1  UNL d   1      -4.392   5.991  -3.694  0.00  0.00    -0.070 Cl
ENDROOT
TORSDOF 0
ENDMDL
