MODEL 1
REMARK minimizedAffinity -0.696884036
REMARK minimizedRMSD -1
REMARK  0 active torsions:
REMARK  status: ('A' for Active; 'I' for Inactive)
ROOT
ATOM      1  C   UNL d   1      -0.134   5.971  -5.966  0.00  0.00     0.020 A 
ATOM      2  C1  UNL d   1       0.833   5.966  -4.962  0.00  0.00     0.020 A 
ATOM      3  C2  UNL d   1       0.447   5.971  -3.620  0.00  0.00     0.034 A 
ATOM      4  C3  UNL d   1      -0.911   5.982  -3.278  0.00  0.00     0.017 A 
ATOM      5  C4  UNL d   1      -1.881   5.987  -4.287  0.00  0.00     0.017 A 
ATOM      6  C5  UNL d   1      -1.488   5.982  -5.629  0.00  0.00     0.034 A 
ATOM      7 Cl   UNL d   1      -3.575   6.000  -3.944  0.00  0.00    -0.070 Cl
ATOM      8 Cl1  UNL d   1      -1.317   5.987  -1.599  0.00  0.00    -0.070 Cl
ENDROOT
TORSDOF 0
ENDMDL
