MODEL 1
REMARK minimizedAffinity 4.48422337
REMARK minimizedRMSD -1
REMARK  0 active torsions:
REMARK  status: ('A' for Active; 'I' for Inactive)
ROOT
ATOM      1  C   UNL d   1      -0.391   5.961  -0.844  0.00  0.00     0.020 A 
ATOM      2  C1  UNL d   1      -0.425   5.962  -2.238  0.00  0.00     0.020 A 
ATOM      3  C2  UNL d   1      -1.651   5.971  -2.907  0.00  0.00     0.034 A 
ATOM      4  C3  UNL d   1      -2.848   5.979  -2.182  0.00  0.00     0.017 A 
ATOM      5  C4  UNL d   1      -2.813   5.977  -0.782  0.00  0.00     0.017 A 
ATOM      6  C5  UNL d   1      -1.583   5.969  -0.118  0.00  0.00     0.034 A 
ATOM      7 Cl   UNL d   1      -4.248   5.987   0.181  0.00  0.00    -0.070 Cl
ATOM      8 Cl1  UNL d   1      -4.328   5.990  -3.074  0.00  0.00    -0.070 Cl
ENDROOT
TORSDOF 0
ENDMDL
