MODEL 1
REMARK minimizedAffinity 9.78147602
REMARK minimizedRMSD -1
REMARK  0 active torsions:
REMARK  status: ('A' for Active; 'I' for Inactive)
ROOT
ATOM      1  C   UNL d   1      -0.956   0.918   3.863  0.00  0.00     0.020 A 
ATOM      2  C1  UNL d   1      -2.292   1.170   3.552  0.00  0.00     0.020 A 
ATOM      3  C2  UNL d   1      -2.743   1.018   2.240  0.00  0.00     0.034 A 
ATOM      4  C3  UNL d   1      -1.859   0.612   1.233  0.00  0.00     0.017 A 
ATOM      5  C4  UNL d   1      -0.519   0.359   1.547  0.00  0.00     0.017 A 
ATOM      6  C5  UNL d   1      -0.072   0.514   2.863  0.00  0.00     0.034 A 
ATOM      7 Cl   UNL d   1       0.632  -0.144   0.359  0.00  0.00    -0.070 Cl
ATOM      8 Cl1  UNL d   1      -2.487   0.444  -0.368  0.00  0.00    -0.070 Cl
ENDROOT
TORSDOF 0
ENDMDL
