MODEL 1
REMARK minimizedAffinity 0.451595366
REMARK minimizedRMSD -1
REMARK  0 active torsions:
REMARK  status: ('A' for Active; 'I' for Inactive)
ROOT
ATOM      1  C   UNL d   1      -4.169   5.999  -2.690  0.00  0.00     0.020 A 
ATOM      2  C1  UNL d   1      -4.043   6.000  -4.078  0.00  0.00     0.020 A 
ATOM      3  C2  UNL d   1      -2.775   5.999  -4.664  0.00  0.00     0.034 A 
ATOM      4  C3  UNL d   1      -1.629   5.998  -3.860  0.00  0.00     0.017 A 
ATOM      5  C4  UNL d   1      -1.757   5.997  -2.467  0.00  0.00     0.017 A 
ATOM      6  C5  UNL d   1      -3.029   5.998  -1.886  0.00  0.00     0.034 A 
ATOM      7 Cl   UNL d   1      -0.389   5.996  -1.410  0.00  0.00    -0.070 Cl
ATOM      8 Cl1  UNL d   1      -0.093   5.997  -4.652  0.00  0.00    -0.070 Cl
ENDROOT
TORSDOF 0
ENDMDL
