MODEL 1
REMARK minimizedAffinity 4.30577803
REMARK minimizedRMSD -1
REMARK  0 active torsions:
REMARK  status: ('A' for Active; 'I' for Inactive)
ROOT
ATOM      1  C   UNL d   1       1.145   5.990  -5.984  0.00  0.00     0.020 A 
ATOM      2  C1  UNL d   1       2.266   5.990  -5.155  0.00  0.00     0.020 A 
ATOM      3  C2  UNL d   1       2.108   5.993  -3.767  0.00  0.00     0.034 A 
ATOM      4  C3  UNL d   1       0.826   5.996  -3.205  0.00  0.00     0.017 A 
ATOM      5  C4  UNL d   1      -0.298   5.996  -4.038  0.00  0.00     0.017 A 
ATOM      6  C5  UNL d   1      -0.134   5.993  -5.427  0.00  0.00     0.034 A 
ATOM      7 Cl   UNL d   1      -1.912   5.999  -3.418  0.00  0.00    -0.070 Cl
ATOM      8 Cl1  UNL d   1       0.705   5.999  -1.481  0.00  0.00    -0.070 Cl
ENDROOT
TORSDOF 0
ENDMDL
