MODEL 1
REMARK minimizedAffinity -1.59926665
REMARK minimizedRMSD -1
REMARK  0 active torsions:
REMARK  status: ('A' for Active; 'I' for Inactive)
ROOT
ATOM      1  C   UNL d   1       2.039   5.451  -5.532  0.00  0.00     0.020 A 
ATOM      2  C1  UNL d   1       1.958   4.215  -4.890  0.00  0.00     0.020 A 
ATOM      3  C2  UNL d   1       3.123   3.511  -4.582  0.00  0.00     0.034 A 
ATOM      4  C3  UNL d   1       4.375   4.041  -4.914  0.00  0.00     0.017 A 
ATOM      5  C4  UNL d   1       4.456   5.281  -5.558  0.00  0.00     0.017 A 
ATOM      6  C5  UNL d   1       3.285   5.982  -5.864  0.00  0.00     0.034 A 
ATOM      7 Cl   UNL d   1       5.964   6.000  -5.999  0.00  0.00    -0.070 Cl
ATOM      8 Cl1  UNL d   1       5.775   3.115  -4.502  0.00  0.00    -0.070 Cl
ENDROOT
TORSDOF 0
ENDMDL
