MODEL 1
REMARK minimizedAffinity 2.63525343
REMARK minimizedRMSD -1
REMARK  0 active torsions:
REMARK  status: ('A' for Active; 'I' for Inactive)
ROOT
ATOM      1  C   UNL d   1       1.394   4.153  -5.508  0.00  0.00     0.020 A 
ATOM      2  C1  UNL d   1       1.594   5.457  -5.959  0.00  0.00     0.020 A 
ATOM      3  C2  UNL d   1       2.884   5.991  -6.000  0.00  0.00     0.034 A 
ATOM      4  C3  UNL d   1       3.978   5.221  -5.590  0.00  0.00     0.017 A 
ATOM      5  C4  UNL d   1       3.776   3.912  -5.138  0.00  0.00     0.017 A 
ATOM      6  C5  UNL d   1       2.482   3.382  -5.099  0.00  0.00     0.034 A 
ATOM      7 Cl   UNL d   1       5.076   2.900  -4.616  0.00  0.00    -0.070 Cl
ATOM      8 Cl1  UNL d   1       5.545   5.946  -5.667  0.00  0.00    -0.070 Cl
ENDROOT
TORSDOF 0
ENDMDL
