MODEL 1
REMARK minimizedAffinity -1.45053017
REMARK minimizedRMSD -1
REMARK  0 active torsions:
REMARK  status: ('A' for Active; 'I' for Inactive)
ROOT
ATOM      1  C   UNL d   1       2.077   0.310   0.566  0.00  0.00     0.172 C 
ATOM      2  N   UNL d   1       0.862   0.242  -0.212  0.00  0.00    -0.070 N 
ATOM      3  C1  UNL d   1      -0.395   0.034   0.288  0.00  0.00    -0.004 A 
ATOM      4  C2  UNL d   1      -1.277   0.038  -0.771  0.00  0.00    -0.047 A 
ATOM      5  C3  UNL d   1      -0.523   0.255  -1.949  0.00  0.00    -0.047 A 
ATOM      6  C4  UNL d   1       0.799   0.378  -1.573  0.00  0.00    -0.004 A 
ENDROOT
TORSDOF 0
ENDMDL
