MODEL 1
REMARK minimizedAffinity -3.49378991
REMARK minimizedRMSD -1
REMARK  0 active torsions:
REMARK  status: ('A' for Active; 'I' for Inactive)
ROOT
ATOM      1  C   UNL d   1       1.116   0.338  -0.039  0.00  0.00     0.172 C 
ATOM      2  N   UNL d   1      -0.222  -0.009  -0.458  0.00  0.00    -0.070 N 
ATOM      3  C1  UNL d   1      -0.989  -1.014   0.069  0.00  0.00    -0.004 A 
ATOM      4  C2  UNL d   1      -2.194  -1.020  -0.599  0.00  0.00    -0.047 A 
ATOM      5  C3  UNL d   1      -2.150   0.016  -1.562  0.00  0.00    -0.047 A 
ATOM      6  C4  UNL d   1      -0.918   0.626  -1.453  0.00  0.00    -0.004 A 
ENDROOT
TORSDOF 0
ENDMDL
