MODEL 1
REMARK minimizedAffinity -2.00974917
REMARK minimizedRMSD -1
REMARK  0 active torsions:
REMARK  status: ('A' for Active; 'I' for Inactive)
ROOT
ATOM      1  C   UNL d   1       1.057  -0.007   0.313  0.00  0.00     0.172 C 
ATOM      2  N   UNL d   1      -0.261  -0.352  -0.167  0.00  0.00    -0.070 N 
ATOM      3  C1  UNL d   1      -0.814   0.062  -1.349  0.00  0.00    -0.004 A 
ATOM      4  C2  UNL d   1      -2.078  -0.480  -1.437  0.00  0.00    -0.047 A 
ATOM      5  C3  UNL d   1      -2.293  -1.245  -0.266  0.00  0.00    -0.047 A 
ATOM      6  C4  UNL d   1      -1.152  -1.148   0.503  0.00  0.00    -0.004 A 
ENDROOT
TORSDOF 0
ENDMDL
