MODEL 1
REMARK minimizedAffinity -2.72827053
REMARK minimizedRMSD -1
REMARK  0 active torsions:
REMARK  status: ('A' for Active; 'I' for Inactive)
ROOT
ATOM      1  C   UNL d   1       0.843  -0.010  -0.009  0.00  0.00     0.172 C 
ATOM      2  N   UNL d   1       1.598   0.774   0.940  0.00  0.00    -0.070 N 
ATOM      3  C1  UNL d   1       2.133   2.012   0.706  0.00  0.00    -0.004 A 
ATOM      4  C2  UNL d   1       2.774   2.420   1.856  0.00  0.00    -0.047 A 
ATOM      5  C3  UNL d   1       2.619   1.391   2.814  0.00  0.00    -0.047 A 
ATOM      6  C4  UNL d   1       1.888   0.384   2.221  0.00  0.00    -0.004 A 
ENDROOT
TORSDOF 0
ENDMDL
