MODEL 1
REMARK minimizedAffinity -2.08410311
REMARK minimizedRMSD -1
REMARK  0 active torsions:
REMARK  status: ('A' for Active; 'I' for Inactive)
ROOT
ATOM      1  C   UNL d   1       2.853   1.377   0.346  0.00  0.00     0.172 C 
ATOM      2  N   UNL d   1       1.756   0.453   0.517  0.00  0.00    -0.070 N 
ATOM      3  C1  UNL d   1       0.474   0.646   0.076  0.00  0.00    -0.004 A 
ATOM      4  C2  UNL d   1      -0.267  -0.460   0.434  0.00  0.00    -0.047 A 
ATOM      5  C3  UNL d   1       0.600  -1.348   1.114  0.00  0.00    -0.047 A 
ATOM      6  C4  UNL d   1       1.846  -0.757   1.152  0.00  0.00    -0.004 A 
ENDROOT
TORSDOF 0
ENDMDL
