MODEL 1
REMARK minimizedAffinity -2.16742182
REMARK minimizedRMSD -1
REMARK  0 active torsions:
REMARK  status: ('A' for Active; 'I' for Inactive)
ROOT
ATOM      1  C   UNL d   1       1.504  -0.195   0.481  0.00  0.00     0.172 C 
ATOM      2  N   UNL d   1       2.093   1.094   0.759  0.00  0.00    -0.070 N 
ATOM      3  C1  UNL d   1       1.789   1.897   1.826  0.00  0.00    -0.004 A 
ATOM      4  C2  UNL d   1       2.563   3.034   1.733  0.00  0.00    -0.047 A 
ATOM      5  C3  UNL d   1       3.360   2.909   0.570  0.00  0.00    -0.047 A 
ATOM      6  C4  UNL d   1       3.049   1.699  -0.014  0.00  0.00    -0.004 A 
ENDROOT
TORSDOF 0
ENDMDL
