MODEL 1
REMARK minimizedAffinity 1.11588216
REMARK minimizedRMSD -1
REMARK  0 active torsions:
REMARK  status: ('A' for Active; 'I' for Inactive)
ROOT
ATOM      1  C   UNL d   1      -1.418  -2.277   1.772  0.00  0.00     0.172 C 
ATOM      2  N   UNL d   1      -1.706  -1.548   0.559  0.00  0.00    -0.070 N 
ATOM      3  C1  UNL d   1      -0.847  -0.698  -0.084  0.00  0.00    -0.004 A 
ATOM      4  C2  UNL d   1      -1.495  -0.206  -1.197  0.00  0.00    -0.047 A 
ATOM      5  C3  UNL d   1      -2.788  -0.780  -1.222  0.00  0.00    -0.047 A 
ATOM      6  C4  UNL d   1      -2.892  -1.607  -0.124  0.00  0.00    -0.004 A 
ENDROOT
TORSDOF 0
ENDMDL
