MODEL 1
REMARK minimizedAffinity 6.6934247
REMARK minimizedRMSD -1
REMARK  0 active torsions:
REMARK  status: ('A' for Active; 'I' for Inactive)
ROOT
ATOM      1  C   UNL d   1       3.795   3.668   0.799  0.00  0.00     0.172 C 
ATOM      2  N   UNL d   1       3.415   2.575   1.662  0.00  0.00    -0.070 N 
ATOM      3  C1  UNL d   1       4.272   1.815   2.412  0.00  0.00    -0.004 A 
ATOM      4  C2  UNL d   1       3.523   0.881   3.093  0.00  0.00    -0.047 A 
ATOM      5  C3  UNL d   1       2.168   1.086   2.739  0.00  0.00    -0.047 A 
ATOM      6  C4  UNL d   1       2.130   2.141   1.852  0.00  0.00    -0.004 A 
ENDROOT
TORSDOF 0
ENDMDL
