MODEL 1
REMARK minimizedAffinity -3.03376913
REMARK minimizedRMSD -1
REMARK  0 active torsions:
REMARK  status: ('A' for Active; 'I' for Inactive)
ROOT
ATOM      1  C   UNL d   1       0.864   0.375   0.178  0.00  0.00     0.172 C 
ATOM      2  N   UNL d   1      -0.351   0.048  -0.529  0.00  0.00    -0.070 N 
ATOM      3  C1  UNL d   1      -1.021   0.876  -1.390  0.00  0.00    -0.004 A 
ATOM      4  C2  UNL d   1      -2.126   0.196  -1.855  0.00  0.00    -0.047 A 
ATOM      5  C3  UNL d   1      -2.121  -1.084  -1.253  0.00  0.00    -0.047 A 
ATOM      6  C4  UNL d   1      -1.011  -1.149  -0.437  0.00  0.00    -0.004 A 
ENDROOT
TORSDOF 0
ENDMDL
