MODEL 1
REMARK minimizedAffinity -2.08118939
REMARK minimizedRMSD -1
REMARK  0 active torsions:
REMARK  status: ('A' for Active; 'I' for Inactive)
ROOT
ATOM      1  C   UNL d   1       1.372   1.075   0.273  0.00  0.00     0.172 C 
ATOM      2  N   UNL d   1       0.219   0.340  -0.193  0.00  0.00    -0.070 N 
ATOM      3  C1  UNL d   1      -0.199  -0.874   0.283  0.00  0.00    -0.004 A 
ATOM      4  C2  UNL d   1      -1.330  -1.235  -0.417  0.00  0.00    -0.047 A 
ATOM      5  C3  UNL d   1      -1.601  -0.202  -1.346  0.00  0.00    -0.047 A 
ATOM      6  C4  UNL d   1      -0.627   0.761  -1.185  0.00  0.00    -0.004 A 
ENDROOT
TORSDOF 0
ENDMDL
