MODEL 1
REMARK minimizedAffinity -3.25070214
REMARK minimizedRMSD -1
REMARK  0 active torsions:
REMARK  status: ('A' for Active; 'I' for Inactive)
ROOT
ATOM      1  C   UNL d   1       0.652   0.281   0.278  0.00  0.00     0.172 C 
ATOM      2  N   UNL d   1      -0.611  -0.173  -0.254  0.00  0.00    -0.070 N 
ATOM      3  C1  UNL d   1      -1.371   0.488  -1.182  0.00  0.00    -0.004 A 
ATOM      4  C2  UNL d   1      -2.495  -0.271  -1.425  0.00  0.00    -0.047 A 
ATOM      5  C3  UNL d   1      -2.409  -1.428  -0.614  0.00  0.00    -0.047 A 
ATOM      6  C4  UNL d   1      -1.233  -1.342   0.101  0.00  0.00    -0.004 A 
ENDROOT
TORSDOF 0
ENDMDL
