MODEL 1
REMARK minimizedAffinity -2.72414041
REMARK minimizedRMSD -1
REMARK  0 active torsions:
REMARK  status: ('A' for Active; 'I' for Inactive)
ROOT
ATOM      1  C   UNL d   1       0.947  -0.167  -0.308  0.00  0.00     0.172 C 
ATOM      2  N   UNL d   1       1.762   0.979   0.023  0.00  0.00    -0.070 N 
ATOM      3  C1  UNL d   1       2.775   1.486  -0.745  0.00  0.00    -0.004 A 
ATOM      4  C2  UNL d   1       3.302   2.575  -0.084  0.00  0.00    -0.047 A 
ATOM      5  C3  UNL d   1       2.581   2.725   1.124  0.00  0.00    -0.047 A 
ATOM      6  C4  UNL d   1       1.634   1.724   1.165  0.00  0.00    -0.004 A 
ENDROOT
TORSDOF 0
ENDMDL
