MODEL 1
REMARK minimizedAffinity -1.67651784
REMARK minimizedRMSD -1
REMARK  0 active torsions:
REMARK  status: ('A' for Active; 'I' for Inactive)
ROOT
ATOM      1  C   UNL d   1       0.796   0.082  -0.130  0.00  0.00     0.172 C 
ATOM      2  N   UNL d   1      -0.534  -0.289  -0.554  0.00  0.00    -0.070 N 
ATOM      3  C1  UNL d   1      -1.380   0.488  -1.298  0.00  0.00    -0.004 A 
ATOM      4  C2  UNL d   1      -2.546  -0.222  -1.491  0.00  0.00    -0.047 A 
ATOM      5  C3  UNL d   1      -2.394  -1.469  -0.838  0.00  0.00    -0.047 A 
ATOM      6  C4  UNL d   1      -1.139  -1.484  -0.267  0.00  0.00    -0.004 A 
ENDROOT
TORSDOF 0
ENDMDL
