MODEL 1
REMARK minimizedAffinity -1.25746942
REMARK minimizedRMSD -1
REMARK  0 active torsions:
REMARK  status: ('A' for Active; 'I' for Inactive)
ROOT
ATOM      1  C   UNL d   1      -2.685  -1.224  -0.774  0.00  0.00     0.172 C 
ATOM      2  N   UNL d   1      -1.400  -0.867  -0.222  0.00  0.00    -0.070 N 
ATOM      3  C1  UNL d   1      -0.582   0.130  -0.683  0.00  0.00    -0.004 A 
ATOM      4  C2  UNL d   1       0.545   0.152   0.110  0.00  0.00    -0.047 A 
ATOM      5  C3  UNL d   1       0.400  -0.867   1.081  0.00  0.00    -0.047 A 
ATOM      6  C4  UNL d   1      -0.813  -1.482   0.853  0.00  0.00    -0.004 A 
ENDROOT
TORSDOF 0
ENDMDL
