MODEL 1
REMARK minimizedAffinity 9.82425404
REMARK minimizedRMSD -1
REMARK  1 active torsions:
REMARK  status: ('A' for Active; 'I' for Inactive)
REMARK    1  A    between atoms: C1_2  and  C2_3 
ROOT
ATOM      1  C2  UNL d   1       2.694   1.781  -1.111  0.00  0.00    -0.073 A 
ATOM      2  C3  UNL d   1       1.349   2.132  -1.268  0.00  0.00    -0.002 A 
ATOM      3  C4  UNL d   1       0.956   2.971  -2.312  0.00  0.00     0.004 A 
ATOM      4  C5  UNL d   1       1.902   3.461  -3.212  0.00  0.00    -0.004 A 
ATOM      5  C6  UNL d   1       3.250   3.113  -3.079  0.00  0.00    -0.075 A 
ATOM      6  C7  UNL d   1       4.280   3.634  -4.037  0.00  0.00     0.076 C 
ATOM      7  C8  UNL d   1       3.637   2.272  -2.026  0.00  0.00     0.001 A 
ENDROOT
BRANCH   1   8
ATOM      8  C1  UNL d   1       3.122   0.871   0.011  0.00  0.00     0.053 C 
ATOM      9  C   UNL d   1       3.770   1.638   1.152  0.00  0.00     0.018 C 
ENDBRANCH   1   8
TORSDOF 1
ENDMDL
