MODEL 1
REMARK minimizedAffinity 9.714674
REMARK minimizedRMSD -1
REMARK  1 active torsions:
REMARK  status: ('A' for Active; 'I' for Inactive)
REMARK    1  A    between atoms: C1_2  and  C2_3 
ROOT
ATOM      1  C2  UNL d   1      -0.296  -0.385   2.061  0.00  0.00    -0.073 A 
ATOM      2  C3  UNL d   1      -1.133  -1.215   1.306  0.00  0.00    -0.002 A 
ATOM      3  C4  UNL d   1      -2.455  -1.429   1.699  0.00  0.00     0.004 A 
ATOM      4  C5  UNL d   1      -2.955  -0.811   2.845  0.00  0.00    -0.004 A 
ATOM      5  C6  UNL d   1      -2.138   0.031   3.606  0.00  0.00    -0.075 A 
ATOM      6  C7  UNL d   1      -2.660   0.701   4.843  0.00  0.00     0.076 C 
ATOM      7  C8  UNL d   1      -0.811   0.238   3.207  0.00  0.00     0.001 A 
ENDROOT
BRANCH   1   8
ATOM      8  C1  UNL d   1       1.130  -0.146   1.636  0.00  0.00     0.053 C 
ATOM      9  C   UNL d   1       1.278   1.136   0.833  0.00  0.00     0.018 C 
ENDBRANCH   1   8
TORSDOF 1
ENDMDL
