MODEL 1
REMARK minimizedAffinity 0.999298573
REMARK minimizedRMSD -1
REMARK  1 active torsions:
REMARK  status: ('A' for Active; 'I' for Inactive)
REMARK    1  A    between atoms: C1_2  and  C2_3 
ROOT
ATOM      1  C2  UNL d   1      -3.610   5.431  -4.129  0.00  0.00    -0.073 A 
ATOM      2  C3  UNL d   1      -3.431   6.000  -5.395  0.00  0.00    -0.002 A 
ATOM      3  C4  UNL d   1      -2.173   5.991  -6.000  0.00  0.00     0.004 A 
ATOM      4  C5  UNL d   1      -1.085   5.409  -5.349  0.00  0.00    -0.004 A 
ATOM      5  C6  UNL d   1      -1.247   4.825  -4.089  0.00  0.00    -0.075 A 
ATOM      6  C7  UNL d   1      -0.087   4.196  -3.374  0.00  0.00     0.076 C 
ATOM      7  C8  UNL d   1      -2.513   4.840  -3.487  0.00  0.00     0.001 A 
ENDROOT
BRANCH   1   8
ATOM      8  C1  UNL d   1      -4.968   5.432  -3.475  0.00  0.00     0.053 C 
ATOM      9  C   UNL d   1      -5.269   4.112  -2.783  0.00  0.00     0.018 C 
ENDBRANCH   1   8
TORSDOF 1
ENDMDL
