MODEL 1
REMARK minimizedAffinity 4.20877361
REMARK minimizedRMSD -1
REMARK  1 active torsions:
REMARK  status: ('A' for Active; 'I' for Inactive)
REMARK    1  A    between atoms: C1_2  and  C2_3 
ROOT
ATOM      1  C2  UNL d   1       4.126  -4.365  -0.052  0.00  0.00    -0.073 A 
ATOM      2  C3  UNL d   1       4.987  -3.262  -0.006  0.00  0.00    -0.002 A 
ATOM      3  C4  UNL d   1       4.491  -1.994   0.299  0.00  0.00     0.004 A 
ATOM      4  C5  UNL d   1       3.133  -1.816   0.567  0.00  0.00    -0.004 A 
ATOM      5  C6  UNL d   1       2.260  -2.908   0.537  0.00  0.00    -0.075 A 
ATOM      6  C7  UNL d   1       0.797  -2.734   0.821  0.00  0.00     0.076 C 
ATOM      7  C8  UNL d   1       2.765  -4.178   0.227  0.00  0.00     0.001 A 
ENDROOT
BRANCH   1   8
ATOM      8  C1  UNL d   1       4.658  -5.737  -0.375  0.00  0.00     0.053 C 
ATOM      9  C   UNL d   1       6.000  -6.000   0.291  0.00  0.00     0.018 C 
ENDBRANCH   1   8
TORSDOF 1
ENDMDL
