MODEL 1
REMARK minimizedAffinity 4.42215776
REMARK minimizedRMSD -1
REMARK  1 active torsions:
REMARK  status: ('A' for Active; 'I' for Inactive)
REMARK    1  A    between atoms: C1_2  and  C2_3 
ROOT
ATOM      1  C2  UNL d   1       4.033  -4.664  -0.063  0.00  0.00    -0.073 A 
ATOM      2  C3  UNL d   1       4.763  -3.474   0.038  0.00  0.00    -0.002 A 
ATOM      3  C4  UNL d   1       4.105  -2.245   0.083  0.00  0.00     0.004 A 
ATOM      4  C5  UNL d   1       2.712  -2.192   0.035  0.00  0.00    -0.004 A 
ATOM      5  C6  UNL d   1       1.964  -3.370  -0.054  0.00  0.00    -0.075 A 
ATOM      6  C7  UNL d   1       0.465  -3.331  -0.109  0.00  0.00     0.076 C 
ATOM      7  C8  UNL d   1       2.633  -4.601  -0.102  0.00  0.00     0.001 A 
ENDROOT
BRANCH   1   8
ATOM      8  C1  UNL d   1       4.739  -5.995  -0.105  0.00  0.00     0.053 C 
ATOM      9  C   UNL d   1       5.999  -5.998   0.745  0.00  0.00     0.018 C 
ENDBRANCH   1   8
TORSDOF 1
ENDMDL
