MODEL 1
REMARK minimizedAffinity 4.83908033
REMARK minimizedRMSD -1
REMARK  1 active torsions:
REMARK  status: ('A' for Active; 'I' for Inactive)
REMARK    1  A    between atoms: C1_2  and  C2_3 
ROOT
ATOM      1  C2  UNL d   1       1.467  -3.724   0.718  0.00  0.00    -0.073 A 
ATOM      2  C3  UNL d   1       2.009  -2.478   0.384  0.00  0.00    -0.002 A 
ATOM      3  C4  UNL d   1       3.346  -2.370   0.001  0.00  0.00     0.004 A 
ATOM      4  C5  UNL d   1       4.152  -3.507  -0.060  0.00  0.00    -0.004 A 
ATOM      5  C6  UNL d   1       3.626  -4.763   0.258  0.00  0.00    -0.075 A 
ATOM      6  C7  UNL d   1       4.481  -5.995   0.200  0.00  0.00     0.076 C 
ATOM      7  C8  UNL d   1       2.283  -4.862   0.646  0.00  0.00     0.001 A 
ENDROOT
BRANCH   1   8
ATOM      8  C1  UNL d   1       0.022  -3.846   1.127  0.00  0.00     0.053 C 
ATOM      9  C   UNL d   1      -0.649  -2.488   1.262  0.00  0.00     0.018 C 
ENDBRANCH   1   8
TORSDOF 1
ENDMDL
