MODEL 1
REMARK minimizedAffinity 4.48674965
REMARK minimizedRMSD -1
REMARK  1 active torsions:
REMARK  status: ('A' for Active; 'I' for Inactive)
REMARK    1  A    between atoms: C1_2  and  C2_3 
ROOT
ATOM      1  C2  UNL d   1       4.400  -4.665   0.318  0.00  0.00    -0.073 A 
ATOM      2  C3  UNL d   1       5.112  -3.474   0.135  0.00  0.00    -0.002 A 
ATOM      3  C4  UNL d   1       4.434  -2.262  -0.004  0.00  0.00     0.004 A 
ATOM      4  C5  UNL d   1       3.041  -2.227   0.046  0.00  0.00    -0.004 A 
ATOM      5  C6  UNL d   1       2.312  -3.405   0.241  0.00  0.00    -0.075 A 
ATOM      6  C7  UNL d   1       0.813  -3.385   0.295  0.00  0.00     0.076 C 
ATOM      7  C8  UNL d   1       3.000  -4.618   0.376  0.00  0.00     0.001 A 
ENDROOT
BRANCH   1   8
ATOM      8  C1  UNL d   1       5.128  -5.975   0.474  0.00  0.00     0.053 C 
ATOM      9  C   UNL d   1       6.000  -5.998   1.719  0.00  0.00     0.018 C 
ENDBRANCH   1   8
TORSDOF 1
ENDMDL
