MODEL 1
REMARK minimizedAffinity 1.39277422
REMARK minimizedRMSD -1
REMARK  1 active torsions:
REMARK  status: ('A' for Active; 'I' for Inactive)
REMARK    1  A    between atoms: C1_2  and  C2_3 
ROOT
ATOM      1  C2  UNL d   1       3.747  -4.200  -0.007  0.00  0.00    -0.073 A 
ATOM      2  C3  UNL d   1       4.384  -3.018   0.389  0.00  0.00    -0.002 A 
ATOM      3  C4  UNL d   1       3.634  -1.887   0.714  0.00  0.00     0.004 A 
ATOM      4  C5  UNL d   1       2.241  -1.928   0.653  0.00  0.00    -0.004 A 
ATOM      5  C6  UNL d   1       1.586  -3.103   0.271  0.00  0.00    -0.075 A 
ATOM      6  C7  UNL d   1       0.088  -3.162   0.198  0.00  0.00     0.076 C 
ATOM      7  C8  UNL d   1       2.346  -4.233  -0.057  0.00  0.00     0.001 A 
ENDROOT
BRANCH   1   8
ATOM      8  C1  UNL d   1       4.553  -5.425  -0.352  0.00  0.00     0.053 C 
ATOM      9  C   UNL d   1       5.266  -5.999   0.862  0.00  0.00     0.018 C 
ENDBRANCH   1   8
TORSDOF 1
ENDMDL
