MODEL 1
REMARK minimizedAffinity 14.5204334
REMARK minimizedRMSD -1
REMARK  1 active torsions:
REMARK  status: ('A' for Active; 'I' for Inactive)
REMARK    1  A    between atoms: C1_2  and  C2_3 
ROOT
ATOM      1  C2  UNL d   1      -5.465  -5.090   3.026  0.00  0.00    -0.073 A 
ATOM      2  C3  UNL d   1      -5.999  -5.731   1.902  0.00  0.00    -0.002 A 
ATOM      3  C4  UNL d   1      -5.922  -5.131   0.645  0.00  0.00     0.004 A 
ATOM      4  C5  UNL d   1      -5.305  -3.889   0.496  0.00  0.00    -0.004 A 
ATOM      5  C6  UNL d   1      -4.755  -3.238   1.605  0.00  0.00    -0.075 A 
ATOM      6  C7  UNL d   1      -4.090  -1.900   1.463  0.00  0.00     0.076 C 
ATOM      7  C8  UNL d   1      -4.839  -3.846   2.865  0.00  0.00     0.001 A 
ENDROOT
BRANCH   1   8
ATOM      8  C1  UNL d   1      -5.541  -5.737   4.384  0.00  0.00     0.053 C 
ATOM      9  C   UNL d   1      -4.161  -5.998   4.968  0.00  0.00     0.018 C 
ENDBRANCH   1   8
TORSDOF 1
ENDMDL
