MODEL 1
REMARK minimizedAffinity 6.68039227
REMARK minimizedRMSD -1
REMARK  0 active torsions:
REMARK  status: ('A' for Active; 'I' for Inactive)
ROOT
ATOM      1  O1  BZF d   1       1.718  -3.049   4.029  0.00  0.00    -0.204 OA
ATOM      2  C2  BZF d   1       2.190  -2.896   5.318  0.00  0.00     0.174 A 
ATOM      3  C3  BZF d   1       2.168  -1.599   5.686  0.00  0.00    -0.012 A 
ATOM      4  C3A BZF d   1       1.563  -0.908   4.589  0.00  0.00    -0.107 A 
ATOM      5  C4  BZF d   1       1.250   0.402   4.363  0.00  0.00     0.055 A 
ATOM      6  C5  BZF d   1       0.733   0.759   3.158  0.00  0.00    -0.016 A 
ATOM      7  C6  BZF d   1       0.521  -0.165   2.156  0.00  0.00     0.022 A 
ATOM      8  C7  BZF d   1       0.811  -1.477   2.336  0.00  0.00     0.029 A 
ATOM      9  C7A BZF d   1       1.303  -1.846   3.564  0.00  0.00     0.058 A 
ENDROOT
TORSDOF 0
ENDMDL
