MODEL 1
REMARK minimizedAffinity 7.36070776
REMARK minimizedRMSD -1
REMARK  0 active torsions:
REMARK  status: ('A' for Active; 'I' for Inactive)
ROOT
ATOM      1  O1  BZF d   1      -1.503  -3.591  -2.277  0.00  0.00    -0.204 OA
ATOM      2  C2  BZF d   1      -1.271  -2.260  -2.563  0.00  0.00     0.174 A 
ATOM      3  C3  BZF d   1      -1.205  -2.062  -3.896  0.00  0.00    -0.012 A 
ATOM      4  C3A BZF d   1      -1.501  -3.334  -4.480  0.00  0.00    -0.107 A 
ATOM      5  C4  BZF d   1      -1.603  -3.774  -5.769  0.00  0.00     0.055 A 
ATOM      6  C5  BZF d   1      -1.833  -5.094  -6.000  0.00  0.00    -0.016 A 
ATOM      7  C6  BZF d   1      -1.960  -6.000  -4.968  0.00  0.00     0.022 A 
ATOM      8  C7  BZF d   1      -1.871  -5.610  -3.673  0.00  0.00     0.029 A 
ATOM      9  C7A BZF d   1      -1.672  -4.272  -3.436  0.00  0.00     0.058 A 
ENDROOT
TORSDOF 0
ENDMDL
