MODEL 1
REMARK minimizedAffinity 12.6416626
REMARK minimizedRMSD -1
REMARK  0 active torsions:
REMARK  status: ('A' for Active; 'I' for Inactive)
ROOT
ATOM      1  O1  BZF d   1      -0.376  -1.634  -5.043  0.00  0.00    -0.204 OA
ATOM      2  C2  BZF d   1      -0.352  -1.094  -3.772  0.00  0.00     0.174 A 
ATOM      3  C3  BZF d   1      -0.956  -1.917  -2.891  0.00  0.00    -0.012 A 
ATOM      4  C3A BZF d   1      -1.303  -3.084  -3.642  0.00  0.00    -0.107 A 
ATOM      5  C4  BZF d   1      -1.912  -4.262  -3.319  0.00  0.00     0.055 A 
ATOM      6  C5  BZF d   1      -2.168  -5.165  -4.302  0.00  0.00    -0.016 A 
ATOM      7  C6  BZF d   1      -1.833  -4.920  -5.618  0.00  0.00     0.022 A 
ATOM      8  C7  BZF d   1      -1.223  -3.767  -5.986  0.00  0.00     0.029 A 
ATOM      9  C7A BZF d   1      -0.933  -2.867  -4.990  0.00  0.00     0.058 A 
ENDROOT
TORSDOF 0
ENDMDL
