MODEL 1
REMARK minimizedAffinity 13.2830019
REMARK minimizedRMSD -1
REMARK  0 active torsions:
REMARK  status: ('A' for Active; 'I' for Inactive)
ROOT
ATOM      1  O1  BZF d   1      -2.349  -0.593   1.476  0.00  0.00    -0.204 OA
ATOM      2  C2  BZF d   1      -2.219  -1.724   0.693  0.00  0.00     0.174 A 
ATOM      3  C3  BZF d   1      -3.026  -1.655  -0.386  0.00  0.00    -0.012 A 
ATOM      4  C3A BZF d   1      -3.635  -0.362  -0.317  0.00  0.00    -0.107 A 
ATOM      5  C4  BZF d   1      -4.523   0.301  -1.115  0.00  0.00     0.055 A 
ATOM      6  C5  BZF d   1      -4.974   1.523  -0.728  0.00  0.00    -0.016 A 
ATOM      7  C6  BZF d   1      -4.562   2.110   0.450  0.00  0.00     0.022 A 
ATOM      8  C7  BZF d   1      -3.678   1.493   1.272  0.00  0.00     0.029 A 
ATOM      9  C7A BZF d   1      -3.195   0.272   0.868  0.00  0.00     0.058 A 
ENDROOT
TORSDOF 0
ENDMDL
