MODEL 1
REMARK minimizedAffinity 5.50949621
REMARK minimizedRMSD -1
REMARK  0 active torsions:
REMARK  status: ('A' for Active; 'I' for Inactive)
ROOT
ATOM      1  O1  BZF d   1      -0.603  -2.255  -3.057  0.00  0.00    -0.204 OA
ATOM      2  C2  BZF d   1      -0.282  -1.263  -3.964  0.00  0.00     0.174 A 
ATOM      3  C3  BZF d   1      -0.524  -1.672  -5.226  0.00  0.00    -0.012 A 
ATOM      4  C3A BZF d   1      -1.116  -2.968  -5.095  0.00  0.00    -0.107 A 
ATOM      5  C4  BZF d   1      -1.591  -3.879  -5.994  0.00  0.00     0.055 A 
ATOM      6  C5  BZF d   1      -2.038  -5.081  -5.544  0.00  0.00    -0.016 A 
ATOM      7  C6  BZF d   1      -2.019  -5.406  -4.204  0.00  0.00     0.022 A 
ATOM      8  C7  BZF d   1      -1.562  -4.534  -3.273  0.00  0.00     0.029 A 
ATOM      9  C7A BZF d   1      -1.141  -3.306  -3.722  0.00  0.00     0.058 A 
ENDROOT
TORSDOF 0
ENDMDL
