MODEL 1
REMARK minimizedAffinity 17.5951385
REMARK minimizedRMSD -1
REMARK  0 active torsions:
REMARK  status: ('A' for Active; 'I' for Inactive)
ROOT
ATOM      1  O1  BZF d   1      -0.697  -4.106   4.485  0.00  0.00    -0.204 OA
ATOM      2  C2  BZF d   1      -0.352  -4.754   5.655  0.00  0.00     0.174 A 
ATOM      3  C3  BZF d   1       0.921  -4.474   6.000  0.00  0.00    -0.012 A 
ATOM      4  C3A BZF d   1       1.373  -3.523   5.031  0.00  0.00    -0.107 A 
ATOM      5  C4  BZF d   1       2.549  -2.855   4.849  0.00  0.00     0.055 A 
ATOM      6  C5  BZF d   1       2.692  -2.051   3.763  0.00  0.00    -0.016 A 
ATOM      7  C6  BZF d   1       1.681  -1.898   2.836  0.00  0.00     0.022 A 
ATOM      8  C7  BZF d   1       0.494  -2.536   2.976  0.00  0.00     0.029 A 
ATOM      9  C7A BZF d   1       0.335  -3.323   4.091  0.00  0.00     0.058 A 
ENDROOT
TORSDOF 0
ENDMDL
