MODEL 1
REMARK minimizedAffinity 17.3490715
REMARK minimizedRMSD -1
REMARK  0 active torsions:
REMARK  status: ('A' for Active; 'I' for Inactive)
ROOT
ATOM      1  O1  BZF d   1      -0.119  -4.093  -5.998  0.00  0.00    -0.204 OA
ATOM      2  C2  BZF d   1      -1.500  -4.130  -6.000  0.00  0.00     0.174 A 
ATOM      3  C3  BZF d   1      -2.009  -3.058  -5.358  0.00  0.00    -0.012 A 
ATOM      4  C3A BZF d   1      -0.876  -2.257  -5.009  0.00  0.00    -0.107 A 
ATOM      5  C4  BZF d   1      -0.736  -1.058  -4.370  0.00  0.00     0.055 A 
ATOM      6  C5  BZF d   1       0.514  -0.584  -4.122  0.00  0.00    -0.016 A 
ATOM      7  C6  BZF d   1       1.643  -1.284  -4.494  0.00  0.00     0.022 A 
ATOM      8  C7  BZF d   1       1.554  -2.475  -5.135  0.00  0.00     0.029 A 
ATOM      9  C7A BZF d   1       0.292  -2.941  -5.416  0.00  0.00     0.058 A 
ENDROOT
TORSDOF 0
ENDMDL
