MODEL 1
REMARK minimizedAffinity 22.1058083
REMARK minimizedRMSD -1
REMARK  0 active torsions:
REMARK  status: ('A' for Active; 'I' for Inactive)
ROOT
ATOM      1  O1  BZF d   1      -1.671  -2.833  -2.935  0.00  0.00    -0.204 OA
ATOM      2  C2  BZF d   1      -1.143  -2.928  -1.662  0.00  0.00     0.174 A 
ATOM      3  C3  BZF d   1      -0.093  -2.095  -1.515  0.00  0.00    -0.012 A 
ATOM      4  C3A BZF d   1      -0.013  -1.371  -2.747  0.00  0.00    -0.107 A 
ATOM      5  C4  BZF d   1       0.816  -0.388  -3.205  0.00  0.00     0.055 A 
ATOM      6  C5  BZF d   1       0.673   0.054  -4.482  0.00  0.00    -0.016 A 
ATOM      7  C6  BZF d   1      -0.283  -0.467  -5.329  0.00  0.00     0.022 A 
ATOM      8  C7  BZF d   1      -1.131  -1.441  -4.917  0.00  0.00     0.029 A 
ATOM      9  C7A BZF d   1      -1.011  -1.866  -3.617  0.00  0.00     0.058 A 
ENDROOT
TORSDOF 0
ENDMDL
