MODEL 1
REMARK minimizedAffinity 7.97488785
REMARK minimizedRMSD -1
REMARK  0 active torsions:
REMARK  status: ('A' for Active; 'I' for Inactive)
ROOT
ATOM      1  O1  BZF d   1       1.502   0.036  -4.541  0.00  0.00    -0.204 OA
ATOM      2  C2  BZF d   1       2.701  -0.138  -3.878  0.00  0.00     0.174 A 
ATOM      3  C3  BZF d   1       2.527  -0.866  -2.756  0.00  0.00    -0.012 A 
ATOM      4  C3A BZF d   1       1.147  -1.244  -2.764  0.00  0.00    -0.107 A 
ATOM      5  C4  BZF d   1       0.373  -1.987  -1.920  0.00  0.00     0.055 A 
ATOM      6  C5  BZF d   1      -0.957  -2.106  -2.175  0.00  0.00    -0.016 A 
ATOM      7  C6  BZF d   1      -1.545  -1.490  -3.260  0.00  0.00     0.022 A 
ATOM      8  C7  BZF d   1      -0.817  -0.747  -4.128  0.00  0.00     0.029 A 
ATOM      9  C7A BZF d   1       0.532  -0.653  -3.892  0.00  0.00     0.058 A 
ENDROOT
TORSDOF 0
ENDMDL
