MODEL 1
REMARK minimizedAffinity 12.7334995
REMARK minimizedRMSD -1
REMARK  0 active torsions:
REMARK  status: ('A' for Active; 'I' for Inactive)
ROOT
ATOM      1  O1  BZF d   1      -1.092  -2.148  -2.756  0.00  0.00    -0.204 OA
ATOM      2  C2  BZF d   1      -0.212  -1.195  -3.232  0.00  0.00     0.174 A 
ATOM      3  C3  BZF d   1       0.176  -1.487  -4.490  0.00  0.00    -0.012 A 
ATOM      4  C3A BZF d   1      -0.576  -2.649  -4.855  0.00  0.00    -0.107 A 
ATOM      5  C4  BZF d   1      -0.642  -3.406  -5.990  0.00  0.00     0.055 A 
ATOM      6  C5  BZF d   1      -1.422  -4.519  -5.997  0.00  0.00    -0.016 A 
ATOM      7  C6  BZF d   1      -2.144  -4.906  -4.887  0.00  0.00     0.022 A 
ATOM      8  C7  BZF d   1      -2.114  -4.185  -3.740  0.00  0.00     0.029 A 
ATOM      9  C7A BZF d   1      -1.352  -3.042  -3.741  0.00  0.00     0.058 A 
ENDROOT
TORSDOF 0
ENDMDL
