MODEL 1
REMARK minimizedAffinity 20.3732986
REMARK minimizedRMSD -1
REMARK  0 active torsions:
REMARK  status: ('A' for Active; 'I' for Inactive)
ROOT
ATOM      1  O1  BZF d   1      -1.777   1.266   2.190  0.00  0.00    -0.204 OA
ATOM      2  C2  BZF d   1      -2.735   0.529   1.520  0.00  0.00     0.174 A 
ATOM      3  C3  BZF d   1      -2.263  -0.695   1.205  0.00  0.00    -0.012 A 
ATOM      4  C3A BZF d   1      -0.958  -0.757   1.790  0.00  0.00    -0.107 A 
ATOM      5  C4  BZF d   1       0.005  -1.724   1.835  0.00  0.00     0.055 A 
ATOM      6  C5  BZF d   1       1.197  -1.442   2.424  0.00  0.00    -0.016 A 
ATOM      7  C6  BZF d   1       1.461  -0.204   2.972  0.00  0.00     0.022 A 
ATOM      8  C7  BZF d   1       0.535   0.786   2.955  0.00  0.00     0.029 A 
ATOM      9  C7A BZF d   1      -0.682   0.493   2.390  0.00  0.00     0.058 A 
ENDROOT
TORSDOF 0
ENDMDL
