MODEL 1
REMARK minimizedAffinity 12.8395452
REMARK minimizedRMSD -1
REMARK  0 active torsions:
REMARK  status: ('A' for Active; 'I' for Inactive)
ROOT
ATOM      1  O1  BZF d   1      -2.193   0.182   1.611  0.00  0.00    -0.204 OA
ATOM      2  C2  BZF d   1      -2.414   1.514   1.905  0.00  0.00     0.174 A 
ATOM      3  C3  BZF d   1      -1.345   2.049   2.530  0.00  0.00    -0.012 A 
ATOM      4  C3A BZF d   1      -0.361   1.011   2.550  0.00  0.00    -0.107 A 
ATOM      5  C4  BZF d   1       0.918   0.938   3.022  0.00  0.00     0.055 A 
ATOM      6  C5  BZF d   1       1.582  -0.246   2.951  0.00  0.00    -0.016 A 
ATOM      7  C6  BZF d   1       0.996  -1.376   2.420  0.00  0.00     0.022 A 
ATOM      8  C7  BZF d   1      -0.269  -1.352   1.934  0.00  0.00     0.029 A 
ATOM      9  C7A BZF d   1      -0.931  -0.149   1.974  0.00  0.00     0.058 A 
ENDROOT
TORSDOF 0
ENDMDL
