MODEL 1
REMARK minimizedAffinity 22.5698261
REMARK minimizedRMSD -1
REMARK  0 active torsions:
REMARK  status: ('A' for Active; 'I' for Inactive)
ROOT
ATOM      1  O1  BZF d   1       0.050  -2.062  -0.861  0.00  0.00    -0.204 OA
ATOM      2  C2  BZF d   1      -1.125  -2.702  -0.522  0.00  0.00     0.174 A 
ATOM      3  C3  BZF d   1      -1.980  -2.718  -1.565  0.00  0.00    -0.012 A 
ATOM      4  C3A BZF d   1      -1.260  -2.127  -2.650  0.00  0.00    -0.107 A 
ATOM      5  C4  BZF d   1      -1.570  -1.876  -3.957  0.00  0.00     0.055 A 
ATOM      6  C5  BZF d   1      -0.670  -1.219  -4.734  0.00  0.00    -0.016 A 
ATOM      7  C6  BZF d   1       0.546  -0.795  -4.238  0.00  0.00     0.022 A 
ATOM      8  C7  BZF d   1       0.900  -1.025  -2.951  0.00  0.00     0.029 A 
ATOM      9  C7A BZF d   1       0.006  -1.718  -2.171  0.00  0.00     0.058 A 
ENDROOT
TORSDOF 0
ENDMDL
