MODEL 1
REMARK minimizedAffinity -2.41378689
REMARK minimizedRMSD -1
REMARK  0 active torsions:
REMARK  status: ('A' for Active; 'I' for Inactive)
ROOT
ATOM      1  C   UNL d   1      -4.800   5.979  -2.342  0.00  0.00     0.078 C 
ATOM      2  C1  UNL d   1      -3.958   5.976  -3.583  0.00  0.00    -0.077 A 
ATOM      3  C2  UNL d   1      -4.546   5.938  -4.853  0.00  0.00    -0.001 A 
ATOM      4  C3  UNL d   1      -3.750   5.927  -5.999  0.00  0.00     0.003 A 
ATOM      5  C4  UNL d   1      -2.362   5.953  -5.887  0.00  0.00    -0.005 A 
ATOM      6  C5  UNL d   1      -1.767   5.988  -4.628  0.00  0.00     0.003 A 
ATOM      7  C6  UNL d   1      -2.562   6.000  -3.480  0.00  0.00    -0.001 A 
ENDROOT
TORSDOF 0
ENDMDL
