MODEL 1
REMARK minimizedAffinity 3.17933917
REMARK minimizedRMSD -1
REMARK  0 active torsions:
REMARK  status: ('A' for Active; 'I' for Inactive)
ROOT
ATOM      1  C   UNL d   1      -3.530   0.895   5.788  0.00  0.00     0.078 C 
ATOM      2  C1  UNL d   1      -4.121  -0.072   4.807  0.00  0.00    -0.077 A 
ATOM      3  C2  UNL d   1      -5.015  -1.067   5.224  0.00  0.00    -0.001 A 
ATOM      4  C3  UNL d   1      -5.550  -1.967   4.301  0.00  0.00     0.003 A 
ATOM      5  C4  UNL d   1      -5.197  -1.882   2.956  0.00  0.00    -0.005 A 
ATOM      6  C5  UNL d   1      -4.307  -0.898   2.532  0.00  0.00     0.003 A 
ATOM      7  C6  UNL d   1      -3.771   0.003   3.453  0.00  0.00    -0.001 A 
ENDROOT
TORSDOF 0
ENDMDL
