MODEL 1
REMARK minimizedAffinity 1.78961039
REMARK minimizedRMSD -1
REMARK  0 active torsions:
REMARK  status: ('A' for Active; 'I' for Inactive)
ROOT
ATOM      1  C   UNL d   1      -2.451   1.079   5.088  0.00  0.00     0.078 C 
ATOM      2  C1  UNL d   1      -3.145   0.140   4.147  0.00  0.00    -0.077 A 
ATOM      3  C2  UNL d   1      -4.154  -0.719   4.598  0.00  0.00    -0.001 A 
ATOM      4  C3  UNL d   1      -4.785  -1.595   3.713  0.00  0.00     0.003 A 
ATOM      5  C4  UNL d   1      -4.411  -1.621   2.371  0.00  0.00    -0.005 A 
ATOM      6  C5  UNL d   1      -3.406  -0.772   1.913  0.00  0.00     0.003 A 
ATOM      7  C6  UNL d   1      -2.775   0.104   2.796  0.00  0.00    -0.001 A 
ENDROOT
TORSDOF 0
ENDMDL
