MODEL 1
REMARK minimizedAffinity 12.3912287
REMARK minimizedRMSD -1
REMARK  0 active torsions:
REMARK  status: ('A' for Active; 'I' for Inactive)
ROOT
ATOM      1  C   UNL d   1      -5.382   2.936  -1.141  0.00  0.00     0.078 C 
ATOM      2  C1  UNL d   1      -5.603   1.521  -1.584  0.00  0.00    -0.077 A 
ATOM      3  C2  UNL d   1      -5.608   0.469  -0.660  0.00  0.00    -0.001 A 
ATOM      4  C3  UNL d   1      -5.806  -0.845  -1.088  0.00  0.00     0.003 A 
ATOM      5  C4  UNL d   1      -6.000  -1.119  -2.440  0.00  0.00    -0.005 A 
ATOM      6  C5  UNL d   1      -5.995  -0.079  -3.367  0.00  0.00     0.003 A 
ATOM      7  C6  UNL d   1      -5.797   1.235  -2.941  0.00  0.00    -0.001 A 
ENDROOT
TORSDOF 0
ENDMDL
