MODEL 1
REMARK minimizedAffinity 11.6906366
REMARK minimizedRMSD -1
REMARK  0 active torsions:
REMARK  status: ('A' for Active; 'I' for Inactive)
ROOT
ATOM      1  C   UNL d   1       4.324  -1.791  -1.082  0.00  0.00     0.078 C 
ATOM      2  C1  UNL d   1       4.518  -3.260  -0.848  0.00  0.00    -0.077 A 
ATOM      3  C2  UNL d   1       3.424  -4.133  -0.800  0.00  0.00    -0.001 A 
ATOM      4  C3  UNL d   1       3.619  -5.496  -0.572  0.00  0.00     0.003 A 
ATOM      5  C4  UNL d   1       4.906  -5.999  -0.390  0.00  0.00    -0.005 A 
ATOM      6  C5  UNL d   1       6.000  -5.137  -0.434  0.00  0.00     0.003 A 
ATOM      7  C6  UNL d   1       5.808  -3.774  -0.662  0.00  0.00    -0.001 A 
ENDROOT
TORSDOF 0
ENDMDL
