MODEL 1
REMARK minimizedAffinity 11.5535221
REMARK minimizedRMSD -1
REMARK  0 active torsions:
REMARK  status: ('A' for Active; 'I' for Inactive)
ROOT
ATOM      1  C   UNL d   1       4.354   3.496  -4.647  0.00  0.00     0.078 C 
ATOM      2  C1  UNL d   1       3.235   3.130  -3.719  0.00  0.00    -0.077 A 
ATOM      3  C2  UNL d   1       3.445   2.257  -2.644  0.00  0.00    -0.001 A 
ATOM      4  C3  UNL d   1       2.392   1.917  -1.794  0.00  0.00     0.003 A 
ATOM      5  C4  UNL d   1       1.120   2.444  -2.010  0.00  0.00    -0.005 A 
ATOM      6  C5  UNL d   1       0.900   3.311  -3.079  0.00  0.00     0.003 A 
ATOM      7  C6  UNL d   1       1.952   3.652  -3.930  0.00  0.00    -0.001 A 
ENDROOT
TORSDOF 0
ENDMDL
