MODEL 1
REMARK minimizedAffinity 3.38523555
REMARK minimizedRMSD -1
REMARK  0 active torsions:
REMARK  status: ('A' for Active; 'I' for Inactive)
ROOT
ATOM      1  C   UNL d   1       1.691  -2.332   3.155  0.00  0.00     0.078 C 
ATOM      2  C1  UNL d   1       0.447  -1.502   3.042  0.00  0.00    -0.077 A 
ATOM      3  C2  UNL d   1       0.074  -0.618   4.062  0.00  0.00    -0.001 A 
ATOM      4  C3  UNL d   1      -1.091   0.141   3.947  0.00  0.00     0.003 A 
ATOM      5  C4  UNL d   1      -1.894   0.023   2.814  0.00  0.00    -0.005 A 
ATOM      6  C5  UNL d   1      -1.532  -0.855   1.795  0.00  0.00     0.003 A 
ATOM      7  C6  UNL d   1      -0.367  -1.615   1.908  0.00  0.00    -0.001 A 
ENDROOT
TORSDOF 0
ENDMDL
