MODEL 1
REMARK minimizedAffinity 11.4417915
REMARK minimizedRMSD -1
REMARK  0 active torsions:
REMARK  status: ('A' for Active; 'I' for Inactive)
ROOT
ATOM      1  C   UNL d   1       3.119   1.079  -0.526  0.00  0.00     0.078 C 
ATOM      2  C1  UNL d   1       4.122   1.884   0.245  0.00  0.00    -0.077 A 
ATOM      3  C2  UNL d   1       5.062   2.686  -0.413  0.00  0.00    -0.001 A 
ATOM      4  C3  UNL d   1       5.996   3.423   0.317  0.00  0.00     0.003 A 
ATOM      5  C4  UNL d   1       6.000   3.363   1.709  0.00  0.00    -0.005 A 
ATOM      6  C5  UNL d   1       5.069   2.566   2.373  0.00  0.00     0.003 A 
ATOM      7  C6  UNL d   1       4.134   1.829   1.644  0.00  0.00    -0.001 A 
ENDROOT
TORSDOF 0
ENDMDL
