MODEL 1
REMARK minimizedAffinity 8.39652443
REMARK minimizedRMSD -1
REMARK  0 active torsions:
REMARK  status: ('A' for Active; 'I' for Inactive)
ROOT
ATOM      1  C   UNL d   1      -1.934   0.901   4.047  0.00  0.00     0.078 C 
ATOM      2  C1  UNL d   1      -1.615  -0.062   2.943  0.00  0.00    -0.077 A 
ATOM      3  C2  UNL d   1      -2.622  -0.558   2.106  0.00  0.00    -0.001 A 
ATOM      4  C3  UNL d   1      -2.312  -1.461   1.087  0.00  0.00     0.003 A 
ATOM      5  C4  UNL d   1      -0.996  -1.876   0.897  0.00  0.00    -0.005 A 
ATOM      6  C5  UNL d   1       0.012  -1.390   1.726  0.00  0.00     0.003 A 
ATOM      7  C6  UNL d   1      -0.295  -0.487   2.745  0.00  0.00    -0.001 A 
ENDROOT
TORSDOF 0
ENDMDL
