MODEL 1
REMARK minimizedAffinity 10.6075525
REMARK minimizedRMSD -1
REMARK  0 active torsions:
REMARK  status: ('A' for Active; 'I' for Inactive)
ROOT
ATOM      1  C   UNL d   1      -0.468  -1.851   2.774  0.00  0.00     0.078 C 
ATOM      2  C1  UNL d   1      -1.342  -0.701   3.177  0.00  0.00    -0.077 A 
ATOM      3  C2  UNL d   1      -1.368  -0.244   4.500  0.00  0.00    -0.001 A 
ATOM      4  C3  UNL d   1      -2.193   0.821   4.862  0.00  0.00     0.003 A 
ATOM      5  C4  UNL d   1      -3.000   1.438   3.908  0.00  0.00    -0.005 A 
ATOM      6  C5  UNL d   1      -2.982   0.989   2.589  0.00  0.00     0.003 A 
ATOM      7  C6  UNL d   1      -2.157  -0.077   2.225  0.00  0.00    -0.001 A 
ENDROOT
TORSDOF 0
ENDMDL
