MODEL 1
REMARK minimizedAffinity 1.92017269
REMARK minimizedRMSD -1
REMARK  0 active torsions:
REMARK  status: ('A' for Active; 'I' for Inactive)
ROOT
ATOM      1  C   UNL d   1      -2.205  -0.875   1.181  0.00  0.00     0.078 C 
ATOM      2  C1  UNL d   1      -1.167  -1.621   1.964  0.00  0.00    -0.077 A 
ATOM      3  C2  UNL d   1      -0.763  -1.180   3.230  0.00  0.00    -0.001 A 
ATOM      4  C3  UNL d   1       0.212  -1.879   3.944  0.00  0.00     0.003 A 
ATOM      5  C4  UNL d   1       0.791  -3.023   3.399  0.00  0.00    -0.005 A 
ATOM      6  C5  UNL d   1       0.397  -3.469   2.139  0.00  0.00     0.003 A 
ATOM      7  C6  UNL d   1      -0.577  -2.771   1.424  0.00  0.00    -0.001 A 
ENDROOT
TORSDOF 0
ENDMDL
