MODEL 1
REMARK minimizedAffinity 9.76848125
REMARK minimizedRMSD -1
REMARK  0 active torsions:
REMARK  status: ('A' for Active; 'I' for Inactive)
ROOT
ATOM      1  C   UNL d   1       0.769  -0.766   1.508  0.00  0.00     0.078 C 
ATOM      2  C1  UNL d   1      -0.710  -0.534   1.584  0.00  0.00    -0.077 A 
ATOM      3  C2  UNL d   1      -1.227   0.662   2.097  0.00  0.00    -0.001 A 
ATOM      4  C3  UNL d   1      -2.607   0.860   2.171  0.00  0.00     0.003 A 
ATOM      5  C4  UNL d   1      -3.481  -0.133   1.735  0.00  0.00    -0.005 A 
ATOM      6  C5  UNL d   1      -2.976  -1.327   1.224  0.00  0.00     0.003 A 
ATOM      7  C6  UNL d   1      -1.597  -1.527   1.149  0.00  0.00    -0.001 A 
ENDROOT
TORSDOF 0
ENDMDL
