MODEL 1
REMARK minimizedAffinity 11.4140167
REMARK minimizedRMSD -1
REMARK  0 active torsions:
REMARK  status: ('A' for Active; 'I' for Inactive)
ROOT
ATOM      1  C   UNL d   1      -4.122  -5.950  -5.944  0.00  0.00     0.078 C 
ATOM      2  C1  UNL d   1      -2.847  -5.551  -5.263  0.00  0.00    -0.077 A 
ATOM      3  C2  UNL d   1      -1.606  -5.999  -5.734  0.00  0.00    -0.001 A 
ATOM      4  C3  UNL d   1      -0.428  -5.627  -5.084  0.00  0.00     0.003 A 
ATOM      5  C4  UNL d   1      -0.479  -4.808  -3.958  0.00  0.00    -0.005 A 
ATOM      6  C5  UNL d   1      -1.709  -4.360  -3.480  0.00  0.00     0.003 A 
ATOM      7  C6  UNL d   1      -2.888  -4.730  -4.129  0.00  0.00    -0.001 A 
ENDROOT
TORSDOF 0
ENDMDL
