MODEL 1
REMARK minimizedAffinity 9.55316067
REMARK minimizedRMSD -1
REMARK  0 active torsions:
REMARK  status: ('A' for Active; 'I' for Inactive)
ROOT
ATOM      1  C   UNL d   1      -5.957   0.407   1.327  0.00  0.00     0.078 C 
ATOM      2  C1  UNL d   1      -5.970   0.452  -0.172  0.00  0.00    -0.077 A 
ATOM      3  C2  UNL d   1      -5.998  -0.725  -0.929  0.00  0.00    -0.001 A 
ATOM      4  C3  UNL d   1      -6.000  -0.668  -2.324  0.00  0.00     0.003 A 
ATOM      5  C4  UNL d   1      -5.972   0.564  -2.973  0.00  0.00    -0.005 A 
ATOM      6  C5  UNL d   1      -5.942   1.742  -2.229  0.00  0.00     0.003 A 
ATOM      7  C6  UNL d   1      -5.940   1.686  -0.834  0.00  0.00    -0.001 A 
ENDROOT
TORSDOF 0
ENDMDL
