MODEL 1
REMARK minimizedAffinity 7.39974594
REMARK minimizedRMSD -1
REMARK  0 active torsions:
REMARK  status: ('A' for Active; 'I' for Inactive)
ROOT
ATOM      1  C   UNL d   1       5.999   4.493  -4.504  0.00  0.00     0.078 C 
ATOM      2  C1  UNL d   1       4.653   4.150  -3.940  0.00  0.00    -0.077 A 
ATOM      3  C2  UNL d   1       3.807   3.245  -4.593  0.00  0.00    -0.001 A 
ATOM      4  C3  UNL d   1       2.552   2.942  -4.061  0.00  0.00     0.003 A 
ATOM      5  C4  UNL d   1       2.132   3.540  -2.875  0.00  0.00    -0.005 A 
ATOM      6  C5  UNL d   1       2.966   4.443  -2.219  0.00  0.00     0.003 A 
ATOM      7  C6  UNL d   1       4.221   4.747  -2.749  0.00  0.00    -0.001 A 
ENDROOT
TORSDOF 0
ENDMDL
