MODEL 1
REMARK minimizedAffinity 0.239589036
REMARK minimizedRMSD -1
REMARK  0 active torsions:
REMARK  status: ('A' for Active; 'I' for Inactive)
ROOT
ATOM      1  N1  IND d   1      -5.995   3.778   3.957  0.00  0.00    -0.196 N 
ATOM      2  C2  IND d   1      -5.861   4.944   4.657  0.00  0.00     0.054 A 
ATOM      3  C3  IND d   1      -5.647   5.978   3.812  0.00  0.00    -0.031 A 
ATOM      4  C4  IND d   1      -5.583   5.999   1.238  0.00  0.00     0.051 A 
ATOM      5  C5  IND d   1      -5.619   5.170   0.153  0.00  0.00    -0.031 A 
ATOM      6  C6  IND d   1      -5.788   3.806   0.282  0.00  0.00     0.015 A 
ATOM      7  C7  IND d   1      -5.940   3.221   1.507  0.00  0.00    -0.016 A 
ATOM      8  C8  IND d   1      -5.897   4.059   2.612  0.00  0.00    -0.047 A 
ATOM      9  C9  IND d   1      -5.683   5.438   2.489  0.00  0.00    -0.096 A 
ATOM     10  HN1 IND d   1      -6.120   2.999   4.300  0.00  0.00     0.298 HD
ENDROOT
TORSDOF 0
ENDMDL
