MODEL 1
REMARK minimizedAffinity -0.9373703
REMARK minimizedRMSD -1
REMARK  0 active torsions:
REMARK  status: ('A' for Active; 'I' for Inactive)
ROOT
ATOM      1  N1  IND d   1      -4.956   4.390   0.280  0.00  0.00    -0.196 N 
ATOM      2  C2  IND d   1      -4.711   3.046   0.250  0.00  0.00     0.054 A 
ATOM      3  C3  IND d   1      -4.891   2.507   1.477  0.00  0.00    -0.031 A 
ATOM      4  C4  IND d   1      -5.687   3.626   3.654  0.00  0.00     0.051 A 
ATOM      5  C5  IND d   1      -6.000   4.845   4.186  0.00  0.00    -0.031 A 
ATOM      6  C6  IND d   1      -5.983   5.998   3.428  0.00  0.00     0.015 A 
ATOM      7  C7  IND d   1      -5.663   5.973   2.100  0.00  0.00    -0.016 A 
ATOM      8  C8  IND d   1      -5.337   4.737   1.558  0.00  0.00    -0.047 A 
ATOM      9  C9  IND d   1      -5.311   3.571   2.333  0.00  0.00    -0.096 A 
ATOM     10  HN1 IND d   1      -4.884   4.928  -0.386  0.00  0.00     0.298 HD
ENDROOT
TORSDOF 0
ENDMDL
