MODEL 1
REMARK minimizedAffinity 1.17933428
REMARK minimizedRMSD -1
REMARK  0 active torsions:
REMARK  status: ('A' for Active; 'I' for Inactive)
ROOT
ATOM      1  N1  IND d   1      -5.998   4.956   1.147  0.00  0.00    -0.196 N 
ATOM      2  C2  IND d   1      -5.577   3.778   0.596  0.00  0.00     0.054 A 
ATOM      3  C3  IND d   1      -5.052   2.975   1.548  0.00  0.00    -0.031 A 
ATOM      4  C4  IND d   1      -4.875   3.350   4.089  0.00  0.00     0.051 A 
ATOM      5  C5  IND d   1      -5.092   4.290   5.057  0.00  0.00    -0.031 A 
ATOM      6  C6  IND d   1      -5.636   5.524   4.765  0.00  0.00     0.015 A 
ATOM      7  C7  IND d   1      -5.995   5.861   3.491  0.00  0.00    -0.016 A 
ATOM      8  C8  IND d   1      -5.769   4.912   2.504  0.00  0.00    -0.047 A 
ATOM      9  C9  IND d   1      -5.179   3.674   2.788  0.00  0.00    -0.096 A 
ATOM     10  HN1 IND d   1      -6.348   5.614   0.717  0.00  0.00     0.298 HD
ENDROOT
TORSDOF 0
ENDMDL
