MODEL 1
REMARK minimizedAffinity 1.33978629
REMARK minimizedRMSD -1
REMARK  0 active torsions:
REMARK  status: ('A' for Active; 'I' for Inactive)
ROOT
ATOM      1  N1  IND d   1      -0.159  -0.302  -1.573  0.00  0.00    -0.196 N 
ATOM      2  C2  IND d   1      -1.135  -0.855  -2.356  0.00  0.00     0.054 A 
ATOM      3  C3  IND d   1      -2.185  -1.238  -1.596  0.00  0.00    -0.031 A 
ATOM      4  C4  IND d   1      -2.561  -0.963   0.936  0.00  0.00     0.051 A 
ATOM      5  C5  IND d   1      -1.936  -0.549   2.078  0.00  0.00    -0.031 A 
ATOM      6  C6  IND d   1      -0.662  -0.018   2.062  0.00  0.00     0.015 A 
ATOM      7  C7  IND d   1       0.033   0.129   0.895  0.00  0.00    -0.016 A 
ATOM      8  C8  IND d   1      -0.596  -0.297  -0.267  0.00  0.00    -0.047 A 
ATOM      9  C9  IND d   1      -1.871  -0.875  -0.251  0.00  0.00    -0.096 A 
ATOM     10  HN1 IND d   1       0.600  -0.008  -1.851  0.00  0.00     0.298 HD
ENDROOT
TORSDOF 0
ENDMDL
