MODEL 1
REMARK minimizedAffinity -3.19765711
REMARK minimizedRMSD -1
REMARK  0 active torsions:
REMARK  status: ('A' for Active; 'I' for Inactive)
ROOT
ATOM      1  N1  IND d   1      -4.875   3.869   1.947  0.00  0.00    -0.196 N 
ATOM      2  C2  IND d   1      -5.265   5.010   1.302  0.00  0.00     0.054 A 
ATOM      3  C3  IND d   1      -5.493   6.000   2.194  0.00  0.00    -0.031 A 
ATOM      4  C4  IND d   1      -5.193   6.000   4.751  0.00  0.00     0.051 A 
ATOM      5  C5  IND d   1      -4.891   5.177   5.800  0.00  0.00    -0.031 A 
ATOM      6  C6  IND d   1      -4.559   3.851   5.614  0.00  0.00     0.015 A 
ATOM      7  C7  IND d   1      -4.505   3.298   4.366  0.00  0.00    -0.016 A 
ATOM      8  C8  IND d   1      -4.818   4.128   3.299  0.00  0.00    -0.047 A 
ATOM      9  C9  IND d   1      -5.197   5.464   3.485  0.00  0.00    -0.096 A 
ATOM     10  HN1 IND d   1      -4.696   3.117   1.572  0.00  0.00     0.298 HD
ENDROOT
TORSDOF 0
ENDMDL
