MODEL 1
REMARK minimizedAffinity -2.19855165
REMARK minimizedRMSD -1
REMARK  0 active torsions:
REMARK  status: ('A' for Active; 'I' for Inactive)
ROOT
ATOM      1  N1  IND d   1      -5.853   3.708   2.184  0.00  0.00    -0.196 N 
ATOM      2  C2  IND d   1      -5.821   4.873   1.469  0.00  0.00     0.054 A 
ATOM      3  C3  IND d   1      -5.863   5.937   2.302  0.00  0.00    -0.031 A 
ATOM      4  C4  IND d   1      -5.886   5.999   4.876  0.00  0.00     0.051 A 
ATOM      5  C5  IND d   1      -5.959   5.187   5.972  0.00  0.00    -0.031 A 
ATOM      6  C6  IND d   1      -5.999   3.813   5.860  0.00  0.00     0.015 A 
ATOM      7  C7  IND d   1      -5.956   3.196   4.642  0.00  0.00    -0.016 A 
ATOM      8  C8  IND d   1      -5.888   4.017   3.526  0.00  0.00    -0.047 A 
ATOM      9  C9  IND d   1      -5.890   5.414   3.632  0.00  0.00    -0.096 A 
ATOM     10  HN1 IND d   1      -5.852   2.915   1.851  0.00  0.00     0.298 HD
ENDROOT
TORSDOF 0
ENDMDL
