MODEL 1
REMARK minimizedAffinity -3.08348513
REMARK minimizedRMSD -1
REMARK  0 active torsions:
REMARK  status: ('A' for Active; 'I' for Inactive)
ROOT
ATOM      1  N1  IND d   1      -6.000   4.877   5.487  0.00  0.00    -0.196 N 
ATOM      2  C2  IND d   1      -5.440   3.732   5.980  0.00  0.00     0.054 A 
ATOM      3  C3  IND d   1      -4.767   3.080   5.005  0.00  0.00    -0.031 A 
ATOM      4  C4  IND d   1      -4.368   3.764   2.555  0.00  0.00     0.051 A 
ATOM      5  C5  IND d   1      -4.712   4.711   1.632  0.00  0.00    -0.031 A 
ATOM      6  C6  IND d   1      -5.516   5.785   1.953  0.00  0.00     0.015 A 
ATOM      7  C7  IND d   1      -6.000   5.959   3.219  0.00  0.00    -0.016 A 
ATOM      8  C8  IND d   1      -5.659   4.996   4.158  0.00  0.00    -0.047 A 
ATOM      9  C9  IND d   1      -4.878   3.881   3.827  0.00  0.00    -0.096 A 
ATOM     10  HN1 IND d   1      -6.484   5.431   5.933  0.00  0.00     0.298 HD
ENDROOT
TORSDOF 0
ENDMDL
