MODEL 1
REMARK minimizedAffinity -0.778043091
REMARK minimizedRMSD -1
REMARK  0 active torsions:
REMARK  status: ('A' for Active; 'I' for Inactive)
ROOT
ATOM      1  N1  IND d   1      -5.903   2.545   4.730  0.00  0.00    -0.196 N 
ATOM      2  C2  IND d   1      -5.998   3.049   5.997  0.00  0.00     0.054 A 
ATOM      3  C3  IND d   1      -5.987   4.401   5.967  0.00  0.00    -0.031 A 
ATOM      4  C4  IND d   1      -5.923   5.991   3.943  0.00  0.00     0.051 A 
ATOM      5  C5  IND d   1      -5.795   5.999   2.583  0.00  0.00    -0.031 A 
ATOM      6  C6  IND d   1      -5.697   4.832   1.853  0.00  0.00     0.015 A 
ATOM      7  C7  IND d   1      -5.735   3.608   2.459  0.00  0.00    -0.016 A 
ATOM      8  C8  IND d   1      -5.858   3.596   3.841  0.00  0.00    -0.047 A 
ATOM      9  C9  IND d   1      -5.915   4.778   4.591  0.00  0.00    -0.096 A 
ATOM     10  HN1 IND d   1      -5.875   1.711   4.523  0.00  0.00     0.298 HD
ENDROOT
TORSDOF 0
ENDMDL
