MODEL 1
REMARK minimizedAffinity -2.74401522
REMARK minimizedRMSD -1
REMARK  0 active torsions:
REMARK  status: ('A' for Active; 'I' for Inactive)
ROOT
ATOM      1  N1  IND d   1      -6.000   2.766   4.729  0.00  0.00    -0.196 N 
ATOM      2  C2  IND d   1      -5.607   3.232   5.952  0.00  0.00     0.054 A 
ATOM      3  C3  IND d   1      -5.111   4.485   5.841  0.00  0.00    -0.031 A 
ATOM      4  C4  IND d   1      -4.943   6.000   3.766  0.00  0.00     0.051 A 
ATOM      5  C5  IND d   1      -5.141   6.000   2.414  0.00  0.00    -0.031 A 
ATOM      6  C6  IND d   1      -5.648   4.901   1.751  0.00  0.00     0.015 A 
ATOM      7  C7  IND d   1      -5.988   3.760   2.421  0.00  0.00    -0.016 A 
ATOM      8  C8  IND d   1      -5.782   3.753   3.793  0.00  0.00    -0.047 A 
ATOM      9  C9  IND d   1      -5.228   4.850   4.465  0.00  0.00    -0.096 A 
ATOM     10  HN1 IND d   1      -6.327   1.987   4.570  0.00  0.00     0.298 HD
ENDROOT
TORSDOF 0
ENDMDL
