MODEL 1
REMARK minimizedAffinity 1.71356082
REMARK minimizedRMSD -1
REMARK  0 active torsions:
REMARK  status: ('A' for Active; 'I' for Inactive)
ROOT
ATOM      1  N1  IND d   1      -6.000   3.940   1.459  0.00  0.00    -0.196 N 
ATOM      2  C2  IND d   1      -5.995   5.256   1.087  0.00  0.00     0.054 A 
ATOM      3  C3  IND d   1      -5.329   6.000   1.998  0.00  0.00    -0.031 A 
ATOM      4  C4  IND d   1      -4.080   5.253   4.122  0.00  0.00     0.051 A 
ATOM      5  C5  IND d   1      -3.835   4.154   4.897  0.00  0.00    -0.031 A 
ATOM      6  C6  IND d   1      -4.306   2.902   4.557  0.00  0.00     0.015 A 
ATOM      7  C7  IND d   1      -5.034   2.700   3.419  0.00  0.00    -0.016 A 
ATOM      8  C8  IND d   1      -5.291   3.814   2.633  0.00  0.00    -0.047 A 
ATOM      9  C9  IND d   1      -4.851   5.094   2.994  0.00  0.00    -0.096 A 
ATOM     10  HN1 IND d   1      -6.382   3.300   1.031  0.00  0.00     0.298 HD
ENDROOT
TORSDOF 0
ENDMDL
