MODEL 1
REMARK minimizedAffinity -2.63661838
REMARK minimizedRMSD -1
REMARK  0 active torsions:
REMARK  status: ('A' for Active; 'I' for Inactive)
ROOT
ATOM      1  N1  IND d   1      -5.990   3.647   2.217  0.00  0.00    -0.196 N 
ATOM      2  C2  IND d   1      -5.987   4.796   1.477  0.00  0.00     0.054 A 
ATOM      3  C3  IND d   1      -6.000   5.878   2.288  0.00  0.00    -0.031 A 
ATOM      4  C4  IND d   1      -5.925   5.995   4.859  0.00  0.00     0.051 A 
ATOM      5  C5  IND d   1      -5.955   5.206   5.974  0.00  0.00    -0.031 A 
ATOM      6  C6  IND d   1      -5.997   3.829   5.893  0.00  0.00     0.015 A 
ATOM      7  C7  IND d   1      -5.999   3.186   4.687  0.00  0.00    -0.016 A 
ATOM      8  C8  IND d   1      -5.975   3.985   3.552  0.00  0.00    -0.047 A 
ATOM      9  C9  IND d   1      -5.975   5.383   3.628  0.00  0.00    -0.096 A 
ATOM     10  HN1 IND d   1      -6.000   2.847   1.901  0.00  0.00     0.298 HD
ENDROOT
TORSDOF 0
ENDMDL
