MODEL 1
REMARK minimizedAffinity -3.4739182
REMARK minimizedRMSD -1
REMARK  0 active torsions:
REMARK  status: ('A' for Active; 'I' for Inactive)
ROOT
ATOM      1  N1  IND d   1      -5.618   1.991   3.297  0.00  0.00    -0.196 N 
ATOM      2  C2  IND d   1      -5.999   1.875   4.605  0.00  0.00     0.054 A 
ATOM      3  C3  IND d   1      -5.958   3.080   5.216  0.00  0.00    -0.031 A 
ATOM      4  C4  IND d   1      -5.395   5.392   4.236  0.00  0.00     0.051 A 
ATOM      5  C5  IND d   1      -4.951   6.000   3.094  0.00  0.00    -0.031 A 
ATOM      6  C6  IND d   1      -4.705   5.288   1.938  0.00  0.00     0.015 A 
ATOM      7  C7  IND d   1      -4.905   3.938   1.877  0.00  0.00    -0.016 A 
ATOM      8  C8  IND d   1      -5.348   3.317   3.036  0.00  0.00    -0.047 A 
ATOM      9  C9  IND d   1      -5.559   4.028   4.224  0.00  0.00    -0.096 A 
ATOM     10  HN1 IND d   1      -5.557   1.346   2.732  0.00  0.00     0.298 HD
ENDROOT
TORSDOF 0
ENDMDL
