MODEL 1
REMARK minimizedAffinity -3.62183404
REMARK minimizedRMSD -1
REMARK  0 active torsions:
REMARK  status: ('A' for Active; 'I' for Inactive)
ROOT
ATOM      1  N1  IND d   1      -5.455   5.986   3.231  0.00  0.00    -0.196 N 
ATOM      2  C2  IND d   1      -4.984   5.552   2.023  0.00  0.00     0.054 A 
ATOM      3  C3  IND d   1      -4.776   4.217   2.053  0.00  0.00    -0.031 A 
ATOM      4  C4  IND d   1      -5.235   2.530   3.943  0.00  0.00     0.051 A 
ATOM      5  C5  IND d   1      -5.632   2.457   5.248  0.00  0.00    -0.031 A 
ATOM      6  C6  IND d   1      -6.000   3.580   5.962  0.00  0.00     0.015 A 
ATOM      7  C7  IND d   1      -5.996   4.821   5.391  0.00  0.00    -0.016 A 
ATOM      8  C8  IND d   1      -5.587   4.899   4.067  0.00  0.00    -0.047 A 
ATOM      9  C9  IND d   1      -5.171   3.769   3.350  0.00  0.00    -0.096 A 
ATOM     10  HN1 IND d   1      -5.638   6.801   3.435  0.00  0.00     0.298 HD
ENDROOT
TORSDOF 0
ENDMDL
