MODEL 1
REMARK minimizedAffinity -3.6497643
REMARK minimizedRMSD -1
REMARK  0 active torsions:
REMARK  status: ('A' for Active; 'I' for Inactive)
ROOT
ATOM      1  N1  IND d   1      -5.999   3.837   2.374  0.00  0.00    -0.196 N 
ATOM      2  C2  IND d   1      -5.577   4.843   1.551  0.00  0.00     0.054 A 
ATOM      3  C3  IND d   1      -4.967   5.813   2.268  0.00  0.00    -0.031 A 
ATOM      4  C4  IND d   1      -4.459   5.908   4.790  0.00  0.00     0.051 A 
ATOM      5  C5  IND d   1      -4.682   5.237   5.960  0.00  0.00    -0.031 A 
ATOM      6  C6  IND d   1      -5.367   4.039   5.994  0.00  0.00     0.015 A 
ATOM      7  C7  IND d   1      -5.847   3.460   4.854  0.00  0.00    -0.016 A 
ATOM      8  C8  IND d   1      -5.629   4.142   3.665  0.00  0.00    -0.047 A 
ATOM      9  C9  IND d   1      -4.971   5.378   3.629  0.00  0.00    -0.096 A 
ATOM     10  HN1 IND d   1      -6.425   3.132   2.127  0.00  0.00     0.298 HD
ENDROOT
TORSDOF 0
ENDMDL
