MODEL 1
REMARK minimizedAffinity -3.32712531
REMARK minimizedRMSD -1
REMARK  0 active torsions:
REMARK  status: ('A' for Active; 'I' for Inactive)
ROOT
ATOM      1  N1  IND d   1      -5.583   5.072   5.539  0.00  0.00    -0.196 N 
ATOM      2  C2  IND d   1      -5.149   3.859   5.998  0.00  0.00     0.054 A 
ATOM      3  C3  IND d   1      -4.917   3.020   4.964  0.00  0.00    -0.031 A 
ATOM      4  C4  IND d   1      -5.085   3.459   2.433  0.00  0.00     0.051 A 
ATOM      5  C5  IND d   1      -5.475   4.406   1.527  0.00  0.00    -0.031 A 
ATOM      6  C6  IND d   1      -5.927   5.649   1.920  0.00  0.00     0.015 A 
ATOM      7  C7  IND d   1      -5.996   5.997   3.240  0.00  0.00    -0.016 A 
ATOM      8  C8  IND d   1      -5.608   5.036   4.162  0.00  0.00    -0.047 A 
ATOM      9  C9  IND d   1      -5.188   3.758   3.771  0.00  0.00    -0.096 A 
ATOM     10  HN1 IND d   1      -5.803   5.744   6.028  0.00  0.00     0.298 HD
ENDROOT
TORSDOF 0
ENDMDL
