MODEL 1
REMARK minimizedAffinity -1.84202516
REMARK minimizedRMSD -1
REMARK  0 active torsions:
REMARK  status: ('A' for Active; 'I' for Inactive)
ROOT
ATOM      1  N1  IND d   1      -5.160   4.326   2.554  0.00  0.00    -0.196 N 
ATOM      2  C2  IND d   1      -5.738   5.475   3.018  0.00  0.00     0.054 A 
ATOM      3  C3  IND d   1      -5.995   5.370   4.341  0.00  0.00    -0.031 A 
ATOM      4  C4  IND d   1      -5.458   3.446   5.965  0.00  0.00     0.051 A 
ATOM      5  C5  IND d   1      -4.965   2.172   6.000  0.00  0.00    -0.031 A 
ATOM      6  C6  IND d   1      -4.501   1.538   4.865  0.00  0.00     0.015 A 
ATOM      7  C7  IND d   1      -4.501   2.163   3.650  0.00  0.00    -0.016 A 
ATOM      8  C8  IND d   1      -5.006   3.455   3.610  0.00  0.00    -0.047 A 
ATOM      9  C9  IND d   1      -5.519   4.087   4.750  0.00  0.00    -0.096 A 
ATOM     10  HN1 IND d   1      -4.931   4.173   1.739  0.00  0.00     0.298 HD
ENDROOT
TORSDOF 0
ENDMDL
