MODEL 1
REMARK minimizedAffinity -2.38526607
REMARK minimizedRMSD -1
REMARK  0 active torsions:
REMARK  status: ('A' for Active; 'I' for Inactive)
ROOT
ATOM      1  N1  IND d   1       0.815  -1.286   0.307  0.00  0.00    -0.196 N 
ATOM      2  C2  IND d   1       0.980  -0.437  -0.752  0.00  0.00     0.054 A 
ATOM      3  C3  IND d   1      -0.221  -0.089  -1.266  0.00  0.00    -0.031 A 
ATOM      4  C4  IND d   1      -2.587  -0.713  -0.465  0.00  0.00     0.051 A 
ATOM      5  C5  IND d   1      -3.245  -1.494   0.442  0.00  0.00    -0.031 A 
ATOM      6  C6  IND d   1      -2.571  -2.260   1.371  0.00  0.00     0.015 A 
ATOM      7  C7  IND d   1      -1.206  -2.264   1.435  0.00  0.00    -0.016 A 
ATOM      8  C8  IND d   1      -0.534  -1.477   0.511  0.00  0.00    -0.047 A 
ATOM      9  C9  IND d   1      -1.212  -0.731  -0.462  0.00  0.00    -0.096 A 
ATOM     10  HN1 IND d   1       1.448  -1.642   0.768  0.00  0.00     0.298 HD
ENDROOT
TORSDOF 0
ENDMDL
