MODEL 1
REMARK minimizedAffinity -3.3817625
REMARK minimizedRMSD -1
REMARK  0 active torsions:
REMARK  status: ('A' for Active; 'I' for Inactive)
ROOT
ATOM      1  N1  IND d   1      -5.960   3.597   2.262  0.00  0.00    -0.196 N 
ATOM      2  C2  IND d   1      -5.999   4.726   1.491  0.00  0.00     0.054 A 
ATOM      3  C3  IND d   1      -5.820   5.825   2.258  0.00  0.00    -0.031 A 
ATOM      4  C4  IND d   1      -5.344   6.000   4.782  0.00  0.00     0.051 A 
ATOM      5  C5  IND d   1      -5.252   5.242   5.915  0.00  0.00    -0.031 A 
ATOM      6  C6  IND d   1      -5.392   3.870   5.889  0.00  0.00     0.015 A 
ATOM      7  C7  IND d   1      -5.618   3.200   4.720  0.00  0.00    -0.016 A 
ATOM      8  C8  IND d   1      -5.719   3.966   3.567  0.00  0.00    -0.047 A 
ATOM      9  C9  IND d   1      -5.621   5.363   3.595  0.00  0.00    -0.096 A 
ATOM     10  HN1 IND d   1      -6.068   2.793   1.980  0.00  0.00     0.298 HD
ENDROOT
TORSDOF 0
ENDMDL
