MODEL 1
REMARK minimizedAffinity 16.7545643
REMARK minimizedRMSD -1
REMARK  0 active torsions:
REMARK  status: ('A' for Active; 'I' for Inactive)
ROOT
ATOM      1  O1  BZF d   1      -3.636   2.220  -0.988  0.00  0.00    -0.204 OA
ATOM      2  C2  BZF d   1      -3.024   1.668  -2.096  0.00  0.00     0.174 A 
ATOM      3  C3  BZF d   1      -2.929   0.328  -1.974  0.00  0.00    -0.012 A 
ATOM      4  C3A BZF d   1      -3.602   0.014  -0.751  0.00  0.00    -0.107 A 
ATOM      5  C4  BZF d   1      -3.858  -1.156  -0.093  0.00  0.00     0.055 A 
ATOM      6  C5  BZF d   1      -4.475  -1.112   1.117  0.00  0.00    -0.016 A 
ATOM      7  C6  BZF d   1      -4.846   0.082   1.700  0.00  0.00     0.022 A 
ATOM      8  C7  BZF d   1      -4.618   1.268   1.084  0.00  0.00     0.029 A 
ATOM      9  C7A BZF d   1      -4.024   1.225  -0.154  0.00  0.00     0.058 A 
ENDROOT
TORSDOF 0
ENDMDL
