MODEL 1
REMARK minimizedAffinity 7.05761766
REMARK minimizedRMSD -1
REMARK  0 active torsions:
REMARK  status: ('A' for Active; 'I' for Inactive)
ROOT
ATOM      1  O1  BZF d   1       0.751  -4.416   0.470  0.00  0.00    -0.204 OA
ATOM      2  C2  BZF d   1       1.761  -5.357   0.449  0.00  0.00     0.174 A 
ATOM      3  C3  BZF d   1       2.970  -4.764   0.521  0.00  0.00    -0.012 A 
ATOM      4  C3A BZF d   1       2.695  -3.369   0.686  0.00  0.00    -0.107 A 
ATOM      5  C4  BZF d   1       3.487  -2.267   0.833  0.00  0.00     0.055 A 
ATOM      6  C5  BZF d   1       2.907  -1.040   0.897  0.00  0.00    -0.016 A 
ATOM      7  C6  BZF d   1       1.540  -0.878   0.812  0.00  0.00     0.022 A 
ATOM      8  C7  BZF d   1       0.712  -1.942   0.671  0.00  0.00     0.029 A 
ATOM      9  C7A BZF d   1       1.293  -3.186   0.639  0.00  0.00     0.058 A 
ENDROOT
TORSDOF 0
ENDMDL
