MODEL 1
REMARK minimizedAffinity 6.94588423
REMARK minimizedRMSD -1
REMARK  0 active torsions:
REMARK  status: ('A' for Active; 'I' for Inactive)
ROOT
ATOM      1  O1  BZF d   1       0.812  -1.012   3.261  0.00  0.00    -0.204 OA
ATOM      2  C2  BZF d   1      -0.476  -0.936   2.768  0.00  0.00     0.174 A 
ATOM      3  C3  BZF d   1      -0.562  -1.530   1.560  0.00  0.00    -0.012 A 
ATOM      4  C3A BZF d   1       0.734  -2.089   1.322  0.00  0.00    -0.107 A 
ATOM      5  C4  BZF d   1       1.269  -2.815   0.298  0.00  0.00     0.055 A 
ATOM      6  C5  BZF d   1       2.587  -3.143   0.339  0.00  0.00    -0.016 A 
ATOM      7  C6  BZF d   1       3.399  -2.757   1.386  0.00  0.00     0.022 A 
ATOM      8  C7  BZF d   1       2.912  -2.040   2.428  0.00  0.00     0.029 A 
ATOM      9  C7A BZF d   1       1.573  -1.735   2.404  0.00  0.00     0.058 A 
ENDROOT
TORSDOF 0
ENDMDL
