MODEL 1
REMARK minimizedAffinity 11.561841
REMARK minimizedRMSD -1
REMARK  0 active torsions:
REMARK  status: ('A' for Active; 'I' for Inactive)
ROOT
ATOM      1  O1  BZF d   1      -3.676   3.206   5.998  0.00  0.00    -0.204 OA
ATOM      2  C2  BZF d   1      -3.088   3.964   5.004  0.00  0.00     0.174 A 
ATOM      3  C3  BZF d   1      -3.460   3.525   3.785  0.00  0.00    -0.012 A 
ATOM      4  C3A BZF d   1      -4.408   2.481   4.033  0.00  0.00    -0.107 A 
ATOM      5  C4  BZF d   1      -5.145   1.669   3.219  0.00  0.00     0.055 A 
ATOM      6  C5  BZF d   1      -5.921   0.704   3.778  0.00  0.00    -0.016 A 
ATOM      7  C6  BZF d   1      -5.980   0.519   5.144  0.00  0.00     0.022 A 
ATOM      8  C7  BZF d   1      -5.271   1.304   5.991  0.00  0.00     0.029 A 
ATOM      9  C7A BZF d   1      -4.511   2.302   5.432  0.00  0.00     0.058 A 
ENDROOT
TORSDOF 0
ENDMDL
