MODEL 1
REMARK minimizedAffinity 15.1346645
REMARK minimizedRMSD -1
REMARK  0 active torsions:
REMARK  status: ('A' for Active; 'I' for Inactive)
ROOT
ATOM      1  O1  BZF d   1      -3.227   0.598  -1.871  0.00  0.00    -0.204 OA
ATOM      2  C2  BZF d   1      -2.359  -0.306  -1.290  0.00  0.00     0.174 A 
ATOM      3  C3  BZF d   1      -1.081  -0.008  -1.599  0.00  0.00    -0.012 A 
ATOM      4  C3A BZF d   1      -1.149   1.209  -2.349  0.00  0.00    -0.107 A 
ATOM      5  C4  BZF d   1      -0.205   2.012  -2.923  0.00  0.00     0.055 A 
ATOM      6  C5  BZF d   1      -0.606   3.089  -3.648  0.00  0.00    -0.016 A 
ATOM      7  C6  BZF d   1      -1.941   3.389  -3.823  0.00  0.00     0.022 A 
ATOM      8  C7  BZF d   1      -2.914   2.625  -3.269  0.00  0.00     0.029 A 
ATOM      9  C7A BZF d   1      -2.511   1.554  -2.509  0.00  0.00     0.058 A 
ENDROOT
TORSDOF 0
ENDMDL
