MODEL 1
REMARK minimizedAffinity -0.756399453
REMARK minimizedRMSD -1
REMARK  0 active torsions:
REMARK  status: ('A' for Active; 'I' for Inactive)
ROOT
ATOM      1  C1  DEN d   1       1.537   1.043   2.349  0.00  0.00     0.130 A 
ATOM      2  C2  DEN d   1       2.337   1.140   1.131  0.00  0.00    -0.031 A 
ATOM      3  C3  DEN d   1       1.456   0.852  -0.018  0.00  0.00     0.027 A 
ATOM      4  C4  DEN d   1      -1.058   0.275  -0.031  0.00  0.00     0.027 A 
ATOM      5  C5  DEN d   1      -2.165   0.064   0.761  0.00  0.00    -0.003 A 
ATOM      6  C6  DEN d   1      -2.109   0.132   2.128  0.00  0.00     0.001 A 
ATOM      7  C7  DEN d   1      -0.931   0.461   2.743  0.00  0.00     0.017 A 
ATOM      8  C8  DEN d   1       0.192   0.667   1.952  0.00  0.00    -0.094 A 
ATOM      9  C9  DEN d   1       0.112   0.606   0.571  0.00  0.00    -0.072 A 
ENDROOT
TORSDOF 0
ENDMDL
