MODEL 1
REMARK minimizedAffinity 3.44590712
REMARK minimizedRMSD -1
REMARK  0 active torsions:
REMARK  status: ('A' for Active; 'I' for Inactive)
ROOT
ATOM      1  C1  DEN d   1      -1.195  -0.961  -0.025  0.00  0.00     0.130 A 
ATOM      2  C2  DEN d   1      -0.227  -0.396  -0.961  0.00  0.00    -0.031 A 
ATOM      3  C3  DEN d   1       0.540   0.647  -0.250  0.00  0.00     0.027 A 
ATOM      4  C4  DEN d   1       0.328   1.433   2.197  0.00  0.00     0.027 A 
ATOM      5  C5  DEN d   1      -0.361   1.258   3.377  0.00  0.00    -0.003 A 
ATOM      6  C6  DEN d   1      -1.391   0.362   3.495  0.00  0.00     0.001 A 
ATOM      7  C7  DEN d   1      -1.731  -0.426   2.427  0.00  0.00     0.017 A 
ATOM      8  C8  DEN d   1      -1.046  -0.249   1.232  0.00  0.00    -0.094 A 
ATOM      9  C9  DEN d   1      -0.000   0.654   1.136  0.00  0.00    -0.072 A 
ENDROOT
TORSDOF 0
ENDMDL
