MODEL 1
REMARK minimizedAffinity -3.07419491
REMARK minimizedRMSD -1
REMARK  0 active torsions:
REMARK  status: ('A' for Active; 'I' for Inactive)
ROOT
ATOM      1  C1  DEN d   1       1.585  -0.826   0.994  0.00  0.00     0.130 A 
ATOM      2  C2  DEN d   1       2.801  -0.024   0.891  0.00  0.00    -0.031 A 
ATOM      3  C3  DEN d   1       2.506   1.323   1.420  0.00  0.00     0.027 A 
ATOM      4  C4  DEN d   1       0.297   2.238   2.388  0.00  0.00     0.027 A 
ATOM      5  C5  DEN d   1      -1.016   1.933   2.671  0.00  0.00    -0.003 A 
ATOM      6  C6  DEN d   1      -1.559   0.708   2.386  0.00  0.00     0.001 A 
ATOM      7  C7  DEN d   1      -0.773  -0.273   1.842  0.00  0.00     0.017 A 
ATOM      8  C8  DEN d   1       0.550   0.029   1.547  0.00  0.00    -0.094 A 
ATOM      9  C9  DEN d   1       1.084   1.270   1.853  0.00  0.00    -0.072 A 
ENDROOT
TORSDOF 0
ENDMDL
