MODEL 1
REMARK minimizedAffinity 0.168784246
REMARK minimizedRMSD -1
REMARK  0 active torsions:
REMARK  status: ('A' for Active; 'I' for Inactive)
ROOT
ATOM      1  C1  DEN d   1      -2.567  -0.614   1.446  0.00  0.00     0.130 A 
ATOM      2  C2  DEN d   1      -2.574  -0.904   0.015  0.00  0.00    -0.031 A 
ATOM      3  C3  DEN d   1      -1.376  -0.282  -0.583  0.00  0.00     0.027 A 
ATOM      4  C4  DEN d   1       0.483   1.090   0.563  0.00  0.00     0.027 A 
ATOM      5  C5  DEN d   1       0.918   1.610   1.762  0.00  0.00    -0.003 A 
ATOM      6  C6  DEN d   1       0.209   1.456   2.924  0.00  0.00     0.001 A 
ATOM      7  C7  DEN d   1      -0.949   0.725   2.921  0.00  0.00     0.017 A 
ATOM      8  C8  DEN d   1      -1.397   0.204   1.714  0.00  0.00    -0.094 A 
ATOM      9  C9  DEN d   1      -0.661   0.361   0.553  0.00  0.00    -0.072 A 
ENDROOT
TORSDOF 0
ENDMDL
