MODEL 1
REMARK minimizedAffinity 0.176007211
REMARK minimizedRMSD -1
REMARK  0 active torsions:
REMARK  status: ('A' for Active; 'I' for Inactive)
ROOT
ATOM      1  C1  DEN d   1       0.520   1.948   1.437  0.00  0.00     0.130 A 
ATOM      2  C2  DEN d   1       0.336   2.339   2.832  0.00  0.00    -0.031 A 
ATOM      3  C3  DEN d   1      -0.803   1.571   3.374  0.00  0.00     0.027 A 
ATOM      4  C4  DEN d   1      -2.289  -0.178   2.197  0.00  0.00     0.027 A 
ATOM      5  C5  DEN d   1      -2.524  -0.833   1.009  0.00  0.00    -0.003 A 
ATOM      6  C6  DEN d   1      -1.789  -0.585  -0.120  0.00  0.00     0.001 A 
ATOM      7  C7  DEN d   1      -0.753   0.310  -0.072  0.00  0.00     0.017 A 
ATOM      8  C8  DEN d   1      -0.515   0.981   1.120  0.00  0.00    -0.094 A 
ATOM      9  C9  DEN d   1      -1.261   0.706   2.254  0.00  0.00    -0.072 A 
ENDROOT
TORSDOF 0
ENDMDL
