MODEL 1
REMARK minimizedAffinity 0.937525094
REMARK minimizedRMSD -1
REMARK  0 active torsions:
REMARK  status: ('A' for Active; 'I' for Inactive)
ROOT
ATOM      1  C1  DEN d   1      -1.243  -0.470  -0.187  0.00  0.00     0.130 A 
ATOM      2  C2  DEN d   1      -2.563  -0.697   0.394  0.00  0.00    -0.031 A 
ATOM      3  C3  DEN d   1      -2.578  -0.094   1.742  0.00  0.00     0.027 A 
ATOM      4  C4  DEN d   1      -0.696   1.166   2.977  0.00  0.00     0.027 A 
ATOM      5  C5  DEN d   1       0.609   1.598   2.891  0.00  0.00    -0.003 A 
ATOM      6  C6  DEN d   1       1.393   1.343   1.797  0.00  0.00     0.001 A 
ATOM      7  C7  DEN d   1       0.864   0.676   0.724  0.00  0.00     0.017 A 
ATOM      8  C8  DEN d   1      -0.449   0.231   0.805  0.00  0.00    -0.094 A 
ATOM      9  C9  DEN d   1      -1.229   0.509   1.916  0.00  0.00    -0.072 A 
ENDROOT
TORSDOF 0
ENDMDL
