MODEL 1
REMARK minimizedAffinity -3.96126366
REMARK minimizedRMSD -1
REMARK  1 active torsions:
REMARK  status: ('A' for Active; 'I' for Inactive)
REMARK    1  A    between atoms: C1_2  and  C2_3 
ROOT
ATOM      1  C2  UNL d   1      -0.603   0.759  -0.381  0.00  0.00    -0.073 A 
ATOM      2  C3  UNL d   1      -0.413  -0.542   0.099  0.00  0.00    -0.002 A 
ATOM      3  C4  UNL d   1       0.444  -1.420  -0.566  0.00  0.00     0.004 A 
ATOM      4  C5  UNL d   1       1.124  -1.005  -1.711  0.00  0.00    -0.004 A 
ATOM      5  C6  UNL d   1       0.956   0.294  -2.199  0.00  0.00    -0.075 A 
ATOM      6  C7  UNL d   1       1.678   0.755  -3.431  0.00  0.00     0.076 C 
ATOM      7  C8  UNL d   1       0.092   1.170  -1.528  0.00  0.00     0.001 A 
ENDROOT
BRANCH   1   8
ATOM      8  C1  UNL d   1      -1.522   1.713   0.337  0.00  0.00     0.053 C 
ATOM      9  C   UNL d   1      -2.269   1.037   1.476  0.00  0.00     0.018 C 
ENDBRANCH   1   8
TORSDOF 1
ENDMDL
