MODEL 1
REMARK minimizedAffinity -0.965697408
REMARK minimizedRMSD -1
REMARK  1 active torsions:
REMARK  status: ('A' for Active; 'I' for Inactive)
REMARK    1  A    between atoms: C1_2  and  C2_3 
ROOT
ATOM      1  C2  UNL d   1       0.458   0.215  -2.160  0.00  0.00    -0.073 A 
ATOM      2  C3  UNL d   1       1.234  -0.926  -1.924  0.00  0.00    -0.002 A 
ATOM      3  C4  UNL d   1       1.129  -1.611  -0.713  0.00  0.00     0.004 A 
ATOM      4  C5  UNL d   1       0.244  -1.168   0.270  0.00  0.00    -0.004 A 
ATOM      5  C6  UNL d   1      -0.548  -0.037   0.048  0.00  0.00    -0.075 A 
ATOM      6  C7  UNL d   1      -1.503   0.454   1.097  0.00  0.00     0.076 C 
ATOM      7  C8  UNL d   1      -0.435   0.647  -1.170  0.00  0.00     0.001 A 
ENDROOT
BRANCH   1   8
ATOM      8  C1  UNL d   1       0.562   0.954  -3.469  0.00  0.00     0.053 C 
ATOM      9  C   UNL d   1       1.940   0.810  -4.096  0.00  0.00     0.018 C 
ENDBRANCH   1   8
TORSDOF 1
ENDMDL
