MODEL 1
REMARK minimizedAffinity -4.13732767
REMARK minimizedRMSD -1
REMARK  3 active torsions:
REMARK  status: ('A' for Active; 'I' for Inactive)
REMARK    1  A    between atoms: C3'_2  and  C2'_3 
REMARK    2  A    between atoms: C2'_3  and  C1'_4 
REMARK    3  A    between atoms: C1'_4  and  C1_5 
ROOT
ATOM      1  C1  N4B d   1       2.217   0.920   0.492  0.00  0.00    -0.075 A 
ATOM      2  C2  N4B d   1       2.990   1.716  -0.382  0.00  0.00     0.002 A 
ATOM      3  C3  N4B d   1       3.406   2.963   0.014  0.00  0.00     0.002 A 
ATOM      4  C4  N4B d   1       3.048   3.441   1.265  0.00  0.00    -0.004 A 
ATOM      5  C5  N4B d   1       2.322   2.656   2.113  0.00  0.00     0.002 A 
ATOM      6  C6  N4B d   1       1.900   1.399   1.730  0.00  0.00     0.002 A 
ENDROOT
BRANCH   1   7
ATOM      7  C1' N4B d   1       1.666  -0.415   0.071  0.00  0.00     0.057 C 
BRANCH   7   8
ATOM      8  C2' N4B d   1       0.145  -0.388   0.186  0.00  0.00     0.009 C 
BRANCH   8   9
ATOM      9  C3' N4B d   1      -0.518  -0.047  -1.137  0.00  0.00     0.004 C 
ATOM     10  C4' N4B d   1      -1.949  -0.491  -1.201  0.00  0.00     0.003 C 
ENDBRANCH   8   9
ENDBRANCH   7   8
ENDBRANCH   1   7
TORSDOF 3
ENDMDL
