MODEL 1
REMARK minimizedAffinity -1.63401508
REMARK minimizedRMSD -1
REMARK  3 active torsions:
REMARK  status: ('A' for Active; 'I' for Inactive)
REMARK    1  A    between atoms: C3'_2  and  C2'_3 
REMARK    2  A    between atoms: C2'_3  and  C1'_4 
REMARK    3  A    between atoms: C1'_4  and  C1_5 
ROOT
ATOM      1  C1  N4B d   1       1.264   1.020   0.242  0.00  0.00    -0.075 A 
ATOM      2  C2  N4B d   1       1.290   1.243   1.636  0.00  0.00     0.002 A 
ATOM      3  C3  N4B d   1       2.126   2.196   2.164  0.00  0.00     0.002 A 
ATOM      4  C4  N4B d   1       2.957   2.922   1.322  0.00  0.00    -0.004 A 
ATOM      5  C5  N4B d   1       2.908   2.717  -0.026  0.00  0.00     0.002 A 
ATOM      6  C6  N4B d   1       2.069   1.766  -0.570  0.00  0.00     0.002 A 
ENDROOT
BRANCH   1   7
ATOM      7  C1' N4B d   1       0.429  -0.070  -0.372  0.00  0.00     0.057 C 
BRANCH   7   8
ATOM      8  C2' N4B d   1      -1.017   0.404  -0.473  0.00  0.00     0.009 C 
BRANCH   8   9
ATOM      9  C3' N4B d   1      -1.886  -0.581  -1.236  0.00  0.00     0.004 C 
ATOM     10  C4' N4B d   1      -2.440  -1.666  -0.362  0.00  0.00     0.003 C 
ENDBRANCH   8   9
ENDBRANCH   7   8
ENDBRANCH   1   7
TORSDOF 3
ENDMDL
