MODEL 1
REMARK minimizedAffinity -4.33914042
REMARK minimizedRMSD -1
REMARK  3 active torsions:
REMARK  status: ('A' for Active; 'I' for Inactive)
REMARK    1  A    between atoms: C3'_2  and  C2'_3 
REMARK    2  A    between atoms: C2'_3  and  C1'_4 
REMARK    3  A    between atoms: C1'_4  and  C1_5 
ROOT
ATOM      1  C1  N4B d   1       0.542   0.004   0.006  0.00  0.00    -0.075 A 
ATOM      2  C2  N4B d   1       0.241   0.769  -1.142  0.00  0.00     0.002 A 
ATOM      3  C3  N4B d   1      -0.959   0.596  -1.787  0.00  0.00     0.002 A 
ATOM      4  C4  N4B d   1      -1.863  -0.344  -1.315  0.00  0.00    -0.004 A 
ATOM      5  C5  N4B d   1      -1.576  -1.060  -0.190  0.00  0.00     0.002 A 
ATOM      6  C6  N4B d   1      -0.375  -0.895   0.471  0.00  0.00     0.002 A 
ENDROOT
BRANCH   1   7
ATOM      7  C1' N4B d   1       1.876   0.096   0.695  0.00  0.00     0.057 C 
BRANCH   7   8
ATOM      8  C2' N4B d   1       2.578   1.378   0.257  0.00  0.00     0.009 C 
BRANCH   8   9
ATOM      9  C3' N4B d   1       2.652   2.397   1.381  0.00  0.00     0.004 C 
ATOM     10  C4' N4B d   1       2.294   3.783   0.933  0.00  0.00     0.003 C 
ENDBRANCH   8   9
ENDBRANCH   7   8
ENDBRANCH   1   7
TORSDOF 3
ENDMDL
