MODEL 1
REMARK minimizedAffinity -3.84936786
REMARK minimizedRMSD -1
REMARK  3 active torsions:
REMARK  status: ('A' for Active; 'I' for Inactive)
REMARK    1  A    between atoms: C3'_2  and  C2'_3 
REMARK    2  A    between atoms: C2'_3  and  C1'_4 
REMARK    3  A    between atoms: C1'_4  and  C1_5 
ROOT
ATOM      1  C1  N4B d   1       0.381  -0.129  -0.467  0.00  0.00    -0.075 A 
ATOM      2  C2  N4B d   1      -0.704  -0.913  -0.018  0.00  0.00     0.002 A 
ATOM      3  C3  N4B d   1      -1.943  -0.763  -0.591  0.00  0.00     0.002 A 
ATOM      4  C4  N4B d   1      -2.124   0.173  -1.598  0.00  0.00    -0.004 A 
ATOM      5  C5  N4B d   1      -1.065   0.908  -2.044  0.00  0.00     0.002 A 
ATOM      6  C6  N4B d   1       0.187   0.766  -1.480  0.00  0.00     0.002 A 
ENDROOT
BRANCH   1   7
ATOM      7  C1' N4B d   1       1.734  -0.196   0.187  0.00  0.00     0.057 C 
BRANCH   7   8
ATOM      8  C2' N4B d   1       2.293   1.217   0.328  0.00  0.00     0.009 C 
BRANCH   8   9
ATOM      9  C3' N4B d   1       2.306   1.681   1.774  0.00  0.00     0.004 C 
ATOM     10  C4' N4B d   1       2.666   3.130   1.916  0.00  0.00     0.003 C 
ENDBRANCH   8   9
ENDBRANCH   7   8
ENDBRANCH   1   7
TORSDOF 3
ENDMDL
