MODEL 1
REMARK minimizedAffinity -3.55037808
REMARK minimizedRMSD -1
REMARK  3 active torsions:
REMARK  status: ('A' for Active; 'I' for Inactive)
REMARK    1  A    between atoms: C3'_2  and  C2'_3 
REMARK    2  A    between atoms: C2'_3  and  C1'_4 
REMARK    3  A    between atoms: C1'_4  and  C1_5 
ROOT
ATOM      1  C1  N4B d   1      -0.277  -0.043  -0.253  0.00  0.00    -0.075 A 
ATOM      2  C2  N4B d   1      -1.220   0.678  -1.017  0.00  0.00     0.002 A 
ATOM      3  C3  N4B d   1      -2.415   0.095  -1.361  0.00  0.00     0.002 A 
ATOM      4  C4  N4B d   1      -2.680  -1.209  -0.969  0.00  0.00    -0.004 A 
ATOM      5  C5  N4B d   1      -1.774  -1.890  -0.210  0.00  0.00     0.002 A 
ATOM      6  C6  N4B d   1      -0.571  -1.315   0.147  0.00  0.00     0.002 A 
ENDROOT
BRANCH   1   7
ATOM      7  C1' N4B d   1       1.078   0.522   0.075  0.00  0.00     0.057 C 
BRANCH   7   8
ATOM      8  C2' N4B d   1       0.907   1.755   0.957  0.00  0.00     0.009 C 
BRANCH   8   9
ATOM      9  C3' N4B d   1       2.170   2.598   1.006  0.00  0.00     0.004 C 
ATOM     10  C4' N4B d   1       2.665   2.822   2.403  0.00  0.00     0.003 C 
ENDBRANCH   8   9
ENDBRANCH   7   8
ENDBRANCH   1   7
TORSDOF 3
ENDMDL
