MODEL 1
REMARK minimizedAffinity -5.13369656
REMARK minimizedRMSD -1
REMARK  3 active torsions:
REMARK  status: ('A' for Active; 'I' for Inactive)
REMARK    1  A    between atoms: C3'_2  and  C2'_3 
REMARK    2  A    between atoms: C2'_3  and  C1'_4 
REMARK    3  A    between atoms: C1'_4  and  C1_5 
ROOT
ATOM      1  C1  N4B d   1      -0.522  -0.575   0.231  0.00  0.00    -0.075 A 
ATOM      2  C2  N4B d   1      -0.513  -1.737   1.033  0.00  0.00     0.002 A 
ATOM      3  C3  N4B d   1      -1.550  -2.635   0.952  0.00  0.00     0.002 A 
ATOM      4  C4  N4B d   1      -2.609  -2.383   0.093  0.00  0.00    -0.004 A 
ATOM      5  C5  N4B d   1      -2.598  -1.271  -0.697  0.00  0.00     0.002 A 
ATOM      6  C6  N4B d   1      -1.561  -0.362  -0.628  0.00  0.00     0.002 A 
ENDROOT
BRANCH   1   7
ATOM      7  C1' N4B d   1       0.546   0.478   0.347  0.00  0.00     0.057 C 
BRANCH   7   8
ATOM      8  C2' N4B d   1       1.915  -0.179   0.201  0.00  0.00     0.009 C 
BRANCH   8   9
ATOM      9  C3' N4B d   1       3.044   0.834   0.282  0.00  0.00     0.004 C 
ATOM     10  C4' N4B d   1       2.716   1.999   1.168  0.00  0.00     0.003 C 
ENDBRANCH   8   9
ENDBRANCH   7   8
ENDBRANCH   1   7
TORSDOF 3
ENDMDL
