MODEL 1
REMARK minimizedAffinity -1.47078264
REMARK minimizedRMSD -1
REMARK  3 active torsions:
REMARK  status: ('A' for Active; 'I' for Inactive)
REMARK    1  A    between atoms: C3'_2  and  C2'_3 
REMARK    2  A    between atoms: C2'_3  and  C1'_4 
REMARK    3  A    between atoms: C1'_4  and  C1_5 
ROOT
ATOM      1  C1  N4B d   1       0.052   0.566  -0.459  0.00  0.00    -0.075 A 
ATOM      2  C2  N4B d   1       0.101  -0.618   0.309  0.00  0.00     0.002 A 
ATOM      3  C3  N4B d   1      -0.753  -1.656   0.025  0.00  0.00     0.002 A 
ATOM      4  C4  N4B d   1      -1.672  -1.526  -1.006  0.00  0.00    -0.004 A 
ATOM      5  C5  N4B d   1      -1.696  -0.388  -1.759  0.00  0.00     0.002 A 
ATOM      6  C6  N4B d   1      -0.841   0.661  -1.487  0.00  0.00     0.002 A 
ENDROOT
BRANCH   1   7
ATOM      7  C1' N4B d   1       0.906   1.761  -0.131  0.00  0.00     0.057 C 
BRANCH   7   8
ATOM      8  C2' N4B d   1       2.114   1.305   0.681  0.00  0.00     0.009 C 
BRANCH   8   9
ATOM      9  C3' N4B d   1       2.575   2.371   1.660  0.00  0.00     0.004 C 
ATOM     10  C4' N4B d   1       1.829   3.663   1.506  0.00  0.00     0.003 C 
ENDBRANCH   8   9
ENDBRANCH   7   8
ENDBRANCH   1   7
TORSDOF 3
ENDMDL
