MODEL 1
REMARK minimizedAffinity -4.07453442
REMARK minimizedRMSD -1
REMARK  3 active torsions:
REMARK  status: ('A' for Active; 'I' for Inactive)
REMARK    1  A    between atoms: C3'_2  and  C2'_3 
REMARK    2  A    between atoms: C2'_3  and  C1'_4 
REMARK    3  A    between atoms: C1'_4  and  C1_5 
ROOT
ATOM      1  C1  N4B d   1       0.869   0.635  -0.303  0.00  0.00    -0.075 A 
ATOM      2  C2  N4B d   1       1.528   1.873  -0.140  0.00  0.00     0.002 A 
ATOM      3  C3  N4B d   1       2.174   2.157   1.039  0.00  0.00     0.002 A 
ATOM      4  C4  N4B d   1       2.158   1.229   2.070  0.00  0.00    -0.004 A 
ATOM      5  C5  N4B d   1       1.540   0.026   1.895  0.00  0.00     0.002 A 
ATOM      6  C6  N4B d   1       0.891  -0.274   0.714  0.00  0.00     0.002 A 
ENDROOT
BRANCH   1   7
ATOM      7  C1' N4B d   1       0.076   0.315  -1.541  0.00  0.00     0.057 C 
BRANCH   7   8
ATOM      8  C2' N4B d   1      -1.410   0.308  -1.197  0.00  0.00     0.009 C 
BRANCH   8   9
ATOM      9  C3' N4B d   1      -2.126  -0.891  -1.795  0.00  0.00     0.004 C 
ATOM     10  C4' N4B d   1      -2.614  -1.854  -0.754  0.00  0.00     0.003 C 
ENDBRANCH   8   9
ENDBRANCH   7   8
ENDBRANCH   1   7
TORSDOF 3
ENDMDL
