MODEL 1
REMARK minimizedAffinity -0.691847861
REMARK minimizedRMSD -1
REMARK  3 active torsions:
REMARK  status: ('A' for Active; 'I' for Inactive)
REMARK    1  A    between atoms: C3'_2  and  C2'_3 
REMARK    2  A    between atoms: C2'_3  and  C1'_4 
REMARK    3  A    between atoms: C1'_4  and  C1_5 
ROOT
ATOM      1  C1  N4B d   1      -2.388  -0.430  -1.018  0.00  0.00    -0.075 A 
ATOM      2  C2  N4B d   1      -1.088  -0.881  -0.698  0.00  0.00     0.002 A 
ATOM      3  C3  N4B d   1      -0.894  -1.704   0.384  0.00  0.00     0.002 A 
ATOM      4  C4  N4B d   1      -1.976  -2.073   1.168  0.00  0.00    -0.004 A 
ATOM      5  C5  N4B d   1      -3.232  -1.654   0.838  0.00  0.00     0.002 A 
ATOM      6  C6  N4B d   1      -3.443  -0.829  -0.249  0.00  0.00     0.002 A 
ENDROOT
BRANCH   1   7
ATOM      7  C1' N4B d   1      -2.638   0.540  -2.139  0.00  0.00     0.057 C 
BRANCH   7   8
ATOM      8  C2' N4B d   1      -1.301   0.984  -2.726  0.00  0.00     0.009 C 
BRANCH   8   9
ATOM      9  C3' N4B d   1      -1.459   2.162  -3.672  0.00  0.00     0.004 C 
ATOM     10  C4' N4B d   1      -0.178   2.530  -4.359  0.00  0.00     0.003 C 
ENDBRANCH   8   9
ENDBRANCH   7   8
ENDBRANCH   1   7
TORSDOF 3
ENDMDL
