MODEL 1
REMARK minimizedAffinity -4.63280725
REMARK minimizedRMSD -1
REMARK  3 active torsions:
REMARK  status: ('A' for Active; 'I' for Inactive)
REMARK    1  A    between atoms: C3'_2  and  C2'_3 
REMARK    2  A    between atoms: C2'_3  and  C1'_4 
REMARK    3  A    between atoms: C1'_4  and  C1_5 
ROOT
ATOM      1  C1  N4B d   1       0.054   0.442  -0.254  0.00  0.00    -0.075 A 
ATOM      2  C2  N4B d   1      -0.347  -0.793   0.301  0.00  0.00     0.002 A 
ATOM      3  C3  N4B d   1      -1.471  -1.425  -0.172  0.00  0.00     0.002 A 
ATOM      4  C4  N4B d   1      -2.218  -0.835  -1.180  0.00  0.00    -0.004 A 
ATOM      5  C5  N4B d   1      -1.809   0.346  -1.728  0.00  0.00     0.002 A 
ATOM      6  C6  N4B d   1      -0.679   0.991  -1.266  0.00  0.00     0.002 A 
ENDROOT
BRANCH   1   7
ATOM      7  C1' N4B d   1       1.227   1.212   0.288  0.00  0.00     0.057 C 
BRANCH   7   8
ATOM      8  C2' N4B d   1       0.789   2.641   0.594  0.00  0.00     0.009 C 
BRANCH   8   9
ATOM      9  C3' N4B d   1       1.764   3.348   1.520  0.00  0.00     0.004 C 
ATOM     10  C4' N4B d   1       3.184   2.918   1.306  0.00  0.00     0.003 C 
ENDBRANCH   8   9
ENDBRANCH   7   8
ENDBRANCH   1   7
TORSDOF 3
ENDMDL
