MODEL 1
REMARK minimizedAffinity 3.87003088
REMARK minimizedRMSD -1
REMARK  0 active torsions:
REMARK  status: ('A' for Active; 'I' for Inactive)
ROOT
ATOM      1  C   UNL d   1       1.240   0.287  -3.115  0.00  0.00     0.077 C 
ATOM      2  C1  UNL d   1       0.830   0.827  -1.778  0.00  0.00    -0.074 A 
ATOM      3  C2  UNL d   1      -0.456   0.602  -1.275  0.00  0.00    -0.005 A 
ATOM      4  C3  UNL d   1      -0.820   1.103  -0.025  0.00  0.00     0.006 A 
ATOM      5  C4  UNL d   1       0.096   1.832   0.734  0.00  0.00    -0.005 A 
ATOM      6  C5  UNL d   1       1.387   2.065   0.248  0.00  0.00    -0.074 A 
ATOM      7  C6  UNL d   1       2.387   2.838   1.056  0.00  0.00     0.077 C 
ATOM      8  C7  UNL d   1       1.747   1.553  -1.006  0.00  0.00    -0.001 A 
ENDROOT
TORSDOF 0
ENDMDL
