MODEL 1
REMARK minimizedAffinity -1.62177837
REMARK minimizedRMSD -1
REMARK  0 active torsions:
REMARK  status: ('A' for Active; 'I' for Inactive)
ROOT
ATOM      1  C   UNL d   1       5.997   0.972  -3.759  0.00  0.00     0.077 C 
ATOM      2  C1  UNL d   1       4.943   2.039  -3.755  0.00  0.00    -0.074 A 
ATOM      3  C2  UNL d   1       5.258   3.359  -3.414  0.00  0.00    -0.005 A 
ATOM      4  C3  UNL d   1       4.270   4.343  -3.424  0.00  0.00     0.006 A 
ATOM      5  C4  UNL d   1       2.958   4.018  -3.773  0.00  0.00    -0.005 A 
ATOM      6  C5  UNL d   1       2.625   2.704  -4.116  0.00  0.00    -0.074 A 
ATOM      7  C6  UNL d   1       1.222   2.340  -4.503  0.00  0.00     0.077 C 
ATOM      8  C7  UNL d   1       3.625   1.722  -4.112  0.00  0.00    -0.001 A 
ENDROOT
TORSDOF 0
ENDMDL
