MODEL 1
REMARK minimizedAffinity 9.68605518
REMARK minimizedRMSD -1
REMARK  0 active torsions:
REMARK  status: ('A' for Active; 'I' for Inactive)
ROOT
ATOM      1  C   UNL d   1      -5.712  -5.995  -1.184  0.00  0.00     0.077 C 
ATOM      2  C1  UNL d   1      -4.783  -4.818  -1.213  0.00  0.00    -0.074 A 
ATOM      3  C2  UNL d   1      -5.257  -3.533  -1.495  0.00  0.00    -0.005 A 
ATOM      4  C3  UNL d   1      -4.382  -2.447  -1.509  0.00  0.00     0.006 A 
ATOM      5  C4  UNL d   1      -3.025  -2.635  -1.241  0.00  0.00    -0.005 A 
ATOM      6  C5  UNL d   1      -2.533  -3.912  -0.956  0.00  0.00    -0.074 A 
ATOM      7  C6  UNL d   1      -1.079  -4.130  -0.657  0.00  0.00     0.077 C 
ATOM      8  C7  UNL d   1      -3.420  -4.997  -0.937  0.00  0.00    -0.001 A 
ENDROOT
TORSDOF 0
ENDMDL
