MODEL 1
REMARK minimizedAffinity 10.4434013
REMARK minimizedRMSD -1
REMARK  0 active torsions:
REMARK  status: ('A' for Active; 'I' for Inactive)
ROOT
ATOM      1  C   UNL d   1       0.259   6.000   0.304  0.00  0.00     0.077 C 
ATOM      2  C1  UNL d   1       0.727   4.582   0.448  0.00  0.00    -0.074 A 
ATOM      3  C2  UNL d   1       1.316   4.137   1.636  0.00  0.00    -0.005 A 
ATOM      4  C3  UNL d   1       1.738   2.813   1.759  0.00  0.00     0.006 A 
ATOM      5  C4  UNL d   1       1.575   1.923   0.698  0.00  0.00    -0.005 A 
ATOM      6  C5  UNL d   1       0.987   2.349  -0.497  0.00  0.00    -0.074 A 
ATOM      7  C6  UNL d   1       0.796   1.402  -1.645  0.00  0.00     0.077 C 
ATOM      8  C7  UNL d   1       0.560   3.679  -0.611  0.00  0.00    -0.001 A 
ENDROOT
TORSDOF 0
ENDMDL
