MODEL 1
REMARK minimizedAffinity -3.35200238
REMARK minimizedRMSD -1
REMARK  0 active torsions:
REMARK  status: ('A' for Active; 'I' for Inactive)
ROOT
ATOM      1  C   UNL d   1       1.531  -2.475  -1.458  0.00  0.00     0.077 C 
ATOM      2  C1  UNL d   1       0.544  -1.523  -0.852  0.00  0.00    -0.074 A 
ATOM      3  C2  UNL d   1      -0.647  -1.987  -0.283  0.00  0.00    -0.005 A 
ATOM      4  C3  UNL d   1      -1.551  -1.090   0.285  0.00  0.00     0.006 A 
ATOM      5  C4  UNL d   1      -1.275   0.278   0.290  0.00  0.00    -0.005 A 
ATOM      6  C5  UNL d   1      -0.089   0.761  -0.273  0.00  0.00    -0.074 A 
ATOM      7  C6  UNL d   1       0.228   2.227  -0.267  0.00  0.00     0.077 C 
ATOM      8  C7  UNL d   1       0.818  -0.148  -0.836  0.00  0.00    -0.001 A 
ENDROOT
TORSDOF 0
ENDMDL
