MODEL 1
REMARK minimizedAffinity -0.0716959536
REMARK minimizedRMSD -1
REMARK  0 active torsions:
REMARK  status: ('A' for Active; 'I' for Inactive)
ROOT
ATOM      1  C   UNL d   1      -1.662   0.918   3.387  0.00  0.00     0.077 C 
ATOM      2  C1  UNL d   1      -0.839   0.921   2.133  0.00  0.00    -0.074 A 
ATOM      3  C2  UNL d   1      -0.076   2.038   1.777  0.00  0.00    -0.005 A 
ATOM      4  C3  UNL d   1       0.693   2.022   0.613  0.00  0.00     0.006 A 
ATOM      5  C4  UNL d   1       0.705   0.892  -0.206  0.00  0.00    -0.005 A 
ATOM      6  C5  UNL d   1      -0.051  -0.234   0.135  0.00  0.00    -0.074 A 
ATOM      7  C6  UNL d   1      -0.041  -1.460  -0.729  0.00  0.00     0.077 C 
ATOM      8  C7  UNL d   1      -0.815  -0.213   1.310  0.00  0.00    -0.001 A 
ENDROOT
TORSDOF 0
ENDMDL
