MODEL 1
REMARK minimizedAffinity -3.64294863
REMARK minimizedRMSD -1
REMARK  0 active torsions:
REMARK  status: ('A' for Active; 'I' for Inactive)
ROOT
ATOM      1  C   UNL d   1       5.752   0.682   4.006  0.00  0.00     0.077 C 
ATOM      2  C1  UNL d   1       5.832   2.131   3.630  0.00  0.00    -0.074 A 
ATOM      3  C2  UNL d   1       5.880   3.127   4.611  0.00  0.00    -0.005 A 
ATOM      4  C3  UNL d   1       5.963   4.471   4.245  0.00  0.00     0.006 A 
ATOM      5  C4  UNL d   1       5.999   4.832   2.898  0.00  0.00    -0.005 A 
ATOM      6  C5  UNL d   1       5.952   3.850   1.903  0.00  0.00    -0.074 A 
ATOM      7  C6  UNL d   1       5.999   4.220   0.450  0.00  0.00     0.077 C 
ATOM      8  C7  UNL d   1       5.875   2.502   2.278  0.00  0.00    -0.001 A 
ENDROOT
TORSDOF 0
ENDMDL
