MODEL 1
REMARK minimizedAffinity -2.72995615
REMARK minimizedRMSD -1
REMARK  0 active torsions:
REMARK  status: ('A' for Active; 'I' for Inactive)
ROOT
ATOM      1  C   UNL d   1       0.282   1.118  -1.892  0.00  0.00     0.077 C 
ATOM      2  C1  UNL d   1      -0.044   0.137  -0.806  0.00  0.00    -0.074 A 
ATOM      3  C2  UNL d   1       0.260  -1.221  -0.949  0.00  0.00    -0.005 A 
ATOM      4  C3  UNL d   1      -0.040  -2.121   0.074  0.00  0.00     0.006 A 
ATOM      5  C4  UNL d   1      -0.646  -1.673   1.248  0.00  0.00    -0.005 A 
ATOM      6  C5  UNL d   1      -0.955  -0.319   1.410  0.00  0.00    -0.074 A 
ATOM      7  C6  UNL d   1      -1.597   0.181   2.670  0.00  0.00     0.077 C 
ATOM      8  C7  UNL d   1      -0.644   0.580   0.381  0.00  0.00    -0.001 A 
ENDROOT
TORSDOF 0
ENDMDL
