MODEL 1
REMARK minimizedAffinity -2.82038617
REMARK minimizedRMSD -1
REMARK  0 active torsions:
REMARK  status: ('A' for Active; 'I' for Inactive)
ROOT
ATOM      1  C   UNL d   1       1.018  -2.040  -0.854  0.00  0.00     0.077 C 
ATOM      2  C1  UNL d   1       0.268  -0.754  -0.677  0.00  0.00    -0.074 A 
ATOM      3  C2  UNL d   1       0.594   0.378  -1.432  0.00  0.00    -0.005 A 
ATOM      4  C3  UNL d   1      -0.119   1.565  -1.263  0.00  0.00     0.006 A 
ATOM      5  C4  UNL d   1      -1.163   1.632  -0.340  0.00  0.00    -0.005 A 
ATOM      6  C5  UNL d   1      -1.503   0.511   0.424  0.00  0.00    -0.074 A 
ATOM      7  C6  UNL d   1      -2.628   0.564   1.414  0.00  0.00     0.077 C 
ATOM      8  C7  UNL d   1      -0.787  -0.680   0.243  0.00  0.00    -0.001 A 
ENDROOT
TORSDOF 0
ENDMDL
