MODEL 1
REMARK minimizedAffinity -3.34987521
REMARK minimizedRMSD -1
REMARK  0 active torsions:
REMARK  status: ('A' for Active; 'I' for Inactive)
ROOT
ATOM      1  C   UNL d   1       2.157  -2.258  -1.999  0.00  0.00     0.077 C 
ATOM      2  C1  UNL d   1       1.655  -0.860  -2.205  0.00  0.00    -0.074 A 
ATOM      3  C2  UNL d   1       1.776  -0.228  -3.447  0.00  0.00    -0.005 A 
ATOM      4  C3  UNL d   1       1.296   1.069  -3.626  0.00  0.00     0.006 A 
ATOM      5  C4  UNL d   1       0.690   1.746  -2.567  0.00  0.00    -0.005 A 
ATOM      6  C5  UNL d   1       0.559   1.130  -1.318  0.00  0.00    -0.074 A 
ATOM      7  C6  UNL d   1      -0.098   1.840  -0.172  0.00  0.00     0.077 C 
ATOM      8  C7  UNL d   1       1.038  -0.176  -1.148  0.00  0.00    -0.001 A 
ENDROOT
TORSDOF 0
ENDMDL
