MODEL 1
REMARK minimizedAffinity -3.31924248
REMARK minimizedRMSD -1
REMARK  0 active torsions:
REMARK  status: ('A' for Active; 'I' for Inactive)
ROOT
ATOM      1  C   UNL d   1       0.136  -3.422   0.632  0.00  0.00     0.077 C 
ATOM      2  C1  UNL d   1       0.387  -2.215  -0.223  0.00  0.00    -0.074 A 
ATOM      3  C2  UNL d   1       1.528  -2.128  -1.027  0.00  0.00    -0.005 A 
ATOM      4  C3  UNL d   1       1.743  -1.004  -1.824  0.00  0.00     0.006 A 
ATOM      5  C4  UNL d   1       0.821   0.043  -1.826  0.00  0.00    -0.005 A 
ATOM      6  C5  UNL d   1      -0.327  -0.027  -1.030  0.00  0.00    -0.074 A 
ATOM      7  C6  UNL d   1      -1.334   1.085  -1.028  0.00  0.00     0.077 C 
ATOM      8  C7  UNL d   1      -0.540  -1.163  -0.237  0.00  0.00    -0.001 A 
ENDROOT
TORSDOF 0
ENDMDL
