MODEL 1
REMARK minimizedAffinity -1.79875588
REMARK minimizedRMSD -1
REMARK  0 active torsions:
REMARK  status: ('A' for Active; 'I' for Inactive)
ROOT
ATOM      1  C   UNL d   1      -1.095  -0.337   0.535  0.00  0.00     0.077 C 
ATOM      2  C1  UNL d   1      -0.032  -0.592  -0.492  0.00  0.00    -0.074 A 
ATOM      3  C2  UNL d   1       0.817  -1.699  -0.388  0.00  0.00    -0.005 A 
ATOM      4  C3  UNL d   1       1.795  -1.929  -1.356  0.00  0.00     0.006 A 
ATOM      5  C4  UNL d   1       1.934  -1.055  -2.435  0.00  0.00    -0.005 A 
ATOM      6  C5  UNL d   1       1.095   0.057  -2.556  0.00  0.00    -0.074 A 
ATOM      7  C6  UNL d   1       1.225   1.000  -3.714  0.00  0.00     0.077 C 
ATOM      8  C7  UNL d   1       0.110   0.277  -1.583  0.00  0.00    -0.001 A 
ENDROOT
TORSDOF 0
ENDMDL
