MODEL 1
REMARK minimizedAffinity 5.76916695
REMARK minimizedRMSD -1
REMARK  2 active torsions:
REMARK  status: ('A' for Active; 'I' for Inactive)
REMARK    1  A    between atoms: C2'_3  and  C1'_4 
REMARK    2  A    between atoms: C1'_4  and  C1_5 
ROOT
ATOM      1  C1  I4B d   1       4.214   3.709   5.822  0.00  0.00    -0.075 A 
ATOM      2  C2  I4B d   1       4.567   4.986   5.462  0.00  0.00     0.003 A 
ATOM      3  C3  I4B d   1       3.569   5.970   5.257  0.00  0.00     0.002 A 
ATOM      4  C4  I4B d   1       2.239   5.623   5.373  0.00  0.00    -0.004 A 
ATOM      5  C5  I4B d   1       1.884   4.334   5.760  0.00  0.00     0.002 A 
ATOM      6  C6  I4B d   1       2.878   3.374   5.998  0.00  0.00     0.003 A 
ENDROOT
BRANCH   1   7
ATOM      7  C1' I4B d   1       5.291   2.687   5.998  0.00  0.00     0.060 C 
BRANCH   7   8
ATOM      8  C2' I4B d   1       4.883   1.442   5.236  0.00  0.00    -0.013 C 
ATOM      9  C4' I4B d   1       3.770   0.713   5.941  0.00  0.00     0.013 C 
ATOM     10  C3' I4B d   1       4.469   1.859   3.856  0.00  0.00     0.013 C 
ENDBRANCH   7   8
ENDBRANCH   1   7
TORSDOF 2
ENDMDL
