MODEL 1
REMARK minimizedAffinity 8.92250061
REMARK minimizedRMSD -1
REMARK  2 active torsions:
REMARK  status: ('A' for Active; 'I' for Inactive)
REMARK    1  A    between atoms: C2'_3  and  C1'_4 
REMARK    2  A    between atoms: C1'_4  and  C1_5 
ROOT
ATOM      1  C1  I4B d   1       3.157   3.029   5.705  0.00  0.00    -0.075 A 
ATOM      2  C2  I4B d   1       4.104   2.037   5.653  0.00  0.00     0.003 A 
ATOM      3  C3  I4B d   1       3.720   0.679   5.758  0.00  0.00     0.002 A 
ATOM      4  C4  I4B d   1       2.393   0.362   5.964  0.00  0.00    -0.004 A 
ATOM      5  C5  I4B d   1       1.431   1.367   5.994  0.00  0.00     0.002 A 
ATOM      6  C6  I4B d   1       1.814   2.709   5.851  0.00  0.00     0.003 A 
ENDROOT
BRANCH   1   7
ATOM      7  C1' I4B d   1       3.602   4.455   5.624  0.00  0.00     0.060 C 
BRANCH   7   8
ATOM      8  C2' I4B d   1       5.108   4.485   5.787  0.00  0.00    -0.013 C 
ATOM      9  C4' I4B d   1       5.792   3.742   4.670  0.00  0.00     0.013 C 
ATOM     10  C3' I4B d   1       5.541   5.920   5.828  0.00  0.00     0.013 C 
ENDBRANCH   7   8
ENDBRANCH   1   7
TORSDOF 2
ENDMDL
