MODEL 1
REMARK minimizedAffinity 4.91517019
REMARK minimizedRMSD -1
REMARK  2 active torsions:
REMARK  status: ('A' for Active; 'I' for Inactive)
REMARK    1  A    between atoms: C2'_3  and  C1'_4 
REMARK    2  A    between atoms: C1'_4  and  C1_5 
ROOT
ATOM      1  C1  I4B d   1       4.884   3.134   3.601  0.00  0.00    -0.075 A 
ATOM      2  C2  I4B d   1       4.245   2.253   4.438  0.00  0.00     0.003 A 
ATOM      3  C3  I4B d   1       3.664   2.710   5.645  0.00  0.00     0.002 A 
ATOM      4  C4  I4B d   1       3.788   4.038   5.999  0.00  0.00    -0.004 A 
ATOM      5  C5  I4B d   1       4.417   4.934   5.139  0.00  0.00     0.002 A 
ATOM      6  C6  I4B d   1       4.957   4.482   3.927  0.00  0.00     0.003 A 
ENDROOT
BRANCH   1   7
ATOM      7  C1' I4B d   1       5.515   2.611   2.350  0.00  0.00     0.060 C 
BRANCH   7   8
ATOM      8  C2' I4B d   1       4.617   2.977   1.186  0.00  0.00    -0.013 C 
ATOM      9  C4' I4B d   1       5.200   4.110   0.383  0.00  0.00     0.013 C 
ATOM     10  C3' I4B d   1       4.432   1.753   0.340  0.00  0.00     0.013 C 
ENDBRANCH   7   8
ENDBRANCH   1   7
TORSDOF 2
ENDMDL
