MODEL 1
REMARK minimizedAffinity -2.45577502
REMARK minimizedRMSD -1
REMARK  2 active torsions:
REMARK  status: ('A' for Active; 'I' for Inactive)
REMARK    1  A    between atoms: C2'_3  and  C1'_4 
REMARK    2  A    between atoms: C1'_4  and  C1_5 
ROOT
ATOM      1  C1  I4B d   1       4.769   3.465   4.425  0.00  0.00    -0.075 A 
ATOM      2  C2  I4B d   1       3.678   3.357   3.599  0.00  0.00     0.003 A 
ATOM      3  C3  I4B d   1       2.702   2.359   3.836  0.00  0.00     0.002 A 
ATOM      4  C4  I4B d   1       2.880   1.465   4.872  0.00  0.00    -0.004 A 
ATOM      5  C5  I4B d   1       3.975   1.591   5.722  0.00  0.00     0.002 A 
ATOM      6  C6  I4B d   1       4.920   2.605   5.505  0.00  0.00     0.003 A 
ENDROOT
BRANCH   1   7
ATOM      7  C1' I4B d   1       5.798   4.509   4.127  0.00  0.00     0.060 C 
BRANCH   7   8
ATOM      8  C2' I4B d   1       5.219   5.857   4.507  0.00  0.00    -0.013 C 
ATOM      9  C4' I4B d   1       3.802   6.000   4.015  0.00  0.00     0.013 C 
ATOM     10  C3' I4B d   1       5.290   5.988   5.999  0.00  0.00     0.013 C 
ENDBRANCH   7   8
ENDBRANCH   1   7
TORSDOF 2
ENDMDL
