MODEL 1
REMARK minimizedAffinity -1.66397667
REMARK minimizedRMSD -1
REMARK  2 active torsions:
REMARK  status: ('A' for Active; 'I' for Inactive)
REMARK    1  A    between atoms: C2'_3  and  C1'_4 
REMARK    2  A    between atoms: C1'_4  and  C1_5 
ROOT
ATOM      1  C1  I4B d   1       2.311  -1.637  -0.440  0.00  0.00    -0.075 A 
ATOM      2  C2  I4B d   1       2.063  -2.820   0.210  0.00  0.00     0.003 A 
ATOM      3  C3  I4B d   1       0.907  -3.576  -0.102  0.00  0.00     0.002 A 
ATOM      4  C4  I4B d   1       0.007  -3.090  -1.029  0.00  0.00    -0.004 A 
ATOM      5  C5  I4B d   1       0.272  -1.902  -1.703  0.00  0.00     0.002 A 
ATOM      6  C6  I4B d   1       1.438  -1.176  -1.417  0.00  0.00     0.003 A 
ENDROOT
BRANCH   1   7
ATOM      7  C1' I4B d   1       3.525  -0.848  -0.062  0.00  0.00     0.060 C 
BRANCH   7   8
ATOM      8  C2' I4B d   1       3.225   0.617  -0.309  0.00  0.00    -0.013 C 
ATOM      9  C4' I4B d   1       2.990   1.351   0.985  0.00  0.00     0.013 C 
ATOM     10  C3' I4B d   1       4.379   1.205  -1.064  0.00  0.00     0.013 C 
ENDBRANCH   7   8
ENDBRANCH   1   7
TORSDOF 2
ENDMDL
