MODEL 1
REMARK minimizedAffinity -5.47665215
REMARK minimizedRMSD -1
REMARK  2 active torsions:
REMARK  status: ('A' for Active; 'I' for Inactive)
REMARK    1  A    between atoms: C2'_3  and  C1'_4 
REMARK    2  A    between atoms: C1'_4  and  C1_5 
ROOT
ATOM      1  C1  I4B d   1       3.454   3.772   4.935  0.00  0.00    -0.075 A 
ATOM      2  C2  I4B d   1       3.935   5.057   4.904  0.00  0.00     0.003 A 
ATOM      3  C3  I4B d   1       5.238   5.342   5.382  0.00  0.00     0.002 A 
ATOM      4  C4  I4B d   1       6.000   4.327   5.924  0.00  0.00    -0.004 A 
ATOM      5  C5  I4B d   1       5.519   3.021   5.933  0.00  0.00     0.002 A 
ATOM      6  C6  I4B d   1       4.243   2.739   5.424  0.00  0.00     0.003 A 
ENDROOT
BRANCH   1   7
ATOM      7  C1' I4B d   1       2.062   3.512   4.453  0.00  0.00     0.060 C 
BRANCH   7   8
ATOM      8  C2' I4B d   1       1.320   4.833   4.435  0.00  0.00    -0.013 C 
ATOM      9  C4' I4B d   1       0.656   5.067   3.103  0.00  0.00     0.013 C 
ATOM     10  C3' I4B d   1       0.313   4.814   5.546  0.00  0.00     0.013 C 
ENDBRANCH   7   8
ENDBRANCH   1   7
TORSDOF 2
ENDMDL
