MODEL 1
REMARK minimizedAffinity -2.52099347
REMARK minimizedRMSD -1
REMARK  2 active torsions:
REMARK  status: ('A' for Active; 'I' for Inactive)
REMARK    1  A    between atoms: C2'_3  and  C1'_4 
REMARK    2  A    between atoms: C1'_4  and  C1_5 
ROOT
ATOM      1  C1  I4B d   1       3.556   3.946   5.030  0.00  0.00    -0.075 A 
ATOM      2  C2  I4B d   1       3.948   4.216   3.743  0.00  0.00     0.003 A 
ATOM      3  C3  I4B d   1       3.322   5.253   3.010  0.00  0.00     0.002 A 
ATOM      4  C4  I4B d   1       2.280   5.956   3.581  0.00  0.00    -0.004 A 
ATOM      5  C5  I4B d   1       1.900   5.696   4.894  0.00  0.00     0.002 A 
ATOM      6  C6  I4B d   1       2.550   4.694   5.628  0.00  0.00     0.003 A 
ENDROOT
BRANCH   1   7
ATOM      7  C1' I4B d   1       4.217   2.823   5.764  0.00  0.00     0.060 C 
BRANCH   7   8
ATOM      8  C2' I4B d   1       3.305   1.616   5.689  0.00  0.00    -0.013 C 
ATOM      9  C4' I4B d   1       2.658   1.505   4.334  0.00  0.00     0.013 C 
ATOM     10  C3' I4B d   1       4.122   0.397   6.000  0.00  0.00     0.013 C 
ENDBRANCH   7   8
ENDBRANCH   1   7
TORSDOF 2
ENDMDL
