MODEL 1
REMARK minimizedAffinity 8.64169407
REMARK minimizedRMSD -1
REMARK  0 active torsions:
REMARK  status: ('A' for Active; 'I' for Inactive)
ROOT
ATOM      1  O1  BZF d   1       1.538   3.254   1.613  0.00  0.00    -0.204 OA
ATOM      2  C2  BZF d   1       0.528   2.328   1.785  0.00  0.00     0.174 A 
ATOM      3  C3  BZF d   1      -0.542   2.639   1.025  0.00  0.00    -0.012 A 
ATOM      4  C3A BZF d   1      -0.142   3.784   0.264  0.00  0.00    -0.107 A 
ATOM      5  C4  BZF d   1      -0.765   4.547  -0.681  0.00  0.00     0.055 A 
ATOM      6  C5  BZF d   1      -0.124   5.639  -1.176  0.00  0.00    -0.016 A 
ATOM      7  C6  BZF d   1       1.135   5.999  -0.744  0.00  0.00     0.022 A 
ATOM      8  C7  BZF d   1       1.795   5.270   0.189  0.00  0.00     0.029 A 
ATOM      9  C7A BZF d   1       1.164   4.147   0.666  0.00  0.00     0.058 A 
ENDROOT
TORSDOF 0
ENDMDL
