MODEL 1
REMARK minimizedAffinity 5.82727861
REMARK minimizedRMSD -1
REMARK  0 active torsions:
REMARK  status: ('A' for Active; 'I' for Inactive)
ROOT
ATOM      1  O1  BZF d   1       1.086  -5.989  -2.457  0.00  0.00    -0.204 OA
ATOM      2  C2  BZF d   1       0.657  -5.982  -1.144  0.00  0.00     0.174 A 
ATOM      3  C3  BZF d   1       1.616  -5.497  -0.330  0.00  0.00    -0.012 A 
ATOM      4  C3A BZF d   1       2.680  -5.096  -1.198  0.00  0.00    -0.107 A 
ATOM      5  C4  BZF d   1       3.902  -4.526  -0.985  0.00  0.00     0.055 A 
ATOM      6  C5  BZF d   1       4.733  -4.329  -2.042  0.00  0.00    -0.016 A 
ATOM      7  C6  BZF d   1       4.376  -4.694  -3.324  0.00  0.00     0.022 A 
ATOM      8  C7  BZF d   1       3.172  -5.258  -3.586  0.00  0.00     0.029 A 
ATOM      9  C7A BZF d   1       2.317  -5.429  -2.524  0.00  0.00     0.058 A 
ENDROOT
TORSDOF 0
ENDMDL
