MODEL 1
REMARK minimizedAffinity 15.1734858
REMARK minimizedRMSD -1
REMARK  0 active torsions:
REMARK  status: ('A' for Active; 'I' for Inactive)
ROOT
ATOM      1  O1  BZF d   1       1.709   3.750   0.317  0.00  0.00    -0.204 OA
ATOM      2  C2  BZF d   1       0.565   4.221  -0.298  0.00  0.00     0.174 A 
ATOM      3  C3  BZF d   1      -0.536   3.833   0.377  0.00  0.00    -0.012 A 
ATOM      4  C3A BZF d   1      -0.046   3.150   1.535  0.00  0.00    -0.107 A 
ATOM      5  C4  BZF d   1      -0.656   2.548   2.598  0.00  0.00     0.055 A 
ATOM      6  C5  BZF d   1       0.108   1.908   3.522  0.00  0.00    -0.016 A 
ATOM      7  C6  BZF d   1       1.482   1.845   3.411  0.00  0.00     0.022 A 
ATOM      8  C7  BZF d   1       2.132   2.432   2.377  0.00  0.00     0.029 A 
ATOM      9  C7A BZF d   1       1.366   3.108   1.459  0.00  0.00     0.058 A 
ENDROOT
TORSDOF 0
ENDMDL
