MODEL 1
REMARK minimizedAffinity 19.0420132
REMARK minimizedRMSD -1
REMARK  0 active torsions:
REMARK  status: ('A' for Active; 'I' for Inactive)
ROOT
ATOM      1  O1  BZF d   1       5.999  -1.926  -2.077  0.00  0.00    -0.204 OA
ATOM      2  C2  BZF d   1       5.645  -1.984  -0.743  0.00  0.00     0.174 A 
ATOM      3  C3  BZF d   1       4.841  -3.040  -0.506  0.00  0.00    -0.012 A 
ATOM      4  C3A BZF d   1       4.756  -3.735  -1.754  0.00  0.00    -0.107 A 
ATOM      5  C4  BZF d   1       4.115  -4.873  -2.153  0.00  0.00     0.055 A 
ATOM      6  C5  BZF d   1       4.175  -5.241  -3.460  0.00  0.00    -0.016 A 
ATOM      7  C6  BZF d   1       4.862  -4.494  -4.394  0.00  0.00     0.022 A 
ATOM      8  C7  BZF d   1       5.518  -3.360  -4.045  0.00  0.00     0.029 A 
ATOM      9  C7A BZF d   1       5.486  -3.003  -2.719  0.00  0.00     0.058 A 
ENDROOT
TORSDOF 0
ENDMDL
