MODEL 1
REMARK minimizedAffinity 14.2472591
REMARK minimizedRMSD -1
REMARK  0 active torsions:
REMARK  status: ('A' for Active; 'I' for Inactive)
ROOT
ATOM      1  O1  BZF d   1       1.480   4.384   0.896  0.00  0.00    -0.204 OA
ATOM      2  C2  BZF d   1       0.486   4.809   0.035  0.00  0.00     0.174 A 
ATOM      3  C3  BZF d   1      -0.647   4.104   0.227  0.00  0.00    -0.012 A 
ATOM      4  C3A BZF d   1      -0.372   3.244   1.337  0.00  0.00    -0.107 A 
ATOM      5  C4  BZF d   1      -1.112   2.315   2.011  0.00  0.00     0.055 A 
ATOM      6  C5  BZF d   1      -0.524   1.595   3.002  0.00  0.00    -0.016 A 
ATOM      7  C6  BZF d   1       0.801   1.773   3.341  0.00  0.00     0.022 A 
ATOM      8  C7  BZF d   1       1.574   2.686   2.704  0.00  0.00     0.029 A 
ATOM      9  C7A BZF d   1       0.974   3.439   1.724  0.00  0.00     0.058 A 
ENDROOT
TORSDOF 0
ENDMDL
