MODEL 1
REMARK minimizedAffinity 13.9618902
REMARK minimizedRMSD -1
REMARK  0 active torsions:
REMARK  status: ('A' for Active; 'I' for Inactive)
ROOT
ATOM      1  O1  BZF d   1       0.924   2.495   0.187  0.00  0.00    -0.204 OA
ATOM      2  C2  BZF d   1       0.579   2.062   1.453  0.00  0.00     0.174 A 
ATOM      3  C3  BZF d   1      -0.188   2.978   2.079  0.00  0.00    -0.012 A 
ATOM      4  C3A BZF d   1      -0.407   4.010   1.113  0.00  0.00    -0.107 A 
ATOM      5  C4  BZF d   1      -1.105   5.183   1.134  0.00  0.00     0.055 A 
ATOM      6  C5  BZF d   1      -1.058   5.999   0.049  0.00  0.00    -0.016 A 
ATOM      7  C6  BZF d   1      -0.320   5.677  -1.071  0.00  0.00     0.022 A 
ATOM      8  C7  BZF d   1       0.385   4.522  -1.141  0.00  0.00     0.029 A 
ATOM      9  C7A BZF d   1       0.313   3.679  -0.058  0.00  0.00     0.058 A 
ENDROOT
TORSDOF 0
ENDMDL
