MODEL 1
REMARK minimizedAffinity 8.07150841
REMARK minimizedRMSD -1
REMARK  0 active torsions:
REMARK  status: ('A' for Active; 'I' for Inactive)
ROOT
ATOM      1  O1  BZF d   1       2.220  -1.110  -0.871  0.00  0.00    -0.204 OA
ATOM      2  C2  BZF d   1       2.179  -0.878   0.490  0.00  0.00     0.174 A 
ATOM      3  C3  BZF d   1       3.340  -1.242   1.072  0.00  0.00    -0.012 A 
ATOM      4  C3A BZF d   1       4.191  -1.645  -0.005  0.00  0.00    -0.107 A 
ATOM      5  C4  BZF d   1       5.479  -2.097  -0.066  0.00  0.00     0.055 A 
ATOM      6  C5  BZF d   1       5.990  -2.474  -1.267  0.00  0.00    -0.016 A 
ATOM      7  C6  BZF d   1       5.242  -2.418  -2.425  0.00  0.00     0.022 A 
ATOM      8  C7  BZF d   1       3.962  -1.972  -2.415  0.00  0.00     0.029 A 
ATOM      9  C7A BZF d   1       3.453  -1.559  -1.208  0.00  0.00     0.058 A 
ENDROOT
TORSDOF 0
ENDMDL
