MODEL 1
REMARK minimizedAffinity 6.1627202
REMARK minimizedRMSD -1
REMARK  0 active torsions:
REMARK  status: ('A' for Active; 'I' for Inactive)
ROOT
ATOM      1  O1  BZF d   1       0.338   1.067   4.167  0.00  0.00    -0.204 OA
ATOM      2  C2  BZF d   1       1.496   0.321   4.066  0.00  0.00     0.174 A 
ATOM      3  C3  BZF d   1       2.059   0.475   2.851  0.00  0.00    -0.012 A 
ATOM      4  C3A BZF d   1       1.249   1.445   2.180  0.00  0.00    -0.107 A 
ATOM      5  C4  BZF d   1       1.309   2.026   0.946  0.00  0.00     0.055 A 
ATOM      6  C5  BZF d   1       0.322   2.882   0.570  0.00  0.00    -0.016 A 
ATOM      7  C6  BZF d   1      -0.740   3.174   1.401  0.00  0.00     0.022 A 
ATOM      8  C7  BZF d   1      -0.840   2.626   2.636  0.00  0.00     0.029 A 
ATOM      9  C7A BZF d   1       0.173   1.787   3.031  0.00  0.00     0.058 A 
ENDROOT
TORSDOF 0
ENDMDL
