MODEL 1
REMARK minimizedAffinity -2.0393908
REMARK minimizedRMSD -1
REMARK  0 active torsions:
REMARK  status: ('A' for Active; 'I' for Inactive)
ROOT
ATOM      1  C4' PXY d   1       3.280   4.981  -0.996  0.00  0.00     0.077 C 
ATOM      2  C1' PXY d   1       5.999   5.999  -5.994  0.00  0.00     0.077 C 
ATOM      3  C1  PXY d   1       5.275   5.738  -4.688  0.00  0.00    -0.082 A 
ATOM      4  C2  PXY d   1       5.974   5.528  -3.584  0.00  0.00     0.003 A 
ATOM      5  C3  PXY d   1       5.336   5.259  -2.400  0.00  0.00     0.003 A 
ATOM      6  C4  PXY d   1       3.968   5.258  -2.335  0.00  0.00    -0.082 A 
ATOM      7  C5  PXY d   1       3.248   5.482  -3.455  0.00  0.00     0.003 A 
ATOM      8  C6  PXY d   1       3.915   5.713  -4.655  0.00  0.00     0.003 A 
ENDROOT
TORSDOF 0
ENDMDL
