MODEL 1
REMARK minimizedAffinity -5.09600735
REMARK minimizedRMSD -1
REMARK  0 active torsions:
REMARK  status: ('A' for Active; 'I' for Inactive)
ROOT
ATOM      1  C4' PXY d   1       5.637   5.958  -1.473  0.00  0.00     0.077 C 
ATOM      2  C1' PXY d   1       3.781   2.879  -6.000  0.00  0.00     0.077 C 
ATOM      3  C1  PXY d   1       4.257   3.694  -4.813  0.00  0.00    -0.082 A 
ATOM      4  C2  PXY d   1       5.552   3.789  -4.562  0.00  0.00     0.003 A 
ATOM      5  C3  PXY d   1       5.998   4.495  -3.475  0.00  0.00     0.003 A 
ATOM      6  C4  PXY d   1       5.112   5.154  -2.666  0.00  0.00    -0.082 A 
ATOM      7  C5  PXY d   1       3.789   5.071  -2.922  0.00  0.00     0.003 A 
ATOM      8  C6  PXY d   1       3.354   4.315  -4.007  0.00  0.00     0.003 A 
ENDROOT
TORSDOF 0
ENDMDL
