MODEL 1
REMARK minimizedAffinity 6.31522179
REMARK minimizedRMSD -1
REMARK  0 active torsions:
REMARK  status: ('A' for Active; 'I' for Inactive)
ROOT
ATOM      1  C4' PXY d   1       6.000  -2.279  -1.497  0.00  0.00     0.077 C 
ATOM      2  C1' PXY d   1       2.051  -3.023  -5.653  0.00  0.00     0.077 C 
ATOM      3  C1  PXY d   1       3.096  -2.830  -4.572  0.00  0.00    -0.082 A 
ATOM      4  C2  PXY d   1       2.775  -3.044  -3.306  0.00  0.00     0.003 A 
ATOM      5  C3  PXY d   1       3.699  -2.843  -2.313  0.00  0.00     0.003 A 
ATOM      6  C4  PXY d   1       4.979  -2.471  -2.623  0.00  0.00    -0.082 A 
ATOM      7  C5  PXY d   1       5.317  -2.261  -3.913  0.00  0.00     0.003 A 
ATOM      8  C6  PXY d   1       4.354  -2.430  -4.903  0.00  0.00     0.003 A 
ENDROOT
TORSDOF 0
ENDMDL
