MODEL 1
REMARK minimizedAffinity 5.41559982
REMARK minimizedRMSD -1
REMARK  0 active torsions:
REMARK  status: ('A' for Active; 'I' for Inactive)
ROOT
ATOM      1  C4' PXY d   1       0.370  -1.852  -3.654  0.00  0.00     0.077 C 
ATOM      2  C1' PXY d   1      -2.416  -2.925   1.296  0.00  0.00     0.077 C 
ATOM      3  C1  PXY d   1      -1.692  -2.653  -0.008  0.00  0.00    -0.082 A 
ATOM      4  C2  PXY d   1      -0.499  -2.081   0.013  0.00  0.00     0.003 A 
ATOM      5  C3  PXY d   1       0.155  -1.799  -1.158  0.00  0.00     0.003 A 
ATOM      6  C4  PXY d   1      -0.393  -2.154  -2.362  0.00  0.00    -0.082 A 
ATOM      7  C5  PXY d   1      -1.605  -2.748  -2.391  0.00  0.00     0.003 A 
ATOM      8  C6  PXY d   1      -2.271  -2.989  -1.193  0.00  0.00     0.003 A 
ENDROOT
TORSDOF 0
ENDMDL
