MODEL 1
REMARK minimizedAffinity 0.852218628
REMARK minimizedRMSD -1
REMARK  0 active torsions:
REMARK  status: ('A' for Active; 'I' for Inactive)
ROOT
ATOM      1  C4' PXY d   1      -1.045  -5.999  -2.689  0.00  0.00     0.077 C 
ATOM      2  C1' PXY d   1       0.353  -0.510  -1.533  0.00  0.00     0.077 C 
ATOM      3  C1  PXY d   1      -0.010  -1.953  -1.825  0.00  0.00    -0.082 A 
ATOM      4  C2  PXY d   1      -0.070  -2.372  -3.078  0.00  0.00     0.003 A 
ATOM      5  C3  PXY d   1      -0.428  -3.665  -3.361  0.00  0.00     0.003 A 
ATOM      6  C4  PXY d   1      -0.674  -4.553  -2.348  0.00  0.00    -0.082 A 
ATOM      7  C5  PXY d   1      -0.604  -4.136  -1.066  0.00  0.00     0.003 A 
ATOM      8  C6  PXY d   1      -0.279  -2.809  -0.801  0.00  0.00     0.003 A 
ENDROOT
TORSDOF 0
ENDMDL
