MODEL 1
REMARK minimizedAffinity 9.26286697
REMARK minimizedRMSD -1
REMARK  0 active torsions:
REMARK  status: ('A' for Active; 'I' for Inactive)
ROOT
ATOM      1  C4' PXY d   1       1.104  -4.379  -5.999  0.00  0.00     0.077 C 
ATOM      2  C1' PXY d   1      -0.620  -1.856  -1.092  0.00  0.00     0.077 C 
ATOM      3  C1  PXY d   1      -0.179  -2.523  -2.380  0.00  0.00    -0.082 A 
ATOM      4  C2  PXY d   1       1.110  -2.701  -2.617  0.00  0.00     0.003 A 
ATOM      5  C3  PXY d   1       1.527  -3.274  -3.791  0.00  0.00     0.003 A 
ATOM      6  C4  PXY d   1       0.613  -3.718  -4.708  0.00  0.00    -0.082 A 
ATOM      7  C5  PXY d   1      -0.705  -3.551  -4.469  0.00  0.00     0.003 A 
ATOM      8  C6  PXY d   1      -1.106  -2.929  -3.290  0.00  0.00     0.003 A 
ENDROOT
TORSDOF 0
ENDMDL
