MODEL 1
REMARK minimizedAffinity -1.59029734
REMARK minimizedRMSD -1
REMARK  0 active torsions:
REMARK  status: ('A' for Active; 'I' for Inactive)
ROOT
ATOM      1  C4' PXY d   1       3.861   3.080  -5.978  0.00  0.00     0.077 C 
ATOM      2  C1' PXY d   1       5.606   6.000  -1.304  0.00  0.00     0.077 C 
ATOM      3  C1  PXY d   1       5.139   5.229  -2.523  0.00  0.00    -0.082 A 
ATOM      4  C2  PXY d   1       6.000   4.943  -3.486  0.00  0.00     0.003 A 
ATOM      5  C3  PXY d   1       5.587   4.275  -4.610  0.00  0.00     0.003 A 
ATOM      6  C4  PXY d   1       4.291   3.848  -4.725  0.00  0.00    -0.082 A 
ATOM      7  C5  PXY d   1       3.409   4.127  -3.742  0.00  0.00     0.003 A 
ATOM      8  C6  PXY d   1       3.838   4.842  -2.628  0.00  0.00     0.003 A 
ENDROOT
TORSDOF 0
ENDMDL
