MODEL 1
REMARK minimizedAffinity 8.98958683
REMARK minimizedRMSD -1
REMARK  0 active torsions:
REMARK  status: ('A' for Active; 'I' for Inactive)
ROOT
ATOM      1  C4' PXY d   1       1.571  -4.173  -5.242  0.00  0.00     0.077 C 
ATOM      2  C1' PXY d   1      -1.153  -1.578  -0.853  0.00  0.00     0.077 C 
ATOM      3  C1  PXY d   1      -0.450  -2.264  -2.008  0.00  0.00    -0.082 A 
ATOM      4  C2  PXY d   1       0.854  -2.484  -1.942  0.00  0.00     0.003 A 
ATOM      5  C3  PXY d   1       1.511  -3.074  -2.991  0.00  0.00     0.003 A 
ATOM      6  C4  PXY d   1       0.818  -3.492  -4.096  0.00  0.00    -0.082 A 
ATOM      7  C5  PXY d   1      -0.513  -3.281  -4.165  0.00  0.00     0.003 A 
ATOM      8  C6  PXY d   1      -1.155  -2.643  -3.108  0.00  0.00     0.003 A 
ENDROOT
TORSDOF 0
ENDMDL
