MODEL 1
REMARK minimizedAffinity 10.6159506
REMARK minimizedRMSD -1
REMARK  0 active torsions:
REMARK  status: ('A' for Active; 'I' for Inactive)
ROOT
ATOM      1  C4' PXY d   1       6.000   2.406  -3.232  0.00  0.00     0.077 C 
ATOM      2  C1' PXY d   1       1.295   5.753  -2.955  0.00  0.00     0.077 C 
ATOM      3  C1  PXY d   1       2.536   4.886  -3.026  0.00  0.00    -0.082 A 
ATOM      4  C2  PXY d   1       2.494   3.734  -3.676  0.00  0.00     0.003 A 
ATOM      5  C3  PXY d   1       3.598   2.923  -3.723  0.00  0.00     0.003 A 
ATOM      6  C4  PXY d   1       4.773   3.319  -3.143  0.00  0.00    -0.082 A 
ATOM      7  C5  PXY d   1       4.828   4.497  -2.486  0.00  0.00     0.003 A 
ATOM      8  C6  PXY d   1       3.684   5.287  -2.416  0.00  0.00     0.003 A 
ENDROOT
TORSDOF 0
ENDMDL
