MODEL 1
REMARK minimizedAffinity -0.481457651
REMARK minimizedRMSD -1
REMARK  0 active torsions:
REMARK  status: ('A' for Active; 'I' for Inactive)
ROOT
ATOM      1  C4' PXY d   1       6.000  -3.928  -0.450  0.00  0.00     0.077 C 
ATOM      2  C1' PXY d   1       3.443  -2.334  -5.382  0.00  0.00     0.077 C 
ATOM      3  C1  PXY d   1       4.116  -2.763  -4.094  0.00  0.00    -0.082 A 
ATOM      4  C2  PXY d   1       3.754  -2.207  -2.949  0.00  0.00     0.003 A 
ATOM      5  C3  PXY d   1       4.375  -2.561  -1.779  0.00  0.00     0.003 A 
ATOM      6  C4  PXY d   1       5.340  -3.532  -1.773  0.00  0.00    -0.082 A 
ATOM      7  C5  PXY d   1       5.708  -4.112  -2.936  0.00  0.00     0.003 A 
ATOM      8  C6  PXY d   1       5.094  -3.710  -4.118  0.00  0.00     0.003 A 
ENDROOT
TORSDOF 0
ENDMDL
