MODEL 1
REMARK minimizedAffinity 8.35493374
REMARK minimizedRMSD -1
REMARK  0 active torsions:
REMARK  status: ('A' for Active; 'I' for Inactive)
ROOT
ATOM      1  C4' PXY d   1       6.000  -2.561  -0.740  0.00  0.00     0.077 C 
ATOM      2  C1' PXY d   1       3.218  -2.486  -5.807  0.00  0.00     0.077 C 
ATOM      3  C1  PXY d   1       3.958  -2.511  -4.484  0.00  0.00    -0.082 A 
ATOM      4  C2  PXY d   1       3.274  -2.512  -3.352  0.00  0.00     0.003 A 
ATOM      5  C3  PXY d   1       3.927  -2.502  -2.147  0.00  0.00     0.003 A 
ATOM      6  C4  PXY d   1       5.295  -2.545  -2.099  0.00  0.00    -0.082 A 
ATOM      7  C5  PXY d   1       6.000  -2.555  -3.250  0.00  0.00     0.003 A 
ATOM      8  C6  PXY d   1       5.319  -2.523  -4.464  0.00  0.00     0.003 A 
ENDROOT
TORSDOF 0
ENDMDL
