MODEL 1
REMARK minimizedAffinity 1.11011291
REMARK minimizedRMSD -1
REMARK  0 active torsions:
REMARK  status: ('A' for Active; 'I' for Inactive)
ROOT
ATOM      1  C4' PXY d   1       3.385  -3.003  -5.256  0.00  0.00     0.077 C 
ATOM      2  C1' PXY d   1       5.999  -3.142  -0.102  0.00  0.00     0.077 C 
ATOM      3  C1  PXY d   1       5.324  -3.111  -1.459  0.00  0.00    -0.082 A 
ATOM      4  C2  PXY d   1       4.397  -2.200  -1.708  0.00  0.00     0.003 A 
ATOM      5  C3  PXY d   1       3.754  -2.178  -2.919  0.00  0.00     0.003 A 
ATOM      6  C4  PXY d   1       4.100  -3.065  -3.903  0.00  0.00    -0.082 A 
ATOM      7  C5  PXY d   1       5.052  -3.991  -3.660  0.00  0.00     0.003 A 
ATOM      8  C6  PXY d   1       5.664  -4.022  -2.410  0.00  0.00     0.003 A 
ENDROOT
TORSDOF 0
ENDMDL
