MODEL 1
REMARK minimizedAffinity 5.0368185
REMARK minimizedRMSD -1
REMARK  0 active torsions:
REMARK  status: ('A' for Active; 'I' for Inactive)
ROOT
ATOM      1  C4' PXY d   1       5.998   5.997  -0.284  0.00  0.00     0.077 C 
ATOM      2  C1' PXY d   1       2.242   4.200  -4.294  0.00  0.00     0.077 C 
ATOM      3  C1  PXY d   1       3.236   4.672  -3.251  0.00  0.00    -0.082 A 
ATOM      4  C2  PXY d   1       3.052   4.355  -1.980  0.00  0.00     0.003 A 
ATOM      5  C3  PXY d   1       3.924   4.800  -1.021  0.00  0.00     0.003 A 
ATOM      6  C4  PXY d   1       5.025   5.534  -1.372  0.00  0.00    -0.082 A 
ATOM      7  C5  PXY d   1       5.226   5.853  -2.668  0.00  0.00     0.003 A 
ATOM      8  C6  PXY d   1       4.307   5.426  -3.622  0.00  0.00     0.003 A 
ENDROOT
TORSDOF 0
ENDMDL
