MODEL 1
REMARK minimizedAffinity 9.03509331
REMARK minimizedRMSD -1
REMARK  0 active torsions:
REMARK  status: ('A' for Active; 'I' for Inactive)
ROOT
ATOM      1  C4' PXY d   1       0.851   4.200   0.011  0.00  0.00     0.077 C 
ATOM      2  C1' PXY d   1       5.968   5.255  -2.464  0.00  0.00     0.077 C 
ATOM      3  C1  PXY d   1       4.620   4.983  -1.825  0.00  0.00    -0.082 A 
ATOM      4  C2  PXY d   1       4.520   4.924  -0.507  0.00  0.00     0.003 A 
ATOM      5  C3  PXY d   1       3.315   4.647   0.085  0.00  0.00     0.003 A 
ATOM      6  C4  PXY d   1       2.190   4.482  -0.677  0.00  0.00    -0.082 A 
ATOM      7  C5  PXY d   1       2.281   4.551  -2.022  0.00  0.00     0.003 A 
ATOM      8  C6  PXY d   1       3.522   4.792  -2.606  0.00  0.00     0.003 A 
ENDROOT
TORSDOF 0
ENDMDL
