MODEL 1
REMARK minimizedAffinity 9.22870827
REMARK minimizedRMSD -1
REMARK  0 active torsions:
REMARK  status: ('A' for Active; 'I' for Inactive)
ROOT
ATOM      1  C4' PXY d   1       5.911   6.000  -1.330  0.00  0.00     0.077 C 
ATOM      2  C1' PXY d   1       5.999   1.815  -5.317  0.00  0.00     0.077 C 
ATOM      3  C1  PXY d   1       5.970   2.904  -4.263  0.00  0.00    -0.082 A 
ATOM      4  C2  PXY d   1       5.981   4.174  -4.634  0.00  0.00     0.003 A 
ATOM      5  C3  PXY d   1       5.987   5.172  -3.693  0.00  0.00     0.003 A 
ATOM      6  C4  PXY d   1       5.929   4.867  -2.360  0.00  0.00    -0.082 A 
ATOM      7  C5  PXY d   1       5.907   3.574  -1.974  0.00  0.00     0.003 A 
ATOM      8  C6  PXY d   1       5.943   2.576  -2.943  0.00  0.00     0.003 A 
ENDROOT
TORSDOF 0
ENDMDL
