MODEL 1
REMARK minimizedAffinity 2.17907715
REMARK minimizedRMSD -1
REMARK  0 active torsions:
REMARK  status: ('A' for Active; 'I' for Inactive)
ROOT
ATOM      1  C4' PXY d   1       5.024   5.999  -0.867  0.00  0.00     0.077 C 
ATOM      2  C1' PXY d   1       4.659   2.255  -5.255  0.00  0.00     0.077 C 
ATOM      3  C1  PXY d   1       4.742   3.239  -4.105  0.00  0.00    -0.082 A 
ATOM      4  C2  PXY d   1       5.900   3.808  -3.814  0.00  0.00     0.003 A 
ATOM      5  C3  PXY d   1       6.000   4.677  -2.758  0.00  0.00     0.003 A 
ATOM      6  C4  PXY d   1       4.891   5.006  -2.025  0.00  0.00    -0.082 A 
ATOM      7  C5  PXY d   1       3.704   4.438  -2.322  0.00  0.00     0.003 A 
ATOM      8  C6  PXY d   1       3.632   3.527  -3.373  0.00  0.00     0.003 A 
ENDROOT
TORSDOF 0
ENDMDL
