MODEL 1
REMARK minimizedAffinity 14.5653763
REMARK minimizedRMSD -1
REMARK  0 active torsions:
REMARK  status: ('A' for Active; 'I' for Inactive)
ROOT
ATOM      1  C4' PXY d   1       2.849  -1.164   2.220  0.00  0.00     0.077 C 
ATOM      2  C1' PXY d   1       5.695  -4.493   5.992  0.00  0.00     0.077 C 
ATOM      3  C1  PXY d   1       4.940  -3.616   5.012  0.00  0.00    -0.082 A 
ATOM      4  C2  PXY d   1       5.025  -3.862   3.715  0.00  0.00     0.003 A 
ATOM      5  C3  PXY d   1       4.375  -3.060   2.813  0.00  0.00     0.003 A 
ATOM      6  C4  PXY d   1       3.586  -2.028   3.246  0.00  0.00    -0.082 A 
ATOM      7  C5  PXY d   1       3.486  -1.778   4.569  0.00  0.00     0.003 A 
ATOM      8  C6  PXY d   1       4.187  -2.578   5.466  0.00  0.00     0.003 A 
ENDROOT
TORSDOF 0
ENDMDL
