MODEL 1
REMARK minimizedAffinity 5.7848506
REMARK minimizedRMSD -1
REMARK  0 active torsions:
REMARK  status: ('A' for Active; 'I' for Inactive)
ROOT
ATOM      1  C4' PXY d   1       3.233  -2.627  -3.720  0.00  0.00     0.077 C 
ATOM      2  C1' PXY d   1       6.000   2.286  -4.996  0.00  0.00     0.077 C 
ATOM      3  C1  PXY d   1       5.285   0.991  -4.662  0.00  0.00    -0.082 A 
ATOM      4  C2  PXY d   1       3.988   0.881  -4.896  0.00  0.00     0.003 A 
ATOM      5  C3  PXY d   1       3.320  -0.271  -4.570  0.00  0.00     0.003 A 
ATOM      6  C4  PXY d   1       3.997  -1.341  -4.050  0.00  0.00    -0.082 A 
ATOM      7  C5  PXY d   1       5.323  -1.241  -3.819  0.00  0.00     0.003 A 
ATOM      8  C6  PXY d   1       5.975  -0.048  -4.118  0.00  0.00     0.003 A 
ENDROOT
TORSDOF 0
ENDMDL
