MODEL 1
REMARK minimizedAffinity 10.9915333
REMARK minimizedRMSD -1
REMARK  0 active torsions:
REMARK  status: ('A' for Active; 'I' for Inactive)
ROOT
ATOM      1  C4' PXY d   1      -0.555  -2.291   3.264  0.00  0.00     0.077 C 
ATOM      2  C1' PXY d   1      -3.921   1.530   6.000  0.00  0.00     0.077 C 
ATOM      3  C1  PXY d   1      -3.033   0.524   5.294  0.00  0.00    -0.082 A 
ATOM      4  C2  PXY d   1      -2.775   0.672   4.005  0.00  0.00     0.003 A 
ATOM      5  C3  PXY d   1      -1.999  -0.246   3.343  0.00  0.00     0.003 A 
ATOM      6  C4  PXY d   1      -1.439  -1.296   4.020  0.00  0.00    -0.082 A 
ATOM      7  C5  PXY d   1      -1.688  -1.447   5.338  0.00  0.00     0.003 A 
ATOM      8  C6  PXY d   1      -2.512  -0.527   5.982  0.00  0.00     0.003 A 
ENDROOT
TORSDOF 0
ENDMDL
