MODEL 1
REMARK minimizedAffinity 6.40192413
REMARK minimizedRMSD -1
REMARK  0 active torsions:
REMARK  status: ('A' for Active; 'I' for Inactive)
ROOT
ATOM      1  C4' PXY d   1      -5.065  -3.625   1.743  0.00  0.00     0.077 C 
ATOM      2  C1' PXY d   1      -0.515  -1.526  -1.138  0.00  0.00     0.077 C 
ATOM      3  C1  PXY d   1      -1.700  -2.085  -0.377  0.00  0.00    -0.082 A 
ATOM      4  C2  PXY d   1      -2.925  -1.893  -0.840  0.00  0.00     0.003 A 
ATOM      5  C3  PXY d   1      -4.010  -2.364  -0.148  0.00  0.00     0.003 A 
ATOM      6  C4  PXY d   1      -3.838  -3.086   1.003  0.00  0.00    -0.082 A 
ATOM      7  C5  PXY d   1      -2.591  -3.296   1.476  0.00  0.00     0.003 A 
ATOM      8  C6  PXY d   1      -1.505  -2.774   0.780  0.00  0.00     0.003 A 
ENDROOT
TORSDOF 0
ENDMDL
