MODEL 1
REMARK minimizedAffinity 0.840985954
REMARK minimizedRMSD -1
REMARK  0 active torsions:
REMARK  status: ('A' for Active; 'I' for Inactive)
ROOT
ATOM      1  C   UNL d   1       2.145   1.432  -2.074  0.00  0.00     0.023 A 
ATOM      2  C1  UNL d   1       2.396   1.929  -0.796  0.00  0.00     0.003 A 
ATOM      3  C2  UNL d   1       2.381   1.069   0.305  0.00  0.00     0.048 A 
ATOM      4  C3  UNL d   1       2.115  -0.287   0.119  0.00  0.00     0.023 A 
ATOM      5  C4  UNL d   1       1.864  -0.789  -1.159  0.00  0.00     0.048 A 
ATOM      6  C5  UNL d   1       1.879   0.075  -2.256  0.00  0.00     0.003 A 
ATOM      7  I   UNL d   1       2.092  -1.568   1.755  0.00  0.00    -0.146 I 
ENDROOT
TORSDOF 0
ENDMDL
