MODEL 1
REMARK minimizedAffinity 5.85140657
REMARK minimizedRMSD -1
REMARK  0 active torsions:
REMARK  status: ('A' for Active; 'I' for Inactive)
ROOT
ATOM      1  C   UNL d   1      -5.539   6.000  -5.340  0.00  0.00     0.023 A 
ATOM      2  C1  UNL d   1      -5.924   4.803  -5.944  0.00  0.00     0.003 A 
ATOM      3  C2  UNL d   1      -5.314   3.604  -5.571  0.00  0.00     0.048 A 
ATOM      4  C3  UNL d   1      -4.321   3.608  -4.593  0.00  0.00     0.023 A 
ATOM      5  C4  UNL d   1      -3.933   4.803  -3.984  0.00  0.00     0.048 A 
ATOM      6  C5  UNL d   1      -4.545   6.000  -4.361  0.00  0.00     0.003 A 
ATOM      7  I   UNL d   1      -3.412   1.823  -4.036  0.00  0.00    -0.146 I 
ENDROOT
TORSDOF 0
ENDMDL
