MODEL 1
REMARK minimizedAffinity 3.66725254
REMARK minimizedRMSD -1
REMARK  0 active torsions:
REMARK  status: ('A' for Active; 'I' for Inactive)
ROOT
ATOM      1  C   UNL d   1       0.387  -1.219   3.052  0.00  0.00     0.023 A 
ATOM      2  C1  UNL d   1       1.542  -1.953   3.322  0.00  0.00     0.003 A 
ATOM      3  C2  UNL d   1       2.454  -2.222   2.299  0.00  0.00     0.048 A 
ATOM      4  C3  UNL d   1       2.206  -1.753   1.010  0.00  0.00     0.023 A 
ATOM      5  C4  UNL d   1       1.051  -1.018   0.736  0.00  0.00     0.048 A 
ATOM      6  C5  UNL d   1       0.142  -0.752   1.761  0.00  0.00     0.003 A 
ATOM      7  I   UNL d   1       3.562  -2.153  -0.514  0.00  0.00    -0.146 I 
ENDROOT
TORSDOF 0
ENDMDL
