MODEL 1
REMARK minimizedAffinity 10.429143
REMARK minimizedRMSD -1
REMARK  0 active torsions:
REMARK  status: ('A' for Active; 'I' for Inactive)
ROOT
ATOM      1  C   UNL d   1      -2.739   0.543   3.964  0.00  0.00     0.023 A 
ATOM      2  C1  UNL d   1      -3.269   1.833   3.959  0.00  0.00     0.003 A 
ATOM      3  C2  UNL d   1      -2.417   2.939   3.942  0.00  0.00     0.048 A 
ATOM      4  C3  UNL d   1      -1.036   2.748   3.929  0.00  0.00     0.023 A 
ATOM      5  C4  UNL d   1      -0.501   1.459   3.933  0.00  0.00     0.048 A 
ATOM      6  C5  UNL d   1      -1.357   0.356   3.951  0.00  0.00     0.003 A 
ATOM      7  I   UNL d   1       0.235   4.393   3.903  0.00  0.00    -0.146 I 
ENDROOT
TORSDOF 0
ENDMDL
