MODEL 1
REMARK minimizedAffinity 1.92542171
REMARK minimizedRMSD -1
REMARK  0 active torsions:
REMARK  status: ('A' for Active; 'I' for Inactive)
ROOT
ATOM      1  C   UNL d   1      -1.059  -0.017   2.370  0.00  0.00     0.023 A 
ATOM      2  C1  UNL d   1      -0.014  -0.246   3.266  0.00  0.00     0.003 A 
ATOM      3  C2  UNL d   1       1.139  -0.908   2.840  0.00  0.00     0.048 A 
ATOM      4  C3  UNL d   1       1.242  -1.338   1.517  0.00  0.00     0.023 A 
ATOM      5  C4  UNL d   1       0.199  -1.110   0.618  0.00  0.00     0.048 A 
ATOM      6  C5  UNL d   1      -0.952  -0.448   1.048  0.00  0.00     0.003 A 
ATOM      7  I   UNL d   1       2.958  -2.323   0.882  0.00  0.00    -0.146 I 
ENDROOT
TORSDOF 0
ENDMDL
