MODEL 1
REMARK minimizedAffinity 2.18814421
REMARK minimizedRMSD -1
REMARK  0 active torsions:
REMARK  status: ('A' for Active; 'I' for Inactive)
ROOT
ATOM      1  C   UNL d   1       3.482  -2.580   0.054  0.00  0.00     0.023 A 
ATOM      2  C1  UNL d   1       2.657  -1.580  -0.461  0.00  0.00     0.003 A 
ATOM      3  C2  UNL d   1       1.664  -1.011   0.338  0.00  0.00     0.048 A 
ATOM      4  C3  UNL d   1       1.501  -1.447   1.653  0.00  0.00     0.023 A 
ATOM      5  C4  UNL d   1       2.324  -2.448   2.173  0.00  0.00     0.048 A 
ATOM      6  C5  UNL d   1       3.315  -3.014   1.369  0.00  0.00     0.003 A 
ATOM      7  I   UNL d   1       0.023  -0.603   2.846  0.00  0.00    -0.146 I 
ENDROOT
TORSDOF 0
ENDMDL
