MODEL 1
REMARK minimizedAffinity 10.1445694
REMARK minimizedRMSD -1
REMARK  0 active torsions:
REMARK  status: ('A' for Active; 'I' for Inactive)
ROOT
ATOM      1  C   UNL d   1       1.536  -1.916   1.664  0.00  0.00     0.023 A 
ATOM      2  C1  UNL d   1       0.867  -1.205   0.668  0.00  0.00     0.003 A 
ATOM      3  C2  UNL d   1      -0.225  -0.401   0.997  0.00  0.00     0.048 A 
ATOM      4  C3  UNL d   1      -0.644  -0.311   2.324  0.00  0.00     0.023 A 
ATOM      5  C4  UNL d   1       0.023  -1.020   3.324  0.00  0.00     0.048 A 
ATOM      6  C5  UNL d   1       1.115  -1.824   2.991  0.00  0.00     0.003 A 
ATOM      7  I   UNL d   1      -2.270   0.886   2.816  0.00  0.00    -0.146 I 
ENDROOT
TORSDOF 0
ENDMDL
