MODEL 1
REMARK minimizedAffinity 4.22661638
REMARK minimizedRMSD -1
REMARK  3 active torsions:
REMARK  status: ('A' for Active; 'I' for Inactive)
REMARK    1  A    between atoms: C3'_2  and  C2'_3 
REMARK    2  A    between atoms: C2'_3  and  C1'_4 
REMARK    3  A    between atoms: C1'_4  and  C1_5 
ROOT
ATOM      1  C1  N4B d   1      -0.232  -1.840   0.067  0.00  0.00    -0.075 A 
ATOM      2  C2  N4B d   1      -0.934  -2.905   0.674  0.00  0.00     0.002 A 
ATOM      3  C3  N4B d   1      -2.187  -2.693   1.194  0.00  0.00     0.002 A 
ATOM      4  C4  N4B d   1      -2.749  -1.426   1.135  0.00  0.00    -0.004 A 
ATOM      5  C5  N4B d   1      -2.075  -0.409   0.524  0.00  0.00     0.002 A 
ATOM      6  C6  N4B d   1      -0.816  -0.609  -0.006  0.00  0.00     0.002 A 
ENDROOT
BRANCH   1   7
ATOM      7  C1' N4B d   1       1.175  -2.003  -0.439  0.00  0.00     0.057 C 
BRANCH   7   8
ATOM      8  C2' N4B d   1       1.300  -3.348  -1.149  0.00  0.00     0.009 C 
BRANCH   8   9
ATOM      9  C3' N4B d   1       1.818  -3.196  -2.568  0.00  0.00     0.004 C 
ATOM     10  C4' N4B d   1       2.558  -4.408  -3.050  0.00  0.00     0.003 C 
ENDBRANCH   8   9
ENDBRANCH   7   8
ENDBRANCH   1   7
TORSDOF 3
ENDMDL
