MODEL 1
REMARK minimizedAffinity 3.98120952
REMARK minimizedRMSD -1
REMARK  3 active torsions:
REMARK  status: ('A' for Active; 'I' for Inactive)
REMARK    1  A    between atoms: C3'_2  and  C2'_3 
REMARK    2  A    between atoms: C2'_3  and  C1'_4 
REMARK    3  A    between atoms: C1'_4  and  C1_5 
ROOT
ATOM      1  C1  N4B d   1       2.494  -1.598   2.530  0.00  0.00    -0.075 A 
ATOM      2  C2  N4B d   1       2.025  -0.266   2.507  0.00  0.00     0.002 A 
ATOM      3  C3  N4B d   1       1.425   0.269   3.620  0.00  0.00     0.002 A 
ATOM      4  C4  N4B d   1       1.266  -0.510   4.756  0.00  0.00    -0.004 A 
ATOM      5  C5  N4B d   1       1.745  -1.787   4.778  0.00  0.00     0.002 A 
ATOM      6  C6  N4B d   1       2.354  -2.338   3.668  0.00  0.00     0.002 A 
ENDROOT
BRANCH   1   7
ATOM      7  C1' N4B d   1       3.079  -2.255   1.309  0.00  0.00     0.057 C 
BRANCH   7   8
ATOM      8  C2' N4B d   1       4.305  -3.066   1.717  0.00  0.00     0.009 C 
BRANCH   8   9
ATOM      9  C3' N4B d   1       5.576  -2.537   1.075  0.00  0.00     0.004 C 
ATOM     10  C4' N4B d   1       5.994  -1.206   1.625  0.00  0.00     0.003 C 
ENDBRANCH   8   9
ENDBRANCH   7   8
ENDBRANCH   1   7
TORSDOF 3
ENDMDL
