MODEL 1
REMARK minimizedAffinity 2.56690884
REMARK minimizedRMSD -1
REMARK  3 active torsions:
REMARK  status: ('A' for Active; 'I' for Inactive)
REMARK    1  A    between atoms: C3'_2  and  C2'_3 
REMARK    2  A    between atoms: C2'_3  and  C1'_4 
REMARK    3  A    between atoms: C1'_4  and  C1_5 
ROOT
ATOM      1  C1  N4B d   1      -5.612  -4.281  -3.534  0.00  0.00    -0.075 A 
ATOM      2  C2  N4B d   1      -4.807  -3.485  -4.379  0.00  0.00     0.002 A 
ATOM      3  C3  N4B d   1      -4.412  -3.966  -5.603  0.00  0.00     0.002 A 
ATOM      4  C4  N4B d   1      -4.793  -5.241  -5.995  0.00  0.00    -0.004 A 
ATOM      5  C5  N4B d   1      -5.592  -5.993  -5.184  0.00  0.00     0.002 A 
ATOM      6  C6  N4B d   1      -5.999  -5.521  -3.953  0.00  0.00     0.002 A 
ENDROOT
BRANCH   1   7
ATOM      7  C1' N4B d   1      -5.997  -3.832  -2.151  0.00  0.00     0.057 C 
BRANCH   7   8
ATOM      8  C2' N4B d   1      -5.576  -4.898  -1.144  0.00  0.00     0.009 C 
BRANCH   8   9
ATOM      9  C3' N4B d   1      -4.080  -4.874  -0.883  0.00  0.00     0.004 C 
ATOM     10  C4' N4B d   1      -3.327  -5.855  -1.732  0.00  0.00     0.003 C 
ENDBRANCH   8   9
ENDBRANCH   7   8
ENDBRANCH   1   7
TORSDOF 3
ENDMDL
