MODEL 1
REMARK minimizedAffinity 3.43719077
REMARK minimizedRMSD -1
REMARK  1 active torsions:
REMARK  status: ('A' for Active; 'I' for Inactive)
REMARK    1  A    between atoms: N_2  and  C1_3 
ROOT
ATOM      1  C1  UNL d   1      -3.044   2.067   4.064  0.00  0.00     0.143 A 
ATOM      2  C2  UNL d   1      -2.121   2.793   3.304  0.00  0.00    -0.057 A 
ATOM      3  C3  UNL d   1      -2.216   2.852   1.909  0.00  0.00     0.033 A 
ATOM      4  C4  UNL d   1      -3.222   2.160   1.244  0.00  0.00    -0.042 A 
ATOM      5  C5  UNL d   1      -4.136   1.411   1.977  0.00  0.00     0.033 A 
ATOM      6  C6  UNL d   1      -4.040   1.362   3.371  0.00  0.00    -0.057 A 
ENDROOT
BRANCH   1   7
ATOM      7  N   UNL d   1      -2.945   1.890   5.447  0.00  0.00    -0.732 N 
ATOM      8  C   UNL d   1      -2.150   0.813   5.996  0.00  0.00     0.284 C 
ATOM      9  H3  UNL d   1      -2.854   2.771   5.946  0.00  0.00     0.395 HD
ENDBRANCH   1   7
TORSDOF 1
ENDMDL
