MODEL 1
REMARK minimizedAffinity -2.82388997
REMARK minimizedRMSD -1
REMARK  1 active torsions:
REMARK  status: ('A' for Active; 'I' for Inactive)
REMARK    1  A    between atoms: N_2  and  C1_3 
ROOT
ATOM      1  C1  UNL d   1       0.871   1.026  -0.680  0.00  0.00     0.143 A 
ATOM      2  C2  UNL d   1       0.830   1.439   0.656  0.00  0.00    -0.057 A 
ATOM      3  C3  UNL d   1       0.848   2.797   0.997  0.00  0.00     0.033 A 
ATOM      4  C4  UNL d   1       0.935   3.768   0.006  0.00  0.00    -0.042 A 
ATOM      5  C5  UNL d   1       1.002   3.380  -1.328  0.00  0.00     0.033 A 
ATOM      6  C6  UNL d   1       0.978   2.023  -1.662  0.00  0.00    -0.057 A 
ENDROOT
BRANCH   1   7
ATOM      7  N   UNL d   1       0.956  -0.310  -1.079  0.00  0.00    -0.732 N 
ATOM      8  C   UNL d   1       0.694  -1.378  -0.139  0.00  0.00     0.284 C 
ATOM      9  H3  UNL d   1       0.563  -0.465  -2.004  0.00  0.00     0.395 HD
ENDBRANCH   1   7
TORSDOF 1
ENDMDL
