MODEL 1
REMARK minimizedAffinity 0.00961183943
REMARK minimizedRMSD -1
REMARK  1 active torsions:
REMARK  status: ('A' for Active; 'I' for Inactive)
REMARK    1  A    between atoms: N_2  and  C1_3 
ROOT
ATOM      1  C1  UNL d   1      -4.519  -0.687   2.875  0.00  0.00     0.143 A 
ATOM      2  C2  UNL d   1      -5.012   0.537   2.411  0.00  0.00    -0.057 A 
ATOM      3  C3  UNL d   1      -4.321   1.732   2.641  0.00  0.00     0.033 A 
ATOM      4  C4  UNL d   1      -3.134   1.728   3.367  0.00  0.00    -0.042 A 
ATOM      5  C5  UNL d   1      -2.638   0.526   3.858  0.00  0.00     0.033 A 
ATOM      6  C6  UNL d   1      -3.329  -0.665   3.620  0.00  0.00    -0.057 A 
ENDROOT
BRANCH   1   7
ATOM      7  N   UNL d   1      -5.209  -1.897   2.763  0.00  0.00    -0.732 N 
ATOM      8  C   UNL d   1      -4.642  -3.120   3.287  0.00  0.00     0.284 C 
ATOM      9  H3  UNL d   1      -6.206  -1.793   2.938  0.00  0.00     0.395 HD
ENDBRANCH   1   7
TORSDOF 1
ENDMDL
