MODEL 1
REMARK minimizedAffinity -0.0835172758
REMARK minimizedRMSD -1
REMARK  1 active torsions:
REMARK  status: ('A' for Active; 'I' for Inactive)
REMARK    1  A    between atoms: N_2  and  C1_3 
ROOT
ATOM      1  C1  UNL d   1       0.741   2.146   0.082  0.00  0.00     0.143 A 
ATOM      2  C2  UNL d   1       0.745   2.760  -1.175  0.00  0.00    -0.057 A 
ATOM      3  C3  UNL d   1       0.883   2.010  -2.349  0.00  0.00     0.033 A 
ATOM      4  C4  UNL d   1       1.050   0.631  -2.285  0.00  0.00    -0.042 A 
ATOM      5  C5  UNL d   1       1.074   0.002  -1.045  0.00  0.00     0.033 A 
ATOM      6  C6  UNL d   1       0.929   0.756   0.124  0.00  0.00    -0.057 A 
ENDROOT
BRANCH   1   7
ATOM      7  N   UNL d   1       0.707   2.847   1.290  0.00  0.00    -0.732 N 
ATOM      8  C   UNL d   1       1.179   4.213   1.363  0.00  0.00     0.284 C 
ATOM      9  H3  UNL d   1      -0.147   2.674   1.816  0.00  0.00     0.395 HD
ENDBRANCH   1   7
TORSDOF 1
ENDMDL
