MODEL 1
REMARK minimizedAffinity 2.3184588
REMARK minimizedRMSD -1
REMARK  1 active torsions:
REMARK  status: ('A' for Active; 'I' for Inactive)
REMARK    1  A    between atoms: N_2  and  C1_3 
ROOT
ATOM      1  C1  UNL d   1       0.897   1.488  -1.226  0.00  0.00     0.143 A 
ATOM      2  C2  UNL d   1       0.720   0.144  -1.573  0.00  0.00    -0.057 A 
ATOM      3  C3  UNL d   1       0.638  -0.854  -0.594  0.00  0.00     0.033 A 
ATOM      4  C4  UNL d   1       0.762  -0.528   0.752  0.00  0.00    -0.042 A 
ATOM      5  C5  UNL d   1       0.963   0.798   1.119  0.00  0.00     0.033 A 
ATOM      6  C6  UNL d   1       1.037   1.791   0.137  0.00  0.00    -0.057 A 
ENDROOT
BRANCH   1   7
ATOM      7  N   UNL d   1       1.084   2.513  -2.156  0.00  0.00    -0.732 N 
ATOM      8  C   UNL d   1       1.452   3.843  -1.722  0.00  0.00     0.284 C 
ATOM      9  H3  UNL d   1       1.575   2.197  -2.989  0.00  0.00     0.395 HD
ENDBRANCH   1   7
TORSDOF 1
ENDMDL
