MODEL 1
REMARK minimizedAffinity -3.32512403
REMARK minimizedRMSD -1
REMARK  1 active torsions:
REMARK  status: ('A' for Active; 'I' for Inactive)
REMARK    1  A    between atoms: N_2  and  C1_3 
ROOT
ATOM      1  C1  UNL d   1       1.522   1.174  -1.175  0.00  0.00     0.143 A 
ATOM      2  C2  UNL d   1       0.986   2.408  -1.558  0.00  0.00    -0.057 A 
ATOM      3  C3  UNL d   1       0.915   3.480  -0.659  0.00  0.00     0.033 A 
ATOM      4  C4  UNL d   1       1.355   3.327   0.651  0.00  0.00    -0.042 A 
ATOM      5  C5  UNL d   1       1.869   2.101   1.061  0.00  0.00     0.033 A 
ATOM      6  C6  UNL d   1       1.943   1.037   0.157  0.00  0.00    -0.057 A 
ENDROOT
BRANCH   1   7
ATOM      7  N   UNL d   1       1.529   0.041  -1.992  0.00  0.00    -0.732 N 
ATOM      8  C   UNL d   1       1.521   0.173  -3.433  0.00  0.00     0.284 C 
ATOM      9  H3  UNL d   1       2.151  -0.685  -1.644  0.00  0.00     0.395 HD
ENDBRANCH   1   7
TORSDOF 1
ENDMDL
