MODEL 1
REMARK minimizedAffinity 3.28504729
REMARK minimizedRMSD -1
REMARK  1 active torsions:
REMARK  status: ('A' for Active; 'I' for Inactive)
REMARK    1  A    between atoms: N_2  and  C1_3 
ROOT
ATOM      1  C1  UNL d   1       1.179   2.751  -0.948  0.00  0.00     0.143 A 
ATOM      2  C2  UNL d   1       1.115   2.909   0.440  0.00  0.00    -0.057 A 
ATOM      3  C3  UNL d   1       1.092   4.180   1.026  0.00  0.00     0.033 A 
ATOM      4  C4  UNL d   1       1.164   5.320   0.232  0.00  0.00    -0.042 A 
ATOM      5  C5  UNL d   1       1.254   5.186  -1.149  0.00  0.00     0.033 A 
ATOM      6  C6  UNL d   1       1.269   3.914  -1.728  0.00  0.00    -0.057 A 
ENDROOT
BRANCH   1   7
ATOM      7  N   UNL d   1       1.304   1.514  -1.585  0.00  0.00    -0.732 N 
ATOM      8  C   UNL d   1       2.037   0.433  -0.961  0.00  0.00     0.284 C 
ATOM      9  H3  UNL d   1       0.442   1.223  -2.041  0.00  0.00     0.395 HD
ENDBRANCH   1   7
TORSDOF 1
ENDMDL
