MODEL 1
REMARK minimizedAffinity -1.29961705
REMARK minimizedRMSD -1
REMARK  1 active torsions:
REMARK  status: ('A' for Active; 'I' for Inactive)
REMARK    1  A    between atoms: N_2  and  C1_3 
ROOT
ATOM      1  C1  UNL d   1       1.225   0.963  -1.505  0.00  0.00     0.143 A 
ATOM      2  C2  UNL d   1       1.932   0.605  -0.352  0.00  0.00    -0.057 A 
ATOM      3  C3  UNL d   1       2.013  -0.729   0.066  0.00  0.00     0.033 A 
ATOM      4  C4  UNL d   1       1.362  -1.728  -0.650  0.00  0.00    -0.042 A 
ATOM      5  C5  UNL d   1       0.633  -1.393  -1.785  0.00  0.00     0.033 A 
ATOM      6  C6  UNL d   1       0.561  -0.060  -2.200  0.00  0.00    -0.057 A 
ENDROOT
BRANCH   1   7
ATOM      7  N   UNL d   1       1.025   2.283  -1.916  0.00  0.00    -0.732 N 
ATOM      8  C   UNL d   1       0.614   3.297  -0.969  0.00  0.00     0.284 C 
ATOM      9  H3  UNL d   1       1.732   2.595  -2.578  0.00  0.00     0.395 HD
ENDBRANCH   1   7
TORSDOF 1
ENDMDL
