MODEL 1
REMARK minimizedAffinity 5.12295103
REMARK minimizedRMSD -1
REMARK  1 active torsions:
REMARK  status: ('A' for Active; 'I' for Inactive)
REMARK    1  A    between atoms: N_2  and  C1_3 
ROOT
ATOM      1  C1  UNL d   1       0.779   3.124  -1.286  0.00  0.00     0.143 A 
ATOM      2  C2  UNL d   1       0.469   2.253  -2.336  0.00  0.00    -0.057 A 
ATOM      3  C3  UNL d   1       0.572   0.865  -2.182  0.00  0.00     0.033 A 
ATOM      4  C4  UNL d   1       1.016   0.323  -0.980  0.00  0.00    -0.042 A 
ATOM      5  C5  UNL d   1       1.354   1.171   0.069  0.00  0.00     0.033 A 
ATOM      6  C6  UNL d   1       1.243   2.556  -0.089  0.00  0.00    -0.057 A 
ENDROOT
BRANCH   1   7
ATOM      7  N   UNL d   1       0.792   4.516  -1.408  0.00  0.00    -0.732 N 
ATOM      8  C   UNL d   1       1.571   5.329  -0.500  0.00  0.00     0.284 C 
ATOM      9  H3  UNL d   1       0.834   4.820  -2.378  0.00  0.00     0.395 HD
ENDBRANCH   1   7
TORSDOF 1
ENDMDL
