MODEL 1
REMARK minimizedAffinity 9.38788605
REMARK minimizedRMSD -1
REMARK  1 active torsions:
REMARK  status: ('A' for Active; 'I' for Inactive)
REMARK    1  A    between atoms: N_2  and  C1_3 
ROOT
ATOM      1  C1  UNL d   1       0.834   3.813  -1.421  0.00  0.00     0.143 A 
ATOM      2  C2  UNL d   1      -0.146   3.616  -2.399  0.00  0.00    -0.057 A 
ATOM      3  C3  UNL d   1      -0.374   2.351  -2.955  0.00  0.00     0.033 A 
ATOM      4  C4  UNL d   1       0.398   1.263  -2.561  0.00  0.00    -0.042 A 
ATOM      5  C5  UNL d   1       1.394   1.440  -1.608  0.00  0.00     0.033 A 
ATOM      6  C6  UNL d   1       1.612   2.704  -1.052  0.00  0.00    -0.057 A 
ENDROOT
BRANCH   1   7
ATOM      7  N   UNL d   1       1.174   5.064  -0.902  0.00  0.00    -0.732 N 
ATOM      8  C   UNL d   1       1.954   5.999  -1.684  0.00  0.00     0.284 C 
ATOM      9  H3  UNL d   1       0.409   5.491  -0.384  0.00  0.00     0.395 HD
ENDBRANCH   1   7
TORSDOF 1
ENDMDL
