MODEL 1
REMARK minimizedAffinity 4.47218084
REMARK minimizedRMSD -1
REMARK  1 active torsions:
REMARK  status: ('A' for Active; 'I' for Inactive)
REMARK    1  A    between atoms: N_2  and  C1_3 
ROOT
ATOM      1  C1  UNL d   1       0.611   2.827  -1.710  0.00  0.00     0.143 A 
ATOM      2  C2  UNL d   1       0.818   3.456  -0.478  0.00  0.00    -0.057 A 
ATOM      3  C3  UNL d   1       1.303   2.746   0.627  0.00  0.00     0.033 A 
ATOM      4  C4  UNL d   1       1.562   1.383   0.527  0.00  0.00    -0.042 A 
ATOM      5  C5  UNL d   1       1.339   0.732  -0.681  0.00  0.00     0.033 A 
ATOM      6  C6  UNL d   1       0.862   1.448  -1.783  0.00  0.00    -0.057 A 
ENDROOT
BRANCH   1   7
ATOM      7  N   UNL d   1       0.038   3.456  -2.818  0.00  0.00    -0.732 N 
ATOM      8  C   UNL d   1      -1.392   3.666  -2.889  0.00  0.00     0.284 C 
ATOM      9  H3  UNL d   1       0.590   4.246  -3.145  0.00  0.00     0.395 HD
ENDBRANCH   1   7
TORSDOF 1
ENDMDL
