MODEL 1
REMARK minimizedAffinity -4.57091188
REMARK minimizedRMSD -1
REMARK  0 active torsions:
REMARK  status: ('A' for Active; 'I' for Inactive)
ROOT
ATOM      1  C2' OXE d   1      -1.429   2.276   1.764  0.00  0.00     0.078 C 
ATOM      2  C1' OXE d   1      -1.255  -0.520   1.951  0.00  0.00     0.078 C 
ATOM      3  C1  OXE d   1      -0.123   0.212   1.274  0.00  0.00    -0.078 A 
ATOM      4  C2  OXE d   1      -0.239   1.575   1.145  0.00  0.00    -0.078 A 
ATOM      5  C3  OXE d   1       0.802   2.304   0.578  0.00  0.00     0.003 A 
ATOM      6  C4  OXE d   1       1.895   1.648  -0.001  0.00  0.00    -0.002 A 
ATOM      7  C5  OXE d   1       2.013   0.256   0.083  0.00  0.00    -0.002 A 
ATOM      8  C6  OXE d   1       1.036  -0.471   0.754  0.00  0.00     0.003 A 
ENDROOT
TORSDOF 0
ENDMDL
