MODEL 1
REMARK minimizedAffinity -2.45785689
REMARK minimizedRMSD -1
REMARK  0 active torsions:
REMARK  status: ('A' for Active; 'I' for Inactive)
ROOT
ATOM      1  C2' OXE d   1      -3.453   2.066   3.406  0.00  0.00     0.078 C 
ATOM      2  C1' OXE d   1      -3.521  -0.688   2.867  0.00  0.00     0.078 C 
ATOM      3  C1  OXE d   1      -2.304   0.085   2.426  0.00  0.00    -0.078 A 
ATOM      4  C2  OXE d   1      -2.299   1.441   2.652  0.00  0.00    -0.078 A 
ATOM      5  C3  OXE d   1      -1.177   2.193   2.315  0.00  0.00     0.003 A 
ATOM      6  C4  OXE d   1      -0.119   1.608   1.609  0.00  0.00    -0.002 A 
ATOM      7  C5  OXE d   1      -0.121   0.237   1.333  0.00  0.00    -0.002 A 
ATOM      8  C6  OXE d   1      -1.184  -0.545   1.771  0.00  0.00     0.003 A 
ENDROOT
TORSDOF 0
ENDMDL
