MODEL 1
REMARK minimizedAffinity -0.814004064
REMARK minimizedRMSD -1
REMARK  0 active torsions:
REMARK  status: ('A' for Active; 'I' for Inactive)
ROOT
ATOM      1  C2' OXE d   1      -2.390   1.940   3.155  0.00  0.00     0.078 C 
ATOM      2  C1' OXE d   1      -1.252   3.519   1.132  0.00  0.00     0.078 C 
ATOM      3  C1  OXE d   1      -0.705   2.128   1.331  0.00  0.00    -0.078 A 
ATOM      4  C2  OXE d   1      -1.236   1.379   2.353  0.00  0.00    -0.078 A 
ATOM      5  C3  OXE d   1      -0.805   0.069   2.545  0.00  0.00     0.003 A 
ATOM      6  C4  OXE d   1       0.270  -0.438   1.805  0.00  0.00    -0.002 A 
ATOM      7  C5  OXE d   1       0.852   0.322   0.785  0.00  0.00    -0.002 A 
ATOM      8  C6  OXE d   1       0.349   1.588   0.507  0.00  0.00     0.003 A 
ENDROOT
TORSDOF 0
ENDMDL
