MODEL 1
REMARK minimizedAffinity -5.53246689
REMARK minimizedRMSD -1
REMARK  0 active torsions:
REMARK  status: ('A' for Active; 'I' for Inactive)
ROOT
ATOM      1  C2' OXE d   1       0.376   1.501   1.129  0.00  0.00     0.078 C 
ATOM      2  C1' OXE d   1      -0.574  -1.128   1.387  0.00  0.00     0.078 C 
ATOM      3  C1  OXE d   1      -1.407  -0.018   1.978  0.00  0.00    -0.078 A 
ATOM      4  C2  OXE d   1      -0.911   1.261   1.888  0.00  0.00    -0.078 A 
ATOM      5  C3  OXE d   1      -1.665   2.328   2.369  0.00  0.00     0.003 A 
ATOM      6  C4  OXE d   1      -2.850   2.096   3.079  0.00  0.00    -0.002 A 
ATOM      7  C5  OXE d   1      -3.352   0.797   3.217  0.00  0.00    -0.002 A 
ATOM      8  C6  OXE d   1      -2.666  -0.264   2.637  0.00  0.00     0.003 A 
ENDROOT
TORSDOF 0
ENDMDL
