MODEL 1
REMARK minimizedAffinity -0.680247962
REMARK minimizedRMSD -1
REMARK  0 active torsions:
REMARK  status: ('A' for Active; 'I' for Inactive)
ROOT
ATOM      1  C2' OXE d   1      -1.905   2.225   1.360  0.00  0.00     0.078 C 
ATOM      2  C1' OXE d   1      -2.015  -0.463   2.162  0.00  0.00     0.078 C 
ATOM      3  C1  OXE d   1      -0.749   0.022   1.501  0.00  0.00    -0.078 A 
ATOM      4  C2  OXE d   1      -0.722   1.327   1.069  0.00  0.00    -0.078 A 
ATOM      5  C3  OXE d   1       0.441   1.841   0.502  0.00  0.00     0.003 A 
ATOM      6  C4  OXE d   1       1.527   1.001   0.228  0.00  0.00    -0.002 A 
ATOM      7  C5  OXE d   1       1.505  -0.341   0.623  0.00  0.00    -0.002 A 
ATOM      8  C6  OXE d   1       0.393  -0.834   1.298  0.00  0.00     0.003 A 
ENDROOT
TORSDOF 0
ENDMDL
