MODEL 1
REMARK minimizedAffinity 0.607620299
REMARK minimizedRMSD -1
REMARK  0 active torsions:
REMARK  status: ('A' for Active; 'I' for Inactive)
ROOT
ATOM      1  C2' OXE d   1      -2.367   2.214   3.209  0.00  0.00     0.078 C 
ATOM      2  C1' OXE d   1      -2.583  -0.546   2.745  0.00  0.00     0.078 C 
ATOM      3  C1  OXE d   1      -1.449   0.193   2.079  0.00  0.00    -0.078 A 
ATOM      4  C2  OXE d   1      -1.378   1.551   2.274  0.00  0.00    -0.078 A 
ATOM      5  C3  OXE d   1      -0.320   2.272   1.728  0.00  0.00     0.003 A 
ATOM      6  C4  OXE d   1       0.584   1.653   0.856  0.00  0.00    -0.002 A 
ATOM      7  C5  OXE d   1       0.506   0.278   0.612  0.00  0.00    -0.002 A 
ATOM      8  C6  OXE d   1      -0.477  -0.473   1.248  0.00  0.00     0.003 A 
ENDROOT
TORSDOF 0
ENDMDL
