MODEL 1
REMARK minimizedAffinity -1.10665596
REMARK minimizedRMSD -1
REMARK  0 active torsions:
REMARK  status: ('A' for Active; 'I' for Inactive)
ROOT
ATOM      1  C2' OXE d   1      -3.730   1.327   3.539  0.00  0.00     0.078 C 
ATOM      2  C1' OXE d   1      -2.573  -1.055   2.606  0.00  0.00     0.078 C 
ATOM      3  C1  OXE d   1      -1.879   0.242   2.272  0.00  0.00    -0.078 A 
ATOM      4  C2  OXE d   1      -2.477   1.406   2.693  0.00  0.00    -0.078 A 
ATOM      5  C3  OXE d   1      -1.851   2.626   2.458  0.00  0.00     0.003 A 
ATOM      6  C4  OXE d   1      -0.698   2.691   1.667  0.00  0.00    -0.002 A 
ATOM      7  C5  OXE d   1      -0.094   1.521   1.195  0.00  0.00    -0.002 A 
ATOM      8  C6  OXE d   1      -0.647   0.288   1.524  0.00  0.00     0.003 A 
ENDROOT
TORSDOF 0
ENDMDL
