MODEL 1
REMARK minimizedAffinity 0.158309355
REMARK minimizedRMSD -1
REMARK  0 active torsions:
REMARK  status: ('A' for Active; 'I' for Inactive)
ROOT
ATOM      1  C2' OXE d   1      -2.829   0.772   2.744  0.00  0.00     0.078 C 
ATOM      2  C1' OXE d   1      -1.439   3.116   2.068  0.00  0.00     0.078 C 
ATOM      3  C1  OXE d   1      -0.806   1.794   1.710  0.00  0.00    -0.078 A 
ATOM      4  C2  OXE d   1      -1.471   0.652   2.087  0.00  0.00    -0.078 A 
ATOM      5  C3  OXE d   1      -0.958  -0.592   1.733  0.00  0.00     0.003 A 
ATOM      6  C4  OXE d   1       0.304  -0.695   1.134  0.00  0.00    -0.002 A 
ATOM      7  C5  OXE d   1       1.016   0.455   0.778  0.00  0.00    -0.002 A 
ATOM      8  C6  OXE d   1       0.457   1.705   1.020  0.00  0.00     0.003 A 
ENDROOT
TORSDOF 0
ENDMDL
