MODEL 1
REMARK minimizedAffinity 3.25820589
REMARK minimizedRMSD -1
REMARK  0 active torsions:
REMARK  status: ('A' for Active; 'I' for Inactive)
ROOT
ATOM      1  C2' OXE d   1      -1.072   0.831   1.694  0.00  0.00     0.078 C 
ATOM      2  C1' OXE d   1       0.216  -1.447   2.711  0.00  0.00     0.078 C 
ATOM      3  C1  OXE d   1       0.953  -0.619   1.688  0.00  0.00    -0.078 A 
ATOM      4  C2  OXE d   1       0.297   0.467   1.161  0.00  0.00    -0.078 A 
ATOM      5  C3  OXE d   1       0.952   1.296   0.255  0.00  0.00     0.003 A 
ATOM      6  C4  OXE d   1       2.214   0.946  -0.241  0.00  0.00    -0.002 A 
ATOM      7  C5  OXE d   1       2.884  -0.178   0.253  0.00  0.00    -0.002 A 
ATOM      8  C6  OXE d   1       2.287  -0.946   1.246  0.00  0.00     0.003 A 
ENDROOT
TORSDOF 0
ENDMDL
