MODEL 1
REMARK minimizedAffinity -0.686167955
REMARK minimizedRMSD -1
REMARK  0 active torsions:
REMARK  status: ('A' for Active; 'I' for Inactive)
ROOT
ATOM      1  C2' OXE d   1      -0.150   2.010   1.795  0.00  0.00     0.078 C 
ATOM      2  C1' OXE d   1      -0.460  -0.771   1.562  0.00  0.00     0.078 C 
ATOM      3  C1  OXE d   1       0.793  -0.152   0.993  0.00  0.00    -0.078 A 
ATOM      4  C2  OXE d   1       0.914   1.215   1.070  0.00  0.00    -0.078 A 
ATOM      5  C3  OXE d   1       2.074   1.831   0.610  0.00  0.00     0.003 A 
ATOM      6  C4  OXE d   1       3.049   1.090  -0.068  0.00  0.00    -0.002 A 
ATOM      7  C5  OXE d   1       2.927  -0.298  -0.193  0.00  0.00    -0.002 A 
ATOM      8  C6  OXE d   1       1.827  -0.939   0.369  0.00  0.00     0.003 A 
ENDROOT
TORSDOF 0
ENDMDL
