MODEL 1
REMARK minimizedAffinity 1.26109326
REMARK minimizedRMSD -1
REMARK  0 active torsions:
REMARK  status: ('A' for Active; 'I' for Inactive)
ROOT
ATOM      1  C2' OXE d   1       1.445   2.063   0.681  0.00  0.00     0.078 C 
ATOM      2  C1' OXE d   1       2.116  -0.524   1.541  0.00  0.00     0.078 C 
ATOM      3  C1  OXE d   1       2.503  -0.126   0.139  0.00  0.00    -0.078 A 
ATOM      4  C2  OXE d   1       2.129   1.125  -0.290  0.00  0.00    -0.078 A 
ATOM      5  C3  OXE d   1       2.509   1.561  -1.556  0.00  0.00     0.003 A 
ATOM      6  C4  OXE d   1       3.133   0.684  -2.451  0.00  0.00    -0.002 A 
ATOM      7  C5  OXE d   1       3.487  -0.608  -2.048  0.00  0.00    -0.002 A 
ATOM      8  C6  OXE d   1       3.217  -1.014  -0.745  0.00  0.00     0.003 A 
ENDROOT
TORSDOF 0
ENDMDL
