MODEL 1
REMARK minimizedAffinity -6.14166641
REMARK minimizedRMSD -1
REMARK  0 active torsions:
REMARK  status: ('A' for Active; 'I' for Inactive)
ROOT
ATOM      1  C2' OXE d   1       0.651   0.461   0.216  0.00  0.00     0.078 C 
ATOM      2  C1' OXE d   1       0.379   2.987   1.410  0.00  0.00     0.078 C 
ATOM      3  C1  OXE d   1      -0.620   1.920   1.785  0.00  0.00    -0.078 A 
ATOM      4  C2  OXE d   1      -0.507   0.701   1.160  0.00  0.00    -0.078 A 
ATOM      5  C3  OXE d   1      -1.369  -0.334   1.509  0.00  0.00     0.003 A 
ATOM      6  C4  OXE d   1      -2.444  -0.101   2.376  0.00  0.00    -0.002 A 
ATOM      7  C5  OXE d   1      -2.601   1.145   2.992  0.00  0.00    -0.002 A 
ATOM      8  C6  OXE d   1      -1.674   2.152   2.741  0.00  0.00     0.003 A 
ENDROOT
TORSDOF 0
ENDMDL
