MODEL 1
REMARK minimizedAffinity -2.1366756
REMARK minimizedRMSD -1
REMARK  0 active torsions:
REMARK  status: ('A' for Active; 'I' for Inactive)
ROOT
ATOM      1  C2' OXE d   1       0.941   2.570   1.235  0.00  0.00     0.078 C 
ATOM      2  C1' OXE d   1       1.631  -0.148   1.113  0.00  0.00     0.078 C 
ATOM      3  C1  OXE d   1       0.245   0.205   1.592  0.00  0.00    -0.078 A 
ATOM      4  C2  OXE d   1      -0.068   1.539   1.693  0.00  0.00    -0.078 A 
ATOM      5  C3  OXE d   1      -1.350   1.920   2.078  0.00  0.00     0.003 A 
ATOM      6  C4  OXE d   1      -2.274   0.960   2.510  0.00  0.00    -0.002 A 
ATOM      7  C5  OXE d   1      -1.962  -0.402   2.453  0.00  0.00    -0.002 A 
ATOM      8  C6  OXE d   1      -0.724  -0.798   1.958  0.00  0.00     0.003 A 
ENDROOT
TORSDOF 0
ENDMDL
