MODEL 1
REMARK minimizedAffinity -4.34482241
REMARK minimizedRMSD -1
REMARK  0 active torsions:
REMARK  status: ('A' for Active; 'I' for Inactive)
ROOT
ATOM      1  C2' OXE d   1       0.688   1.315   0.542  0.00  0.00     0.078 C 
ATOM      2  C1' OXE d   1      -0.477  -1.123   1.303  0.00  0.00     0.078 C 
ATOM      3  C1  OXE d   1      -1.139   0.149   1.770  0.00  0.00    -0.078 A 
ATOM      4  C2  OXE d   1      -0.535   1.337   1.432  0.00  0.00    -0.078 A 
ATOM      5  C3  OXE d   1      -1.134   2.541   1.791  0.00  0.00     0.003 A 
ATOM      6  C4  OXE d   1      -2.260   2.552   2.623  0.00  0.00    -0.002 A 
ATOM      7  C5  OXE d   1      -2.868   1.354   3.012  0.00  0.00    -0.002 A 
ATOM      8  C6  OXE d   1      -2.345   0.147   2.560  0.00  0.00     0.003 A 
ENDROOT
TORSDOF 0
ENDMDL
