MODEL 1
REMARK minimizedAffinity 1.26775873
REMARK minimizedRMSD -1
REMARK  0 active torsions:
REMARK  status: ('A' for Active; 'I' for Inactive)
ROOT
ATOM      1  C2' OXE d   1       1.368   1.671   0.756  0.00  0.00     0.078 C 
ATOM      2  C1' OXE d   1       0.731  -0.253   2.698  0.00  0.00     0.078 C 
ATOM      3  C1  OXE d   1      -0.281   0.830   2.422  0.00  0.00    -0.078 A 
ATOM      4  C2  OXE d   1       0.058   1.794   1.504  0.00  0.00    -0.078 A 
ATOM      5  C3  OXE d   1      -0.862   2.785   1.173  0.00  0.00     0.003 A 
ATOM      6  C4  OXE d   1      -2.067   2.897   1.877  0.00  0.00    -0.002 A 
ATOM      7  C5  OXE d   1      -2.415   1.949   2.844  0.00  0.00    -0.002 A 
ATOM      8  C6  OXE d   1      -1.554   0.887   3.098  0.00  0.00     0.003 A 
ENDROOT
TORSDOF 0
ENDMDL
