MODEL 1
REMARK minimizedAffinity -4.21577263
REMARK minimizedRMSD -1
REMARK  0 active torsions:
REMARK  status: ('A' for Active; 'I' for Inactive)
ROOT
ATOM      1  C2' OXE d   1      -1.931  -0.688   1.925  0.00  0.00     0.078 C 
ATOM      2  C1' OXE d   1      -2.493   1.890   2.885  0.00  0.00     0.078 C 
ATOM      3  C1  OXE d   1      -1.320   1.727   1.951  0.00  0.00    -0.078 A 
ATOM      4  C2  OXE d   1      -1.023   0.455   1.523  0.00  0.00    -0.078 A 
ATOM      5  C3  OXE d   1       0.015   0.257   0.618  0.00  0.00     0.003 A 
ATOM      6  C4  OXE d   1       0.856   1.318   0.260  0.00  0.00    -0.002 A 
ATOM      7  C5  OXE d   1       0.596   2.614   0.716  0.00  0.00    -0.002 A 
ATOM      8  C6  OXE d   1      -0.511   2.843   1.526  0.00  0.00     0.003 A 
ENDROOT
TORSDOF 0
ENDMDL
