MODEL 1
REMARK minimizedAffinity -1.79687488
REMARK minimizedRMSD -1
REMARK  0 active torsions:
REMARK  status: ('A' for Active; 'I' for Inactive)
ROOT
ATOM      1  C2' OXE d   1      -2.493   1.965   2.632  0.00  0.00     0.078 C 
ATOM      2  C1' OXE d   1      -2.305  -0.567   1.435  0.00  0.00     0.078 C 
ATOM      3  C1  OXE d   1      -1.078   0.310   1.422  0.00  0.00    -0.078 A 
ATOM      4  C2  OXE d   1      -1.193   1.566   1.969  0.00  0.00    -0.078 A 
ATOM      5  C3  OXE d   1      -0.076   2.394   2.032  0.00  0.00     0.003 A 
ATOM      6  C4  OXE d   1       1.120   2.021   1.408  0.00  0.00    -0.002 A 
ATOM      7  C5  OXE d   1       1.246   0.763   0.810  0.00  0.00    -0.002 A 
ATOM      8  C6  OXE d   1       0.172  -0.120   0.846  0.00  0.00     0.003 A 
ENDROOT
TORSDOF 0
ENDMDL
