MODEL 1
REMARK minimizedAffinity 2.81754398
REMARK minimizedRMSD -1
REMARK  0 active torsions:
REMARK  status: ('A' for Active; 'I' for Inactive)
ROOT
ATOM      1  C2' OXE d   1      -2.699   0.703   3.150  0.00  0.00     0.078 C 
ATOM      2  C1' OXE d   1      -2.017   2.626   1.222  0.00  0.00     0.078 C 
ATOM      3  C1  OXE d   1      -1.044   1.500   1.467  0.00  0.00    -0.078 A 
ATOM      4  C2  OXE d   1      -1.364   0.589   2.446  0.00  0.00    -0.078 A 
ATOM      5  C3  OXE d   1      -0.527  -0.499   2.675  0.00  0.00     0.003 A 
ATOM      6  C4  OXE d   1       0.710  -0.591   2.026  0.00  0.00    -0.002 A 
ATOM      7  C5  OXE d   1       1.074   0.347   1.055  0.00  0.00    -0.002 A 
ATOM      8  C6  OXE d   1       0.191   1.373   0.734  0.00  0.00     0.003 A 
ENDROOT
TORSDOF 0
ENDMDL
