MODEL 1
REMARK minimizedAffinity 2.36169124
REMARK minimizedRMSD -1
REMARK  0 active torsions:
REMARK  status: ('A' for Active; 'I' for Inactive)
ROOT
ATOM      1  C2' OXE d   1       1.224   3.099   1.580  0.00  0.00     0.078 C 
ATOM      2  C1' OXE d   1       1.201   0.392   2.323  0.00  0.00     0.078 C 
ATOM      3  C1  OXE d   1      -0.107   1.141   2.355  0.00  0.00    -0.078 A 
ATOM      4  C2  OXE d   1      -0.079   2.478   2.035  0.00  0.00    -0.078 A 
ATOM      5  C3  OXE d   1      -1.266   3.202   1.996  0.00  0.00     0.003 A 
ATOM      6  C4  OXE d   1      -2.465   2.623   2.428  0.00  0.00    -0.002 A 
ATOM      7  C5  OXE d   1      -2.509   1.274   2.796  0.00  0.00    -0.002 A 
ATOM      8  C6  OXE d   1      -1.350   0.510   2.725  0.00  0.00     0.003 A 
ENDROOT
TORSDOF 0
ENDMDL
