MODEL 1
REMARK minimizedAffinity 8.23390007
REMARK minimizedRMSD -1
REMARK  0 active torsions:
REMARK  status: ('A' for Active; 'I' for Inactive)
ROOT
ATOM      1  C   UNL d   1       0.417   3.257   2.686  0.00  0.00     0.124 A 
ATOM      2  C1  UNL d   1      -0.446   3.302   3.772  0.00  0.00     0.062 A 
ATOM      3  C2  UNL d   1      -1.673   2.647   3.719  0.00  0.00     0.162 A 
ATOM      4  C3  UNL d   1      -2.044   1.940   2.575  0.00  0.00    -0.034 A 
ATOM      5  C4  UNL d   1      -1.171   1.900   1.486  0.00  0.00     0.162 A 
ATOM      6  C5  UNL d   1       0.054   2.556   1.544  0.00  0.00     0.062 A 
ATOM      7  F   UNL d   1       0.887   2.512   0.494  0.00  0.00    -0.097 F 
ATOM      8  F1  UNL d   1      -1.496   1.229   0.371  0.00  0.00    -0.096 F 
ATOM      9  I   UNL d   1      -3.878   0.959   2.491  0.00  0.00    -0.060 I 
ATOM     10  F2  UNL d   1      -2.487   2.707   4.783  0.00  0.00    -0.096 F 
ATOM     11  F3  UNL d   1      -0.098   3.979   4.876  0.00  0.00    -0.097 F 
ATOM     12  F4  UNL d   1       1.597   3.889   2.740  0.00  0.00    -0.092 F 
ENDROOT
TORSDOF 0
ENDMDL
