MODEL 1
REMARK minimizedAffinity 11.8968229
REMARK minimizedRMSD -1
REMARK  0 active torsions:
REMARK  status: ('A' for Active; 'I' for Inactive)
ROOT
ATOM      1  C   UNL d   1       2.314  -2.400  -2.436  0.00  0.00     0.124 A 
ATOM      2  C1  UNL d   1       1.913  -3.718  -2.613  0.00  0.00     0.062 A 
ATOM      3  C2  UNL d   1       2.623  -4.556  -3.468  0.00  0.00     0.162 A 
ATOM      4  C3  UNL d   1       3.741  -4.080  -4.153  0.00  0.00    -0.034 A 
ATOM      5  C4  UNL d   1       4.138  -2.754  -3.970  0.00  0.00     0.162 A 
ATOM      6  C5  UNL d   1       3.425  -1.920  -3.115  0.00  0.00     0.062 A 
ATOM      7  F   UNL d   1       3.814  -0.648  -2.945  0.00  0.00    -0.097 F 
ATOM      8  F1  UNL d   1       5.208  -2.265  -4.613  0.00  0.00    -0.096 F 
ATOM      9  I   UNL d   1       4.804  -5.331  -5.432  0.00  0.00    -0.060 I 
ATOM     10  F2  UNL d   1       2.213  -5.824  -3.620  0.00  0.00    -0.096 F 
ATOM     11  F3  UNL d   1       0.839  -4.184  -1.960  0.00  0.00    -0.097 F 
ATOM     12  F4  UNL d   1       1.629  -1.596  -1.614  0.00  0.00    -0.092 F 
ENDROOT
TORSDOF 0
ENDMDL
