MODEL 1
REMARK minimizedAffinity 16.663496
REMARK minimizedRMSD -1
REMARK  0 active torsions:
REMARK  status: ('A' for Active; 'I' for Inactive)
ROOT
ATOM      1  C   UNL d   1       2.379  -5.677  -2.198  0.00  0.00     0.124 A 
ATOM      2  C1  UNL d   1       3.715  -5.635  -1.825  0.00  0.00     0.062 A 
ATOM      3  C2  UNL d   1       4.714  -5.687  -2.792  0.00  0.00     0.162 A 
ATOM      4  C3  UNL d   1       4.382  -5.781  -4.143  0.00  0.00    -0.034 A 
ATOM      5  C4  UNL d   1       3.036  -5.824  -4.511  0.00  0.00     0.162 A 
ATOM      6  C5  UNL d   1       2.041  -5.771  -3.541  0.00  0.00     0.062 A 
ATOM      7  F   UNL d   1       0.750  -5.812  -3.904  0.00  0.00    -0.097 F 
ATOM      8  F1  UNL d   1       2.681  -5.914  -5.802  0.00  0.00    -0.096 F 
ATOM      9  I   UNL d   1       5.873  -5.859  -5.593  0.00  0.00    -0.060 I 
ATOM     10  F2  UNL d   1       5.997  -5.644  -2.402  0.00  0.00    -0.096 F 
ATOM     11  F3  UNL d   1       4.044  -5.544  -0.528  0.00  0.00    -0.097 F 
ATOM     12  F4  UNL d   1       1.419  -5.627  -1.265  0.00  0.00    -0.092 F 
ENDROOT
TORSDOF 0
ENDMDL
