MODEL 1
REMARK minimizedAffinity 11.3593616
REMARK minimizedRMSD -1
REMARK  0 active torsions:
REMARK  status: ('A' for Active; 'I' for Inactive)
ROOT
ATOM      1  C   UNL d   1       0.810   2.735   1.104  0.00  0.00     0.124 A 
ATOM      2  C1  UNL d   1      -0.263   1.858   1.172  0.00  0.00     0.062 A 
ATOM      3  C2  UNL d   1      -1.103   1.863   2.282  0.00  0.00     0.162 A 
ATOM      4  C3  UNL d   1      -0.873   2.749   3.334  0.00  0.00    -0.034 A 
ATOM      5  C4  UNL d   1       0.209   3.628   3.260  0.00  0.00     0.162 A 
ATOM      6  C5  UNL d   1       1.045   3.619   2.148  0.00  0.00     0.062 A 
ATOM      7  F   UNL d   1       2.082   4.467   2.085  0.00  0.00    -0.097 F 
ATOM      8  F1  UNL d   1       0.459   4.493   4.254  0.00  0.00    -0.096 F 
ATOM      9  I   UNL d   1      -2.126   2.759   4.996  0.00  0.00    -0.060 I 
ATOM     10  F2  UNL d   1      -2.133   1.004   2.320  0.00  0.00    -0.096 F 
ATOM     11  F3  UNL d   1      -0.492   1.002   0.165  0.00  0.00    -0.097 F 
ATOM     12  F4  UNL d   1       1.617   2.728   0.035  0.00  0.00    -0.092 F 
ENDROOT
TORSDOF 0
ENDMDL
