MODEL 1
REMARK minimizedAffinity 23.1075478
REMARK minimizedRMSD -1
REMARK  0 active torsions:
REMARK  status: ('A' for Active; 'I' for Inactive)
ROOT
ATOM      1  C   UNL d   1      -1.209   3.430   4.887  0.00  0.00     0.124 A 
ATOM      2  C1  UNL d   1      -2.373   2.722   4.622  0.00  0.00     0.062 A 
ATOM      3  C2  UNL d   1      -2.469   1.936   3.477  0.00  0.00     0.162 A 
ATOM      4  C3  UNL d   1      -1.396   1.853   2.589  0.00  0.00    -0.034 A 
ATOM      5  C4  UNL d   1      -0.229   2.569   2.862  0.00  0.00     0.162 A 
ATOM      6  C5  UNL d   1      -0.139   3.353   4.007  0.00  0.00     0.062 A 
ATOM      7  F   UNL d   1       0.986   4.037   4.262  0.00  0.00    -0.097 F 
ATOM      8  F1  UNL d   1       0.820   2.512   2.029  0.00  0.00    -0.096 F 
ATOM      9  I   UNL d   1      -1.535   0.680   0.876  0.00  0.00    -0.060 I 
ATOM     10  F2  UNL d   1      -3.605   1.262   3.246  0.00  0.00    -0.096 F 
ATOM     11  F3  UNL d   1      -3.409   2.795   5.470  0.00  0.00    -0.097 F 
ATOM     12  F4  UNL d   1      -1.120   4.186   5.989  0.00  0.00    -0.092 F 
ENDROOT
TORSDOF 0
ENDMDL
