MODEL 1
REMARK minimizedAffinity 32.2321854
REMARK minimizedRMSD -1
REMARK  0 active torsions:
REMARK  status: ('A' for Active; 'I' for Inactive)
ROOT
ATOM      1  C   UNL d   1      -4.531  -1.759   4.895  0.00  0.00     0.124 A 
ATOM      2  C1  UNL d   1      -3.297  -2.378   4.759  0.00  0.00     0.062 A 
ATOM      3  C2  UNL d   1      -2.320  -1.820   3.940  0.00  0.00     0.162 A 
ATOM      4  C3  UNL d   1      -2.573  -0.634   3.251  0.00  0.00    -0.034 A 
ATOM      5  C4  UNL d   1      -3.817  -0.017   3.392  0.00  0.00     0.162 A 
ATOM      6  C5  UNL d   1      -4.790  -0.579   4.211  0.00  0.00     0.062 A 
ATOM      7  F   UNL d   1      -5.982   0.021   4.341  0.00  0.00    -0.097 F 
ATOM      8  F1  UNL d   1      -4.094   1.124   2.743  0.00  0.00    -0.096 F 
ATOM      9  I   UNL d   1      -1.114   0.204   2.025  0.00  0.00    -0.060 I 
ATOM     10  F2  UNL d   1      -1.136  -2.440   3.827  0.00  0.00    -0.096 F 
ATOM     11  F3  UNL d   1      -3.044  -3.519   5.417  0.00  0.00    -0.097 F 
ATOM     12  F4  UNL d   1      -5.470  -2.299   5.683  0.00  0.00    -0.092 F 
ENDROOT
TORSDOF 0
ENDMDL
