MODEL 1
REMARK minimizedAffinity 18.1281738
REMARK minimizedRMSD -1
REMARK  0 active torsions:
REMARK  status: ('A' for Active; 'I' for Inactive)
ROOT
ATOM      1  C   UNL d   1      -2.149  -3.942   0.373  0.00  0.00     0.124 A 
ATOM      2  C1  UNL d   1      -1.320  -3.428   1.361  0.00  0.00     0.062 A 
ATOM      3  C2  UNL d   1      -0.821  -2.134   1.253  0.00  0.00     0.162 A 
ATOM      4  C3  UNL d   1      -1.150  -1.343   0.152  0.00  0.00    -0.034 A 
ATOM      5  C4  UNL d   1      -1.983  -1.867  -0.838  0.00  0.00     0.162 A 
ATOM      6  C5  UNL d   1      -2.479  -3.161  -0.725  0.00  0.00     0.062 A 
ATOM      7  F   UNL d   1      -3.280  -3.656  -1.681  0.00  0.00    -0.097 F 
ATOM      8  F1  UNL d   1      -2.319  -1.134  -1.910  0.00  0.00    -0.096 F 
ATOM      9  I   UNL d   1      -0.406   0.594  -0.014  0.00  0.00    -0.060 I 
ATOM     10  F2  UNL d   1      -0.023  -1.663   2.222  0.00  0.00    -0.096 F 
ATOM     11  F3  UNL d   1      -0.999  -4.181   2.423  0.00  0.00    -0.097 F 
ATOM     12  F4  UNL d   1      -2.627  -5.189   0.480  0.00  0.00    -0.092 F 
ENDROOT
TORSDOF 0
ENDMDL
