MODEL 1
REMARK minimizedAffinity -1.27828276
REMARK minimizedRMSD -1
REMARK  0 active torsions:
REMARK  status: ('A' for Active; 'I' for Inactive)
ROOT
ATOM      1  C   UNL d   1      -4.876  -0.004   3.366  0.00  0.00     0.124 A 
ATOM      2  C1  UNL d   1      -4.035  -0.947   3.942  0.00  0.00     0.062 A 
ATOM      3  C2  UNL d   1      -2.867  -1.333   3.291  0.00  0.00     0.162 A 
ATOM      4  C3  UNL d   1      -2.532  -0.776   2.057  0.00  0.00    -0.034 A 
ATOM      5  C4  UNL d   1      -3.383   0.171   1.484  0.00  0.00     0.162 A 
ATOM      6  C5  UNL d   1      -4.549   0.554   2.138  0.00  0.00     0.062 A 
ATOM      7  F   UNL d   1      -5.360   1.464   1.581  0.00  0.00    -0.097 F 
ATOM      8  F1  UNL d   1      -3.091   0.727   0.299  0.00  0.00    -0.096 F 
ATOM      9  I   UNL d   1      -0.786  -1.350   1.081  0.00  0.00    -0.060 I 
ATOM     10  F2  UNL d   1      -2.073  -2.246   3.870  0.00  0.00    -0.096 F 
ATOM     11  F3  UNL d   1      -4.349  -1.488   5.127  0.00  0.00    -0.097 F 
ATOM     12  F4  UNL d   1      -6.000   0.365   3.994  0.00  0.00    -0.092 F 
ENDROOT
TORSDOF 0
ENDMDL
