MODEL 1
REMARK minimizedAffinity 8.54259682
REMARK minimizedRMSD -1
REMARK  0 active torsions:
REMARK  status: ('A' for Active; 'I' for Inactive)
ROOT
ATOM      1  C   UNL d   1       0.096   0.462   0.647  0.00  0.00     0.124 A 
ATOM      2  C1  UNL d   1       0.279  -0.633   1.481  0.00  0.00     0.062 A 
ATOM      3  C2  UNL d   1      -0.738  -1.034   2.342  0.00  0.00     0.162 A 
ATOM      4  C3  UNL d   1      -1.949  -0.341   2.373  0.00  0.00    -0.034 A 
ATOM      5  C4  UNL d   1      -2.124   0.759   1.531  0.00  0.00     0.162 A 
ATOM      6  C5  UNL d   1      -1.105   1.156   0.673  0.00  0.00     0.062 A 
ATOM      7  F   UNL d   1      -1.283   2.214  -0.133  0.00  0.00    -0.097 F 
ATOM      8  F1  UNL d   1      -3.275   1.448   1.535  0.00  0.00    -0.096 F 
ATOM      9  I   UNL d   1      -3.472  -0.937   3.659  0.00  0.00    -0.060 I 
ATOM     10  F2  UNL d   1      -0.535  -2.094   3.137  0.00  0.00    -0.096 F 
ATOM     11  F3  UNL d   1       1.439  -1.305   1.459  0.00  0.00    -0.097 F 
ATOM     12  F4  UNL d   1       1.077   0.846  -0.180  0.00  0.00    -0.092 F 
ENDROOT
TORSDOF 0
ENDMDL
