MODEL 1
REMARK minimizedAffinity 3.91420937
REMARK minimizedRMSD -1
REMARK  0 active torsions:
REMARK  status: ('A' for Active; 'I' for Inactive)
ROOT
ATOM      1  C   UNL d   1       2.287   2.898  -2.374  0.00  0.00     0.124 A 
ATOM      2  C1  UNL d   1       3.616   3.001  -1.985  0.00  0.00     0.062 A 
ATOM      3  C2  UNL d   1       4.623   3.067  -2.944  0.00  0.00     0.162 A 
ATOM      4  C3  UNL d   1       4.305   3.031  -4.302  0.00  0.00    -0.034 A 
ATOM      5  C4  UNL d   1       2.967   2.927  -4.685  0.00  0.00     0.162 A 
ATOM      6  C5  UNL d   1       1.964   2.861  -3.723  0.00  0.00     0.062 A 
ATOM      7  F   UNL d   1       0.682   2.762  -4.101  0.00  0.00    -0.097 F 
ATOM      8  F1  UNL d   1       2.627   2.890  -5.982  0.00  0.00    -0.096 F 
ATOM      9  I   UNL d   1       5.808   3.129  -5.738  0.00  0.00    -0.060 I 
ATOM     10  F2  UNL d   1       5.898   3.166  -2.539  0.00  0.00    -0.096 F 
ATOM     11  F3  UNL d   1       3.931   3.036  -0.683  0.00  0.00    -0.097 F 
ATOM     12  F4  UNL d   1       1.321   2.834  -1.450  0.00  0.00    -0.092 F 
ENDROOT
TORSDOF 0
ENDMDL
