MODEL 1
REMARK minimizedAffinity 17.6192112
REMARK minimizedRMSD -1
REMARK  0 active torsions:
REMARK  status: ('A' for Active; 'I' for Inactive)
ROOT
ATOM      1  C   UNL d   1      -0.731  -0.625   1.038  0.00  0.00     0.124 A 
ATOM      2  C1  UNL d   1      -1.689   0.379   1.056  0.00  0.00     0.062 A 
ATOM      3  C2  UNL d   1      -2.742   0.325   1.965  0.00  0.00     0.162 A 
ATOM      4  C3  UNL d   1      -2.842  -0.737   2.864  0.00  0.00    -0.034 A 
ATOM      5  C4  UNL d   1      -1.876  -1.744   2.838  0.00  0.00     0.162 A 
ATOM      6  C5  UNL d   1      -0.825  -1.685   1.928  0.00  0.00     0.062 A 
ATOM      7  F   UNL d   1       0.099  -2.657   1.911  0.00  0.00    -0.097 F 
ATOM      8  F1  UNL d   1      -1.941  -2.779   3.688  0.00  0.00    -0.096 F 
ATOM      9  I   UNL d   1      -4.415  -0.822   4.224  0.00  0.00    -0.060 I 
ATOM     10  F2  UNL d   1      -3.654   1.309   1.961  0.00  0.00    -0.096 F 
ATOM     11  F3  UNL d   1      -1.602   1.404   0.196  0.00  0.00    -0.097 F 
ATOM     12  F4  UNL d   1       0.280  -0.571   0.161  0.00  0.00    -0.092 F 
ENDROOT
TORSDOF 0
ENDMDL
