MODEL 1
REMARK minimizedAffinity 5.53551006
REMARK minimizedRMSD -1
REMARK  0 active torsions:
REMARK  status: ('A' for Active; 'I' for Inactive)
ROOT
ATOM      1  C   UNL d   1       0.834   3.931   3.369  0.00  0.00     0.124 A 
ATOM      2  C1  UNL d   1      -0.515   4.102   3.090  0.00  0.00     0.062 A 
ATOM      3  C2  UNL d   1      -1.132   3.322   2.116  0.00  0.00     0.162 A 
ATOM      4  C3  UNL d   1      -0.401   2.364   1.414  0.00  0.00    -0.034 A 
ATOM      5  C4  UNL d   1       0.956   2.199   1.700  0.00  0.00     0.162 A 
ATOM      6  C5  UNL d   1       1.568   2.981   2.674  0.00  0.00     0.062 A 
ATOM      7  F   UNL d   1       2.871   2.815   2.943  0.00  0.00    -0.097 F 
ATOM      8  F1  UNL d   1       1.689   1.287   1.044  0.00  0.00    -0.096 F 
ATOM      9  I   UNL d   1      -1.319   1.196  -0.043  0.00  0.00    -0.060 I 
ATOM     10  F2  UNL d   1      -2.437   3.508   1.866  0.00  0.00    -0.096 F 
ATOM     11  F3  UNL d   1      -1.226   5.020   3.759  0.00  0.00    -0.097 F 
ATOM     12  F4  UNL d   1       1.425   4.684   4.306  0.00  0.00    -0.092 F 
ENDROOT
TORSDOF 0
ENDMDL
