MODEL 1
REMARK minimizedAffinity 6.60491323
REMARK minimizedRMSD -1
REMARK  0 active torsions:
REMARK  status: ('A' for Active; 'I' for Inactive)
ROOT
ATOM      1  C   UNL d   1      -3.419  -0.868   4.365  0.00  0.00     0.124 A 
ATOM      2  C1  UNL d   1      -2.162  -1.315   3.981  0.00  0.00     0.062 A 
ATOM      3  C2  UNL d   1      -1.578  -0.840   2.811  0.00  0.00     0.162 A 
ATOM      4  C3  UNL d   1      -2.249   0.090   2.017  0.00  0.00    -0.034 A 
ATOM      5  C4  UNL d   1      -3.512   0.535   2.409  0.00  0.00     0.162 A 
ATOM      6  C5  UNL d   1      -4.093   0.056   3.580  0.00  0.00     0.062 A 
ATOM      7  F   UNL d   1      -5.306   0.490   3.949  0.00  0.00    -0.097 F 
ATOM      8  F1  UNL d   1      -4.185   1.429   1.669  0.00  0.00    -0.096 F 
ATOM      9  I   UNL d   1      -1.378   0.804   0.266  0.00  0.00    -0.060 I 
ATOM     10  F2  UNL d   1      -0.363  -1.289   2.464  0.00  0.00    -0.096 F 
ATOM     11  F3  UNL d   1      -1.510  -2.209   4.738  0.00  0.00    -0.097 F 
ATOM     12  F4  UNL d   1      -3.979  -1.328   5.491  0.00  0.00    -0.092 F 
ENDROOT
TORSDOF 0
ENDMDL
