MODEL 1
REMARK minimizedAffinity 4.62099409
REMARK minimizedRMSD -1
REMARK  0 active torsions:
REMARK  status: ('A' for Active; 'I' for Inactive)
ROOT
ATOM      1  C   UNL d   1      -0.436   0.248   0.766  0.00  0.00     0.124 A 
ATOM      2  C1  UNL d   1      -1.672   0.861   0.620  0.00  0.00     0.062 A 
ATOM      3  C2  UNL d   1      -2.742   0.480   1.425  0.00  0.00     0.162 A 
ATOM      4  C3  UNL d   1      -2.580  -0.520   2.384  0.00  0.00    -0.034 A 
ATOM      5  C4  UNL d   1      -1.334  -1.133   2.524  0.00  0.00     0.162 A 
ATOM      6  C5  UNL d   1      -0.268  -0.748   1.717  0.00  0.00     0.062 A 
ATOM      7  F   UNL d   1       0.926  -1.342   1.859  0.00  0.00    -0.097 F 
ATOM      8  F1  UNL d   1      -1.143  -2.098   3.435  0.00  0.00    -0.096 F 
ATOM      9  I   UNL d   1      -4.177  -1.094   3.589  0.00  0.00    -0.060 I 
ATOM     10  F2  UNL d   1      -3.926   1.090   1.263  0.00  0.00    -0.096 F 
ATOM     11  F3  UNL d   1      -1.838   1.824  -0.298  0.00  0.00    -0.097 F 
ATOM     12  F4  UNL d   1       0.591   0.616  -0.010  0.00  0.00    -0.092 F 
ENDROOT
TORSDOF 0
ENDMDL
