MODEL 1
REMARK minimizedAffinity 9.67960835
REMARK minimizedRMSD -1
REMARK  0 active torsions:
REMARK  status: ('A' for Active; 'I' for Inactive)
ROOT
ATOM      1  C   UNL d   1       0.912   3.829   3.111  0.00  0.00     0.124 A 
ATOM      2  C1  UNL d   1       1.656   2.936   2.353  0.00  0.00     0.062 A 
ATOM      3  C2  UNL d   1       1.020   2.065   1.473  0.00  0.00     0.162 A 
ATOM      4  C3  UNL d   1      -0.368   2.084   1.344  0.00  0.00    -0.034 A 
ATOM      5  C4  UNL d   1      -1.111   2.985   2.111  0.00  0.00     0.162 A 
ATOM      6  C5  UNL d   1      -0.471   3.853   2.989  0.00  0.00     0.062 A 
ATOM      7  F   UNL d   1      -1.192   4.715   3.721  0.00  0.00    -0.097 F 
ATOM      8  F1  UNL d   1      -2.448   3.029   2.012  0.00  0.00    -0.096 F 
ATOM      9  I   UNL d   1      -1.323   0.784   0.029  0.00  0.00    -0.060 I 
ATOM     10  F2  UNL d   1       1.765   1.213   0.753  0.00  0.00    -0.096 F 
ATOM     11  F3  UNL d   1       2.992   2.911   2.470  0.00  0.00    -0.097 F 
ATOM     12  F4  UNL d   1       1.526   4.665   3.958  0.00  0.00    -0.092 F 
ENDROOT
TORSDOF 0
ENDMDL
