MODEL 1
REMARK minimizedAffinity 6.11221552
REMARK minimizedRMSD -1
REMARK  0 active torsions:
REMARK  status: ('A' for Active; 'I' for Inactive)
ROOT
ATOM      1  C   UNL d   1      -3.117  -1.378   4.616  0.00  0.00     0.124 A 
ATOM      2  C1  UNL d   1      -3.763  -0.385   3.893  0.00  0.00     0.062 A 
ATOM      3  C2  UNL d   1      -3.199   0.108   2.720  0.00  0.00     0.162 A 
ATOM      4  C3  UNL d   1      -1.980  -0.393   2.261  0.00  0.00    -0.034 A 
ATOM      5  C4  UNL d   1      -1.336  -1.391   2.994  0.00  0.00     0.162 A 
ATOM      6  C5  UNL d   1      -1.904  -1.880   4.166  0.00  0.00     0.062 A 
ATOM      7  F   UNL d   1      -1.278  -2.840   4.862  0.00  0.00    -0.097 F 
ATOM      8  F1  UNL d   1      -0.163  -1.895   2.582  0.00  0.00    -0.096 F 
ATOM      9  I   UNL d   1      -1.132   0.341   0.508  0.00  0.00    -0.060 I 
ATOM     10  F2  UNL d   1      -3.845   1.068   2.042  0.00  0.00    -0.096 F 
ATOM     11  F3  UNL d   1      -4.935   0.103   4.326  0.00  0.00    -0.097 F 
ATOM     12  F4  UNL d   1      -3.662  -1.850   5.744  0.00  0.00    -0.092 F 
ENDROOT
TORSDOF 0
ENDMDL
