MODEL 1
REMARK minimizedAffinity 12.3241138
REMARK minimizedRMSD -1
REMARK  0 active torsions:
REMARK  status: ('A' for Active; 'I' for Inactive)
ROOT
ATOM      1  C   UNL d   1      -0.073  -4.291  -3.208  0.00  0.00     0.124 A 
ATOM      2  C1  UNL d   1      -1.241  -4.271  -2.457  0.00  0.00     0.062 A 
ATOM      3  C2  UNL d   1      -1.290  -3.565  -1.258  0.00  0.00     0.162 A 
ATOM      4  C3  UNL d   1      -0.168  -2.871  -0.803  0.00  0.00    -0.034 A 
ATOM      5  C4  UNL d   1       1.002  -2.897  -1.564  0.00  0.00     0.162 A 
ATOM      6  C5  UNL d   1       1.047  -3.604  -2.761  0.00  0.00     0.062 A 
ATOM      7  F   UNL d   1       2.175  -3.622  -3.485  0.00  0.00    -0.097 F 
ATOM      8  F1  UNL d   1       2.099  -2.241  -1.156  0.00  0.00    -0.096 F 
ATOM      9  I   UNL d   1      -0.238  -1.814   0.988  0.00  0.00    -0.060 I 
ATOM     10  F2  UNL d   1      -2.431  -3.563  -0.553  0.00  0.00    -0.096 F 
ATOM     11  F3  UNL d   1      -2.324  -4.934  -2.886  0.00  0.00    -0.097 F 
ATOM     12  F4  UNL d   1      -0.028  -4.972  -4.360  0.00  0.00    -0.092 F 
ENDROOT
TORSDOF 0
ENDMDL
