MODEL 1
REMARK minimizedAffinity 0.258588493
REMARK minimizedRMSD -1
REMARK  0 active torsions:
REMARK  status: ('A' for Active; 'I' for Inactive)
ROOT
ATOM      1  C   UNL d   1       0.984   0.033   1.671  0.00  0.00     0.172 C 
ATOM      2  N   UNL d   1      -0.450   0.156   1.552  0.00  0.00    -0.070 N 
ATOM      3  C1  UNL d   1      -1.373  -0.469   2.348  0.00  0.00    -0.004 A 
ATOM      4  C2  UNL d   1      -2.626  -0.094   1.914  0.00  0.00    -0.047 A 
ATOM      5  C3  UNL d   1      -2.450   0.784   0.818  0.00  0.00    -0.047 A 
ATOM      6  C4  UNL d   1      -1.093   0.922   0.616  0.00  0.00    -0.004 A 
ENDROOT
TORSDOF 0
ENDMDL
