MODEL 1
REMARK minimizedAffinity 5.25321722
REMARK minimizedRMSD -1
REMARK  0 active torsions:
REMARK  status: ('A' for Active; 'I' for Inactive)
ROOT
ATOM      1  C   UNL d   1       2.264   3.364  -6.000  0.00  0.00     0.172 C 
ATOM      2  N   UNL d   1       1.483   4.159  -5.082  0.00  0.00    -0.070 N 
ATOM      3  C1  UNL d   1       1.098   5.459  -5.279  0.00  0.00    -0.004 A 
ATOM      4  C2  UNL d   1       0.370   5.855  -4.178  0.00  0.00    -0.047 A 
ATOM      5  C3  UNL d   1       0.316   4.756  -3.288  0.00  0.00    -0.047 A 
ATOM      6  C4  UNL d   1       1.013   3.720  -3.872  0.00  0.00    -0.004 A 
ENDROOT
TORSDOF 0
ENDMDL
