MODEL 1
REMARK minimizedAffinity 0.422385514
REMARK minimizedRMSD -1
REMARK  0 active torsions:
REMARK  status: ('A' for Active; 'I' for Inactive)
ROOT
ATOM      1  C   UNL d   1      -5.611   4.400   4.424  0.00  0.00     0.172 C 
ATOM      2  N   UNL d   1      -5.657   2.989   4.728  0.00  0.00    -0.070 N 
ATOM      3  C1  UNL d   1      -5.750   1.977   3.810  0.00  0.00    -0.004 A 
ATOM      4  C2  UNL d   1      -5.766   0.783   4.498  0.00  0.00    -0.047 A 
ATOM      5  C3  UNL d   1      -5.680   1.088   5.878  0.00  0.00    -0.047 A 
ATOM      6  C4  UNL d   1      -5.615   2.460   5.992  0.00  0.00    -0.004 A 
ENDROOT
TORSDOF 0
ENDMDL
