MODEL 1
REMARK minimizedAffinity 8.58034229
REMARK minimizedRMSD -1
REMARK  0 active torsions:
REMARK  status: ('A' for Active; 'I' for Inactive)
ROOT
ATOM      1  C   UNL d   1       5.768   0.168   3.000  0.00  0.00     0.172 C 
ATOM      2  N   UNL d   1       4.492   0.447   2.385  0.00  0.00    -0.070 N 
ATOM      3  C1  UNL d   1       3.283  -0.048   2.796  0.00  0.00    -0.004 A 
ATOM      4  C2  UNL d   1       2.313   0.452   1.953  0.00  0.00    -0.047 A 
ATOM      5  C3  UNL d   1       2.963   1.273   1.001  0.00  0.00    -0.047 A 
ATOM      6  C4  UNL d   1       4.310   1.252   1.292  0.00  0.00    -0.004 A 
ENDROOT
TORSDOF 0
ENDMDL
