MODEL 1
REMARK minimizedAffinity -0.0446344241
REMARK minimizedRMSD -1
REMARK  0 active torsions:
REMARK  status: ('A' for Active; 'I' for Inactive)
ROOT
ATOM      1  C   UNL d   1      -6.000   5.559   5.999  0.00  0.00     0.172 C 
ATOM      2  N   UNL d   1      -5.344   4.272   5.999  0.00  0.00    -0.070 N 
ATOM      3  C1  UNL d   1      -5.972   3.055   5.999  0.00  0.00    -0.004 A 
ATOM      4  C2  UNL d   1      -5.000   2.079   5.998  0.00  0.00    -0.047 A 
ATOM      5  C3  UNL d   1      -3.744   2.731   5.998  0.00  0.00    -0.047 A 
ATOM      6  C4  UNL d   1      -3.986   4.088   5.999  0.00  0.00    -0.004 A 
ENDROOT
TORSDOF 0
ENDMDL
