MODEL 1
REMARK minimizedAffinity 0.633323789
REMARK minimizedRMSD -1
REMARK  0 active torsions:
REMARK  status: ('A' for Active; 'I' for Inactive)
ROOT
ATOM      1  C   UNL d   1       1.863   3.866  -5.988  0.00  0.00     0.172 C 
ATOM      2  N   UNL d   1       3.082   3.120  -5.782  0.00  0.00    -0.070 N 
ATOM      3  C1  UNL d   1       3.162   1.826  -5.341  0.00  0.00    -0.004 A 
ATOM      4  C2  UNL d   1       4.495   1.483  -5.278  0.00  0.00    -0.047 A 
ATOM      5  C3  UNL d   1       5.242   2.610  -5.694  0.00  0.00    -0.047 A 
ATOM      6  C4  UNL d   1       4.343   3.609  -6.000  0.00  0.00    -0.004 A 
ENDROOT
TORSDOF 0
ENDMDL
