MODEL 1
REMARK minimizedAffinity -2.84093833
REMARK minimizedRMSD -1
REMARK  0 active torsions:
REMARK  status: ('A' for Active; 'I' for Inactive)
ROOT
ATOM      1  C   UNL d   1       0.033   2.433  -5.998  0.00  0.00     0.172 C 
ATOM      2  N   UNL d   1       0.256   3.727  -5.396  0.00  0.00    -0.070 N 
ATOM      3  C1  UNL d   1       1.112   3.988  -4.359  0.00  0.00    -0.004 A 
ATOM      4  C2  UNL d   1       1.037   5.335  -4.079  0.00  0.00    -0.047 A 
ATOM      5  C3  UNL d   1       0.103   5.903  -4.978  0.00  0.00    -0.047 A 
ATOM      6  C4  UNL d   1      -0.365   4.885  -5.781  0.00  0.00    -0.004 A 
ENDROOT
TORSDOF 0
ENDMDL
