MODEL 1
REMARK minimizedAffinity 2.96412683
REMARK minimizedRMSD -1
REMARK  0 active torsions:
REMARK  status: ('A' for Active; 'I' for Inactive)
ROOT
ATOM      1  C   UNL d   1      -5.978  -2.093   5.992  0.00  0.00     0.172 C 
ATOM      2  N   UNL d   1      -5.337  -0.799   5.995  0.00  0.00    -0.070 N 
ATOM      3  C1  UNL d   1      -3.986  -0.577   5.998  0.00  0.00    -0.004 A 
ATOM      4  C2  UNL d   1      -3.782   0.786   6.000  0.00  0.00    -0.047 A 
ATOM      5  C3  UNL d   1      -5.055   1.404   5.999  0.00  0.00    -0.047 A 
ATOM      6  C4  UNL d   1      -6.000   0.400   5.996  0.00  0.00    -0.004 A 
ENDROOT
TORSDOF 0
ENDMDL
