MODEL 1
REMARK minimizedAffinity 1.05192053
REMARK minimizedRMSD -1
REMARK  0 active torsions:
REMARK  status: ('A' for Active; 'I' for Inactive)
ROOT
ATOM      1  C   UNL d   1       2.098  -0.247   0.181  0.00  0.00     0.172 C 
ATOM      2  N   UNL d   1       0.884   0.015   0.918  0.00  0.00    -0.070 N 
ATOM      3  C1  UNL d   1       0.811   0.598   2.155  0.00  0.00    -0.004 A 
ATOM      4  C2  UNL d   1      -0.518   0.670   2.510  0.00  0.00    -0.047 A 
ATOM      5  C3  UNL d   1      -1.271   0.112   1.450  0.00  0.00    -0.047 A 
ATOM      6  C4  UNL d   1      -0.378  -0.286   0.477  0.00  0.00    -0.004 A 
ENDROOT
TORSDOF 0
ENDMDL
