MODEL 1
REMARK minimizedAffinity 3.5922215
REMARK minimizedRMSD -1
REMARK  0 active torsions:
REMARK  status: ('A' for Active; 'I' for Inactive)
ROOT
ATOM      1  C   UNL d   1      -0.619   2.027  -6.000  0.00  0.00     0.172 C 
ATOM      2  N   UNL d   1       0.005   3.246  -5.543  0.00  0.00    -0.070 N 
ATOM      3  C1  UNL d   1      -0.501   4.095  -4.594  0.00  0.00    -0.004 A 
ATOM      4  C2  UNL d   1       0.388   5.136  -4.442  0.00  0.00    -0.047 A 
ATOM      5  C3  UNL d   1       1.465   4.906  -5.331  0.00  0.00    -0.047 A 
ATOM      6  C4  UNL d   1       1.202   3.730  -6.000  0.00  0.00    -0.004 A 
ENDROOT
TORSDOF 0
ENDMDL
