MODEL 1
REMARK minimizedAffinity 3.53203201
REMARK minimizedRMSD -1
REMARK  0 active torsions:
REMARK  status: ('A' for Active; 'I' for Inactive)
ROOT
ATOM      1  C   UNL d   1      -4.244   1.604   2.156  0.00  0.00     0.172 C 
ATOM      2  N   UNL d   1      -2.949   1.110   1.752  0.00  0.00    -0.070 N 
ATOM      3  C1  UNL d   1      -2.658   0.526   0.548  0.00  0.00    -0.004 A 
ATOM      4  C2  UNL d   1      -1.320   0.194   0.553  0.00  0.00    -0.047 A 
ATOM      5  C3  UNL d   1      -0.789   0.592   1.803  0.00  0.00    -0.047 A 
ATOM      6  C4  UNL d   1      -1.820   1.155   2.526  0.00  0.00    -0.004 A 
ENDROOT
TORSDOF 0
ENDMDL
