MODEL 1
REMARK minimizedAffinity -1.80796421
REMARK minimizedRMSD -1
REMARK  0 active torsions:
REMARK  status: ('A' for Active; 'I' for Inactive)
ROOT
ATOM      1  C   UNL d   1      -1.979   1.315   2.828  0.00  0.00     0.172 C 
ATOM      2  N   UNL d   1      -3.405   1.421   3.024  0.00  0.00    -0.070 N 
ATOM      3  C1  UNL d   1      -4.043   1.479   4.235  0.00  0.00    -0.004 A 
ATOM      4  C2  UNL d   1      -5.396   1.577   3.995  0.00  0.00    -0.047 A 
ATOM      5  C3  UNL d   1      -5.579   1.576   2.592  0.00  0.00    -0.047 A 
ATOM      6  C4  UNL d   1      -4.330   1.479   2.015  0.00  0.00    -0.004 A 
ENDROOT
TORSDOF 0
ENDMDL
