MODEL 1
REMARK minimizedAffinity 3.120893
REMARK minimizedRMSD -1
REMARK  0 active torsions:
REMARK  status: ('A' for Active; 'I' for Inactive)
ROOT
ATOM      1  C   UNL d   1       0.256   0.000   0.830  0.00  0.00     0.172 C 
ATOM      2  N   UNL d   1      -0.836   0.684   1.481  0.00  0.00    -0.070 N 
ATOM      3  C1  UNL d   1      -2.101   0.831   0.976  0.00  0.00    -0.004 A 
ATOM      4  C2  UNL d   1      -2.843   1.539   1.897  0.00  0.00    -0.047 A 
ATOM      5  C3  UNL d   1      -1.995   1.828   2.992  0.00  0.00    -0.047 A 
ATOM      6  C4  UNL d   1      -0.759   1.287   2.709  0.00  0.00    -0.004 A 
ENDROOT
TORSDOF 0
ENDMDL
