MODEL 1
REMARK minimizedAffinity 2.08878207
REMARK minimizedRMSD -1
REMARK  0 active torsions:
REMARK  status: ('A' for Active; 'I' for Inactive)
ROOT
ATOM      1  C   UNL d   1       0.996   2.185   3.346  0.00  0.00     0.172 C 
ATOM      2  N   UNL d   1       0.851   1.261   2.246  0.00  0.00    -0.070 N 
ATOM      3  C1  UNL d   1      -0.272   0.532   1.958  0.00  0.00    -0.004 A 
ATOM      4  C2  UNL d   1      -0.008  -0.225   0.837  0.00  0.00    -0.047 A 
ATOM      5  C3  UNL d   1       1.320   0.058   0.437  0.00  0.00    -0.047 A 
ATOM      6  C4  UNL d   1       1.828   0.981   1.327  0.00  0.00    -0.004 A 
ENDROOT
TORSDOF 0
ENDMDL
