MODEL 1
REMARK minimizedAffinity 3.9486053
REMARK minimizedRMSD -1
REMARK  0 active torsions:
REMARK  status: ('A' for Active; 'I' for Inactive)
ROOT
ATOM      1  C   UNL d   1      -1.760  -2.968   0.459  0.00  0.00     0.172 C 
ATOM      2  N   UNL d   1      -1.996  -1.544   0.508  0.00  0.00    -0.070 N 
ATOM      3  C1  UNL d   1      -3.186  -0.922   0.235  0.00  0.00    -0.004 A 
ATOM      4  C2  UNL d   1      -2.999   0.434   0.395  0.00  0.00    -0.047 A 
ATOM      5  C3  UNL d   1      -1.651   0.634   0.776  0.00  0.00    -0.047 A 
ATOM      6  C4  UNL d   1      -1.053  -0.607   0.839  0.00  0.00    -0.004 A 
ENDROOT
TORSDOF 0
ENDMDL
