MODEL 1
REMARK minimizedAffinity 5.01148748
REMARK minimizedRMSD -1
REMARK  0 active torsions:
REMARK  status: ('A' for Active; 'I' for Inactive)
ROOT
ATOM      1  C   UNL d   1       1.130   4.490  -2.379  0.00  0.00     0.172 C 
ATOM      2  N   UNL d   1       0.859   4.380  -3.793  0.00  0.00    -0.070 N 
ATOM      3  C1  UNL d   1       1.756   4.622  -4.799  0.00  0.00    -0.004 A 
ATOM      4  C2  UNL d   1       1.114   4.407  -5.999  0.00  0.00    -0.047 A 
ATOM      5  C3  UNL d   1      -0.216   4.024  -5.704  0.00  0.00    -0.047 A 
ATOM      6  C4  UNL d   1      -0.347   4.015  -4.332  0.00  0.00    -0.004 A 
ENDROOT
TORSDOF 0
ENDMDL
