MODEL 1
REMARK minimizedAffinity 5.82955694
REMARK minimizedRMSD -1
REMARK  1 active torsions:
REMARK  status: ('A' for Active; 'I' for Inactive)
REMARK    1  A    between atoms: C1_2  and  C2_3 
ROOT
ATOM      1  C2  UNL d   1      -0.904  -0.370   1.586  0.00  0.00    -0.081 A 
ATOM      2  C3  UNL d   1      -0.622   0.083   2.881  0.00  0.00     0.006 A 
ATOM      3  C4  UNL d   1       0.397  -0.509   3.632  0.00  0.00     0.002 A 
ATOM      4  C5  UNL d   1       1.154  -1.558   3.098  0.00  0.00    -0.080 A 
ATOM      5  C6  UNL d   1       2.270  -2.182   3.882  0.00  0.00     0.076 C 
ATOM      6  C7  UNL d   1       0.860  -2.022   1.812  0.00  0.00     0.002 A 
ATOM      7  C8  UNL d   1      -0.158  -1.431   1.061  0.00  0.00     0.006 A 
ENDROOT
BRANCH   1   8
ATOM      8  C1  UNL d   1      -1.958   0.309   0.750  0.00  0.00     0.054 C 
ATOM      9  C   UNL d   1      -2.427   1.605   1.395  0.00  0.00     0.018 C 
ENDBRANCH   1   8
TORSDOF 1
ENDMDL
