MODEL 1
REMARK minimizedAffinity -0.174063519
REMARK minimizedRMSD -1
REMARK  1 active torsions:
REMARK  status: ('A' for Active; 'I' for Inactive)
REMARK    1  A    between atoms: C1_2  and  C2_3 
ROOT
ATOM      1  C2  UNL d   1      -0.659  -2.275  -2.667  0.00  0.00    -0.081 A 
ATOM      2  C3  UNL d   1      -0.782  -0.893  -2.482  0.00  0.00     0.006 A 
ATOM      3  C4  UNL d   1      -0.542  -0.012  -3.539  0.00  0.00     0.002 A 
ATOM      4  C5  UNL d   1      -0.183  -0.499  -4.801  0.00  0.00    -0.080 A 
ATOM      5  C6  UNL d   1       0.049   0.434  -5.952  0.00  0.00     0.076 C 
ATOM      6  C7  UNL d   1      -0.042  -1.879  -4.982  0.00  0.00     0.002 A 
ATOM      7  C8  UNL d   1      -0.282  -2.760  -3.925  0.00  0.00     0.006 A 
ENDROOT
BRANCH   1   8
ATOM      8  C1  UNL d   1      -0.980  -3.231  -1.547  0.00  0.00     0.054 C 
ATOM      9  C   UNL d   1      -1.524  -2.494  -0.331  0.00  0.00     0.018 C 
ENDBRANCH   1   8
TORSDOF 1
ENDMDL
