MODEL 1
REMARK minimizedAffinity -3.83444715
REMARK minimizedRMSD -1
REMARK  1 active torsions:
REMARK  status: ('A' for Active; 'I' for Inactive)
REMARK    1  A    between atoms: C1_2  and  C2_3 
ROOT
ATOM      1  C2  UNL d   1       1.062   0.645  -5.631  0.00  0.00    -0.081 A 
ATOM      2  C3  UNL d   1       0.523  -0.640  -5.494  0.00  0.00     0.006 A 
ATOM      3  C4  UNL d   1      -0.834  -0.812  -5.213  0.00  0.00     0.002 A 
ATOM      4  C5  UNL d   1      -1.676   0.296  -5.072  0.00  0.00    -0.080 A 
ATOM      5  C6  UNL d   1      -3.141   0.124  -4.800  0.00  0.00     0.076 C 
ATOM      6  C7  UNL d   1      -1.135   1.580  -5.192  0.00  0.00     0.002 A 
ATOM      7  C8  UNL d   1       0.223   1.753  -5.472  0.00  0.00     0.006 A 
ENDROOT
BRANCH   1   8
ATOM      8  C1  UNL d   1       2.512   0.833  -5.999  0.00  0.00     0.054 C 
ATOM      9  C   UNL d   1       3.226   1.726  -4.994  0.00  0.00     0.018 C 
ENDBRANCH   1   8
TORSDOF 1
ENDMDL
