MODEL 1
REMARK minimizedAffinity 6.2438097
REMARK minimizedRMSD -1
REMARK  1 active torsions:
REMARK  status: ('A' for Active; 'I' for Inactive)
REMARK    1  A    between atoms: C1_2  and  C2_3 
ROOT
ATOM      1  C2  UNL d   1      -0.289  -0.548  -4.759  0.00  0.00    -0.081 A 
ATOM      2  C3  UNL d   1      -0.660  -0.038  -3.509  0.00  0.00     0.006 A 
ATOM      3  C4  UNL d   1      -0.671  -0.863  -2.382  0.00  0.00     0.002 A 
ATOM      4  C5  UNL d   1      -0.303  -2.209  -2.484  0.00  0.00    -0.080 A 
ATOM      5  C6  UNL d   1      -0.281  -3.098  -1.276  0.00  0.00     0.076 C 
ATOM      6  C7  UNL d   1       0.051  -2.723  -3.736  0.00  0.00     0.002 A 
ATOM      7  C8  UNL d   1       0.061  -1.899  -4.863  0.00  0.00     0.006 A 
ENDROOT
BRANCH   1   8
ATOM      8  C1  UNL d   1      -0.214   0.354  -5.964  0.00  0.00     0.054 C 
ATOM      9  C   UNL d   1       1.100   1.122  -6.000  0.00  0.00     0.018 C 
ENDBRANCH   1   8
TORSDOF 1
ENDMDL
