MODEL 1
REMARK minimizedAffinity 2.96589494
REMARK minimizedRMSD -1
REMARK  1 active torsions:
REMARK  status: ('A' for Active; 'I' for Inactive)
REMARK    1  A    between atoms: C1_2  and  C2_3 
ROOT
ATOM      1  C2  UNL d   1       4.690   3.483   3.037  0.00  0.00    -0.081 A 
ATOM      2  C3  UNL d   1       5.110   3.785   4.338  0.00  0.00     0.006 A 
ATOM      3  C4  UNL d   1       5.500   2.766   5.210  0.00  0.00     0.002 A 
ATOM      4  C5  UNL d   1       5.484   1.430   4.794  0.00  0.00    -0.080 A 
ATOM      5  C6  UNL d   1       5.929   0.329   5.710  0.00  0.00     0.076 C 
ATOM      6  C7  UNL d   1       5.048   1.127   3.499  0.00  0.00     0.002 A 
ATOM      7  C8  UNL d   1       4.657   2.146   2.627  0.00  0.00     0.006 A 
ENDROOT
BRANCH   1   8
ATOM      8  C1  UNL d   1       4.330   4.585   2.073  0.00  0.00     0.054 C 
ATOM      9  C   UNL d   1       5.575   5.258   1.512  0.00  0.00     0.018 C 
ENDBRANCH   1   8
TORSDOF 1
ENDMDL
