MODEL 1
REMARK minimizedAffinity 0.0894492269
REMARK minimizedRMSD -1
REMARK  1 active torsions:
REMARK  status: ('A' for Active; 'I' for Inactive)
REMARK    1  A    between atoms: C1_2  and  C2_3 
ROOT
ATOM      1  C2  UNL d   1      -2.770  -0.435  -5.428  0.00  0.00    -0.081 A 
ATOM      2  C3  UNL d   1      -2.384  -1.654  -5.998  0.00  0.00     0.006 A 
ATOM      3  C4  UNL d   1      -1.201  -2.280  -5.598  0.00  0.00     0.002 A 
ATOM      4  C5  UNL d   1      -0.389  -1.702  -4.616  0.00  0.00    -0.080 A 
ATOM      5  C6  UNL d   1       0.867  -2.379  -4.155  0.00  0.00     0.076 C 
ATOM      6  C7  UNL d   1      -0.766  -0.475  -4.059  0.00  0.00     0.002 A 
ATOM      7  C8  UNL d   1      -1.948   0.152  -4.459  0.00  0.00     0.006 A 
ENDROOT
BRANCH   1   8
ATOM      8  C1  UNL d   1      -4.077   0.211  -5.811  0.00  0.00     0.054 C 
ATOM      9  C   UNL d   1      -5.116   0.051  -4.710  0.00  0.00     0.018 C 
ENDBRANCH   1   8
TORSDOF 1
ENDMDL
