MODEL 1
REMARK minimizedAffinity 3.56604481
REMARK minimizedRMSD -1
REMARK  1 active torsions:
REMARK  status: ('A' for Active; 'I' for Inactive)
REMARK    1  A    between atoms: C1_2  and  C2_3 
ROOT
ATOM      1  C2  UNL d   1      -2.661  -0.637  -5.376  0.00  0.00    -0.081 A 
ATOM      2  C3  UNL d   1      -2.214  -1.808  -6.000  0.00  0.00     0.006 A 
ATOM      3  C4  UNL d   1      -0.952  -2.329  -5.706  0.00  0.00     0.002 A 
ATOM      4  C5  UNL d   1      -0.120  -1.693  -4.779  0.00  0.00    -0.080 A 
ATOM      5  C6  UNL d   1       1.225  -2.259  -4.432  0.00  0.00     0.076 C 
ATOM      6  C7  UNL d   1      -0.559  -0.513  -4.169  0.00  0.00     0.002 A 
ATOM      7  C8  UNL d   1      -1.821   0.009  -4.463  0.00  0.00     0.006 A 
ENDROOT
BRANCH   1   8
ATOM      8  C1  UNL d   1      -4.047  -0.108  -5.643  0.00  0.00     0.054 C 
ATOM      9  C   UNL d   1      -5.044  -0.627  -4.617  0.00  0.00     0.018 C 
ENDBRANCH   1   8
TORSDOF 1
ENDMDL
