MODEL 1
REMARK minimizedAffinity 19.2159195
REMARK minimizedRMSD -1
REMARK  2 active torsions:
REMARK  status: ('A' for Active; 'I' for Inactive)
REMARK    1  A    between atoms: C1_2  and  C2_3 
REMARK    2  A    between atoms: C2_3  and  C3_4 
ROOT
ATOM      1  C3  UNL d   1       0.059  -2.231   2.520  0.00  0.00    -0.075 A 
ATOM      2  C4  UNL d   1      -0.081  -0.906   2.957  0.00  0.00     0.002 A 
ATOM      3  C5  UNL d   1      -1.211  -0.163   2.614  0.00  0.00     0.002 A 
ATOM      4  C6  UNL d   1      -2.208  -0.730   1.824  0.00  0.00    -0.004 A 
ATOM      5  C7  UNL d   1      -2.071  -2.040   1.370  0.00  0.00     0.002 A 
ATOM      6  C8  UNL d   1      -0.944  -2.788   1.715  0.00  0.00     0.002 A 
ENDROOT
BRANCH   1   7
ATOM      7  C2  UNL d   1       1.265  -3.051   2.912  0.00  0.00     0.056 C 
BRANCH   7   8
ATOM      8  C1  UNL d   1       2.218  -2.336   3.877  0.00  0.00     0.007 C 
ATOM      9  C   UNL d   1       3.405  -1.688   3.178  0.00  0.00     0.009 C 
ENDBRANCH   7   8
ENDBRANCH   1   7
TORSDOF 2
ENDMDL
