MODEL 1
REMARK minimizedAffinity 9.04709435
REMARK minimizedRMSD -1
REMARK  2 active torsions:
REMARK  status: ('A' for Active; 'I' for Inactive)
REMARK    1  A    between atoms: C1_2  and  C2_3 
REMARK    2  A    between atoms: C2_3  and  C3_4 
ROOT
ATOM      1  C3  UNL d   1       3.366   3.317  -3.635  0.00  0.00    -0.075 A 
ATOM      2  C4  UNL d   1       4.354   4.017  -2.926  0.00  0.00     0.002 A 
ATOM      3  C5  UNL d   1       5.559   4.359  -3.541  0.00  0.00     0.002 A 
ATOM      4  C6  UNL d   1       5.795   3.999  -4.866  0.00  0.00    -0.004 A 
ATOM      5  C7  UNL d   1       4.827   3.290  -5.574  0.00  0.00     0.002 A 
ATOM      6  C8  UNL d   1       3.619   2.950  -4.963  0.00  0.00     0.002 A 
ENDROOT
BRANCH   1   7
ATOM      7  C2  UNL d   1       2.049   2.970  -2.984  0.00  0.00     0.056 C 
BRANCH   7   8
ATOM      8  C1  UNL d   1       0.935   3.988  -3.248  0.00  0.00     0.007 C 
ATOM      9  C   UNL d   1       1.026   5.221  -2.358  0.00  0.00     0.009 C 
ENDBRANCH   7   8
ENDBRANCH   1   7
TORSDOF 2
ENDMDL
