MODEL 1
REMARK minimizedAffinity 14.1451559
REMARK minimizedRMSD -1
REMARK  2 active torsions:
REMARK  status: ('A' for Active; 'I' for Inactive)
REMARK    1  A    between atoms: C1_2  and  C2_3 
REMARK    2  A    between atoms: C2_3  and  C3_4 
ROOT
ATOM      1  C3  UNL d   1      -3.384  -0.556   1.339  0.00  0.00    -0.075 A 
ATOM      2  C4  UNL d   1      -2.441  -1.533   0.988  0.00  0.00     0.002 A 
ATOM      3  C5  UNL d   1      -1.184  -1.554   1.593  0.00  0.00     0.002 A 
ATOM      4  C6  UNL d   1      -0.850  -0.594   2.546  0.00  0.00    -0.004 A 
ATOM      5  C7  UNL d   1      -1.773   0.391   2.890  0.00  0.00     0.002 A 
ATOM      6  C8  UNL d   1      -3.033   0.412   2.290  0.00  0.00     0.002 A 
ENDROOT
BRANCH   1   7
ATOM      7  C2  UNL d   1      -4.756  -0.545   0.710  0.00  0.00     0.056 C 
BRANCH   7   8
ATOM      8  C1  UNL d   1      -4.902   0.443  -0.452  0.00  0.00     0.007 C 
ATOM      9  C   UNL d   1      -5.154  -0.238  -1.791  0.00  0.00     0.009 C 
ENDBRANCH   7   8
ENDBRANCH   1   7
TORSDOF 2
ENDMDL
