MODEL 1
REMARK minimizedAffinity 10.1463003
REMARK minimizedRMSD -1
REMARK  2 active torsions:
REMARK  status: ('A' for Active; 'I' for Inactive)
REMARK    1  A    between atoms: C1_2  and  C2_3 
REMARK    2  A    between atoms: C2_3  and  C3_4 
ROOT
ATOM      1  C3  UNL d   1       4.089   4.611  -3.138  0.00  0.00    -0.075 A 
ATOM      2  C4  UNL d   1       3.216   3.704  -3.755  0.00  0.00     0.002 A 
ATOM      3  C5  UNL d   1       1.837   3.812  -3.573  0.00  0.00     0.002 A 
ATOM      4  C6  UNL d   1       1.315   4.820  -2.765  0.00  0.00    -0.004 A 
ATOM      5  C7  UNL d   1       2.175   5.717  -2.134  0.00  0.00     0.002 A 
ATOM      6  C8  UNL d   1       3.555   5.613  -2.318  0.00  0.00     0.002 A 
ENDROOT
BRANCH   1   7
ATOM      7  C2  UNL d   1       5.581   4.517  -3.355  0.00  0.00     0.056 C 
BRANCH   7   8
ATOM      8  C1  UNL d   1       6.000   4.544  -4.828  0.00  0.00     0.007 C 
ATOM      9  C   UNL d   1       5.998   5.945  -5.427  0.00  0.00     0.009 C 
ENDBRANCH   7   8
ENDBRANCH   1   7
TORSDOF 2
ENDMDL
