MODEL 1
REMARK minimizedAffinity 15.4420624
REMARK minimizedRMSD -1
REMARK  2 active torsions:
REMARK  status: ('A' for Active; 'I' for Inactive)
REMARK    1  A    between atoms: C1_2  and  C2_3 
REMARK    2  A    between atoms: C2_3  and  C3_4 
ROOT
ATOM      1  C3  UNL d   1       4.823   2.367   0.500  0.00  0.00    -0.075 A 
ATOM      2  C4  UNL d   1       3.705   2.461   1.343  0.00  0.00     0.002 A 
ATOM      3  C5  UNL d   1       2.633   1.581   1.199  0.00  0.00     0.002 A 
ATOM      4  C6  UNL d   1       2.659   0.603   0.207  0.00  0.00    -0.004 A 
ATOM      5  C7  UNL d   1       3.757   0.510  -0.646  0.00  0.00     0.002 A 
ATOM      6  C8  UNL d   1       4.833   1.387  -0.502  0.00  0.00     0.002 A 
ENDROOT
BRANCH   1   7
ATOM      7  C2  UNL d   1       5.999   3.298   0.670  0.00  0.00     0.056 C 
BRANCH   7   8
ATOM      8  C1  UNL d   1       5.996   4.072   1.993  0.00  0.00     0.007 C 
ATOM      9  C   UNL d   1       5.409   5.471   1.868  0.00  0.00     0.009 C 
ENDBRANCH   7   8
ENDBRANCH   1   7
TORSDOF 2
ENDMDL
