MODEL 1
REMARK minimizedAffinity 17.1776371
REMARK minimizedRMSD -1
REMARK  2 active torsions:
REMARK  status: ('A' for Active; 'I' for Inactive)
REMARK    1  A    between atoms: C1_2  and  C2_3 
REMARK    2  A    between atoms: C2_3  and  C3_4 
ROOT
ATOM      1  C3  UNL d   1       0.959   3.751  -4.551  0.00  0.00    -0.075 A 
ATOM      2  C4  UNL d   1       1.681   3.764  -5.754  0.00  0.00     0.002 A 
ATOM      3  C5  UNL d   1       3.023   3.385  -5.778  0.00  0.00     0.002 A 
ATOM      4  C6  UNL d   1       3.663   3.001  -4.602  0.00  0.00    -0.004 A 
ATOM      5  C7  UNL d   1       2.961   3.001  -3.399  0.00  0.00     0.002 A 
ATOM      6  C8  UNL d   1       1.616   3.375  -3.373  0.00  0.00     0.002 A 
ENDROOT
BRANCH   1   7
ATOM      7  C2  UNL d   1      -0.502   4.131  -4.523  0.00  0.00     0.056 C 
BRANCH   7   8
ATOM      8  C1  UNL d   1      -0.954   4.963  -5.729  0.00  0.00     0.007 C 
ATOM      9  C   UNL d   1      -2.450   4.869  -5.996  0.00  0.00     0.009 C 
ENDBRANCH   7   8
ENDBRANCH   1   7
TORSDOF 2
ENDMDL
