MODEL 1
REMARK minimizedAffinity 12.9654284
REMARK minimizedRMSD -1
REMARK  2 active torsions:
REMARK  status: ('A' for Active; 'I' for Inactive)
REMARK    1  A    between atoms: C1_2  and  C2_3 
REMARK    2  A    between atoms: C2_3  and  C3_4 
ROOT
ATOM      1  C3  UNL d   1      -1.215  -0.622   2.321  0.00  0.00    -0.075 A 
ATOM      2  C4  UNL d   1      -0.014  -1.345   2.352  0.00  0.00     0.002 A 
ATOM      3  C5  UNL d   1       0.833  -1.263   3.457  0.00  0.00     0.002 A 
ATOM      4  C6  UNL d   1       0.496  -0.452   4.539  0.00  0.00    -0.004 A 
ATOM      5  C7  UNL d   1      -0.687   0.283   4.512  0.00  0.00     0.002 A 
ATOM      6  C8  UNL d   1      -1.539   0.200   3.409  0.00  0.00     0.002 A 
ENDROOT
BRANCH   1   7
ATOM      7  C2  UNL d   1      -2.151  -0.729   1.140  0.00  0.00     0.056 C 
BRANCH   7   8
ATOM      8  C1  UNL d   1      -3.590  -0.301   1.444  0.00  0.00     0.007 C 
ATOM      9  C   UNL d   1      -4.380   0.076   0.198  0.00  0.00     0.009 C 
ENDBRANCH   7   8
ENDBRANCH   1   7
TORSDOF 2
ENDMDL
