MODEL 1
REMARK minimizedAffinity 11.6904335
REMARK minimizedRMSD -1
REMARK  2 active torsions:
REMARK  status: ('A' for Active; 'I' for Inactive)
REMARK    1  A    between atoms: C1_2  and  C2_3 
REMARK    2  A    between atoms: C2_3  and  C3_4 
ROOT
ATOM      1  C3  UNL d   1      -1.464  -1.005   2.090  0.00  0.00    -0.075 A 
ATOM      2  C4  UNL d   1      -0.400  -1.919   2.116  0.00  0.00     0.002 A 
ATOM      3  C5  UNL d   1       0.497  -1.930   3.184  0.00  0.00     0.002 A 
ATOM      4  C6  UNL d   1       0.349  -1.024   4.232  0.00  0.00    -0.004 A 
ATOM      5  C7  UNL d   1      -0.695  -0.102   4.209  0.00  0.00     0.002 A 
ATOM      6  C8  UNL d   1      -1.597  -0.091   3.143  0.00  0.00     0.002 A 
ENDROOT
BRANCH   1   7
ATOM      7  C2  UNL d   1      -2.456  -1.007   0.951  0.00  0.00     0.056 C 
BRANCH   7   8
ATOM      8  C1  UNL d   1      -3.654  -0.076   1.165  0.00  0.00     0.007 C 
ATOM      9  C   UNL d   1      -4.639  -0.088   0.004  0.00  0.00     0.009 C 
ENDBRANCH   7   8
ENDBRANCH   1   7
TORSDOF 2
ENDMDL
