MODEL 1
REMARK minimizedAffinity 11.4327745
REMARK minimizedRMSD -1
REMARK  2 active torsions:
REMARK  status: ('A' for Active; 'I' for Inactive)
REMARK    1  A    between atoms: C1_2  and  C2_3 
REMARK    2  A    between atoms: C2_3  and  C3_4 
ROOT
ATOM      1  C3  UNL d   1      -1.914  -0.138   2.523  0.00  0.00    -0.075 A 
ATOM      2  C4  UNL d   1      -0.721  -0.868   2.637  0.00  0.00     0.002 A 
ATOM      3  C5  UNL d   1       0.040  -0.802   3.804  0.00  0.00     0.002 A 
ATOM      4  C6  UNL d   1      -0.374  -0.000   4.865  0.00  0.00    -0.004 A 
ATOM      5  C7  UNL d   1      -1.548   0.742   4.757  0.00  0.00     0.002 A 
ATOM      6  C8  UNL d   1      -2.314   0.675   3.592  0.00  0.00     0.002 A 
ENDROOT
BRANCH   1   7
ATOM      7  C2  UNL d   1      -2.758  -0.227   1.274  0.00  0.00     0.056 C 
BRANCH   7   8
ATOM      8  C1  UNL d   1      -4.247   0.047   1.507  0.00  0.00     0.007 C 
ATOM      9  C   UNL d   1      -5.021   0.290   0.218  0.00  0.00     0.009 C 
ENDBRANCH   7   8
ENDBRANCH   1   7
TORSDOF 2
ENDMDL
