MODEL 1
REMARK minimizedAffinity 5.73367262
REMARK minimizedRMSD -1
REMARK  2 active torsions:
REMARK  status: ('A' for Active; 'I' for Inactive)
REMARK    1  A    between atoms: C1_2  and  C2_3 
REMARK    2  A    between atoms: C2_3  and  C3_4 
ROOT
ATOM      1  C3  UNL d   1       0.255  -0.042   1.885  0.00  0.00    -0.075 A 
ATOM      2  C4  UNL d   1       1.189  -0.996   2.314  0.00  0.00     0.002 A 
ATOM      3  C5  UNL d   1       2.515  -0.932   1.885  0.00  0.00     0.002 A 
ATOM      4  C6  UNL d   1       2.921   0.078   1.016  0.00  0.00    -0.004 A 
ATOM      5  C7  UNL d   1       1.998   1.021   0.570  0.00  0.00     0.002 A 
ATOM      6  C8  UNL d   1       0.672   0.962   1.001  0.00  0.00     0.002 A 
ENDROOT
BRANCH   1   7
ATOM      7  C2  UNL d   1      -1.174  -0.088   2.369  0.00  0.00     0.056 C 
BRANCH   7   8
ATOM      8  C1  UNL d   1      -1.643   1.199   3.055  0.00  0.00     0.007 C 
ATOM      9  C   UNL d   1      -1.588   1.124   4.575  0.00  0.00     0.009 C 
ENDBRANCH   7   8
ENDBRANCH   1   7
TORSDOF 2
ENDMDL
