MODEL 1
REMARK minimizedAffinity 10.2356491
REMARK minimizedRMSD -1
REMARK  2 active torsions:
REMARK  status: ('A' for Active; 'I' for Inactive)
REMARK    1  A    between atoms: C1_2  and  C2_3 
REMARK    2  A    between atoms: C2_3  and  C3_4 
ROOT
ATOM      1  C3  UNL d   1      -2.084   0.321   2.821  0.00  0.00    -0.075 A 
ATOM      2  C4  UNL d   1      -3.158  -0.041   1.994  0.00  0.00     0.002 A 
ATOM      3  C5  UNL d   1      -3.022  -1.075   1.068  0.00  0.00     0.002 A 
ATOM      4  C6  UNL d   1      -1.811  -1.753   0.950  0.00  0.00    -0.004 A 
ATOM      5  C7  UNL d   1      -0.732  -1.391   1.754  0.00  0.00     0.002 A 
ATOM      6  C8  UNL d   1      -0.867  -0.360   2.685  0.00  0.00     0.002 A 
ENDROOT
BRANCH   1   7
ATOM      7  C2  UNL d   1      -2.234   1.420   3.846  0.00  0.00     0.056 C 
BRANCH   7   8
ATOM      8  C1  UNL d   1      -2.407   0.914   5.282  0.00  0.00     0.007 C 
ATOM      9  C   UNL d   1      -1.187   0.169   5.807  0.00  0.00     0.009 C 
ENDBRANCH   7   8
ENDBRANCH   1   7
TORSDOF 2
ENDMDL
