MODEL 1
REMARK minimizedAffinity 10.8067856
REMARK minimizedRMSD -1
REMARK  2 active torsions:
REMARK  status: ('A' for Active; 'I' for Inactive)
REMARK    1  A    between atoms: C1_2  and  C2_3 
REMARK    2  A    between atoms: C2_3  and  C3_4 
ROOT
ATOM      1  C3  UNL d   1       3.263   3.512  -3.091  0.00  0.00    -0.075 A 
ATOM      2  C4  UNL d   1       3.653   3.214  -4.405  0.00  0.00     0.002 A 
ATOM      3  C5  UNL d   1       4.747   3.859  -4.983  0.00  0.00     0.002 A 
ATOM      4  C6  UNL d   1       5.457   4.815  -4.260  0.00  0.00    -0.004 A 
ATOM      5  C7  UNL d   1       5.069   5.131  -2.960  0.00  0.00     0.002 A 
ATOM      6  C8  UNL d   1       3.977   4.484  -2.378  0.00  0.00     0.002 A 
ENDROOT
BRANCH   1   7
ATOM      7  C2  UNL d   1       2.099   2.796  -2.449  0.00  0.00     0.056 C 
BRANCH   7   8
ATOM      8  C1  UNL d   1       2.473   1.468  -1.784  0.00  0.00     0.007 C 
ATOM      9  C   UNL d   1       2.695   1.590  -0.282  0.00  0.00     0.009 C 
ENDBRANCH   7   8
ENDBRANCH   1   7
TORSDOF 2
ENDMDL
