MODEL 1
REMARK minimizedAffinity 10.01544
REMARK minimizedRMSD -1
REMARK  2 active torsions:
REMARK  status: ('A' for Active; 'I' for Inactive)
REMARK    1  A    between atoms: C1_2  and  C2_3 
REMARK    2  A    between atoms: C2_3  and  C3_4 
ROOT
ATOM      1  C3  UNL d   1       3.344   3.555  -3.102  0.00  0.00    -0.075 A 
ATOM      2  C4  UNL d   1       3.794   3.167  -4.372  0.00  0.00     0.002 A 
ATOM      3  C5  UNL d   1       5.116   3.396  -4.755  0.00  0.00     0.002 A 
ATOM      4  C6  UNL d   1       6.000   4.023  -3.879  0.00  0.00    -0.004 A 
ATOM      5  C7  UNL d   1       5.558   4.427  -2.621  0.00  0.00     0.002 A 
ATOM      6  C8  UNL d   1       4.237   4.195  -2.233  0.00  0.00     0.002 A 
ENDROOT
BRANCH   1   7
ATOM      7  C2  UNL d   1       1.922   3.283  -2.670  0.00  0.00     0.056 C 
BRANCH   7   8
ATOM      8  C1  UNL d   1       1.648   1.819  -2.312  0.00  0.00     0.007 C 
ATOM      9  C   UNL d   1       2.494   1.317  -1.150  0.00  0.00     0.009 C 
ENDBRANCH   7   8
ENDBRANCH   1   7
TORSDOF 2
ENDMDL
