MODEL 1
REMARK minimizedAffinity 13.5492525
REMARK minimizedRMSD -1
REMARK  2 active torsions:
REMARK  status: ('A' for Active; 'I' for Inactive)
REMARK    1  A    between atoms: C1_2  and  C2_3 
REMARK    2  A    between atoms: C2_3  and  C3_4 
ROOT
ATOM      1  C3  UNL d   1       3.543   5.071  -2.167  0.00  0.00    -0.075 A 
ATOM      2  C4  UNL d   1       3.203   3.808  -2.674  0.00  0.00     0.002 A 
ATOM      3  C5  UNL d   1       1.873   3.492  -2.955  0.00  0.00     0.002 A 
ATOM      4  C6  UNL d   1       0.868   4.428  -2.724  0.00  0.00    -0.004 A 
ATOM      5  C7  UNL d   1       1.192   5.679  -2.204  0.00  0.00     0.002 A 
ATOM      6  C8  UNL d   1       2.522   6.000  -1.926  0.00  0.00     0.002 A 
ENDROOT
BRANCH   1   7
ATOM      7  C2  UNL d   1       4.983   5.429  -1.888  0.00  0.00     0.056 C 
BRANCH   7   8
ATOM      8  C1  UNL d   1       5.998   4.572  -2.652  0.00  0.00     0.007 C 
ATOM      9  C   UNL d   1       5.998   4.836  -4.152  0.00  0.00     0.009 C 
ENDBRANCH   7   8
ENDBRANCH   1   7
TORSDOF 2
ENDMDL
