MODEL 1
REMARK minimizedAffinity -4.36868334
REMARK minimizedRMSD -1
REMARK  1 active torsions:
REMARK  status: ('A' for Active; 'I' for Inactive)
REMARK    1  A    between atoms: C1_2  and  C2_3 
ROOT
ATOM      1  C2  UNL d   1       0.014   0.156  -0.113  0.00  0.00    -0.077 A 
ATOM      2  C3  UNL d   1       1.061  -0.026   0.801  0.00  0.00     0.002 A 
ATOM      3  C4  UNL d   1       0.829  -0.660   2.024  0.00  0.00     0.002 A 
ATOM      4  C5  UNL d   1      -0.447  -1.120   2.341  0.00  0.00    -0.004 A 
ATOM      5  C6  UNL d   1      -1.496  -0.941   1.439  0.00  0.00     0.002 A 
ATOM      6  C7  UNL d   1      -1.266  -0.307   0.217  0.00  0.00     0.002 A 
ENDROOT
BRANCH   1   7
ATOM      7  C1  UNL d   1       0.273   0.795  -1.452  0.00  0.00     0.055 C 
ATOM      8  C   UNL d   1      -0.912   1.638  -1.901  0.00  0.00     0.019 C 
ENDBRANCH   1   7
TORSDOF 1
ENDMDL
