MODEL 1
REMARK minimizedAffinity -3.54755163
REMARK minimizedRMSD -1
REMARK  1 active torsions:
REMARK  status: ('A' for Active; 'I' for Inactive)
REMARK    1  A    between atoms: C1_2  and  C2_3 
ROOT
ATOM      1  C2  UNL d   1      -0.510   0.519  -1.257  0.00  0.00    -0.077 A 
ATOM      2  C3  UNL d   1      -1.152   0.630  -0.015  0.00  0.00     0.002 A 
ATOM      3  C4  UNL d   1      -0.612   0.015   1.116  0.00  0.00     0.002 A 
ATOM      4  C5  UNL d   1       0.573  -0.711   1.018  0.00  0.00    -0.004 A 
ATOM      5  C6  UNL d   1       1.217  -0.830  -0.213  0.00  0.00     0.002 A 
ATOM      6  C7  UNL d   1       0.679  -0.217  -1.345  0.00  0.00     0.002 A 
ENDROOT
BRANCH   1   7
ATOM      7  C1  UNL d   1      -1.064   1.222  -2.468  0.00  0.00     0.055 C 
ATOM      8  C   UNL d   1      -0.516   2.637  -2.586  0.00  0.00     0.019 C 
ENDBRANCH   1   7
TORSDOF 1
ENDMDL
