MODEL 1
REMARK minimizedAffinity -4.23826027
REMARK minimizedRMSD -1
REMARK  1 active torsions:
REMARK  status: ('A' for Active; 'I' for Inactive)
REMARK    1  A    between atoms: C1_2  and  C2_3 
ROOT
ATOM      1  C2  UNL d   1       0.138  -0.075   0.792  0.00  0.00    -0.077 A 
ATOM      2  C3  UNL d   1       0.232  -0.546   2.109  0.00  0.00     0.002 A 
ATOM      3  C4  UNL d   1       1.128  -1.567   2.431  0.00  0.00     0.002 A 
ATOM      4  C5  UNL d   1       1.938  -2.123   1.443  0.00  0.00    -0.004 A 
ATOM      5  C6  UNL d   1       1.850  -1.663   0.130  0.00  0.00     0.002 A 
ATOM      6  C7  UNL d   1       0.954  -0.643  -0.194  0.00  0.00     0.002 A 
ENDROOT
BRANCH   1   7
ATOM      7  C1  UNL d   1      -0.793   1.060   0.452  0.00  0.00     0.055 C 
ATOM      8  C   UNL d   1      -0.546   1.574  -0.959  0.00  0.00     0.019 C 
ENDBRANCH   1   7
TORSDOF 1
ENDMDL
