MODEL 1
REMARK minimizedAffinity -4.3066082
REMARK minimizedRMSD -1
REMARK  1 active torsions:
REMARK  status: ('A' for Active; 'I' for Inactive)
REMARK    1  A    between atoms: C1_2  and  C2_3 
ROOT
ATOM      1  C2  UNL d   1      -0.513  -0.069   0.536  0.00  0.00    -0.077 A 
ATOM      2  C3  UNL d   1       0.839   0.273   0.673  0.00  0.00     0.002 A 
ATOM      3  C4  UNL d   1       1.559  -0.128   1.800  0.00  0.00     0.002 A 
ATOM      4  C5  UNL d   1       0.936  -0.876   2.796  0.00  0.00    -0.004 A 
ATOM      5  C6  UNL d   1      -0.410  -1.220   2.671  0.00  0.00     0.002 A 
ATOM      6  C7  UNL d   1      -1.131  -0.819   1.545  0.00  0.00     0.002 A 
ENDROOT
BRANCH   1   7
ATOM      7  C1  UNL d   1      -1.278   0.320  -0.702  0.00  0.00     0.055 C 
ATOM      8  C   UNL d   1      -0.349   0.857  -1.781  0.00  0.00     0.019 C 
ENDBRANCH   1   7
TORSDOF 1
ENDMDL
