MODEL 1
REMARK minimizedAffinity -5.10527563
REMARK minimizedRMSD -1
REMARK  1 active torsions:
REMARK  status: ('A' for Active; 'I' for Inactive)
REMARK    1  A    between atoms: C1_2  and  C2_3 
ROOT
ATOM      1  C2  UNL d   1       1.074  -0.539   0.357  0.00  0.00    -0.077 A 
ATOM      2  C3  UNL d   1       2.158  -1.396   0.591  0.00  0.00     0.002 A 
ATOM      3  C4  UNL d   1       2.421  -1.868   1.878  0.00  0.00     0.002 A 
ATOM      4  C5  UNL d   1       1.601  -1.492   2.941  0.00  0.00    -0.004 A 
ATOM      5  C6  UNL d   1       0.522  -0.638   2.719  0.00  0.00     0.002 A 
ATOM      6  C7  UNL d   1       0.258  -0.165   1.433  0.00  0.00     0.002 A 
ENDROOT
BRANCH   1   7
ATOM      7  C1  UNL d   1       0.760  -0.068  -1.039  0.00  0.00     0.055 C 
ATOM      8  C   UNL d   1      -0.731   0.179  -1.217  0.00  0.00     0.019 C 
ENDBRANCH   1   7
TORSDOF 1
ENDMDL
