MODEL 1
REMARK minimizedAffinity -1.74917817
REMARK minimizedRMSD -1
REMARK  1 active torsions:
REMARK  status: ('A' for Active; 'I' for Inactive)
REMARK    1  A    between atoms: C1_2  and  C2_3 
ROOT
ATOM      1  C2  UNL d   1      -0.198   1.245  -1.422  0.00  0.00    -0.077 A 
ATOM      2  C3  UNL d   1      -1.318   1.197  -2.264  0.00  0.00     0.002 A 
ATOM      3  C4  UNL d   1      -1.538   2.204  -3.206  0.00  0.00     0.002 A 
ATOM      4  C5  UNL d   1      -0.641   3.264  -3.317  0.00  0.00    -0.004 A 
ATOM      5  C6  UNL d   1       0.475   3.323  -2.482  0.00  0.00     0.002 A 
ATOM      6  C7  UNL d   1       0.696   2.318  -1.540  0.00  0.00     0.002 A 
ENDROOT
BRANCH   1   7
ATOM      7  C1  UNL d   1       0.068   0.135  -0.440  0.00  0.00     0.055 C 
ATOM      8  C   UNL d   1      -0.727   0.329   0.843  0.00  0.00     0.019 C 
ENDBRANCH   1   7
TORSDOF 1
ENDMDL
