MODEL 1
REMARK minimizedAffinity -5.48469448
REMARK minimizedRMSD -1
REMARK  1 active torsions:
REMARK  status: ('A' for Active; 'I' for Inactive)
REMARK    1  A    between atoms: C1_2  and  C2_3 
ROOT
ATOM      1  C2  UNL d   1       0.418  -0.316   0.073  0.00  0.00    -0.077 A 
ATOM      2  C3  UNL d   1      -0.062   0.179   1.293  0.00  0.00     0.002 A 
ATOM      3  C4  UNL d   1       0.427  -0.322   2.501  0.00  0.00     0.002 A 
ATOM      4  C5  UNL d   1       1.402  -1.318   2.500  0.00  0.00    -0.004 A 
ATOM      5  C6  UNL d   1       1.884  -1.819   1.291  0.00  0.00     0.002 A 
ATOM      6  C7  UNL d   1       1.395  -1.320   0.083  0.00  0.00     0.002 A 
ENDROOT
BRANCH   1   7
ATOM      7  C1  UNL d   1      -0.073   0.258  -1.231  0.00  0.00     0.055 C 
ATOM      8  C   UNL d   1       0.449   1.671  -1.444  0.00  0.00     0.019 C 
ENDBRANCH   1   7
TORSDOF 1
ENDMDL
