MODEL 1
REMARK minimizedAffinity 3.54605007
REMARK minimizedRMSD -1
REMARK  0 active torsions:
REMARK  status: ('A' for Active; 'I' for Inactive)
ROOT
ATOM      1  C4' PXY d   1       1.157   3.201  -0.649  0.00  0.00     0.077 C 
ATOM      2  C1' PXY d   1      -1.329  -1.468   1.682  0.00  0.00     0.077 C 
ATOM      3  C1  PXY d   1      -0.670  -0.251   1.062  0.00  0.00    -0.082 A 
ATOM      4  C2  PXY d   1      -0.525   0.851   1.780  0.00  0.00     0.003 A 
ATOM      5  C3  PXY d   1       0.039   1.971   1.225  0.00  0.00     0.003 A 
ATOM      6  C4  PXY d   1       0.507   1.946  -0.061  0.00  0.00    -0.082 A 
ATOM      7  C5  PXY d   1       0.372   0.822  -0.797  0.00  0.00     0.003 A 
ATOM      8  C6  PXY d   1      -0.241  -0.291  -0.229  0.00  0.00     0.003 A 
ENDROOT
TORSDOF 0
ENDMDL
