MODEL 1
REMARK minimizedAffinity 4.44211292
REMARK minimizedRMSD -1
REMARK  0 active torsions:
REMARK  status: ('A' for Active; 'I' for Inactive)
ROOT
ATOM      1  C4' PXY d   1       0.864   4.672  -5.999  0.00  0.00     0.077 C 
ATOM      2  C1' PXY d   1      -4.837   3.715  -5.976  0.00  0.00     0.077 C 
ATOM      3  C1  PXY d   1      -3.344   3.977  -5.988  0.00  0.00    -0.082 A 
ATOM      4  C2  PXY d   1      -2.500   2.958  -5.996  0.00  0.00     0.003 A 
ATOM      5  C3  PXY d   1      -1.147   3.178  -5.974  0.00  0.00     0.003 A 
ATOM      6  C4  PXY d   1      -0.652   4.454  -5.997  0.00  0.00    -0.082 A 
ATOM      7  C5  PXY d   1      -1.506   5.499  -5.999  0.00  0.00     0.003 A 
ATOM      8  C6  PXY d   1      -2.876   5.255  -5.980  0.00  0.00     0.003 A 
ENDROOT
TORSDOF 0
ENDMDL
