MODEL 1
REMARK minimizedAffinity -1.32226741
REMARK minimizedRMSD -1
REMARK  0 active torsions:
REMARK  status: ('A' for Active; 'I' for Inactive)
ROOT
ATOM      1  C4' PXY d   1       0.313   4.830  -5.992  0.00  0.00     0.077 C 
ATOM      2  C1' PXY d   1       5.987   3.724  -5.985  0.00  0.00     0.077 C 
ATOM      3  C1  PXY d   1       4.501   4.026  -5.982  0.00  0.00    -0.082 A 
ATOM      4  C2  PXY d   1       3.631   3.029  -5.971  0.00  0.00     0.003 A 
ATOM      5  C3  PXY d   1       2.284   3.284  -6.000  0.00  0.00     0.003 A 
ATOM      6  C4  PXY d   1       1.823   4.573  -5.986  0.00  0.00    -0.082 A 
ATOM      7  C5  PXY d   1       2.704   5.595  -5.986  0.00  0.00     0.003 A 
ATOM      8  C6  PXY d   1       4.067   5.315  -5.999  0.00  0.00     0.003 A 
ENDROOT
TORSDOF 0
ENDMDL
