MODEL 1
REMARK minimizedAffinity -0.385888726
REMARK minimizedRMSD -1
REMARK  0 active torsions:
REMARK  status: ('A' for Active; 'I' for Inactive)
ROOT
ATOM      1  C4' PXY d   1      -0.814   3.690  -5.962  0.00  0.00     0.077 C 
ATOM      2  C1' PXY d   1       4.840   4.893  -5.996  0.00  0.00     0.077 C 
ATOM      3  C1  PXY d   1       3.360   4.566  -5.992  0.00  0.00    -0.082 A 
ATOM      4  C2  PXY d   1       2.473   5.547  -6.000  0.00  0.00     0.003 A 
ATOM      5  C3  PXY d   1       1.130   5.270  -5.964  0.00  0.00     0.003 A 
ATOM      6  C4  PXY d   1       0.691   3.973  -5.974  0.00  0.00    -0.082 A 
ATOM      7  C5  PXY d   1       1.589   2.966  -5.977  0.00  0.00     0.003 A 
ATOM      8  C6  PXY d   1       2.948   3.269  -5.971  0.00  0.00     0.003 A 
ENDROOT
TORSDOF 0
ENDMDL
