MODEL 1
REMARK minimizedAffinity 0.572619557
REMARK minimizedRMSD -1
REMARK  0 active torsions:
REMARK  status: ('A' for Active; 'I' for Inactive)
ROOT
ATOM      1  C4' PXY d   1      -2.207   5.998  -5.977  0.00  0.00     0.077 C 
ATOM      2  C1' PXY d   1       2.585   2.766  -5.998  0.00  0.00     0.077 C 
ATOM      3  C1  PXY d   1       1.322   3.603  -5.998  0.00  0.00    -0.082 A 
ATOM      4  C2  PXY d   1       1.412   4.923  -6.000  0.00  0.00     0.003 A 
ATOM      5  C3  PXY d   1       0.280   5.696  -5.967  0.00  0.00     0.003 A 
ATOM      6  C4  PXY d   1      -0.958   5.112  -5.987  0.00  0.00    -0.082 A 
ATOM      7  C5  PXY d   1      -1.059   3.766  -5.996  0.00  0.00     0.003 A 
ATOM      8  C6  PXY d   1       0.103   2.999  -5.987  0.00  0.00     0.003 A 
ENDROOT
TORSDOF 0
ENDMDL
