MODEL 1
REMARK minimizedAffinity 3.98749757
REMARK minimizedRMSD -1
REMARK  0 active torsions:
REMARK  status: ('A' for Active; 'I' for Inactive)
ROOT
ATOM      1  C4' PXY d   1      -3.873   6.000  -4.891  0.00  0.00     0.077 C 
ATOM      2  C1' PXY d   1       0.043   1.895  -6.000  0.00  0.00     0.077 C 
ATOM      3  C1  PXY d   1      -0.974   2.980  -5.708  0.00  0.00    -0.082 A 
ATOM      4  C2  PXY d   1      -2.149   2.654  -5.194  0.00  0.00     0.003 A 
ATOM      5  C3  PXY d   1      -3.093   3.620  -4.954  0.00  0.00     0.003 A 
ATOM      6  C4  PXY d   1      -2.812   4.938  -5.193  0.00  0.00    -0.082 A 
ATOM      7  C5  PXY d   1      -1.611   5.280  -5.708  0.00  0.00     0.003 A 
ATOM      8  C6  PXY d   1      -0.682   4.280  -5.983  0.00  0.00     0.003 A 
ENDROOT
TORSDOF 0
ENDMDL
