MODEL 1
REMARK minimizedAffinity -0.644783199
REMARK minimizedRMSD -1
REMARK  0 active torsions:
REMARK  status: ('A' for Active; 'I' for Inactive)
ROOT
ATOM      1  C4' PXY d   1      -2.985   5.604  -5.952  0.00  0.00     0.077 C 
ATOM      2  C1' PXY d   1       1.919   2.542  -5.988  0.00  0.00     0.077 C 
ATOM      3  C1  PXY d   1       0.639   3.355  -5.973  0.00  0.00    -0.082 A 
ATOM      4  C2  PXY d   1      -0.530   2.735  -5.981  0.00  0.00     0.003 A 
ATOM      5  C3  PXY d   1      -1.697   3.455  -6.000  0.00  0.00     0.003 A 
ATOM      6  C4  PXY d   1      -1.667   4.824  -5.957  0.00  0.00    -0.082 A 
ATOM      7  C5  PXY d   1      -0.479   5.463  -5.938  0.00  0.00     0.003 A 
ATOM      8  C6  PXY d   1       0.695   4.715  -5.961  0.00  0.00     0.003 A 
ENDROOT
TORSDOF 0
ENDMDL
