MODEL 1
REMARK minimizedAffinity -2.14570832
REMARK minimizedRMSD -1
REMARK  0 active torsions:
REMARK  status: ('A' for Active; 'I' for Inactive)
ROOT
ATOM      1  C4' PXY d   1       2.123   2.895  -5.979  0.00  0.00     0.077 C 
ATOM      2  C1' PXY d   1      -3.656   3.019  -5.999  0.00  0.00     0.077 C 
ATOM      3  C1  PXY d   1      -2.140   2.999  -5.999  0.00  0.00    -0.082 A 
ATOM      4  C2  PXY d   1      -1.502   1.840  -5.999  0.00  0.00     0.003 A 
ATOM      5  C3  PXY d   1      -0.132   1.803  -5.967  0.00  0.00     0.003 A 
ATOM      6  C4  PXY d   1       0.593   2.964  -5.988  0.00  0.00    -0.082 A 
ATOM      7  C5  PXY d   1      -0.051   4.150  -5.999  0.00  0.00     0.003 A 
ATOM      8  C6  PXY d   1      -1.442   4.167  -5.990  0.00  0.00     0.003 A 
ENDROOT
TORSDOF 0
ENDMDL
