MODEL 1
REMARK minimizedAffinity 0.275864154
REMARK minimizedRMSD -1
REMARK  0 active torsions:
REMARK  status: ('A' for Active; 'I' for Inactive)
ROOT
ATOM      1  C4' PXY d   1       1.120   1.615  -5.910  0.00  0.00     0.077 C 
ATOM      2  C1' PXY d   1      -2.647   5.998  -5.999  0.00  0.00     0.077 C 
ATOM      3  C1  PXY d   1      -1.668   4.841  -5.970  0.00  0.00    -0.082 A 
ATOM      4  C2  PXY d   1      -0.368   5.084  -5.993  0.00  0.00     0.003 A 
ATOM      5  C3  PXY d   1       0.531   4.048  -5.999  0.00  0.00     0.003 A 
ATOM      6  C4  PXY d   1       0.095   2.752  -5.928  0.00  0.00    -0.082 A 
ATOM      7  C5  PXY d   1      -1.230   2.497  -5.894  0.00  0.00     0.003 A 
ATOM      8  C6  PXY d   1      -2.127   3.561  -5.930  0.00  0.00     0.003 A 
ENDROOT
TORSDOF 0
ENDMDL
