MODEL 1
REMARK minimizedAffinity -1.82168174
REMARK minimizedRMSD -1
REMARK  0 active torsions:
REMARK  status: ('A' for Active; 'I' for Inactive)
ROOT
ATOM      1  C4' PXY d   1      -4.074   2.994  -5.972  0.00  0.00     0.077 C 
ATOM      2  C1' PXY d   1       1.433   4.750  -5.999  0.00  0.00     0.077 C 
ATOM      3  C1  PXY d   1      -0.015   4.301  -5.987  0.00  0.00    -0.082 A 
ATOM      4  C2  PXY d   1      -0.299   3.009  -5.973  0.00  0.00     0.003 A 
ATOM      5  C3  PXY d   1      -1.603   2.585  -5.994  0.00  0.00     0.003 A 
ATOM      6  C4  PXY d   1      -2.627   3.493  -5.975  0.00  0.00    -0.082 A 
ATOM      7  C5  PXY d   1      -2.345   4.814  -5.979  0.00  0.00     0.003 A 
ATOM      8  C6  PXY d   1      -1.015   5.223  -5.999  0.00  0.00     0.003 A 
ENDROOT
TORSDOF 0
ENDMDL
