MODEL 1
REMARK minimizedAffinity 0.0681199133
REMARK minimizedRMSD -1
REMARK  0 active torsions:
REMARK  status: ('A' for Active; 'I' for Inactive)
ROOT
ATOM      1  C4' PXY d   1      -2.734   2.669  -5.934  0.00  0.00     0.077 C 
ATOM      2  C1' PXY d   1       2.087   5.857  -6.000  0.00  0.00     0.077 C 
ATOM      3  C1  PXY d   1       0.829   5.011  -5.988  0.00  0.00    -0.082 A 
ATOM      4  C2  PXY d   1      -0.356   5.600  -5.969  0.00  0.00     0.003 A 
ATOM      5  C3  PXY d   1      -1.503   4.850  -5.926  0.00  0.00     0.003 A 
ATOM      6  C4  PXY d   1      -1.438   3.483  -5.956  0.00  0.00    -0.082 A 
ATOM      7  C5  PXY d   1      -0.233   2.874  -5.986  0.00  0.00     0.003 A 
ATOM      8  C6  PXY d   1       0.920   3.653  -5.988  0.00  0.00     0.003 A 
ENDROOT
TORSDOF 0
ENDMDL
