MODEL 1
REMARK minimizedAffinity -1.76943099
REMARK minimizedRMSD -1
REMARK  0 active torsions:
REMARK  status: ('A' for Active; 'I' for Inactive)
ROOT
ATOM      1  C4' PXY d   1       0.543   4.901  -5.976  0.00  0.00     0.077 C 
ATOM      2  C1' PXY d   1      -5.214   4.387  -5.997  0.00  0.00     0.077 C 
ATOM      3  C1  PXY d   1      -3.705   4.534  -5.997  0.00  0.00    -0.082 A 
ATOM      4  C2  PXY d   1      -2.943   3.453  -5.995  0.00  0.00     0.003 A 
ATOM      5  C3  PXY d   1      -1.577   3.567  -5.962  0.00  0.00     0.003 A 
ATOM      6  C4  PXY d   1      -0.984   4.801  -5.986  0.00  0.00    -0.082 A 
ATOM      7  C5  PXY d   1      -1.755   5.909  -5.999  0.00  0.00     0.003 A 
ATOM      8  C6  PXY d   1      -3.140   5.772  -5.990  0.00  0.00     0.003 A 
ENDROOT
TORSDOF 0
ENDMDL
