MODEL 1
REMARK minimizedAffinity -0.360971719
REMARK minimizedRMSD -1
REMARK  0 active torsions:
REMARK  status: ('A' for Active; 'I' for Inactive)
ROOT
ATOM      1  C4' PXY d   1       2.608   4.060  -5.993  0.00  0.00     0.077 C 
ATOM      2  C1' PXY d   1      -3.157   4.478  -5.981  0.00  0.00     0.077 C 
ATOM      3  C1  PXY d   1      -1.645   4.380  -5.989  0.00  0.00    -0.082 A 
ATOM      4  C2  PXY d   1      -1.066   3.190  -5.999  0.00  0.00     0.003 A 
ATOM      5  C3  PXY d   1       0.301   3.084  -5.975  0.00  0.00     0.003 A 
ATOM      6  C4  PXY d   1       1.084   4.207  -5.994  0.00  0.00    -0.082 A 
ATOM      7  C5  PXY d   1       0.501   5.424  -5.994  0.00  0.00     0.003 A 
ATOM      8  C6  PXY d   1      -0.888   5.511  -5.978  0.00  0.00     0.003 A 
ENDROOT
TORSDOF 0
ENDMDL
