MODEL 1
REMARK minimizedAffinity -2.07797742
REMARK minimizedRMSD -1
REMARK  0 active torsions:
REMARK  status: ('A' for Active; 'I' for Inactive)
ROOT
ATOM      1  C4' PXY d   1      -3.424   5.967  -5.982  0.00  0.00     0.077 C 
ATOM      2  C1' PXY d   1       0.774   1.992  -5.994  0.00  0.00     0.077 C 
ATOM      3  C1  PXY d   1      -0.319   3.043  -5.986  0.00  0.00    -0.082 A 
ATOM      4  C2  PXY d   1      -1.587   2.668  -5.974  0.00  0.00     0.003 A 
ATOM      5  C3  PXY d   1      -2.588   3.605  -5.998  0.00  0.00     0.003 A 
ATOM      6  C4  PXY d   1      -2.287   4.940  -5.981  0.00  0.00    -0.082 A 
ATOM      7  C5  PXY d   1      -0.995   5.331  -5.983  0.00  0.00     0.003 A 
ATOM      8  C6  PXY d   1       0.006   4.365  -6.000  0.00  0.00     0.003 A 
ENDROOT
TORSDOF 0
ENDMDL
