MODEL 1
REMARK minimizedAffinity 1.67532825
REMARK minimizedRMSD -1
REMARK  0 active torsions:
REMARK  status: ('A' for Active; 'I' for Inactive)
ROOT
ATOM      1  C4' PXY d   1       0.560   4.175  -5.977  0.00  0.00     0.077 C 
ATOM      2  C1' PXY d   1      -5.220   4.160  -5.999  0.00  0.00     0.077 C 
ATOM      3  C1  PXY d   1      -3.704   4.152  -5.988  0.00  0.00    -0.082 A 
ATOM      4  C2  PXY d   1      -3.044   5.299  -5.976  0.00  0.00     0.003 A 
ATOM      5  C3  PXY d   1      -1.673   5.310  -5.998  0.00  0.00     0.003 A 
ATOM      6  C4  PXY d   1      -0.970   4.135  -5.979  0.00  0.00    -0.082 A 
ATOM      7  C5  PXY d   1      -1.637   2.961  -5.981  0.00  0.00     0.003 A 
ATOM      8  C6  PXY d   1      -3.028   2.971  -6.000  0.00  0.00     0.003 A 
ENDROOT
TORSDOF 0
ENDMDL
