MODEL 1
REMARK minimizedAffinity -2.4574995
REMARK minimizedRMSD -1
REMARK  0 active torsions:
REMARK  status: ('A' for Active; 'I' for Inactive)
ROOT
ATOM      1  C4' PXY d   1       1.073   4.899  -5.996  0.00  0.00     0.077 C 
ATOM      2  C1' PXY d   1      -4.558   3.594  -5.983  0.00  0.00     0.077 C 
ATOM      3  C1  PXY d   1      -3.084   3.948  -5.992  0.00  0.00    -0.082 A 
ATOM      4  C2  PXY d   1      -2.179   2.982  -6.000  0.00  0.00     0.003 A 
ATOM      5  C3  PXY d   1      -0.842   3.284  -5.975  0.00  0.00     0.003 A 
ATOM      6  C4  PXY d   1      -0.426   4.589  -5.997  0.00  0.00    -0.082 A 
ATOM      7  C5  PXY d   1      -1.343   5.579  -5.999  0.00  0.00     0.003 A 
ATOM      8  C6  PXY d   1      -2.695   5.252  -5.982  0.00  0.00     0.003 A 
ENDROOT
TORSDOF 0
ENDMDL
