MODEL 1
REMARK minimizedAffinity -3.91281962
REMARK minimizedRMSD -1
REMARK  0 active torsions:
REMARK  status: ('A' for Active; 'I' for Inactive)
ROOT
ATOM      1  C4' PXY d   1      -0.719   3.019  -5.951  0.00  0.00     0.077 C 
ATOM      2  C1' PXY d   1       4.261   5.953  -6.000  0.00  0.00     0.077 C 
ATOM      3  C1  PXY d   1       2.949   5.194  -5.982  0.00  0.00    -0.082 A 
ATOM      4  C2  PXY d   1       2.959   3.871  -5.967  0.00  0.00     0.003 A 
ATOM      5  C3  PXY d   1       1.781   3.168  -5.983  0.00  0.00     0.003 A 
ATOM      6  C4  PXY d   1       0.581   3.827  -5.960  0.00  0.00    -0.082 A 
ATOM      7  C5  PXY d   1       0.563   5.176  -5.963  0.00  0.00     0.003 A 
ATOM      8  C6  PXY d   1       1.769   5.871  -5.989  0.00  0.00     0.003 A 
ENDROOT
TORSDOF 0
ENDMDL
