MODEL 1
REMARK minimizedAffinity -2.14559722
REMARK minimizedRMSD -1
REMARK  0 active torsions:
REMARK  status: ('A' for Active; 'I' for Inactive)
ROOT
ATOM      1  C4' PXY d   1       0.218   4.721  -6.000  0.00  0.00     0.077 C 
ATOM      2  C1' PXY d   1       5.997   4.584  -5.925  0.00  0.00     0.077 C 
ATOM      3  C1  PXY d   1       4.481   4.608  -5.950  0.00  0.00    -0.082 A 
ATOM      4  C2  PXY d   1       3.846   5.768  -5.998  0.00  0.00     0.003 A 
ATOM      5  C3  PXY d   1       2.475   5.809  -5.988  0.00  0.00     0.003 A 
ATOM      6  C4  PXY d   1       1.748   4.649  -5.983  0.00  0.00    -0.082 A 
ATOM      7  C5  PXY d   1       2.388   3.462  -5.945  0.00  0.00     0.003 A 
ATOM      8  C6  PXY d   1       3.780   3.443  -5.913  0.00  0.00     0.003 A 
ENDROOT
TORSDOF 0
ENDMDL
