MODEL 1
REMARK minimizedAffinity -3.12190866
REMARK minimizedRMSD -1
REMARK  0 active torsions:
REMARK  status: ('A' for Active; 'I' for Inactive)
ROOT
ATOM      1  C4' PXY d   1       0.020   3.250  -5.963  0.00  0.00     0.077 C 
ATOM      2  C1' PXY d   1      -5.068   5.993  -5.991  0.00  0.00     0.077 C 
ATOM      3  C1  PXY d   1      -3.740   5.263  -5.978  0.00  0.00    -0.082 A 
ATOM      4  C2  PXY d   1      -2.613   5.956  -5.955  0.00  0.00     0.003 A 
ATOM      5  C3  PXY d   1      -1.402   5.313  -5.976  0.00  0.00     0.003 A 
ATOM      6  C4  PXY d   1      -1.345   3.945  -5.967  0.00  0.00    -0.082 A 
ATOM      7  C5  PXY d   1      -2.490   3.231  -5.979  0.00  0.00     0.003 A 
ATOM      8  C6  PXY d   1      -3.708   3.903  -5.999  0.00  0.00     0.003 A 
ENDROOT
TORSDOF 0
ENDMDL
