MODEL 1
REMARK minimizedAffinity 2.85992312
REMARK minimizedRMSD -1
REMARK  0 active torsions:
REMARK  status: ('A' for Active; 'I' for Inactive)
ROOT
ATOM      1  C4' PXY d   1      -2.920   6.000  -5.955  0.00  0.00     0.077 C 
ATOM      2  C1' PXY d   1       1.159   1.905  -5.999  0.00  0.00     0.077 C 
ATOM      3  C1  PXY d   1       0.081   2.970  -5.992  0.00  0.00    -0.082 A 
ATOM      4  C2  PXY d   1       0.424   4.248  -6.000  0.00  0.00     0.003 A 
ATOM      5  C3  PXY d   1      -0.538   5.225  -5.962  0.00  0.00     0.003 A 
ATOM      6  C4  PXY d   1      -1.866   4.890  -5.970  0.00  0.00    -0.082 A 
ATOM      7  C5  PXY d   1      -2.224   3.589  -5.973  0.00  0.00     0.003 A 
ATOM      8  C6  PXY d   1      -1.232   2.612  -5.970  0.00  0.00     0.003 A 
ENDROOT
TORSDOF 0
ENDMDL
