MODEL 1
REMARK minimizedAffinity -1.28417087
REMARK minimizedRMSD -1
REMARK  0 active torsions:
REMARK  status: ('A' for Active; 'I' for Inactive)
ROOT
ATOM      1  O1  BZF d   1       5.458   5.765   1.074  0.00  0.00    -0.204 OA
ATOM      2  C2  BZF d   1       4.932   5.249   2.242  0.00  0.00     0.174 A 
ATOM      3  C3  BZF d   1       3.667   4.822   2.049  0.00  0.00    -0.012 A 
ATOM      4  C3A BZF d   1       3.418   5.004   0.652  0.00  0.00    -0.107 A 
ATOM      5  C4  BZF d   1       2.342   4.749  -0.151  0.00  0.00     0.055 A 
ATOM      6  C5  BZF d   1       2.395   5.111  -1.460  0.00  0.00    -0.016 A 
ATOM      7  C6  BZF d   1       3.504   5.732  -1.997  0.00  0.00     0.022 A 
ATOM      8  C7  BZF d   1       4.596   6.000  -1.242  0.00  0.00     0.029 A 
ATOM      9  C7A BZF d   1       4.559   5.606   0.073  0.00  0.00     0.058 A 
ENDROOT
TORSDOF 0
ENDMDL
