MODEL 1
REMARK minimizedAffinity 12.5571947
REMARK minimizedRMSD -1
REMARK  0 active torsions:
REMARK  status: ('A' for Active; 'I' for Inactive)
ROOT
ATOM      1  O1  BZF d   1       3.937  -5.735   2.078  0.00  0.00    -0.204 OA
ATOM      2  C2  BZF d   1       2.563  -5.646   2.181  0.00  0.00     0.174 A 
ATOM      3  C3  BZF d   1       2.174  -5.719   3.471  0.00  0.00    -0.012 A 
ATOM      4  C3A BZF d   1       3.388  -5.769   4.227  0.00  0.00    -0.107 A 
ATOM      5  C4  BZF d   1       3.660  -5.833   5.564  0.00  0.00     0.055 A 
ATOM      6  C5  BZF d   1       4.951  -5.944   5.971  0.00  0.00    -0.016 A 
ATOM      7  C6  BZF d   1       5.995  -5.998   5.070  0.00  0.00     0.022 A 
ATOM      8  C7  BZF d   1       5.775  -5.932   3.734  0.00  0.00     0.029 A 
ATOM      9  C7A BZF d   1       4.473  -5.787   3.320  0.00  0.00     0.058 A 
ENDROOT
TORSDOF 0
ENDMDL
