MODEL 1
REMARK minimizedAffinity 2.49805236
REMARK minimizedRMSD -1
REMARK  0 active torsions:
REMARK  status: ('A' for Active; 'I' for Inactive)
ROOT
ATOM      1  O1  BZF d   1      -5.433   5.960   4.801  0.00  0.00    -0.204 OA
ATOM      2  C2  BZF d   1      -4.356   5.968   5.667  0.00  0.00     0.174 A 
ATOM      3  C3  BZF d   1      -3.193   5.928   4.984  0.00  0.00    -0.012 A 
ATOM      4  C3A BZF d   1      -3.565   5.986   3.604  0.00  0.00    -0.107 A 
ATOM      5  C4  BZF d   1      -2.852   5.998   2.439  0.00  0.00     0.055 A 
ATOM      6  C5  BZF d   1      -3.519   5.986   1.256  0.00  0.00    -0.016 A 
ATOM      7  C6  BZF d   1      -4.897   5.957   1.200  0.00  0.00     0.022 A 
ATOM      8  C7  BZF d   1      -5.648   5.949   2.328  0.00  0.00     0.029 A 
ATOM      9  C7A BZF d   1      -4.977   5.995   3.526  0.00  0.00     0.058 A 
ENDROOT
TORSDOF 0
ENDMDL
