MODEL 1
REMARK minimizedAffinity 0.805663526
REMARK minimizedRMSD -1
REMARK  0 active torsions:
REMARK  status: ('A' for Active; 'I' for Inactive)
ROOT
ATOM      1  O1  BZF d   1       6.000   2.386  -5.454  0.00  0.00    -0.204 OA
ATOM      2  C2  BZF d   1       6.000   1.044  -5.782  0.00  0.00     0.174 A 
ATOM      3  C3  BZF d   1       4.969   0.407  -5.190  0.00  0.00    -0.012 A 
ATOM      4  C3A BZF d   1       4.229   1.431  -4.519  0.00  0.00    -0.107 A 
ATOM      5  C4  BZF d   1       3.089   1.426  -3.767  0.00  0.00     0.055 A 
ATOM      6  C5  BZF d   1       2.671   2.585  -3.195  0.00  0.00    -0.016 A 
ATOM      7  C6  BZF d   1       3.369   3.765  -3.350  0.00  0.00     0.022 A 
ATOM      8  C7  BZF d   1       4.502   3.821  -4.091  0.00  0.00     0.029 A 
ATOM      9  C7A BZF d   1       4.909   2.658  -4.698  0.00  0.00     0.058 A 
ENDROOT
TORSDOF 0
ENDMDL
