MODEL 1
REMARK minimizedAffinity 12.2829361
REMARK minimizedRMSD -1
REMARK  0 active torsions:
REMARK  status: ('A' for Active; 'I' for Inactive)
ROOT
ATOM      1  O1  BZF d   1       1.449   2.605   2.288  0.00  0.00    -0.204 OA
ATOM      2  C2  BZF d   1       2.723   2.271   1.872  0.00  0.00     0.174 A 
ATOM      3  C3  BZF d   1       2.732   1.963   0.559  0.00  0.00    -0.012 A 
ATOM      4  C3A BZF d   1       1.396   2.203   0.107  0.00  0.00    -0.107 A 
ATOM      5  C4  BZF d   1       0.782   2.094  -1.108  0.00  0.00     0.055 A 
ATOM      6  C5  BZF d   1      -0.553   2.333  -1.198  0.00  0.00    -0.016 A 
ATOM      7  C6  BZF d   1      -1.304   2.678  -0.093  0.00  0.00     0.022 A 
ATOM      8  C7  BZF d   1      -0.739   2.804   1.132  0.00  0.00     0.029 A 
ATOM      9  C7A BZF d   1       0.616   2.594   1.220  0.00  0.00     0.058 A 
ENDROOT
TORSDOF 0
ENDMDL
