MODEL 1
REMARK minimizedAffinity 13.2191591
REMARK minimizedRMSD -1
REMARK  0 active torsions:
REMARK  status: ('A' for Active; 'I' for Inactive)
ROOT
ATOM      1  O1  BZF d   1      -1.095   1.032  -0.712  0.00  0.00    -0.204 OA
ATOM      2  C2  BZF d   1      -2.096   0.091  -0.564  0.00  0.00     0.174 A 
ATOM      3  C3  BZF d   1      -1.622  -1.151  -0.788  0.00  0.00    -0.012 A 
ATOM      4  C3A BZF d   1      -0.218  -0.985  -1.004  0.00  0.00    -0.107 A 
ATOM      5  C4  BZF d   1       0.802  -1.856  -1.261  0.00  0.00     0.055 A 
ATOM      6  C5  BZF d   1       2.047  -1.365  -1.494  0.00  0.00    -0.016 A 
ATOM      7  C6  BZF d   1       2.307  -0.010  -1.483  0.00  0.00     0.022 A 
ATOM      8  C7  BZF d   1       1.329   0.893  -1.228  0.00  0.00     0.029 A 
ATOM      9  C7A BZF d   1       0.076   0.397  -0.960  0.00  0.00     0.058 A 
ENDROOT
TORSDOF 0
ENDMDL
