MODEL 1
REMARK minimizedAffinity 8.24045849
REMARK minimizedRMSD -1
REMARK  0 active torsions:
REMARK  status: ('A' for Active; 'I' for Inactive)
ROOT
ATOM      1  O1  BZF d   1       3.261  -1.765   2.996  0.00  0.00    -0.204 OA
ATOM      2  C2  BZF d   1       4.609  -1.804   3.296  0.00  0.00     0.174 A 
ATOM      3  C3  BZF d   1       5.270  -2.592   2.423  0.00  0.00    -0.012 A 
ATOM      4  C3A BZF d   1       4.288  -3.001   1.467  0.00  0.00    -0.107 A 
ATOM      5  C4  BZF d   1       4.337  -3.780   0.346  0.00  0.00     0.055 A 
ATOM      6  C5  BZF d   1       3.185  -4.044  -0.325  0.00  0.00    -0.016 A 
ATOM      7  C6  BZF d   1       1.969  -3.550   0.098  0.00  0.00     0.022 A 
ATOM      8  C7  BZF d   1       1.871  -2.768   1.201  0.00  0.00     0.029 A 
ATOM      9  C7A BZF d   1       3.038  -2.473   1.863  0.00  0.00     0.058 A 
ENDROOT
TORSDOF 0
ENDMDL
