MODEL 1
REMARK minimizedAffinity 10.5506449
REMARK minimizedRMSD -1
REMARK  0 active torsions:
REMARK  status: ('A' for Active; 'I' for Inactive)
ROOT
ATOM      1  O1  BZF d   1      -1.436  -0.522  -1.000  0.00  0.00    -0.204 OA
ATOM      2  C2  BZF d   1      -1.100  -1.619  -1.770  0.00  0.00     0.174 A 
ATOM      3  C3  BZF d   1       0.174  -1.527  -2.202  0.00  0.00    -0.012 A 
ATOM      4  C3A BZF d   1       0.694  -0.341  -1.593  0.00  0.00    -0.107 A 
ATOM      5  C4  BZF d   1       1.912   0.275  -1.627  0.00  0.00     0.055 A 
ATOM      6  C5  BZF d   1       2.071   1.459  -0.980  0.00  0.00    -0.016 A 
ATOM      7  C6  BZF d   1       1.034   2.057  -0.295  0.00  0.00     0.022 A 
ATOM      8  C7  BZF d   1      -0.191   1.482  -0.229  0.00  0.00     0.029 A 
ATOM      9  C7A BZF d   1      -0.346   0.269  -0.854  0.00  0.00     0.058 A 
ENDROOT
TORSDOF 0
ENDMDL
