MODEL 1
REMARK minimizedAffinity -1.02235603
REMARK minimizedRMSD -1
REMARK  0 active torsions:
REMARK  status: ('A' for Active; 'I' for Inactive)
ROOT
ATOM      1  O1  BZF d   1       1.250   0.766  -2.105  0.00  0.00    -0.204 OA
ATOM      2  C2  BZF d   1       0.116   1.129  -1.405  0.00  0.00     0.174 A 
ATOM      3  C3  BZF d   1      -0.222   0.176  -0.512  0.00  0.00    -0.012 A 
ATOM      4  C3A BZF d   1       0.816  -0.805  -0.599  0.00  0.00    -0.107 A 
ATOM      5  C4  BZF d   1       1.052  -1.982   0.051  0.00  0.00     0.055 A 
ATOM      6  C5  BZF d   1       2.118  -2.740  -0.320  0.00  0.00    -0.016 A 
ATOM      7  C6  BZF d   1       2.964  -2.354  -1.339  0.00  0.00     0.022 A 
ATOM      8  C7  BZF d   1       2.773  -1.191  -2.010  0.00  0.00     0.029 A 
ATOM      9  C7A BZF d   1       1.717  -0.408  -1.615  0.00  0.00     0.058 A 
ENDROOT
TORSDOF 0
ENDMDL
