MODEL 1
REMARK minimizedAffinity 11.1056509
REMARK minimizedRMSD -1
REMARK  0 active torsions:
REMARK  status: ('A' for Active; 'I' for Inactive)
ROOT
ATOM      1  O1  BZF d   1      -1.402  -1.743  -2.223  0.00  0.00    -0.204 OA
ATOM      2  C2  BZF d   1      -1.882  -1.073  -1.115  0.00  0.00     0.174 A 
ATOM      3  C3  BZF d   1      -0.875  -0.752  -0.277  0.00  0.00    -0.012 A 
ATOM      4  C3A BZF d   1       0.319  -1.171  -0.945  0.00  0.00    -0.107 A 
ATOM      5  C4  BZF d   1       1.645  -1.109  -0.626  0.00  0.00     0.055 A 
ATOM      6  C5  BZF d   1       2.553  -1.676  -1.463  0.00  0.00    -0.016 A 
ATOM      7  C6  BZF d   1       2.171  -2.315  -2.624  0.00  0.00     0.022 A 
ATOM      8  C7  BZF d   1       0.867  -2.397  -2.986  0.00  0.00     0.029 A 
ATOM      9  C7A BZF d   1      -0.050  -1.798  -2.158  0.00  0.00     0.058 A 
ENDROOT
TORSDOF 0
ENDMDL
