MODEL 1
REMARK minimizedAffinity 3.17387986
REMARK minimizedRMSD -1
REMARK  0 active torsions:
REMARK  status: ('A' for Active; 'I' for Inactive)
ROOT
ATOM      1  O1  BZF d   1       0.250   1.899  -2.098  0.00  0.00    -0.204 OA
ATOM      2  C2  BZF d   1       1.182   1.256  -2.889  0.00  0.00     0.174 A 
ATOM      3  C3  BZF d   1       2.195   0.776  -2.140  0.00  0.00    -0.012 A 
ATOM      4  C3A BZF d   1       1.830   1.060  -0.786  0.00  0.00    -0.107 A 
ATOM      5  C4  BZF d   1       2.424   0.814   0.418  0.00  0.00     0.055 A 
ATOM      6  C5  BZF d   1       1.842   1.288   1.551  0.00  0.00    -0.016 A 
ATOM      7  C6  BZF d   1       0.671   2.015   1.516  0.00  0.00     0.022 A 
ATOM      8  C7  BZF d   1       0.041   2.280   0.345  0.00  0.00     0.029 A 
ATOM      9  C7A BZF d   1       0.610   1.775  -0.798  0.00  0.00     0.058 A 
ENDROOT
TORSDOF 0
ENDMDL
