MODEL 1
REMARK minimizedAffinity -2.28677607
REMARK minimizedRMSD -1
REMARK  0 active torsions:
REMARK  status: ('A' for Active; 'I' for Inactive)
ROOT
ATOM      1  O1  BZF d   1      -0.738   0.528  -0.859  0.00  0.00    -0.204 OA
ATOM      2  C2  BZF d   1      -0.284   1.642  -1.539  0.00  0.00     0.174 A 
ATOM      3  C3  BZF d   1       0.955   1.431  -2.029  0.00  0.00    -0.012 A 
ATOM      4  C3A BZF d   1       1.258   0.069  -1.711  0.00  0.00    -0.107 A 
ATOM      5  C4  BZF d   1       2.338  -0.732  -1.950  0.00  0.00     0.055 A 
ATOM      6  C5  BZF d   1       2.350  -1.993  -1.442  0.00  0.00    -0.016 A 
ATOM      7  C6  BZF d   1       1.303  -2.481  -0.688  0.00  0.00     0.022 A 
ATOM      8  C7  BZF d   1       0.208  -1.725  -0.429  0.00  0.00     0.029 A 
ATOM      9  C7A BZF d   1       0.179  -0.463  -0.969  0.00  0.00     0.058 A 
ENDROOT
TORSDOF 0
ENDMDL
