MODEL 1
REMARK minimizedAffinity 11.0066929
REMARK minimizedRMSD -1
REMARK  0 active torsions:
REMARK  status: ('A' for Active; 'I' for Inactive)
ROOT
ATOM      1  O1  BZF d   1      -4.711  -0.807  -1.356  0.00  0.00    -0.204 OA
ATOM      2  C2  BZF d   1      -5.994  -1.106  -0.941  0.00  0.00     0.174 A 
ATOM      3  C3  BZF d   1      -6.000  -1.495   0.351  0.00  0.00    -0.012 A 
ATOM      4  C3A BZF d   1      -4.648  -1.346   0.795  0.00  0.00    -0.107 A 
ATOM      5  C4  BZF d   1      -4.024  -1.559   1.991  0.00  0.00     0.055 A 
ATOM      6  C5  BZF d   1      -2.678  -1.388   2.073  0.00  0.00    -0.016 A 
ATOM      7  C6  BZF d   1      -1.926  -1.011   0.980  0.00  0.00     0.022 A 
ATOM      8  C7  BZF d   1      -2.501  -0.783  -0.226  0.00  0.00     0.029 A 
ATOM      9  C7A BZF d   1      -3.865  -0.923  -0.304  0.00  0.00     0.058 A 
ENDROOT
TORSDOF 0
ENDMDL
