MODEL 1
REMARK minimizedAffinity 6.82527351
REMARK minimizedRMSD -1
REMARK  0 active torsions:
REMARK  status: ('A' for Active; 'I' for Inactive)
ROOT
ATOM      1  O1  BZF d   1       3.246  -3.597  -0.028  0.00  0.00    -0.204 OA
ATOM      2  C2  BZF d   1       2.273  -4.387   0.553  0.00  0.00     0.174 A 
ATOM      3  C3  BZF d   1       1.042  -3.988   0.172  0.00  0.00    -0.012 A 
ATOM      4  C3A BZF d   1       1.263  -2.939  -0.775  0.00  0.00    -0.107 A 
ATOM      5  C4  BZF d   1       0.429  -2.155  -1.519  0.00  0.00     0.055 A 
ATOM      6  C5  BZF d   1       0.961  -1.172  -2.293  0.00  0.00    -0.016 A 
ATOM      7  C6  BZF d   1       2.320  -0.943  -2.342  0.00  0.00     0.022 A 
ATOM      8  C7  BZF d   1       3.188  -1.699  -1.626  0.00  0.00     0.029 A 
ATOM      9  C7A BZF d   1       2.656  -2.713  -0.868  0.00  0.00     0.058 A 
ENDROOT
TORSDOF 0
ENDMDL
