MODEL 1
REMARK minimizedAffinity 3.74363399
REMARK minimizedRMSD -1
REMARK  0 active torsions:
REMARK  status: ('A' for Active; 'I' for Inactive)
ROOT
ATOM      1  O1  BZF d   1       0.460  -1.952  -0.704  0.00  0.00    -0.204 OA
ATOM      2  C2  BZF d   1       0.897  -1.669  -1.983  0.00  0.00     0.174 A 
ATOM      3  C3  BZF d   1       2.002  -2.383  -2.280  0.00  0.00    -0.012 A 
ATOM      4  C3A BZF d   1       2.220  -3.228  -1.147  0.00  0.00    -0.107 A 
ATOM      5  C4  BZF d   1       3.155  -4.178  -0.850  0.00  0.00     0.055 A 
ATOM      6  C5  BZF d   1       3.131  -4.769   0.373  0.00  0.00    -0.016 A 
ATOM      7  C6  BZF d   1       2.190  -4.432   1.324  0.00  0.00     0.022 A 
ATOM      8  C7  BZF d   1       1.238  -3.500   1.074  0.00  0.00     0.029 A 
ATOM      9  C7A BZF d   1       1.240  -2.924  -0.173  0.00  0.00     0.058 A 
ENDROOT
TORSDOF 0
ENDMDL
