MODEL 1
REMARK minimizedAffinity 7.12222195
REMARK minimizedRMSD -1
REMARK  0 active torsions:
REMARK  status: ('A' for Active; 'I' for Inactive)
ROOT
ATOM      1  O1  BZF d   1       1.032   0.669  -2.368  0.00  0.00    -0.204 OA
ATOM      2  C2  BZF d   1       0.373   1.440  -1.429  0.00  0.00     0.174 A 
ATOM      3  C3  BZF d   1       0.308   0.799  -0.244  0.00  0.00    -0.012 A 
ATOM      4  C3A BZF d   1       1.048  -0.411  -0.430  0.00  0.00    -0.107 A 
ATOM      5  C4  BZF d   1       1.356  -1.458   0.391  0.00  0.00     0.055 A 
ATOM      6  C5  BZF d   1       2.033  -2.520  -0.120  0.00  0.00    -0.016 A 
ATOM      7  C6  BZF d   1       2.412  -2.571  -1.445  0.00  0.00     0.022 A 
ATOM      8  C7  BZF d   1       2.133  -1.554  -2.297  0.00  0.00     0.029 A 
ATOM      9  C7A BZF d   1       1.478  -0.465  -1.776  0.00  0.00     0.058 A 
ENDROOT
TORSDOF 0
ENDMDL
