MODEL 1
REMARK minimizedAffinity 5.79761839
REMARK minimizedRMSD -1
REMARK  0 active torsions:
REMARK  status: ('A' for Active; 'I' for Inactive)
ROOT
ATOM      1  O1  BZF d   1       3.128  -2.272  -1.961  0.00  0.00    -0.204 OA
ATOM      2  C2  BZF d   1       2.401  -2.850  -0.938  0.00  0.00     0.174 A 
ATOM      3  C3  BZF d   1       1.537  -1.963  -0.404  0.00  0.00    -0.012 A 
ATOM      4  C3A BZF d   1       1.671  -0.782  -1.200  0.00  0.00    -0.107 A 
ATOM      5  C4  BZF d   1       1.065   0.442  -1.174  0.00  0.00     0.055 A 
ATOM      6  C5  BZF d   1       1.476   1.401  -2.045  0.00  0.00    -0.016 A 
ATOM      7  C6  BZF d   1       2.492   1.174  -2.950  0.00  0.00     0.022 A 
ATOM      8  C7  BZF d   1       3.120  -0.026  -3.016  0.00  0.00     0.029 A 
ATOM      9  C7A BZF d   1       2.685  -1.008  -2.160  0.00  0.00     0.058 A 
ENDROOT
TORSDOF 0
ENDMDL
