MODEL 1
REMARK minimizedAffinity 1.32756019
REMARK minimizedRMSD -1
REMARK  0 active torsions:
REMARK  status: ('A' for Active; 'I' for Inactive)
ROOT
ATOM      1  O1  BZF d   1       3.383   2.124  -2.236  0.00  0.00    -0.204 OA
ATOM      2  C2  BZF d   1       2.104   2.453  -2.642  0.00  0.00     0.174 A 
ATOM      3  C3  BZF d   1       1.304   1.368  -2.627  0.00  0.00    -0.012 A 
ATOM      4  C3A BZF d   1       2.110   0.312  -2.096  0.00  0.00    -0.107 A 
ATOM      5  C4  BZF d   1       1.872  -1.004  -1.823  0.00  0.00     0.055 A 
ATOM      6  C5  BZF d   1       2.894  -1.782  -1.377  0.00  0.00    -0.016 A 
ATOM      7  C6  BZF d   1       4.166  -1.278  -1.200  0.00  0.00     0.022 A 
ATOM      8  C7  BZF d   1       4.449   0.023  -1.452  0.00  0.00     0.029 A 
ATOM      9  C7A BZF d   1       3.411   0.819  -1.871  0.00  0.00     0.058 A 
ENDROOT
TORSDOF 0
ENDMDL
