MODEL 1
REMARK minimizedAffinity -2.49048781
REMARK minimizedRMSD -1
REMARK  0 active torsions:
REMARK  status: ('A' for Active; 'I' for Inactive)
ROOT
ATOM      1  O1  BZF d   1       3.209  -3.228  -0.282  0.00  0.00    -0.204 OA
ATOM      2  C2  BZF d   1       2.233  -3.959   0.367  0.00  0.00     0.174 A 
ATOM      3  C3  BZF d   1       1.045  -3.323   0.314  0.00  0.00    -0.012 A 
ATOM      4  C3A BZF d   1       1.274  -2.164  -0.492  0.00  0.00    -0.107 A 
ATOM      5  C4  BZF d   1       0.472  -1.145  -0.922  0.00  0.00     0.055 A 
ATOM      6  C5  BZF d   1       1.022  -0.128  -1.636  0.00  0.00    -0.016 A 
ATOM      7  C6  BZF d   1       2.368  -0.095  -1.934  0.00  0.00     0.022 A 
ATOM      8  C7  BZF d   1       3.202  -1.085  -1.535  0.00  0.00     0.029 A 
ATOM      9  C7A BZF d   1       2.644  -2.131  -0.841  0.00  0.00     0.058 A 
ENDROOT
TORSDOF 0
ENDMDL
