MODEL 1
REMARK minimizedAffinity 7.87580681
REMARK minimizedRMSD -1
REMARK  1 active torsions:
REMARK  status: ('A' for Active; 'I' for Inactive)
REMARK    1  A    between atoms: C1_2  and  C2_3 
ROOT
ATOM      1  C2  UNL d   1       3.287   1.092  -4.846  0.00  0.00    -0.073 A 
ATOM      2  C3  UNL d   1       4.043   1.261  -3.680  0.00  0.00    -0.002 A 
ATOM      3  C4  UNL d   1       3.976   0.317  -2.654  0.00  0.00     0.004 A 
ATOM      4  C5  UNL d   1       3.160  -0.806  -2.786  0.00  0.00    -0.004 A 
ATOM      5  C6  UNL d   1       2.407  -0.999  -3.949  0.00  0.00    -0.075 A 
ATOM      6  C7  UNL d   1       1.523  -2.201  -4.105  0.00  0.00     0.076 C 
ATOM      7  C8  UNL d   1       2.477  -0.045  -4.973  0.00  0.00     0.001 A 
ENDROOT
BRANCH   1   8
ATOM      8  C1  UNL d   1       3.361   2.105  -5.959  0.00  0.00     0.053 C 
ATOM      9  C   UNL d   1       2.132   3.000  -5.998  0.00  0.00     0.018 C 
ENDBRANCH   1   8
TORSDOF 1
ENDMDL
