MODEL 1
REMARK minimizedAffinity 8.74870491
REMARK minimizedRMSD -1
REMARK  1 active torsions:
REMARK  status: ('A' for Active; 'I' for Inactive)
REMARK    1  A    between atoms: C1_2  and  C2_3 
ROOT
ATOM      1  C2  UNL d   1      -5.940  -1.008   3.886  0.00  0.00    -0.073 A 
ATOM      2  C3  UNL d   1      -5.870  -1.005   5.284  0.00  0.00    -0.002 A 
ATOM      3  C4  UNL d   1      -5.830   0.201   5.985  0.00  0.00     0.004 A 
ATOM      4  C5  UNL d   1      -5.866   1.415   5.297  0.00  0.00    -0.004 A 
ATOM      5  C6  UNL d   1      -5.948   1.432   3.901  0.00  0.00    -0.075 A 
ATOM      6  C7  UNL d   1      -5.986   2.728   3.147  0.00  0.00     0.076 C 
ATOM      7  C8  UNL d   1      -5.985   0.217   3.204  0.00  0.00     0.001 A 
ENDROOT
BRANCH   1   8
ATOM      8  C1  UNL d   1      -5.990  -2.307   3.125  0.00  0.00     0.053 C 
ATOM      9  C   UNL d   1      -5.691  -2.114   1.647  0.00  0.00     0.018 C 
ENDBRANCH   1   8
TORSDOF 1
ENDMDL
