MODEL 1
REMARK minimizedAffinity 3.92997193
REMARK minimizedRMSD -1
REMARK  1 active torsions:
REMARK  status: ('A' for Active; 'I' for Inactive)
REMARK    1  A    between atoms: C1_2  and  C2_3 
ROOT
ATOM      1  C2  UNL d   1      -2.150  -5.989   2.182  0.00  0.00    -0.073 A 
ATOM      2  C3  UNL d   1      -2.529  -5.985   3.529  0.00  0.00    -0.002 A 
ATOM      3  C4  UNL d   1      -1.561  -5.993   4.534  0.00  0.00     0.004 A 
ATOM      4  C5  UNL d   1      -0.206  -5.998   4.204  0.00  0.00    -0.004 A 
ATOM      5  C6  UNL d   1       0.193  -5.991   2.863  0.00  0.00    -0.075 A 
ATOM      6  C7  UNL d   1       1.647  -5.999   2.491  0.00  0.00     0.076 C 
ATOM      7  C8  UNL d   1      -0.785  -5.985   1.860  0.00  0.00     0.001 A 
ENDROOT
BRANCH   1   8
ATOM      8  C1  UNL d   1      -3.191  -5.974   1.093  0.00  0.00     0.053 C 
ATOM      9  C   UNL d   1      -4.604  -5.999   1.655  0.00  0.00     0.018 C 
ENDBRANCH   1   8
TORSDOF 1
ENDMDL
