MODEL 1
REMARK minimizedAffinity 10.5113592
REMARK minimizedRMSD -1
REMARK  1 active torsions:
REMARK  status: ('A' for Active; 'I' for Inactive)
REMARK    1  A    between atoms: C1_2  and  C2_3 
ROOT
ATOM      1  C2  UNL d   1       0.461  -5.980   3.312  0.00  0.00    -0.073 A 
ATOM      2  C3  UNL d   1       1.624  -5.991   2.535  0.00  0.00    -0.002 A 
ATOM      3  C4  UNL d   1       1.541  -5.980   1.142  0.00  0.00     0.004 A 
ATOM      4  C5  UNL d   1       0.297  -5.950   0.513  0.00  0.00    -0.004 A 
ATOM      5  C6  UNL d   1      -0.877  -5.927   1.273  0.00  0.00    -0.075 A 
ATOM      6  C7  UNL d   1      -2.224  -5.897   0.612  0.00  0.00     0.076 C 
ATOM      7  C8  UNL d   1      -0.786  -5.941   2.671  0.00  0.00     0.001 A 
ENDROOT
BRANCH   1   8
ATOM      8  C1  UNL d   1       0.546  -5.986   4.817  0.00  0.00     0.053 C 
ATOM      9  C   UNL d   1       1.914  -5.545   5.312  0.00  0.00     0.018 C 
ENDBRANCH   1   8
TORSDOF 1
ENDMDL
