MODEL 1
REMARK minimizedAffinity 3.47052622
REMARK minimizedRMSD -1
REMARK  1 active torsions:
REMARK  status: ('A' for Active; 'I' for Inactive)
REMARK    1  A    between atoms: C1_2  and  C2_3 
ROOT
ATOM      1  C2  UNL d   1      -0.565  -5.985   2.565  0.00  0.00    -0.073 A 
ATOM      2  C3  UNL d   1       0.521  -5.997   1.682  0.00  0.00    -0.002 A 
ATOM      3  C4  UNL d   1       1.827  -5.998   2.172  0.00  0.00     0.004 A 
ATOM      4  C5  UNL d   1       2.061  -5.994   3.547  0.00  0.00    -0.004 A 
ATOM      5  C6  UNL d   1       0.989  -5.993   4.445  0.00  0.00    -0.075 A 
ATOM      6  C7  UNL d   1       1.224  -5.986   5.927  0.00  0.00     0.076 C 
ATOM      7  C8  UNL d   1      -0.320  -5.990   3.946  0.00  0.00     0.001 A 
ENDROOT
BRANCH   1   8
ATOM      8  C1  UNL d   1      -1.978  -5.990   2.040  0.00  0.00     0.053 C 
ATOM      9  C   UNL d   1      -2.022  -5.996   0.521  0.00  0.00     0.018 C 
ENDBRANCH   1   8
TORSDOF 1
ENDMDL
