MODEL 1
REMARK minimizedAffinity 3.75648117
REMARK minimizedRMSD -1
REMARK  1 active torsions:
REMARK  status: ('A' for Active; 'I' for Inactive)
REMARK    1  A    between atoms: C1_2  and  C2_3 
ROOT
ATOM      1  C2  UNL d   1       1.186  -5.968   3.984  0.00  0.00    -0.073 A 
ATOM      2  C3  UNL d   1       2.353  -5.980   3.211  0.00  0.00    -0.002 A 
ATOM      3  C4  UNL d   1       2.274  -6.000   1.818  0.00  0.00     0.004 A 
ATOM      4  C5  UNL d   1       1.032  -5.999   1.184  0.00  0.00    -0.004 A 
ATOM      5  C6  UNL d   1      -0.145  -5.974   1.939  0.00  0.00    -0.075 A 
ATOM      6  C7  UNL d   1      -1.490  -5.976   1.273  0.00  0.00     0.076 C 
ATOM      7  C8  UNL d   1      -0.058  -5.958   3.338  0.00  0.00     0.001 A 
ENDROOT
BRANCH   1   8
ATOM      8  C1  UNL d   1       1.266  -5.940   5.489  0.00  0.00     0.053 C 
ATOM      9  C   UNL d   1       2.703  -5.958   5.984  0.00  0.00     0.018 C 
ENDBRANCH   1   8
TORSDOF 1
ENDMDL
