MODEL 1
REMARK minimizedAffinity 4.20682096
REMARK minimizedRMSD -1
REMARK  1 active torsions:
REMARK  status: ('A' for Active; 'I' for Inactive)
REMARK    1  A    between atoms: C1_2  and  C2_3 
ROOT
ATOM      1  C2  UNL d   1      -0.285  -5.992   2.738  0.00  0.00    -0.073 A 
ATOM      2  C3  UNL d   1       0.730  -6.000   1.773  0.00  0.00    -0.002 A 
ATOM      3  C4  UNL d   1       2.070  -5.998   2.161  0.00  0.00     0.004 A 
ATOM      4  C5  UNL d   1       2.410  -5.996   3.513  0.00  0.00    -0.004 A 
ATOM      5  C6  UNL d   1       1.411  -6.000   4.492  0.00  0.00    -0.075 A 
ATOM      6  C7  UNL d   1       1.760  -5.995   5.951  0.00  0.00     0.076 C 
ATOM      7  C8  UNL d   1       0.067  -5.999   4.095  0.00  0.00     0.001 A 
ENDROOT
BRANCH   1   8
ATOM      8  C1  UNL d   1      -1.734  -6.000   2.325  0.00  0.00     0.053 C 
ATOM      9  C   UNL d   1      -1.895  -5.996   0.813  0.00  0.00     0.018 C 
ENDBRANCH   1   8
TORSDOF 1
ENDMDL
