MODEL 1
REMARK minimizedAffinity 8.31847858
REMARK minimizedRMSD -1
REMARK  1 active torsions:
REMARK  status: ('A' for Active; 'I' for Inactive)
REMARK    1  A    between atoms: C1_2  and  C2_3 
ROOT
ATOM      1  C2  UNL d   1      -0.990  -5.844   2.797  0.00  0.00    -0.073 A 
ATOM      2  C3  UNL d   1       0.034  -6.000   1.856  0.00  0.00    -0.002 A 
ATOM      3  C4  UNL d   1       1.369  -5.870   2.239  0.00  0.00     0.004 A 
ATOM      4  C5  UNL d   1       1.695  -5.590   3.567  0.00  0.00    -0.004 A 
ATOM      5  C6  UNL d   1       0.686  -5.443   4.524  0.00  0.00    -0.075 A 
ATOM      6  C7  UNL d   1       1.019  -5.140   5.955  0.00  0.00     0.076 C 
ATOM      7  C8  UNL d   1      -0.653  -5.573   4.131  0.00  0.00     0.001 A 
ENDROOT
BRANCH   1   8
ATOM      8  C1  UNL d   1      -2.433  -5.990   2.389  0.00  0.00     0.053 C 
ATOM      9  C   UNL d   1      -2.600  -5.998   0.878  0.00  0.00     0.018 C 
ENDBRANCH   1   8
TORSDOF 1
ENDMDL
