MODEL 1
REMARK minimizedAffinity 9.88127995
REMARK minimizedRMSD -1
REMARK  1 active torsions:
REMARK  status: ('A' for Active; 'I' for Inactive)
REMARK    1  A    between atoms: C1_2  and  C2_3 
ROOT
ATOM      1  C2  UNL d   1      -5.311   1.071   4.189  0.00  0.00    -0.073 A 
ATOM      2  C3  UNL d   1      -5.796   0.467   5.354  0.00  0.00    -0.002 A 
ATOM      3  C4  UNL d   1      -5.218  -0.710   5.831  0.00  0.00     0.004 A 
ATOM      4  C5  UNL d   1      -4.147  -1.291   5.152  0.00  0.00    -0.004 A 
ATOM      5  C6  UNL d   1      -3.641  -0.696   3.992  0.00  0.00    -0.075 A 
ATOM      6  C7  UNL d   1      -2.491  -1.310   3.249  0.00  0.00     0.076 C 
ATOM      7  C8  UNL d   1      -4.228   0.484   3.518  0.00  0.00     0.001 A 
ENDROOT
BRANCH   1   8
ATOM      8  C1  UNL d   1      -5.928   2.346   3.674  0.00  0.00     0.053 C 
ATOM      9  C   UNL d   1      -5.994   2.374   2.155  0.00  0.00     0.018 C 
ENDBRANCH   1   8
TORSDOF 1
ENDMDL
