MODEL 1
REMARK minimizedAffinity 3.09011722
REMARK minimizedRMSD -1
REMARK  1 active torsions:
REMARK  status: ('A' for Active; 'I' for Inactive)
REMARK    1  A    between atoms: C1_2  and  C2_3 
ROOT
ATOM      1  C2  UNL d   1       0.995  -5.973   3.934  0.00  0.00    -0.073 A 
ATOM      2  C3  UNL d   1       2.044  -5.978   3.008  0.00  0.00    -0.002 A 
ATOM      3  C4  UNL d   1       1.775  -5.995   1.639  0.00  0.00     0.004 A 
ATOM      4  C5  UNL d   1       0.457  -6.000   1.182  0.00  0.00    -0.004 A 
ATOM      5  C6  UNL d   1      -0.605  -5.983   2.092  0.00  0.00    -0.075 A 
ATOM      6  C7  UNL d   1      -2.028  -5.991   1.617  0.00  0.00     0.076 C 
ATOM      7  C8  UNL d   1      -0.327  -5.969   3.466  0.00  0.00     0.001 A 
ENDROOT
BRANCH   1   8
ATOM      8  C1  UNL d   1       1.280  -5.949   5.414  0.00  0.00     0.053 C 
ATOM      9  C   UNL d   1       1.496  -4.535   5.929  0.00  0.00     0.018 C 
ENDBRANCH   1   8
TORSDOF 1
ENDMDL
