MODEL 1
REMARK minimizedAffinity 1.05305088
REMARK minimizedRMSD -1
REMARK  1 active torsions:
REMARK  status: ('A' for Active; 'I' for Inactive)
REMARK    1  A    between atoms: C1_2  and  C2_3 
ROOT
ATOM      1  C2  UNL d   1      -0.791  -5.976   2.621  0.00  0.00    -0.073 A 
ATOM      2  C3  UNL d   1       0.122  -5.988   1.561  0.00  0.00    -0.002 A 
ATOM      3  C4  UNL d   1       1.494  -5.995   1.812  0.00  0.00     0.004 A 
ATOM      4  C5  UNL d   1       1.967  -5.996   3.124  0.00  0.00    -0.004 A 
ATOM      5  C6  UNL d   1       1.071  -5.996   4.198  0.00  0.00    -0.075 A 
ATOM      6  C7  UNL d   1       1.563  -5.996   5.615  0.00  0.00     0.076 C 
ATOM      7  C8  UNL d   1      -0.306  -5.987   3.937  0.00  0.00     0.001 A 
ENDROOT
BRANCH   1   8
ATOM      8  C1  UNL d   1      -2.274  -5.975   2.354  0.00  0.00     0.053 C 
ATOM      9  C   UNL d   1      -2.586  -5.949   0.866  0.00  0.00     0.018 C 
ENDBRANCH   1   8
TORSDOF 1
ENDMDL
