MODEL 1
REMARK minimizedAffinity 12.754734
REMARK minimizedRMSD -1
REMARK  1 active torsions:
REMARK  status: ('A' for Active; 'I' for Inactive)
REMARK    1  A    between atoms: C1_2  and  C2_3 
ROOT
ATOM      1  C2  UNL d   1      -3.165  -1.495  -2.940  0.00  0.00    -0.073 A 
ATOM      2  C3  UNL d   1      -2.269  -1.865  -1.931  0.00  0.00    -0.002 A 
ATOM      3  C4  UNL d   1      -1.134  -2.617  -2.237  0.00  0.00     0.004 A 
ATOM      4  C5  UNL d   1      -0.879  -2.999  -3.554  0.00  0.00    -0.004 A 
ATOM      5  C6  UNL d   1      -1.756  -2.628  -4.578  0.00  0.00    -0.075 A 
ATOM      6  C7  UNL d   1      -1.498  -3.033  -6.000  0.00  0.00     0.076 C 
ATOM      7  C8  UNL d   1      -2.896  -1.876  -4.262  0.00  0.00     0.001 A 
ENDROOT
BRANCH   1   8
ATOM      8  C1  UNL d   1      -4.389  -0.678  -2.616  0.00  0.00     0.053 C 
ATOM      9  C   UNL d   1      -5.435  -1.491  -1.869  0.00  0.00     0.018 C 
ENDBRANCH   1   8
TORSDOF 1
ENDMDL
