MODEL 1
REMARK minimizedAffinity 8.56968212
REMARK minimizedRMSD -1
REMARK  1 active torsions:
REMARK  status: ('A' for Active; 'I' for Inactive)
REMARK    1  A    between atoms: C1_2  and  C2_3 
ROOT
ATOM      1  C2  UNL d   1       0.267  -1.414  -3.505  0.00  0.00    -0.073 A 
ATOM      2  C3  UNL d   1      -0.590  -0.690  -2.668  0.00  0.00    -0.002 A 
ATOM      3  C4  UNL d   1      -1.952  -0.991  -2.624  0.00  0.00     0.004 A 
ATOM      4  C5  UNL d   1      -2.469  -2.020  -3.410  0.00  0.00    -0.004 A 
ATOM      5  C6  UNL d   1      -1.627  -2.763  -4.244  0.00  0.00    -0.075 A 
ATOM      6  C7  UNL d   1      -2.168  -3.872  -5.097  0.00  0.00     0.076 C 
ATOM      7  C8  UNL d   1      -0.261  -2.453  -4.284  0.00  0.00     0.001 A 
ENDROOT
BRANCH   1   8
ATOM      8  C1  UNL d   1       1.739  -1.097  -3.551  0.00  0.00     0.053 C 
ATOM      9  C   UNL d   1       2.344  -0.995  -2.159  0.00  0.00     0.018 C 
ENDBRANCH   1   8
TORSDOF 1
ENDMDL
