MODEL 1
REMARK minimizedAffinity -5.29925299
REMARK minimizedRMSD -1
REMARK  0 active torsions:
REMARK  status: ('A' for Active; 'I' for Inactive)
ROOT
ATOM      1  C   UNL d   1      -2.365  -3.789  -2.371  0.00  0.00     0.077 C 
ATOM      2  C1  UNL d   1      -1.138  -3.144  -1.800  0.00  0.00    -0.074 A 
ATOM      3  C2  UNL d   1       0.127  -3.712  -1.986  0.00  0.00    -0.005 A 
ATOM      4  C3  UNL d   1       1.260  -3.095  -1.458  0.00  0.00     0.006 A 
ATOM      5  C4  UNL d   1       1.142  -1.905  -0.738  0.00  0.00    -0.005 A 
ATOM      6  C5  UNL d   1      -0.114  -1.322  -0.542  0.00  0.00    -0.074 A 
ATOM      7  C6  UNL d   1      -0.258  -0.038   0.220  0.00  0.00     0.077 C 
ATOM      8  C7  UNL d   1      -1.248  -1.944  -1.082  0.00  0.00    -0.001 A 
ENDROOT
TORSDOF 0
ENDMDL
