MODEL 1
REMARK minimizedAffinity -2.14362311
REMARK minimizedRMSD -1
REMARK  0 active torsions:
REMARK  status: ('A' for Active; 'I' for Inactive)
ROOT
ATOM      1  C   UNL d   1      -0.156  -3.497  -0.167  0.00  0.00     0.077 C 
ATOM      2  C1  UNL d   1      -0.478  -2.125   0.344  0.00  0.00    -0.074 A 
ATOM      3  C2  UNL d   1      -1.308  -1.948   1.456  0.00  0.00    -0.005 A 
ATOM      4  C3  UNL d   1      -1.591  -0.666   1.926  0.00  0.00     0.006 A 
ATOM      5  C4  UNL d   1      -1.047   0.451   1.291  0.00  0.00    -0.005 A 
ATOM      6  C5  UNL d   1      -0.214   0.294   0.178  0.00  0.00    -0.074 A 
ATOM      7  C6  UNL d   1       0.386   1.484  -0.510  0.00  0.00     0.077 C 
ATOM      8  C7  UNL d   1       0.071  -0.998  -0.284  0.00  0.00    -0.001 A 
ENDROOT
TORSDOF 0
ENDMDL
