MODEL 1
REMARK minimizedAffinity -3.40440559
REMARK minimizedRMSD -1
REMARK  0 active torsions:
REMARK  status: ('A' for Active; 'I' for Inactive)
ROOT
ATOM      1  C   UNL d   1       0.007   2.265  -0.135  0.00  0.00     0.077 C 
ATOM      2  C1  UNL d   1       0.132   0.832  -0.560  0.00  0.00    -0.074 A 
ATOM      3  C2  UNL d   1       0.397   0.498  -1.891  0.00  0.00    -0.005 A 
ATOM      4  C3  UNL d   1       0.519  -0.839  -2.270  0.00  0.00     0.006 A 
ATOM      5  C4  UNL d   1       0.377  -1.853  -1.322  0.00  0.00    -0.005 A 
ATOM      6  C5  UNL d   1       0.113  -1.538   0.014  0.00  0.00    -0.074 A 
ATOM      7  C6  UNL d   1      -0.033  -2.616   1.048  0.00  0.00     0.077 C 
ATOM      8  C7  UNL d   1      -0.002  -0.192   0.388  0.00  0.00    -0.001 A 
ENDROOT
TORSDOF 0
ENDMDL
