MODEL 1
REMARK minimizedAffinity -3.48807931
REMARK minimizedRMSD -1
REMARK  0 active torsions:
REMARK  status: ('A' for Active; 'I' for Inactive)
ROOT
ATOM      1  C   UNL d   1       0.215  -3.039   0.282  0.00  0.00     0.077 C 
ATOM      2  C1  UNL d   1       0.266  -1.687  -0.366  0.00  0.00    -0.074 A 
ATOM      3  C2  UNL d   1       0.520  -1.555  -1.735  0.00  0.00    -0.005 A 
ATOM      4  C3  UNL d   1       0.555  -0.292  -2.325  0.00  0.00     0.006 A 
ATOM      5  C4  UNL d   1       0.337   0.850  -1.553  0.00  0.00    -0.005 A 
ATOM      6  C5  UNL d   1       0.081   0.738  -0.183  0.00  0.00    -0.074 A 
ATOM      7  C6  UNL d   1      -0.165   1.955   0.659  0.00  0.00     0.077 C 
ATOM      8  C7  UNL d   1       0.041  -0.536   0.401  0.00  0.00    -0.001 A 
ENDROOT
TORSDOF 0
ENDMDL
