MODEL 1
REMARK minimizedAffinity -0.443234295
REMARK minimizedRMSD -1
REMARK  0 active torsions:
REMARK  status: ('A' for Active; 'I' for Inactive)
ROOT
ATOM      1  C   UNL d   1      -2.154   0.338   1.286  0.00  0.00     0.077 C 
ATOM      2  C1  UNL d   1      -1.342  -0.777   0.697  0.00  0.00    -0.074 A 
ATOM      3  C2  UNL d   1      -1.544  -2.102   1.097  0.00  0.00    -0.005 A 
ATOM      4  C3  UNL d   1      -0.787  -3.130   0.533  0.00  0.00     0.006 A 
ATOM      5  C4  UNL d   1       0.177  -2.843  -0.434  0.00  0.00    -0.005 A 
ATOM      6  C5  UNL d   1       0.392  -1.524  -0.847  0.00  0.00    -0.074 A 
ATOM      7  C6  UNL d   1       1.418  -1.200  -1.892  0.00  0.00     0.077 C 
ATOM      8  C7  UNL d   1      -0.377  -0.498  -0.281  0.00  0.00    -0.001 A 
ENDROOT
TORSDOF 0
ENDMDL
