MODEL 1
REMARK minimizedAffinity -3.38796592
REMARK minimizedRMSD -1
REMARK  0 active torsions:
REMARK  status: ('A' for Active; 'I' for Inactive)
ROOT
ATOM      1  C   UNL d   1       0.279  -3.896  -0.467  0.00  0.00     0.077 C 
ATOM      2  C1  UNL d   1      -0.076  -2.595   0.190  0.00  0.00    -0.074 A 
ATOM      3  C2  UNL d   1      -0.764  -2.569   1.407  0.00  0.00    -0.005 A 
ATOM      4  C3  UNL d   1      -1.080  -1.352   2.011  0.00  0.00     0.006 A 
ATOM      5  C4  UNL d   1      -0.711  -0.150   1.404  0.00  0.00    -0.005 A 
ATOM      6  C5  UNL d   1      -0.022  -0.157   0.187  0.00  0.00    -0.074 A 
ATOM      7  C6  UNL d   1       0.390   1.125  -0.473  0.00  0.00     0.077 C 
ATOM      8  C7  UNL d   1       0.297  -1.384  -0.410  0.00  0.00    -0.001 A 
ENDROOT
TORSDOF 0
ENDMDL
