MODEL 1
REMARK minimizedAffinity -1.62842262
REMARK minimizedRMSD -1
REMARK  0 active torsions:
REMARK  status: ('A' for Active; 'I' for Inactive)
ROOT
ATOM      1  C   UNL d   1      -0.755  -2.844   0.373  0.00  0.00     0.077 C 
ATOM      2  C1  UNL d   1      -0.223  -1.601  -0.277  0.00  0.00    -0.074 A 
ATOM      3  C2  UNL d   1       0.091  -1.580  -1.639  0.00  0.00    -0.005 A 
ATOM      4  C3  UNL d   1       0.575  -0.414  -2.232  0.00  0.00     0.006 A 
ATOM      5  C4  UNL d   1       0.751   0.741  -1.469  0.00  0.00    -0.005 A 
ATOM      6  C5  UNL d   1       0.442   0.739  -0.105  0.00  0.00    -0.074 A 
ATOM      7  C6  UNL d   1       0.615   1.975   0.727  0.00  0.00     0.077 C 
ATOM      8  C7  UNL d   1      -0.051  -0.434   0.481  0.00  0.00    -0.001 A 
ENDROOT
TORSDOF 0
ENDMDL
