MODEL 1
REMARK minimizedAffinity -4.65945816
REMARK minimizedRMSD -1
REMARK  0 active torsions:
REMARK  status: ('A' for Active; 'I' for Inactive)
ROOT
ATOM      1  C   UNL d   1       0.932  -1.794  -2.414  0.00  0.00     0.077 C 
ATOM      2  C1  UNL d   1       0.442  -1.326  -1.076  0.00  0.00    -0.074 A 
ATOM      3  C2  UNL d   1       0.021  -2.240  -0.104  0.00  0.00    -0.005 A 
ATOM      4  C3  UNL d   1      -0.423  -1.790   1.139  0.00  0.00     0.006 A 
ATOM      5  C4  UNL d   1      -0.451  -0.424   1.423  0.00  0.00    -0.005 A 
ATOM      6  C5  UNL d   1      -0.033   0.505   0.465  0.00  0.00    -0.074 A 
ATOM      7  C6  UNL d   1      -0.048   1.976   0.757  0.00  0.00     0.077 C 
ATOM      8  C7  UNL d   1       0.418   0.044  -0.780  0.00  0.00    -0.001 A 
ENDROOT
TORSDOF 0
ENDMDL
