MODEL 1
REMARK minimizedAffinity -4.27238798
REMARK minimizedRMSD -1
REMARK  0 active torsions:
REMARK  status: ('A' for Active; 'I' for Inactive)
ROOT
ATOM      1  C   UNL d   1      -0.005  -2.593   0.973  0.00  0.00     0.077 C 
ATOM      2  C1  UNL d   1       0.127  -1.295   0.233  0.00  0.00    -0.074 A 
ATOM      3  C2  UNL d   1      -0.162  -1.214  -1.133  0.00  0.00    -0.005 A 
ATOM      4  C3  UNL d   1      -0.045   0.002  -1.806  0.00  0.00     0.006 A 
ATOM      5  C4  UNL d   1       0.362   1.148  -1.121  0.00  0.00    -0.005 A 
ATOM      6  C5  UNL d   1       0.655   1.086   0.245  0.00  0.00    -0.074 A 
ATOM      7  C6  UNL d   1       1.085   2.310   0.999  0.00  0.00     0.077 C 
ATOM      8  C7  UNL d   1       0.528  -0.138   0.916  0.00  0.00    -0.001 A 
ENDROOT
TORSDOF 0
ENDMDL
