MODEL 1
REMARK minimizedAffinity -5.20813894
REMARK minimizedRMSD -1
REMARK  0 active torsions:
REMARK  status: ('A' for Active; 'I' for Inactive)
ROOT
ATOM      1  C   UNL d   1       0.338  -3.481   0.830  0.00  0.00     0.077 C 
ATOM      2  C1  UNL d   1      -0.119  -2.059   0.687  0.00  0.00    -0.074 A 
ATOM      3  C2  UNL d   1      -0.892  -1.449   1.680  0.00  0.00    -0.005 A 
ATOM      4  C3  UNL d   1      -1.301  -0.123   1.537  0.00  0.00     0.006 A 
ATOM      5  C4  UNL d   1      -0.941   0.605   0.403  0.00  0.00    -0.005 A 
ATOM      6  C5  UNL d   1      -0.167   0.012  -0.600  0.00  0.00    -0.074 A 
ATOM      7  C6  UNL d   1       0.237   0.784  -1.821  0.00  0.00     0.077 C 
ATOM      8  C7  UNL d   1       0.246  -1.318  -0.446  0.00  0.00    -0.001 A 
ENDROOT
TORSDOF 0
ENDMDL
