MODEL 1
REMARK minimizedAffinity -4.24288321
REMARK minimizedRMSD -1
REMARK  0 active torsions:
REMARK  status: ('A' for Active; 'I' for Inactive)
ROOT
ATOM      1  C   UNL d   1       0.435  -2.567  -2.854  0.00  0.00     0.077 C 
ATOM      2  C1  UNL d   1       0.240  -2.270  -1.397  0.00  0.00    -0.074 A 
ATOM      3  C2  UNL d   1       0.162  -3.303  -0.457  0.00  0.00    -0.005 A 
ATOM      4  C3  UNL d   1      -0.010  -3.011   0.896  0.00  0.00     0.006 A 
ATOM      5  C4  UNL d   1      -0.106  -1.686   1.322  0.00  0.00    -0.005 A 
ATOM      6  C5  UNL d   1      -0.029  -0.640   0.397  0.00  0.00    -0.074 A 
ATOM      7  C6  UNL d   1      -0.121   0.790   0.840  0.00  0.00     0.077 C 
ATOM      8  C7  UNL d   1       0.151  -0.941  -0.960  0.00  0.00    -0.001 A 
ENDROOT
TORSDOF 0
ENDMDL
