MODEL 1
REMARK minimizedAffinity -4.21493006
REMARK minimizedRMSD -1
REMARK  0 active torsions:
REMARK  status: ('A' for Active; 'I' for Inactive)
ROOT
ATOM      1  C   UNL d   1       0.669  -2.382   0.866  0.00  0.00     0.077 C 
ATOM      2  C1  UNL d   1       0.525  -1.209  -0.057  0.00  0.00    -0.074 A 
ATOM      3  C2  UNL d   1       0.465  -1.387  -1.443  0.00  0.00    -0.005 A 
ATOM      4  C3  UNL d   1       0.321  -0.287  -2.288  0.00  0.00     0.006 A 
ATOM      5  C4  UNL d   1       0.235   1.000  -1.757  0.00  0.00    -0.005 A 
ATOM      6  C5  UNL d   1       0.291   1.198  -0.374  0.00  0.00    -0.074 A 
ATOM      7  C6  UNL d   1       0.190   2.575   0.213  0.00  0.00     0.077 C 
ATOM      8  C7  UNL d   1       0.429   0.087   0.469  0.00  0.00    -0.001 A 
ENDROOT
TORSDOF 0
ENDMDL
