MODEL 1
REMARK minimizedAffinity -5.39795113
REMARK minimizedRMSD -1
REMARK  0 active torsions:
REMARK  status: ('A' for Active; 'I' for Inactive)
ROOT
ATOM      1  C   UNL d   1      -0.166  -3.233   0.586  0.00  0.00     0.077 C 
ATOM      2  C1  UNL d   1       0.077  -2.049  -0.301  0.00  0.00    -0.074 A 
ATOM      3  C2  UNL d   1       0.334  -2.213  -1.666  0.00  0.00    -0.005 A 
ATOM      4  C3  UNL d   1       0.549  -1.102  -2.480  0.00  0.00     0.006 A 
ATOM      5  C4  UNL d   1       0.508   0.184  -1.939  0.00  0.00    -0.005 A 
ATOM      6  C5  UNL d   1       0.251   0.368  -0.577  0.00  0.00    -0.074 A 
ATOM      7  C6  UNL d   1       0.195   1.744   0.019  0.00  0.00     0.077 C 
ATOM      8  C7  UNL d   1       0.030  -0.753   0.234  0.00  0.00    -0.001 A 
ENDROOT
TORSDOF 0
ENDMDL
