MODEL 1
REMARK minimizedAffinity -4.65065384
REMARK minimizedRMSD -1
REMARK  0 active torsions:
REMARK  status: ('A' for Active; 'I' for Inactive)
ROOT
ATOM      1  C   UNL d   1       0.302  -3.465   0.049  0.00  0.00     0.077 C 
ATOM      2  C1  UNL d   1      -0.110  -2.026  -0.052  0.00  0.00    -0.074 A 
ATOM      3  C2  UNL d   1       0.305  -1.234  -1.128  0.00  0.00    -0.005 A 
ATOM      4  C3  UNL d   1      -0.094   0.100  -1.214  0.00  0.00     0.006 A 
ATOM      5  C4  UNL d   1      -0.910   0.654  -0.226  0.00  0.00    -0.005 A 
ATOM      6  C5  UNL d   1      -1.335  -0.123   0.856  0.00  0.00    -0.074 A 
ATOM      7  C6  UNL d   1      -2.219   0.455   1.920  0.00  0.00     0.077 C 
ATOM      8  C7  UNL d   1      -0.936  -1.464   0.931  0.00  0.00    -0.001 A 
ENDROOT
TORSDOF 0
ENDMDL
