MODEL 1
REMARK minimizedAffinity -4.08260107
REMARK minimizedRMSD -1
REMARK  0 active torsions:
REMARK  status: ('A' for Active; 'I' for Inactive)
ROOT
ATOM      1  C   UNL d   1      -0.021  -2.219  -2.832  0.00  0.00     0.077 C 
ATOM      2  C1  UNL d   1      -0.374  -1.642  -1.493  0.00  0.00    -0.074 A 
ATOM      3  C2  UNL d   1      -0.981  -2.429  -0.509  0.00  0.00    -0.005 A 
ATOM      4  C3  UNL d   1      -1.295  -1.881   0.735  0.00  0.00     0.006 A 
ATOM      5  C4  UNL d   1      -1.007  -0.543   1.007  0.00  0.00    -0.005 A 
ATOM      6  C5  UNL d   1      -0.399   0.259   0.035  0.00  0.00    -0.074 A 
ATOM      7  C6  UNL d   1      -0.074   1.696   0.314  0.00  0.00     0.077 C 
ATOM      8  C7  UNL d   1      -0.080  -0.301  -1.210  0.00  0.00    -0.001 A 
ENDROOT
TORSDOF 0
ENDMDL
