MODEL 1
REMARK minimizedAffinity -4.74556589
REMARK minimizedRMSD -1
REMARK  0 active torsions:
REMARK  status: ('A' for Active; 'I' for Inactive)
ROOT
ATOM      1  C   UNL d   1       0.491  -1.936  -3.357  0.00  0.00     0.077 C 
ATOM      2  C1  UNL d   1      -0.118  -1.934  -1.986  0.00  0.00    -0.074 A 
ATOM      3  C2  UNL d   1      -0.593  -3.116  -1.409  0.00  0.00    -0.005 A 
ATOM      4  C3  UNL d   1      -1.148  -3.099  -0.129  0.00  0.00     0.006 A 
ATOM      5  C4  UNL d   1      -1.233  -1.904   0.585  0.00  0.00    -0.005 A 
ATOM      6  C5  UNL d   1      -0.763  -0.712   0.024  0.00  0.00    -0.074 A 
ATOM      7  C6  UNL d   1      -0.838   0.580   0.781  0.00  0.00     0.077 C 
ATOM      8  C7  UNL d   1      -0.200  -0.738  -1.260  0.00  0.00    -0.001 A 
ENDROOT
TORSDOF 0
ENDMDL
