MODEL 1
REMARK minimizedAffinity -3.00930476
REMARK minimizedRMSD -1
REMARK  1 active torsions:
REMARK  status: ('A' for Active; 'I' for Inactive)
REMARK    1  A    between atoms: C3_4  and  O_7 
ROOT
ATOM      1  C   UNL d   1       6.000  -2.254   3.865  0.00  0.00    -0.033 A 
ATOM      2  C1  UNL d   1       5.994  -3.273   2.911  0.00  0.00     0.039 A 
ATOM      3  C2  UNL d   1       5.515  -4.541   3.244  0.00  0.00    -0.080 A 
ATOM      4  C3  UNL d   1       5.046  -4.777   4.533  0.00  0.00     0.150 A 
ATOM      5  C4  UNL d   1       5.045  -3.765   5.488  0.00  0.00    -0.007 A 
ATOM      6  C5  UNL d   1       5.524  -2.499   5.153  0.00  0.00     0.039 A 
ENDROOT
BRANCH   4   7
ATOM      7  O   UNL d   1       4.573  -6.000   4.907  0.00  0.00    -0.526 OA
ATOM      8  H5  UNL d   1       4.661  -6.607   4.153  0.00  0.00     0.418 HD
ENDBRANCH   4   7
TORSDOF 1
ENDMDL
