MODEL 1
REMARK minimizedAffinity -2.60951853
REMARK minimizedRMSD -1
REMARK  1 active torsions:
REMARK  status: ('A' for Active; 'I' for Inactive)
REMARK    1  A    between atoms: C3_4  and  O_7 
ROOT
ATOM      1  C   UNL d   1       5.729  -2.243   5.785  0.00  0.00    -0.033 A 
ATOM      2  C1  UNL d   1       5.896  -1.743   4.492  0.00  0.00     0.039 A 
ATOM      3  C2  UNL d   1       5.985  -2.620   3.409  0.00  0.00    -0.080 A 
ATOM      4  C3  UNL d   1       5.906  -3.991   3.632  0.00  0.00     0.150 A 
ATOM      5  C4  UNL d   1       5.736  -4.496   4.917  0.00  0.00    -0.007 A 
ATOM      6  C5  UNL d   1       5.648  -3.620   5.997  0.00  0.00     0.039 A 
ENDROOT
BRANCH   4   7
ATOM      7  O   UNL d   1       5.992  -4.886   2.606  0.00  0.00    -0.526 OA
ATOM      8  H5  UNL d   1       6.137  -4.395   1.781  0.00  0.00     0.418 HD
ENDBRANCH   4   7
TORSDOF 1
ENDMDL
