MODEL 1
REMARK minimizedAffinity -3.62200761
REMARK minimizedRMSD -1
REMARK  1 active torsions:
REMARK  status: ('A' for Active; 'I' for Inactive)
REMARK    1  A    between atoms: C3_4  and  O_7 
ROOT
ATOM      1  C   UNL d   1       5.932  -2.996   2.215  0.00  0.00    -0.033 A 
ATOM      2  C1  UNL d   1       5.842  -2.051   3.238  0.00  0.00     0.039 A 
ATOM      3  C2  UNL d   1       5.448  -2.442   4.519  0.00  0.00    -0.080 A 
ATOM      4  C3  UNL d   1       5.148  -3.779   4.764  0.00  0.00     0.150 A 
ATOM      5  C4  UNL d   1       5.240  -4.727   3.750  0.00  0.00    -0.007 A 
ATOM      6  C5  UNL d   1       5.632  -4.335   2.471  0.00  0.00     0.039 A 
ENDROOT
BRANCH   4   7
ATOM      7  O   UNL d   1       4.755  -4.207   5.997  0.00  0.00    -0.526 OA
ATOM      8  H5  UNL d   1       4.709  -3.438   6.590  0.00  0.00     0.418 HD
ENDBRANCH   4   7
TORSDOF 1
ENDMDL
