MODEL 1
REMARK minimizedAffinity -3.41439462
REMARK minimizedRMSD -1
REMARK  1 active torsions:
REMARK  status: ('A' for Active; 'I' for Inactive)
REMARK    1  A    between atoms: C3_4  and  O_7 
ROOT
ATOM      1  C   UNL d   1       5.098  -5.458   3.992  0.00  0.00    -0.033 A 
ATOM      2  C1  UNL d   1       4.904  -4.801   5.209  0.00  0.00     0.039 A 
ATOM      3  C2  UNL d   1       5.087  -3.420   5.296  0.00  0.00    -0.080 A 
ATOM      4  C3  UNL d   1       5.462  -2.707   4.161  0.00  0.00     0.150 A 
ATOM      5  C4  UNL d   1       5.654  -3.354   2.944  0.00  0.00    -0.007 A 
ATOM      6  C5  UNL d   1       5.472  -4.733   2.859  0.00  0.00     0.039 A 
ENDROOT
BRANCH   4   7
ATOM      7  O   UNL d   1       5.657  -1.358   4.198  0.00  0.00    -0.526 OA
ATOM      8  H5  UNL d   1       5.517  -1.052   5.110  0.00  0.00     0.418 HD
ENDBRANCH   4   7
TORSDOF 1
ENDMDL
