MODEL 1
REMARK minimizedAffinity -3.86182117
REMARK minimizedRMSD -1
REMARK  1 active torsions:
REMARK  status: ('A' for Active; 'I' for Inactive)
REMARK    1  A    between atoms: C3_4  and  O_7 
ROOT
ATOM      1  C   UNL d   1       5.875  -2.838   3.013  0.00  0.00    -0.033 A 
ATOM      2  C1  UNL d   1       4.667  -2.253   3.398  0.00  0.00     0.039 A 
ATOM      3  C2  UNL d   1       3.580  -3.058   3.744  0.00  0.00    -0.080 A 
ATOM      4  C3  UNL d   1       3.713  -4.443   3.702  0.00  0.00     0.150 A 
ATOM      5  C4  UNL d   1       4.915  -5.032   3.323  0.00  0.00    -0.007 A 
ATOM      6  C5  UNL d   1       6.000  -4.227   2.977  0.00  0.00     0.039 A 
ENDROOT
BRANCH   4   7
ATOM      7  O   UNL d   1       2.679  -5.269   4.027  0.00  0.00    -0.526 OA
ATOM      8  H5  UNL d   1       1.904  -4.722   4.240  0.00  0.00     0.418 HD
ENDBRANCH   4   7
TORSDOF 1
ENDMDL
