MODEL 1
REMARK minimizedAffinity -2.33220005
REMARK minimizedRMSD -1
REMARK  1 active torsions:
REMARK  status: ('A' for Active; 'I' for Inactive)
REMARK    1  A    between atoms: C3_4  and  O_7 
ROOT
ATOM      1  C   UNL d   1       5.959  -2.603   2.931  0.00  0.00    -0.033 A 
ATOM      2  C1  UNL d   1       5.998  -3.961   2.606  0.00  0.00     0.039 A 
ATOM      3  C2  UNL d   1       6.000  -4.923   3.618  0.00  0.00    -0.080 A 
ATOM      4  C3  UNL d   1       5.961  -4.516   4.948  0.00  0.00     0.150 A 
ATOM      5  C4  UNL d   1       5.917  -3.165   5.279  0.00  0.00    -0.007 A 
ATOM      6  C5  UNL d   1       5.917  -2.206   4.268  0.00  0.00     0.039 A 
ENDROOT
BRANCH   4   7
ATOM      7  O   UNL d   1       5.965  -5.418   5.970  0.00  0.00    -0.526 OA
ATOM      8  H5  UNL d   1       6.026  -6.311   5.592  0.00  0.00     0.418 HD
ENDBRANCH   4   7
TORSDOF 1
ENDMDL
