MODEL 1
REMARK minimizedAffinity -1.85288024
REMARK minimizedRMSD -1
REMARK  1 active torsions:
REMARK  status: ('A' for Active; 'I' for Inactive)
REMARK    1  A    between atoms: C3_4  and  O_7 
ROOT
ATOM      1  C   UNL d   1       6.000  -2.552   4.955  0.00  0.00    -0.033 A 
ATOM      2  C1  UNL d   1       5.273  -3.126   6.000  0.00  0.00     0.039 A 
ATOM      3  C2  UNL d   1       4.532  -4.289   5.780  0.00  0.00    -0.080 A 
ATOM      4  C3  UNL d   1       4.527  -4.867   4.514  0.00  0.00     0.150 A 
ATOM      5  C4  UNL d   1       5.251  -4.302   3.470  0.00  0.00    -0.007 A 
ATOM      6  C5  UNL d   1       5.990  -3.141   3.690  0.00  0.00     0.039 A 
ENDROOT
BRANCH   4   7
ATOM      7  O   UNL d   1       3.815  -6.000   4.251  0.00  0.00    -0.526 OA
ATOM      8  H5  UNL d   1       3.341  -6.260   5.058  0.00  0.00     0.418 HD
ENDBRANCH   4   7
TORSDOF 1
ENDMDL
