MODEL 1
REMARK minimizedAffinity -3.82763147
REMARK minimizedRMSD -1
REMARK  1 active torsions:
REMARK  status: ('A' for Active; 'I' for Inactive)
REMARK    1  A    between atoms: C3_4  and  O_7 
ROOT
ATOM      1  C   UNL d   1       6.000  -5.385   3.216  0.00  0.00    -0.033 A 
ATOM      2  C1  UNL d   1       5.990  -5.241   4.605  0.00  0.00     0.039 A 
ATOM      3  C2  UNL d   1       5.642  -4.017   5.180  0.00  0.00    -0.080 A 
ATOM      4  C3  UNL d   1       5.305  -2.946   4.356  0.00  0.00     0.150 A 
ATOM      5  C4  UNL d   1       5.309  -3.084   2.971  0.00  0.00    -0.007 A 
ATOM      6  C5  UNL d   1       5.658  -4.307   2.400  0.00  0.00     0.039 A 
ENDROOT
BRANCH   4   7
ATOM      7  O   UNL d   1       4.963  -1.731   4.870  0.00  0.00    -0.526 OA
ATOM      8  H5  UNL d   1       5.032  -1.776   5.838  0.00  0.00     0.418 HD
ENDBRANCH   4   7
TORSDOF 1
ENDMDL
