MODEL 1
REMARK minimizedAffinity 5.07788277
REMARK minimizedRMSD -1
REMARK  1 active torsions:
REMARK  status: ('A' for Active; 'I' for Inactive)
REMARK    1  A    between atoms: C3_4  and  O_7 
ROOT
ATOM      1  C   UNL d   1      -1.339   4.124   1.843  0.00  0.00    -0.033 A 
ATOM      2  C1  UNL d   1      -0.383   4.888   2.516  0.00  0.00     0.039 A 
ATOM      3  C2  UNL d   1       0.966   4.783   2.170  0.00  0.00    -0.080 A 
ATOM      4  C3  UNL d   1       1.345   3.913   1.151  0.00  0.00     0.150 A 
ATOM      5  C4  UNL d   1       0.397   3.152   0.475  0.00  0.00    -0.007 A 
ATOM      6  C5  UNL d   1      -0.949   3.257   0.822  0.00  0.00     0.039 A 
ENDROOT
BRANCH   4   7
ATOM      7  O   UNL d   1       2.649   3.772   0.782  0.00  0.00    -0.526 OA
ATOM      8  H5  UNL d   1       3.194   4.338   1.355  0.00  0.00     0.418 HD
ENDBRANCH   4   7
TORSDOF 1
ENDMDL
