MODEL 1
REMARK minimizedAffinity -3.2997179
REMARK minimizedRMSD -1
REMARK  1 active torsions:
REMARK  status: ('A' for Active; 'I' for Inactive)
REMARK    1  A    between atoms: C3_4  and  O_7 
ROOT
ATOM      1  C   UNL d   1       4.012  -5.990   6.000  0.00  0.00    -0.033 A 
ATOM      2  C1  UNL d   1       5.373  -5.795   5.757  0.00  0.00     0.039 A 
ATOM      3  C2  UNL d   1       5.849  -4.526   5.419  0.00  0.00    -0.080 A 
ATOM      4  C3  UNL d   1       4.955  -3.463   5.327  0.00  0.00     0.150 A 
ATOM      5  C4  UNL d   1       3.598  -3.650   5.571  0.00  0.00    -0.007 A 
ATOM      6  C5  UNL d   1       3.125  -4.917   5.908  0.00  0.00     0.039 A 
ENDROOT
BRANCH   4   7
ATOM      7  O   UNL d   1       5.372  -2.208   4.996  0.00  0.00    -0.526 OA
ATOM      8  H5  UNL d   1       6.328  -2.236   4.827  0.00  0.00     0.418 HD
ENDBRANCH   4   7
TORSDOF 1
ENDMDL
