MODEL 1
REMARK minimizedAffinity -3.74399233
REMARK minimizedRMSD -1
REMARK  1 active torsions:
REMARK  status: ('A' for Active; 'I' for Inactive)
REMARK    1  A    between atoms: C3_4  and  O_7 
ROOT
ATOM      1  C   UNL d   1       5.981  -2.697   3.601  0.00  0.00    -0.033 A 
ATOM      2  C1  UNL d   1       5.864  -3.953   3.003  0.00  0.00     0.039 A 
ATOM      3  C2  UNL d   1       5.156  -4.971   3.645  0.00  0.00    -0.080 A 
ATOM      4  C3  UNL d   1       4.568  -4.719   4.882  0.00  0.00     0.150 A 
ATOM      5  C4  UNL d   1       4.677  -3.468   5.481  0.00  0.00    -0.007 A 
ATOM      6  C5  UNL d   1       5.386  -2.454   4.839  0.00  0.00     0.039 A 
ENDROOT
BRANCH   4   7
ATOM      7  O   UNL d   1       3.870  -5.681   5.549  0.00  0.00    -0.526 OA
ATOM      8  H5  UNL d   1       3.903  -6.501   5.028  0.00  0.00     0.418 HD
ENDBRANCH   4   7
TORSDOF 1
ENDMDL
