MODEL 1
REMARK minimizedAffinity -3.57130861
REMARK minimizedRMSD -1
REMARK  1 active torsions:
REMARK  status: ('A' for Active; 'I' for Inactive)
REMARK    1  A    between atoms: C3_4  and  O_7 
ROOT
ATOM      1  C   UNL d   1       5.999  -2.486   2.994  0.00  0.00    -0.033 A 
ATOM      2  C1  UNL d   1       5.987  -3.787   2.488  0.00  0.00     0.039 A 
ATOM      3  C2  UNL d   1       5.507  -4.839   3.271  0.00  0.00    -0.080 A 
ATOM      4  C3  UNL d   1       5.042  -4.577   4.557  0.00  0.00     0.150 A 
ATOM      5  C4  UNL d   1       5.048  -3.282   5.066  0.00  0.00    -0.007 A 
ATOM      6  C5  UNL d   1       5.528  -2.233   4.283  0.00  0.00     0.039 A 
ENDROOT
BRANCH   4   7
ATOM      7  O   UNL d   1       4.570  -5.571   5.360  0.00  0.00    -0.526 OA
ATOM      8  H5  UNL d   1       4.653  -6.415   4.887  0.00  0.00     0.418 HD
ENDBRANCH   4   7
TORSDOF 1
ENDMDL
