MODEL 1
REMARK minimizedAffinity -3.54739881
REMARK minimizedRMSD -1
REMARK  1 active torsions:
REMARK  status: ('A' for Active; 'I' for Inactive)
REMARK    1  A    between atoms: C3_4  and  O_7 
ROOT
ATOM      1  C   UNL d   1       5.588  -4.777   3.432  0.00  0.00    -0.033 A 
ATOM      2  C1  UNL d   1       5.171  -4.674   4.761  0.00  0.00     0.039 A 
ATOM      3  C2  UNL d   1       5.168  -3.432   5.399  0.00  0.00    -0.080 A 
ATOM      4  C3  UNL d   1       5.584  -2.303   4.699  0.00  0.00     0.150 A 
ATOM      5  C4  UNL d   1       5.997  -2.398   3.374  0.00  0.00    -0.007 A 
ATOM      6  C5  UNL d   1       6.000  -3.639   2.739  0.00  0.00     0.039 A 
ENDROOT
BRANCH   4   7
ATOM      7  O   UNL d   1       5.603  -1.071   5.282  0.00  0.00    -0.526 OA
ATOM      8  H5  UNL d   1       5.319  -1.163   6.206  0.00  0.00     0.418 HD
ENDBRANCH   4   7
TORSDOF 1
ENDMDL
