MODEL 1
REMARK minimizedAffinity -3.24414015
REMARK minimizedRMSD -1
REMARK  1 active torsions:
REMARK  status: ('A' for Active; 'I' for Inactive)
REMARK    1  A    between atoms: C3_4  and  O_7 
ROOT
ATOM      1  C   UNL d   1       6.000  -2.570   3.480  0.00  0.00    -0.033 A 
ATOM      2  C1  UNL d   1       5.711  -2.565   4.846  0.00  0.00     0.039 A 
ATOM      3  C2  UNL d   1       5.192  -3.709   5.455  0.00  0.00    -0.080 A 
ATOM      4  C3  UNL d   1       4.966  -4.849   4.689  0.00  0.00     0.150 A 
ATOM      5  C4  UNL d   1       5.255  -4.862   3.328  0.00  0.00    -0.007 A 
ATOM      6  C5  UNL d   1       5.773  -3.719   2.721  0.00  0.00     0.039 A 
ENDROOT
BRANCH   4   7
ATOM      7  O   UNL d   1       4.456  -5.987   5.238  0.00  0.00    -0.526 OA
ATOM      8  H5  UNL d   1       4.279  -5.822   6.179  0.00  0.00     0.418 HD
ENDBRANCH   4   7
TORSDOF 1
ENDMDL
