MODEL 1
REMARK minimizedAffinity -2.99829674
REMARK minimizedRMSD -1
REMARK  1 active torsions:
REMARK  status: ('A' for Active; 'I' for Inactive)
REMARK    1  A    between atoms: C3_4  and  O_7 
ROOT
ATOM      1  C   UNL d   1       5.999  -4.618   2.098  0.00  0.00    -0.033 A 
ATOM      2  C1  UNL d   1       5.940  -3.432   2.833  0.00  0.00     0.039 A 
ATOM      3  C2  UNL d   1       5.457  -3.444   4.143  0.00  0.00    -0.080 A 
ATOM      4  C3  UNL d   1       5.039  -4.646   4.706  0.00  0.00     0.150 A 
ATOM      5  C4  UNL d   1       5.099  -5.832   3.982  0.00  0.00    -0.007 A 
ATOM      6  C5  UNL d   1       5.580  -5.818   2.673  0.00  0.00     0.039 A 
ENDROOT
BRANCH   4   7
ATOM      7  O   UNL d   1       4.556  -4.706   5.980  0.00  0.00    -0.526 OA
ATOM      8  H5  UNL d   1       4.546  -3.807   6.348  0.00  0.00     0.418 HD
ENDBRANCH   4   7
TORSDOF 1
ENDMDL
