MODEL 1
REMARK minimizedAffinity -2.21461678
REMARK minimizedRMSD -1
REMARK  1 active torsions:
REMARK  status: ('A' for Active; 'I' for Inactive)
REMARK    1  A    between atoms: C3_4  and  O_7 
ROOT
ATOM      1  C   UNL d   1       5.693  -2.398   2.419  0.00  0.00    -0.033 A 
ATOM      2  C1  UNL d   1       4.743  -2.060   3.385  0.00  0.00     0.039 A 
ATOM      3  C2  UNL d   1       4.094  -3.062   4.109  0.00  0.00    -0.080 A 
ATOM      4  C3  UNL d   1       4.403  -4.396   3.858  0.00  0.00     0.150 A 
ATOM      5  C4  UNL d   1       5.351  -4.740   2.900  0.00  0.00    -0.007 A 
ATOM      6  C5  UNL d   1       5.998  -3.738   2.178  0.00  0.00     0.039 A 
ENDROOT
BRANCH   4   7
ATOM      7  O   UNL d   1       3.792  -5.409   4.536  0.00  0.00    -0.526 OA
ATOM      8  H5  UNL d   1       3.141  -5.022   5.145  0.00  0.00     0.418 HD
ENDBRANCH   4   7
TORSDOF 1
ENDMDL
