MODEL 1
REMARK minimizedAffinity -3.45304656
REMARK minimizedRMSD -1
REMARK  1 active torsions:
REMARK  status: ('A' for Active; 'I' for Inactive)
REMARK    1  A    between atoms: C3_4  and  O_7 
ROOT
ATOM      1  C   UNL d   1       5.995  -2.678   3.785  0.00  0.00    -0.033 A 
ATOM      2  C1  UNL d   1       5.968  -4.022   3.407  0.00  0.00     0.039 A 
ATOM      3  C2  UNL d   1       5.216  -4.940   4.141  0.00  0.00    -0.080 A 
ATOM      4  C3  UNL d   1       4.495  -4.503   5.249  0.00  0.00     0.150 A 
ATOM      5  C4  UNL d   1       4.514  -3.165   5.629  0.00  0.00    -0.007 A 
ATOM      6  C5  UNL d   1       5.267  -2.249   4.895  0.00  0.00     0.039 A 
ENDROOT
BRANCH   4   7
ATOM      7  O   UNL d   1       3.750  -5.364   6.000  0.00  0.00    -0.526 OA
ATOM      8  H5  UNL d   1       3.855  -6.259   5.636  0.00  0.00     0.418 HD
ENDBRANCH   4   7
TORSDOF 1
ENDMDL
