MODEL 1
REMARK minimizedAffinity -5.15400934
REMARK minimizedRMSD -1
REMARK  1 active torsions:
REMARK  status: ('A' for Active; 'I' for Inactive)
REMARK    1  A    between atoms: C1_2  and  C2_3 
ROOT
ATOM      1  C2  UNL d   1       0.126   0.232  -0.656  0.00  0.00    -0.077 A 
ATOM      2  C3  UNL d   1       1.220   0.578   0.150  0.00  0.00     0.002 A 
ATOM      3  C4  UNL d   1       1.252   0.203   1.495  0.00  0.00     0.002 A 
ATOM      4  C5  UNL d   1       0.197  -0.523   2.043  0.00  0.00    -0.004 A 
ATOM      5  C6  UNL d   1      -0.896  -0.870   1.250  0.00  0.00     0.002 A 
ATOM      6  C7  UNL d   1      -0.931  -0.494  -0.094  0.00  0.00     0.002 A 
ENDROOT
BRANCH   1   7
ATOM      7  C1  UNL d   1       0.112   0.593  -2.119  0.00  0.00     0.055 C 
ATOM      8  C   UNL d   1      -1.311   0.691  -2.651  0.00  0.00     0.019 C 
ENDBRANCH   1   7
TORSDOF 1
ENDMDL
