MODEL 1
REMARK minimizedAffinity 2.65895629
REMARK minimizedRMSD -1
REMARK  1 active torsions:
REMARK  status: ('A' for Active; 'I' for Inactive)
REMARK    1  A    between atoms: C1_2  and  C2_3 
ROOT
ATOM      1  C2  UNL d   1       1.776  -1.152   0.966  0.00  0.00    -0.077 A 
ATOM      2  C3  UNL d   1       2.622  -0.500   0.057  0.00  0.00     0.002 A 
ATOM      3  C4  UNL d   1       3.009   0.823   0.278  0.00  0.00     0.002 A 
ATOM      4  C5  UNL d   1       2.560   1.503   1.408  0.00  0.00    -0.004 A 
ATOM      5  C6  UNL d   1       1.717   0.864   2.316  0.00  0.00     0.002 A 
ATOM      6  C7  UNL d   1       1.327  -0.458   2.096  0.00  0.00     0.002 A 
ENDROOT
BRANCH   1   7
ATOM      7  C1  UNL d   1       1.397  -2.595   0.755  0.00  0.00     0.055 C 
ATOM      8  C   UNL d   1       2.629  -3.481   0.646  0.00  0.00     0.019 C 
ENDBRANCH   1   7
TORSDOF 1
ENDMDL
