MODEL 1
REMARK minimizedAffinity -6.29999113
REMARK minimizedRMSD -1
REMARK  1 active torsions:
REMARK  status: ('A' for Active; 'I' for Inactive)
REMARK    1  A    between atoms: C1_2  and  C2_3 
ROOT
ATOM      1  C2  UNL d   1      -2.739  -0.640  -3.968  0.00  0.00    -0.077 A 
ATOM      2  C3  UNL d   1      -3.704   0.197  -4.546  0.00  0.00     0.002 A 
ATOM      3  C4  UNL d   1      -4.537  -0.281  -5.559  0.00  0.00     0.002 A 
ATOM      4  C5  UNL d   1      -4.417  -1.598  -5.999  0.00  0.00    -0.004 A 
ATOM      5  C6  UNL d   1      -3.459  -2.437  -5.432  0.00  0.00     0.002 A 
ATOM      6  C7  UNL d   1      -2.624  -1.961  -4.420  0.00  0.00     0.002 A 
ENDROOT
BRANCH   1   7
ATOM      7  C1  UNL d   1      -1.872  -0.141  -2.841  0.00  0.00     0.055 C 
ATOM      8  C   UNL d   1      -2.350   1.211  -2.332  0.00  0.00     0.019 C 
ENDBRANCH   1   7
TORSDOF 1
ENDMDL
