MODEL 1
REMARK minimizedAffinity 1.8692106
REMARK minimizedRMSD -1
REMARK  1 active torsions:
REMARK  status: ('A' for Active; 'I' for Inactive)
REMARK    1  A    between atoms: C1_2  and  C2_3 
ROOT
ATOM      1  C2  UNL d   1      -3.747  -0.645  -3.843  0.00  0.00    -0.077 A 
ATOM      2  C3  UNL d   1      -2.876  -0.449  -4.924  0.00  0.00     0.002 A 
ATOM      3  C4  UNL d   1      -3.255   0.359  -5.998  0.00  0.00     0.002 A 
ATOM      4  C5  UNL d   1      -4.502   0.980  -6.000  0.00  0.00    -0.004 A 
ATOM      5  C6  UNL d   1      -5.376   0.790  -4.930  0.00  0.00     0.002 A 
ATOM      6  C7  UNL d   1      -5.000  -0.018  -3.856  0.00  0.00     0.002 A 
ENDROOT
BRANCH   1   7
ATOM      7  C1  UNL d   1      -3.321  -1.476  -2.661  0.00  0.00     0.055 C 
ATOM      8  C   UNL d   1      -2.843  -0.601  -1.512  0.00  0.00     0.019 C 
ENDBRANCH   1   7
TORSDOF 1
ENDMDL
