MODEL 1
REMARK minimizedAffinity 3.19257426
REMARK minimizedRMSD -1
REMARK  1 active torsions:
REMARK  status: ('A' for Active; 'I' for Inactive)
REMARK    1  A    between atoms: C1_2  and  C2_3 
ROOT
ATOM      1  C2  UNL d   1       2.476   1.131   0.974  0.00  0.00    -0.077 A 
ATOM      2  C3  UNL d   1       2.558   1.838   2.182  0.00  0.00     0.002 A 
ATOM      3  C4  UNL d   1       1.899   1.369   3.320  0.00  0.00     0.002 A 
ATOM      4  C5  UNL d   1       1.156   0.192   3.262  0.00  0.00    -0.004 A 
ATOM      5  C6  UNL d   1       1.067  -0.517   2.065  0.00  0.00     0.002 A 
ATOM      6  C7  UNL d   1       1.724  -0.050   0.926  0.00  0.00     0.002 A 
ENDROOT
BRANCH   1   7
ATOM      7  C1  UNL d   1       3.227   1.608  -0.242  0.00  0.00     0.055 C 
ATOM      8  C   UNL d   1       4.639   1.043  -0.277  0.00  0.00     0.019 C 
ENDBRANCH   1   7
TORSDOF 1
ENDMDL
