MODEL 1
REMARK minimizedAffinity -2.03803611
REMARK minimizedRMSD -1
REMARK  1 active torsions:
REMARK  status: ('A' for Active; 'I' for Inactive)
REMARK    1  A    between atoms: C1_2  and  C2_3 
ROOT
ATOM      1  C2  UNL d   1       4.105  -3.598   3.865  0.00  0.00    -0.077 A 
ATOM      2  C3  UNL d   1       4.088  -4.995   3.749  0.00  0.00     0.002 A 
ATOM      3  C4  UNL d   1       4.643  -5.794   4.751  0.00  0.00     0.002 A 
ATOM      4  C5  UNL d   1       5.215  -5.205   5.877  0.00  0.00    -0.004 A 
ATOM      5  C6  UNL d   1       5.239  -3.816   6.000  0.00  0.00     0.002 A 
ATOM      6  C7  UNL d   1       4.686  -3.016   4.999  0.00  0.00     0.002 A 
ENDROOT
BRANCH   1   7
ATOM      7  C1  UNL d   1       3.463  -2.736   2.809  0.00  0.00     0.055 C 
ATOM      8  C   UNL d   1       2.978  -3.571   1.633  0.00  0.00     0.019 C 
ENDBRANCH   1   7
TORSDOF 1
ENDMDL
