MODEL 1
REMARK minimizedAffinity -5.30052376
REMARK minimizedRMSD -1
REMARK  1 active torsions:
REMARK  status: ('A' for Active; 'I' for Inactive)
REMARK    1  A    between atoms: C1_2  and  C2_3 
ROOT
ATOM      1  C2  UNL d   1      -3.026   0.431  -4.425  0.00  0.00    -0.077 A 
ATOM      2  C3  UNL d   1      -4.094   0.522  -5.329  0.00  0.00     0.002 A 
ATOM      3  C4  UNL d   1      -5.169  -0.364  -5.244  0.00  0.00     0.002 A 
ATOM      4  C5  UNL d   1      -5.189  -1.344  -4.253  0.00  0.00    -0.004 A 
ATOM      5  C6  UNL d   1      -4.132  -1.444  -3.350  0.00  0.00     0.002 A 
ATOM      6  C7  UNL d   1      -3.055  -0.560  -3.435  0.00  0.00     0.002 A 
ENDROOT
BRANCH   1   7
ATOM      7  C1  UNL d   1      -1.889   1.417  -4.485  0.00  0.00     0.055 C 
ATOM      8  C   UNL d   1      -1.924   2.376  -3.303  0.00  0.00     0.019 C 
ENDBRANCH   1   7
TORSDOF 1
ENDMDL
