MODEL 1
REMARK minimizedAffinity -2.4055047
REMARK minimizedRMSD -1
REMARK  1 active torsions:
REMARK  status: ('A' for Active; 'I' for Inactive)
REMARK    1  A    between atoms: C1_2  and  C2_3 
ROOT
ATOM      1  C2  UNL d   1       3.026  -1.407  -0.393  0.00  0.00    -0.077 A 
ATOM      2  C3  UNL d   1       1.981  -1.083   0.483  0.00  0.00     0.002 A 
ATOM      3  C4  UNL d   1       1.600  -1.975   1.488  0.00  0.00     0.002 A 
ATOM      4  C5  UNL d   1       2.262  -3.193   1.629  0.00  0.00    -0.004 A 
ATOM      5  C6  UNL d   1       3.302  -3.524   0.761  0.00  0.00     0.002 A 
ATOM      6  C7  UNL d   1       3.683  -2.635  -0.245  0.00  0.00     0.002 A 
ENDROOT
BRANCH   1   7
ATOM      7  C1  UNL d   1       3.471  -0.426  -1.447  0.00  0.00     0.055 C 
ATOM      8  C   UNL d   1       2.937  -0.808  -2.820  0.00  0.00     0.019 C 
ENDBRANCH   1   7
TORSDOF 1
ENDMDL
