MODEL 1
REMARK minimizedAffinity 0.576570272
REMARK minimizedRMSD -1
REMARK  1 active torsions:
REMARK  status: ('A' for Active; 'I' for Inactive)
REMARK    1  A    between atoms: C1_2  and  C2_3 
ROOT
ATOM      1  C2  UNL d   1       3.398   5.868   3.605  0.00  0.00    -0.077 A 
ATOM      2  C3  UNL d   1       2.015   5.942   3.388  0.00  0.00     0.002 A 
ATOM      3  C4  UNL d   1       1.133   5.995   4.469  0.00  0.00     0.002 A 
ATOM      4  C5  UNL d   1       1.624   5.980   5.773  0.00  0.00    -0.004 A 
ATOM      5  C6  UNL d   1       2.998   5.905   5.998  0.00  0.00     0.002 A 
ATOM      6  C7  UNL d   1       3.881   5.850   4.919  0.00  0.00     0.002 A 
ENDROOT
BRANCH   1   7
ATOM      7  C1  UNL d   1       4.353   5.860   2.440  0.00  0.00     0.055 C 
ATOM      8  C   UNL d   1       5.796   5.991   2.906  0.00  0.00     0.019 C 
ENDBRANCH   1   7
TORSDOF 1
ENDMDL
