MODEL 1
REMARK minimizedAffinity -3.26732826
REMARK minimizedRMSD -1
REMARK  0 active torsions:
REMARK  status: ('A' for Active; 'I' for Inactive)
ROOT
ATOM      1  O1  BZF d   1       1.248   1.404  -0.109  0.00  0.00    -0.204 OA
ATOM      2  C2  BZF d   1       0.206   1.251  -1.003  0.00  0.00     0.174 A 
ATOM      3  C3  BZF d   1      -0.619   0.259  -0.611  0.00  0.00    -0.012 A 
ATOM      4  C3A BZF d   1      -0.108  -0.178   0.653  0.00  0.00    -0.107 A 
ATOM      5  C4  BZF d   1      -0.506  -1.128   1.549  0.00  0.00     0.055 A 
ATOM      6  C5  BZF d   1       0.254  -1.356   2.652  0.00  0.00    -0.016 A 
ATOM      7  C6  BZF d   1       1.419  -0.656   2.888  0.00  0.00     0.022 A 
ATOM      8  C7  BZF d   1       1.852   0.300   2.030  0.00  0.00     0.029 A 
ATOM      9  C7A BZF d   1       1.069   0.555   0.931  0.00  0.00     0.058 A 
ENDROOT
TORSDOF 0
ENDMDL
