MODEL 1
REMARK minimizedAffinity -4.30452347
REMARK minimizedRMSD -1
REMARK  0 active torsions:
REMARK  status: ('A' for Active; 'I' for Inactive)
ROOT
ATOM      1  O1  BZF d   1      -1.120  -0.523  -0.516  0.00  0.00    -0.204 OA
ATOM      2  C2  BZF d   1      -2.247  -0.695   0.265  0.00  0.00     0.174 A 
ATOM      3  C3  BZF d   1      -1.908  -0.908   1.553  0.00  0.00    -0.012 A 
ATOM      4  C3A BZF d   1      -0.484  -0.774   1.594  0.00  0.00    -0.107 A 
ATOM      5  C4  BZF d   1       0.439  -0.859   2.598  0.00  0.00     0.055 A 
ATOM      6  C5  BZF d   1       1.759  -0.750   2.293  0.00  0.00    -0.016 A 
ATOM      7  C6  BZF d   1       2.191  -0.562   0.996  0.00  0.00     0.022 A 
ATOM      8  C7  BZF d   1       1.313  -0.467  -0.032  0.00  0.00     0.029 A 
ATOM      9  C7A BZF d   1      -0.023  -0.543   0.278  0.00  0.00     0.058 A 
ENDROOT
TORSDOF 0
ENDMDL
