MODEL 1
REMARK minimizedAffinity -1.72733307
REMARK minimizedRMSD -1
REMARK  0 active torsions:
REMARK  status: ('A' for Active; 'I' for Inactive)
ROOT
ATOM      1  O1  BZF d   1      -0.587  -0.355   2.440  0.00  0.00    -0.204 OA
ATOM      2  C2  BZF d   1       0.165  -1.085   3.340  0.00  0.00     0.174 A 
ATOM      3  C3  BZF d   1       1.120  -1.793   2.703  0.00  0.00    -0.012 A 
ATOM      4  C3A BZF d   1       1.014  -1.415   1.327  0.00  0.00    -0.107 A 
ATOM      5  C4  BZF d   1       1.702  -1.767   0.201  0.00  0.00     0.055 A 
ATOM      6  C5  BZF d   1       1.300  -1.273  -0.999  0.00  0.00    -0.016 A 
ATOM      7  C6  BZF d   1       0.214  -0.430  -1.111  0.00  0.00     0.022 A 
ATOM      8  C7  BZF d   1      -0.497  -0.049  -0.022  0.00  0.00     0.029 A 
ATOM      9  C7A BZF d   1      -0.073  -0.520   1.197  0.00  0.00     0.058 A 
ENDROOT
TORSDOF 0
ENDMDL
