MODEL 1
REMARK minimizedAffinity -0.352461755
REMARK minimizedRMSD -1
REMARK  0 active torsions:
REMARK  status: ('A' for Active; 'I' for Inactive)
ROOT
ATOM      1  O1  BZF d   1       1.286  -1.962   2.106  0.00  0.00    -0.204 OA
ATOM      2  C2  BZF d   1       0.531  -2.003   3.262  0.00  0.00     0.174 A 
ATOM      3  C3  BZF d   1      -0.561  -1.220   3.148  0.00  0.00    -0.012 A 
ATOM      4  C3A BZF d   1      -0.532  -0.726   1.805  0.00  0.00    -0.107 A 
ATOM      5  C4  BZF d   1      -1.359   0.089   1.087  0.00  0.00     0.055 A 
ATOM      6  C5  BZF d   1      -1.007   0.436  -0.180  0.00  0.00    -0.016 A 
ATOM      7  C6  BZF d   1       0.165  -0.010  -0.755  0.00  0.00     0.022 A 
ATOM      8  C7  BZF d   1       1.014  -0.825  -0.084  0.00  0.00     0.029 A 
ATOM      9  C7A BZF d   1       0.645  -1.203   1.184  0.00  0.00     0.058 A 
ENDROOT
TORSDOF 0
ENDMDL
