MODEL 1
REMARK minimizedAffinity -2.88359594
REMARK minimizedRMSD -1
REMARK  0 active torsions:
REMARK  status: ('A' for Active; 'I' for Inactive)
ROOT
ATOM      1  O1  BZF d   1      -1.473  -1.684   2.487  0.00  0.00    -0.204 OA
ATOM      2  C2  BZF d   1      -0.681  -2.404   3.361  0.00  0.00     0.174 A 
ATOM      3  C3  BZF d   1       0.627  -2.196   3.103  0.00  0.00    -0.012 A 
ATOM      4  C3A BZF d   1       0.654  -1.217   2.059  0.00  0.00    -0.107 A 
ATOM      5  C4  BZF d   1       1.663  -0.591   1.385  0.00  0.00     0.055 A 
ATOM      6  C5  BZF d   1       1.352   0.259   0.371  0.00  0.00    -0.016 A 
ATOM      7  C6  BZF d   1       0.045   0.501   0.002  0.00  0.00     0.022 A 
ATOM      8  C7  BZF d   1      -0.990  -0.093   0.644  0.00  0.00     0.029 A 
ATOM      9  C7A BZF d   1      -0.680  -0.927   1.691  0.00  0.00     0.058 A 
ENDROOT
TORSDOF 0
ENDMDL
