MODEL 1
REMARK minimizedAffinity -4.8696537
REMARK minimizedRMSD -1
REMARK  0 active torsions:
REMARK  status: ('A' for Active; 'I' for Inactive)
ROOT
ATOM      1  O1  BZF d   1      -0.922  -0.752  -0.257  0.00  0.00    -0.204 OA
ATOM      2  C2  BZF d   1      -1.910  -0.358   0.625  0.00  0.00     0.174 A 
ATOM      3  C3  BZF d   1      -1.400  -0.160   1.858  0.00  0.00    -0.012 A 
ATOM      4  C3A BZF d   1       0.010  -0.360   1.718  0.00  0.00    -0.107 A 
ATOM      5  C4  BZF d   1       1.059  -0.288   2.589  0.00  0.00     0.055 A 
ATOM      6  C5  BZF d   1       2.304  -0.612   2.152  0.00  0.00    -0.016 A 
ATOM      7  C6  BZF d   1       2.535  -1.016   0.853  0.00  0.00     0.022 A 
ATOM      8  C7  BZF d   1       1.527  -1.097  -0.049  0.00  0.00     0.029 A 
ATOM      9  C7A BZF d   1       0.273  -0.739   0.381  0.00  0.00     0.058 A 
ENDROOT
TORSDOF 0
ENDMDL
