MODEL 1
REMARK minimizedAffinity -3.85063338
REMARK minimizedRMSD -1
REMARK  0 active torsions:
REMARK  status: ('A' for Active; 'I' for Inactive)
ROOT
ATOM      1  C1  BNZ d   1      -1.814   1.637   0.139  0.00  0.00     0.000 A 
ATOM      2  C2  BNZ d   1      -2.120   1.523   1.469  0.00  0.00     0.000 A 
ATOM      3  C3  BNZ d   1      -1.345   0.766   2.303  0.00  0.00     0.000 A 
ATOM      4  C4  BNZ d   1      -0.290   0.092   1.799  0.00  0.00     0.000 A 
ATOM      5  C5  BNZ d   1       0.025   0.190   0.458  0.00  0.00     0.000 A 
ATOM      6  C6  BNZ d   1      -0.734   0.984  -0.370  0.00  0.00     0.000 A 
ENDROOT
TORSDOF 0
ENDMDL
