MODEL 1
REMARK minimizedAffinity -3.41858435
REMARK minimizedRMSD -1
REMARK  0 active torsions:
REMARK  status: ('A' for Active; 'I' for Inactive)
ROOT
ATOM      1  C1  BNZ d   1      -0.448   0.554  -0.090  0.00  0.00     0.000 A 
ATOM      2  C2  BNZ d   1      -1.116   1.636   0.419  0.00  0.00     0.000 A 
ATOM      3  C3  BNZ d   1      -1.481   1.677   1.736  0.00  0.00     0.000 A 
ATOM      4  C4  BNZ d   1      -1.213   0.621   2.531  0.00  0.00     0.000 A 
ATOM      5  C5  BNZ d   1      -0.548  -0.481   2.030  0.00  0.00     0.000 A 
ATOM      6  C6  BNZ d   1      -0.148  -0.502   0.714  0.00  0.00     0.000 A 
ENDROOT
TORSDOF 0
ENDMDL
