MODEL 1
REMARK minimizedAffinity -4.40121651
REMARK minimizedRMSD -1
REMARK  0 active torsions:
REMARK  status: ('A' for Active; 'I' for Inactive)
ROOT
ATOM      1  C1  BNZ d   1      -1.038   1.474  -0.727  0.00  0.00     0.000 A 
ATOM      2  C2  BNZ d   1      -0.004   0.586  -0.854  0.00  0.00     0.000 A 
ATOM      3  C3  BNZ d   1       0.354  -0.225   0.187  0.00  0.00     0.000 A 
ATOM      4  C4  BNZ d   1      -0.295  -0.118   1.364  0.00  0.00     0.000 A 
ATOM      5  C5  BNZ d   1      -1.334   0.780   1.511  0.00  0.00     0.000 A 
ATOM      6  C6  BNZ d   1      -1.717   1.567   0.449  0.00  0.00     0.000 A 
ENDROOT
TORSDOF 0
ENDMDL
