MODEL 1
REMARK minimizedAffinity -4.51524591
REMARK minimizedRMSD -1
REMARK  0 active torsions:
REMARK  status: ('A' for Active; 'I' for Inactive)
ROOT
ATOM      1  C1  BNZ d   1       0.012  -0.370   1.585  0.00  0.00     0.000 A 
ATOM      2  C2  BNZ d   1      -1.061   0.471   1.715  0.00  0.00     0.000 A 
ATOM      3  C3  BNZ d   1      -1.601   1.090   0.623  0.00  0.00     0.000 A 
ATOM      4  C4  BNZ d   1      -1.044   0.900  -0.590  0.00  0.00     0.000 A 
ATOM      5  C5  BNZ d   1       0.044   0.063  -0.736  0.00  0.00     0.000 A 
ATOM      6  C6  BNZ d   1       0.561  -0.590   0.360  0.00  0.00     0.000 A 
ENDROOT
TORSDOF 0
ENDMDL
