MODEL 1
REMARK minimizedAffinity -4.07048607
REMARK minimizedRMSD -1
REMARK  0 active torsions:
REMARK  status: ('A' for Active; 'I' for Inactive)
ROOT
ATOM      1  C1  BNZ d   1       0.227  -0.711   1.454  0.00  0.00     0.000 A 
ATOM      2  C2  BNZ d   1      -0.657   0.233   1.902  0.00  0.00     0.000 A 
ATOM      3  C3  BNZ d   1      -1.268   1.090   1.030  0.00  0.00     0.000 A 
ATOM      4  C4  BNZ d   1      -0.964   1.028  -0.282  0.00  0.00     0.000 A 
ATOM      5  C5  BNZ d   1      -0.067   0.088  -0.749  0.00  0.00     0.000 A 
ATOM      6  C6  BNZ d   1       0.516  -0.799   0.127  0.00  0.00     0.000 A 
ENDROOT
TORSDOF 0
ENDMDL
