MODEL 1
REMARK minimizedAffinity -4.35099268
REMARK minimizedRMSD -1
REMARK  0 active torsions:
REMARK  status: ('A' for Active; 'I' for Inactive)
ROOT
ATOM      1  C1  BNZ d   1      -0.719  -0.135   0.324  0.00  0.00     0.000 A 
ATOM      2  C2  BNZ d   1      -1.289   1.107   0.233  0.00  0.00     0.000 A 
ATOM      3  C3  BNZ d   1      -0.773   2.055  -0.606  0.00  0.00     0.000 A 
ATOM      4  C4  BNZ d   1       0.334   1.773  -1.323  0.00  0.00     0.000 A 
ATOM      5  C5  BNZ d   1       0.926   0.528  -1.235  0.00  0.00     0.000 A 
ATOM      6  C6  BNZ d   1       0.381  -0.436  -0.419  0.00  0.00     0.000 A 
ENDROOT
TORSDOF 0
ENDMDL
