MODEL 1
REMARK minimizedAffinity -4.47380877
REMARK minimizedRMSD -1
REMARK  0 active torsions:
REMARK  status: ('A' for Active; 'I' for Inactive)
ROOT
ATOM      1  C1  BNZ d   1      -0.302  -0.357   1.386  0.00  0.00     0.000 A 
ATOM      2  C2  BNZ d   1      -0.989   0.613   2.065  0.00  0.00     0.000 A 
ATOM      3  C3  BNZ d   1      -1.613   1.628   1.394  0.00  0.00     0.000 A 
ATOM      4  C4  BNZ d   1      -1.514   1.694   0.051  0.00  0.00     0.000 A 
ATOM      5  C5  BNZ d   1      -0.816   0.729  -0.647  0.00  0.00     0.000 A 
ATOM      6  C6  BNZ d   1      -0.223  -0.313   0.028  0.00  0.00     0.000 A 
ENDROOT
TORSDOF 0
ENDMDL
