MODEL 1
REMARK minimizedAffinity -2.91360235
REMARK minimizedRMSD -1
REMARK  0 active torsions:
REMARK  status: ('A' for Active; 'I' for Inactive)
ROOT
ATOM      1  C1  BNZ d   1       0.193  -1.567   0.047  0.00  0.00     0.000 A 
ATOM      2  C2  BNZ d   1       0.161  -0.200  -0.023  0.00  0.00     0.000 A 
ATOM      3  C3  BNZ d   1       0.720   0.460  -1.081  0.00  0.00     0.000 A 
ATOM      4  C4  BNZ d   1       1.344  -0.244  -2.047  0.00  0.00     0.000 A 
ATOM      5  C5  BNZ d   1       1.392  -1.623  -1.987  0.00  0.00     0.000 A 
ATOM      6  C6  BNZ d   1       0.794  -2.286  -0.940  0.00  0.00     0.000 A 
ENDROOT
TORSDOF 0
ENDMDL
