MODEL 1
REMARK minimizedAffinity -3.24571371
REMARK minimizedRMSD -1
REMARK  0 active torsions:
REMARK  status: ('A' for Active; 'I' for Inactive)
ROOT
ATOM      1  C1  BNZ d   1      -0.756   0.371   1.835  0.00  0.00     0.000 A 
ATOM      2  C2  BNZ d   1      -0.245   0.347   0.565  0.00  0.00     0.000 A 
ATOM      3  C3  BNZ d   1      -0.804   1.102  -0.429  0.00  0.00     0.000 A 
ATOM      4  C4  BNZ d   1      -1.896   1.847  -0.161  0.00  0.00     0.000 A 
ATOM      5  C5  BNZ d   1      -2.428   1.874   1.113  0.00  0.00     0.000 A 
ATOM      6  C6  BNZ d   1      -1.839   1.144   2.120  0.00  0.00     0.000 A 
ENDROOT
TORSDOF 0
ENDMDL
