MODEL 1
REMARK minimizedAffinity -2.59548259
REMARK minimizedRMSD -1
REMARK  0 active torsions:
REMARK  status: ('A' for Active; 'I' for Inactive)
ROOT
ATOM      1  C1  BNZ d   1       0.650  -0.607   0.460  0.00  0.00     0.000 A 
ATOM      2  C2  BNZ d   1       0.039  -0.422   1.671  0.00  0.00     0.000 A 
ATOM      3  C3  BNZ d   1      -0.666   0.719   1.933  0.00  0.00     0.000 A 
ATOM      4  C4  BNZ d   1      -0.724   1.691   1.000  0.00  0.00     0.000 A 
ATOM      5  C5  BNZ d   1      -0.105   1.524  -0.223  0.00  0.00     0.000 A 
ATOM      6  C6  BNZ d   1       0.570   0.357  -0.497  0.00  0.00     0.000 A 
ENDROOT
TORSDOF 0
ENDMDL
