MODEL 1
REMARK minimizedAffinity -3.43095326
REMARK minimizedRMSD -1
REMARK  0 active torsions:
REMARK  status: ('A' for Active; 'I' for Inactive)
ROOT
ATOM      1  C1  BNZ d   1      -0.668   1.189   0.115  0.00  0.00     0.000 A 
ATOM      2  C2  BNZ d   1      -1.411   1.988   0.943  0.00  0.00     0.000 A 
ATOM      3  C3  BNZ d   1      -1.517   1.708   2.277  0.00  0.00     0.000 A 
ATOM      4  C4  BNZ d   1      -0.915   0.608   2.773  0.00  0.00     0.000 A 
ATOM      5  C5  BNZ d   1      -0.170  -0.213   1.950  0.00  0.00     0.000 A 
ATOM      6  C6  BNZ d   1      -0.033   0.094   0.615  0.00  0.00     0.000 A 
ENDROOT
TORSDOF 0
ENDMDL
