MODEL 1
REMARK minimizedAffinity -3.07903719
REMARK minimizedRMSD -1
REMARK  0 active torsions:
REMARK  status: ('A' for Active; 'I' for Inactive)
ROOT
ATOM      1  C1  BNZ d   1      -1.141   1.778   3.016  0.00  0.00     0.000 A 
ATOM      2  C2  BNZ d   1      -0.334   0.672   3.033  0.00  0.00     0.000 A 
ATOM      3  C3  BNZ d   1      -0.478  -0.313   2.097  0.00  0.00     0.000 A 
ATOM      4  C4  BNZ d   1      -1.452  -0.211   1.170  0.00  0.00     0.000 A 
ATOM      5  C5  BNZ d   1      -2.280   0.894   1.146  0.00  0.00     0.000 A 
ATOM      6  C6  BNZ d   1      -2.107   1.902   2.066  0.00  0.00     0.000 A 
ENDROOT
TORSDOF 0
ENDMDL
