MODEL 1
REMARK minimizedAffinity -3.65925646
REMARK minimizedRMSD -1
REMARK  0 active torsions:
REMARK  status: ('A' for Active; 'I' for Inactive)
ROOT
ATOM      1  C1  BNZ d   1      -0.319   0.289   0.127  0.00  0.00     0.000 A 
ATOM      2  C2  BNZ d   1      -1.542   0.859   0.359  0.00  0.00     0.000 A 
ATOM      3  C3  BNZ d   1      -1.983   1.072   1.635  0.00  0.00     0.000 A 
ATOM      4  C4  BNZ d   1      -1.220   0.680   2.675  0.00  0.00     0.000 A 
ATOM      5  C5  BNZ d   1       0.012   0.095   2.457  0.00  0.00     0.000 A 
ATOM      6  C6  BNZ d   1       0.470  -0.082   1.171  0.00  0.00     0.000 A 
ENDROOT
TORSDOF 0
ENDMDL
