MODEL 1
REMARK minimizedAffinity -3.99027658
REMARK minimizedRMSD -1
REMARK  0 active torsions:
REMARK  status: ('A' for Active; 'I' for Inactive)
ROOT
ATOM      1  C1  BNZ d   1      -2.253   1.617   0.495  0.00  0.00     0.000 A 
ATOM      2  C2  BNZ d   1      -2.508   1.306   1.804  0.00  0.00     0.000 A 
ATOM      3  C3  BNZ d   1      -1.609   0.585   2.540  0.00  0.00     0.000 A 
ATOM      4  C4  BNZ d   1      -0.478   0.142   1.955  0.00  0.00     0.000 A 
ATOM      5  C5  BNZ d   1      -0.211   0.439   0.633  0.00  0.00     0.000 A 
ATOM      6  C6  BNZ d   1      -1.100   1.198  -0.093  0.00  0.00     0.000 A 
ENDROOT
TORSDOF 0
ENDMDL
