MODEL 1
REMARK minimizedAffinity -3.49367595
REMARK minimizedRMSD -1
REMARK  0 active torsions:
REMARK  status: ('A' for Active; 'I' for Inactive)
ROOT
ATOM      1  C1  BNZ d   1       0.857  -1.696  -1.807  0.00  0.00     0.000 A 
ATOM      2  C2  BNZ d   1       0.978  -2.035  -0.485  0.00  0.00     0.000 A 
ATOM      3  C3  BNZ d   1       0.720  -3.310  -0.064  0.00  0.00     0.000 A 
ATOM      4  C4  BNZ d   1       0.303  -4.232  -0.956  0.00  0.00     0.000 A 
ATOM      5  C5  BNZ d   1       0.167  -3.902  -2.290  0.00  0.00     0.000 A 
ATOM      6  C6  BNZ d   1       0.465  -2.629  -2.717  0.00  0.00     0.000 A 
ENDROOT
TORSDOF 0
ENDMDL
