MODEL 1
REMARK minimizedAffinity -5.23478937
REMARK minimizedRMSD -1
REMARK  0 active torsions:
REMARK  status: ('A' for Active; 'I' for Inactive)
ROOT
ATOM      1  C1  BNZ d   1      -0.702  -0.079   1.761  0.00  0.00     0.000 A 
ATOM      2  C2  BNZ d   1      -1.381   1.009   2.239  0.00  0.00     0.000 A 
ATOM      3  C3  BNZ d   1      -1.648   2.078   1.431  0.00  0.00     0.000 A 
ATOM      4  C4  BNZ d   1      -1.202   2.075   0.158  0.00  0.00     0.000 A 
ATOM      5  C5  BNZ d   1      -0.507   0.989  -0.336  0.00  0.00     0.000 A 
ATOM      6  C6  BNZ d   1      -0.274  -0.102   0.469  0.00  0.00     0.000 A 
ENDROOT
TORSDOF 0
ENDMDL
