MODEL 1
REMARK minimizedAffinity -4.62296724
REMARK minimizedRMSD -1
REMARK  0 active torsions:
REMARK  status: ('A' for Active; 'I' for Inactive)
ROOT
ATOM      1  C1  BNZ d   1      -0.855  -0.006   2.226  0.00  0.00     0.000 A 
ATOM      2  C2  BNZ d   1      -1.545   1.078   2.700  0.00  0.00     0.000 A 
ATOM      3  C3  BNZ d   1      -2.077   1.999   1.842  0.00  0.00     0.000 A 
ATOM      4  C4  BNZ d   1      -1.884   1.858   0.515  0.00  0.00     0.000 A 
ATOM      5  C5  BNZ d   1      -1.183   0.776   0.022  0.00  0.00     0.000 A 
ATOM      6  C6  BNZ d   1      -0.682  -0.170   0.886  0.00  0.00     0.000 A 
ENDROOT
TORSDOF 0
ENDMDL
