MODEL 1
REMARK minimizedAffinity -3.43422866
REMARK minimizedRMSD -1
REMARK  0 active torsions:
REMARK  status: ('A' for Active; 'I' for Inactive)
ROOT
ATOM      1  C1  BNZ d   1      -1.701   1.652   0.501  0.00  0.00     0.000 A 
ATOM      2  C2  BNZ d   1      -1.858   1.670   1.861  0.00  0.00     0.000 A 
ATOM      3  C3  BNZ d   1      -1.207   0.766   2.653  0.00  0.00     0.000 A 
ATOM      4  C4  BNZ d   1      -0.433  -0.179   2.082  0.00  0.00     0.000 A 
ATOM      5  C5  BNZ d   1      -0.271  -0.216   0.711  0.00  0.00     0.000 A 
ATOM      6  C6  BNZ d   1      -0.897   0.720  -0.080  0.00  0.00     0.000 A 
ENDROOT
TORSDOF 0
ENDMDL
