MODEL 1
REMARK minimizedAffinity 6.88050652
REMARK minimizedRMSD -1
REMARK  1 active torsions:
REMARK  status: ('A' for Active; 'I' for Inactive)
REMARK    1  A    between atoms: C3_4  and  O_7 
ROOT
ATOM      1  C   UNL d   1      -0.582   5.591  -4.784  0.00  0.00    -0.033 A 
ATOM      2  C1  UNL d   1       0.098   5.766  -5.991  0.00  0.00     0.039 A 
ATOM      3  C2  UNL d   1       1.488   5.893  -6.000  0.00  0.00    -0.080 A 
ATOM      4  C3  UNL d   1       2.186   5.842  -4.797  0.00  0.00     0.150 A 
ATOM      5  C4  UNL d   1       1.516   5.663  -3.591  0.00  0.00    -0.007 A 
ATOM      6  C5  UNL d   1       0.128   5.538  -3.584  0.00  0.00     0.039 A 
ENDROOT
BRANCH   4   7
ATOM      7  O   UNL d   1       3.543   5.966  -4.754  0.00  0.00    -0.526 OA
ATOM      8  H5  UNL d   1       3.867   6.113  -5.659  0.00  0.00     0.418 HD
ENDBRANCH   4   7
TORSDOF 1
ENDMDL
