MODEL 1
REMARK minimizedAffinity 7.50994825
REMARK minimizedRMSD -1
REMARK  1 active torsions:
REMARK  status: ('A' for Active; 'I' for Inactive)
REMARK    1  A    between atoms: C3_4  and  O_7 
ROOT
ATOM      1  C   UNL d   1       3.748  -1.260  -5.989  0.00  0.00    -0.033 A 
ATOM      2  C1  UNL d   1       3.579  -2.646  -5.991  0.00  0.00     0.039 A 
ATOM      3  C2  UNL d   1       2.296  -3.195  -5.995  0.00  0.00    -0.080 A 
ATOM      4  C3  UNL d   1       1.190  -2.349  -5.998  0.00  0.00     0.150 A 
ATOM      5  C4  UNL d   1       1.351  -0.967  -6.000  0.00  0.00    -0.007 A 
ATOM      6  C5  UNL d   1       2.633  -0.421  -5.995  0.00  0.00     0.039 A 
ENDROOT
BRANCH   4   7
ATOM      7  O   UNL d   1      -0.082  -2.838  -5.997  0.00  0.00    -0.526 OA
ATOM      8  H5  UNL d   1      -0.038  -3.809  -5.966  0.00  0.00     0.418 HD
ENDBRANCH   4   7
TORSDOF 1
ENDMDL
