MODEL 1
REMARK minimizedAffinity 9.9980154
REMARK minimizedRMSD -1
REMARK  1 active torsions:
REMARK  status: ('A' for Active; 'I' for Inactive)
REMARK    1  A    between atoms: C3_4  and  O_7 
ROOT
ATOM      1  C   UNL d   1      -0.429   5.950  -4.761  0.00  0.00    -0.033 A 
ATOM      2  C1  UNL d   1      -0.017   5.952  -3.427  0.00  0.00     0.039 A 
ATOM      3  C2  UNL d   1       1.344   5.970  -3.115  0.00  0.00    -0.080 A 
ATOM      4  C3  UNL d   1       2.281   5.987  -4.145  0.00  0.00     0.150 A 
ATOM      5  C4  UNL d   1       1.877   5.988  -5.476  0.00  0.00    -0.007 A 
ATOM      6  C5  UNL d   1       0.518   5.969  -5.785  0.00  0.00     0.039 A 
ENDROOT
BRANCH   4   7
ATOM      7  O   UNL d   1       3.620   6.000  -3.890  0.00  0.00    -0.526 OA
ATOM      8  H5  UNL d   1       3.750   5.968  -2.927  0.00  0.00     0.418 HD
ENDBRANCH   4   7
TORSDOF 1
ENDMDL
