MODEL 1
REMARK minimizedAffinity 6.33063936
REMARK minimizedRMSD -1
REMARK  1 active torsions:
REMARK  status: ('A' for Active; 'I' for Inactive)
REMARK    1  A    between atoms: C3_4  and  O_7 
ROOT
ATOM      1  C   UNL d   1       1.759  -1.599  -6.000  0.00  0.00    -0.033 A 
ATOM      2  C1  UNL d   1       1.062  -2.804  -5.889  0.00  0.00     0.039 A 
ATOM      3  C2  UNL d   1       0.802  -3.348  -4.630  0.00  0.00    -0.080 A 
ATOM      4  C3  UNL d   1       1.242  -2.679  -3.491  0.00  0.00     0.150 A 
ATOM      5  C4  UNL d   1       1.933  -1.476  -3.594  0.00  0.00    -0.007 A 
ATOM      6  C5  UNL d   1       2.193  -0.934  -4.852  0.00  0.00     0.039 A 
ENDROOT
BRANCH   4   7
ATOM      7  O   UNL d   1       1.016  -3.173  -2.241  0.00  0.00    -0.526 OA
ATOM      8  H5  UNL d   1       0.554  -4.024  -2.326  0.00  0.00     0.418 HD
ENDBRANCH   4   7
TORSDOF 1
ENDMDL
