MODEL 1
REMARK minimizedAffinity 11.1043377
REMARK minimizedRMSD -1
REMARK  1 active torsions:
REMARK  status: ('A' for Active; 'I' for Inactive)
REMARK    1  A    between atoms: C3_4  and  O_7 
ROOT
ATOM      1  C   UNL d   1      -4.273   5.919   0.372  0.00  0.00    -0.033 A 
ATOM      2  C1  UNL d   1      -5.623   5.966   0.725  0.00  0.00     0.039 A 
ATOM      3  C2  UNL d   1      -5.993   5.995   2.071  0.00  0.00    -0.080 A 
ATOM      4  C3  UNL d   1      -5.006   5.978   3.052  0.00  0.00     0.150 A 
ATOM      5  C4  UNL d   1      -3.659   5.935   2.707  0.00  0.00    -0.007 A 
ATOM      6  C5  UNL d   1      -3.291   5.905   1.362  0.00  0.00     0.039 A 
ENDROOT
BRANCH   4   7
ATOM      7  O   UNL d   1      -5.319   6.000   4.379  0.00  0.00    -0.526 OA
ATOM      8  H5  UNL d   1      -6.286   5.999   4.467  0.00  0.00     0.418 HD
ENDBRANCH   4   7
TORSDOF 1
ENDMDL
