MODEL 1
REMARK minimizedAffinity 12.4589329
REMARK minimizedRMSD -1
REMARK  1 active torsions:
REMARK  status: ('A' for Active; 'I' for Inactive)
REMARK    1  A    between atoms: C3_4  and  O_7 
ROOT
ATOM      1  C   UNL d   1      -4.644   5.951   2.593  0.00  0.00    -0.033 A 
ATOM      2  C1  UNL d   1      -5.898   6.000   1.980  0.00  0.00     0.039 A 
ATOM      3  C2  UNL d   1      -6.000   5.953   0.589  0.00  0.00    -0.080 A 
ATOM      4  C3  UNL d   1      -4.842   5.855  -0.178  0.00  0.00     0.150 A 
ATOM      5  C4  UNL d   1      -3.590   5.802   0.426  0.00  0.00    -0.007 A 
ATOM      6  C5  UNL d   1      -3.490   5.850   1.816  0.00  0.00     0.039 A 
ENDROOT
BRANCH   4   7
ATOM      7  O   UNL d   1      -4.890   5.811  -1.539  0.00  0.00    -0.526 OA
ATOM      8  H5  UNL d   1      -5.818   5.885  -1.817  0.00  0.00     0.418 HD
ENDBRANCH   4   7
TORSDOF 1
ENDMDL
