MODEL 1
REMARK minimizedAffinity 7.81434917
REMARK minimizedRMSD -1
REMARK  1 active torsions:
REMARK  status: ('A' for Active; 'I' for Inactive)
REMARK    1  A    between atoms: C3_4  and  O_7 
ROOT
ATOM      1  C   UNL d   1       1.801  -1.871  -5.999  0.00  0.00    -0.033 A 
ATOM      2  C1  UNL d   1       2.316  -1.251  -4.859  0.00  0.00     0.039 A 
ATOM      3  C2  UNL d   1       1.979  -1.727  -3.591  0.00  0.00    -0.080 A 
ATOM      4  C3  UNL d   1       1.128  -2.823  -3.476  0.00  0.00     0.150 A 
ATOM      5  C4  UNL d   1       0.614  -3.448  -4.608  0.00  0.00    -0.007 A 
ATOM      6  C5  UNL d   1       0.951  -2.970  -5.873  0.00  0.00     0.039 A 
ENDROOT
BRANCH   4   7
ATOM      7  O   UNL d   1       0.767  -3.321  -2.259  0.00  0.00    -0.526 OA
ATOM      8  H5  UNL d   1       1.174  -2.771  -1.569  0.00  0.00     0.418 HD
ENDBRANCH   4   7
TORSDOF 1
ENDMDL
