MODEL 1
REMARK minimizedAffinity 11.0968761
REMARK minimizedRMSD -1
REMARK  1 active torsions:
REMARK  status: ('A' for Active; 'I' for Inactive)
REMARK    1  A    between atoms: C3_4  and  O_7 
ROOT
ATOM      1  C   UNL d   1       1.876  -2.195  -6.000  0.00  0.00    -0.033 A 
ATOM      2  C1  UNL d   1       0.795  -3.079  -5.993  0.00  0.00     0.039 A 
ATOM      3  C2  UNL d   1       0.714  -4.078  -5.021  0.00  0.00    -0.080 A 
ATOM      4  C3  UNL d   1       1.717  -4.182  -4.062  0.00  0.00     0.150 A 
ATOM      5  C4  UNL d   1       2.795  -3.302  -4.060  0.00  0.00    -0.007 A 
ATOM      6  C5  UNL d   1       2.875  -2.306  -5.032  0.00  0.00     0.039 A 
ENDROOT
BRANCH   4   7
ATOM      7  O   UNL d   1       1.684  -5.143  -3.096  0.00  0.00    -0.526 OA
ATOM      8  H5  UNL d   1       0.897  -5.696  -3.239  0.00  0.00     0.418 HD
ENDBRANCH   4   7
TORSDOF 1
ENDMDL
