MODEL 1
REMARK minimizedAffinity 9.63989544
REMARK minimizedRMSD -1
REMARK  1 active torsions:
REMARK  status: ('A' for Active; 'I' for Inactive)
REMARK    1  A    between atoms: C3_4  and  O_7 
ROOT
ATOM      1  C   UNL d   1       0.679   3.305  -1.307  0.00  0.00    -0.033 A 
ATOM      2  C1  UNL d   1      -0.375   2.596  -0.726  0.00  0.00     0.039 A 
ATOM      3  C2  UNL d   1      -1.523   2.317  -1.470  0.00  0.00    -0.080 A 
ATOM      4  C3  UNL d   1      -1.605   2.749  -2.791  0.00  0.00     0.150 A 
ATOM      5  C4  UNL d   1      -0.557   3.452  -3.376  0.00  0.00    -0.007 A 
ATOM      6  C5  UNL d   1       0.589   3.731  -2.632  0.00  0.00     0.039 A 
ENDROOT
BRANCH   4   7
ATOM      7  O   UNL d   1      -2.707   2.504  -3.554  0.00  0.00    -0.526 OA
ATOM      8  H5  UNL d   1      -3.361   2.035  -3.009  0.00  0.00     0.418 HD
ENDBRANCH   4   7
TORSDOF 1
ENDMDL
