MODEL 1
REMARK minimizedAffinity 8.32703686
REMARK minimizedRMSD -1
REMARK  1 active torsions:
REMARK  status: ('A' for Active; 'I' for Inactive)
REMARK    1  A    between atoms: C3_4  and  O_7 
ROOT
ATOM      1  C   UNL d   1      -1.379   1.837   1.884  0.00  0.00    -0.033 A 
ATOM      2  C1  UNL d   1      -1.958   2.529   0.819  0.00  0.00     0.039 A 
ATOM      3  C2  UNL d   1      -1.150   3.100  -0.167  0.00  0.00    -0.080 A 
ATOM      4  C3  UNL d   1       0.233   2.971  -0.076  0.00  0.00     0.150 A 
ATOM      5  C4  UNL d   1       0.816   2.279   0.980  0.00  0.00    -0.007 A 
ATOM      6  C5  UNL d   1       0.008   1.710   1.964  0.00  0.00     0.039 A 
ENDROOT
BRANCH   4   7
ATOM      7  O   UNL d   1       1.062   3.515  -1.011  0.00  0.00    -0.526 OA
ATOM      8  H5  UNL d   1       0.521   3.987  -1.665  0.00  0.00     0.418 HD
ENDBRANCH   4   7
TORSDOF 1
ENDMDL
