MODEL 1
REMARK minimizedAffinity 9.51152039
REMARK minimizedRMSD -1
REMARK  1 active torsions:
REMARK  status: ('A' for Active; 'I' for Inactive)
REMARK    1  A    between atoms: C3_4  and  O_7 
ROOT
ATOM      1  C   UNL d   1       0.268   5.740  -1.525  0.00  0.00    -0.033 A 
ATOM      2  C1  UNL d   1       0.124   4.629  -2.358  0.00  0.00     0.039 A 
ATOM      3  C2  UNL d   1       0.058   3.347  -1.809  0.00  0.00    -0.080 A 
ATOM      4  C3  UNL d   1       0.134   3.190  -0.428  0.00  0.00     0.150 A 
ATOM      5  C4  UNL d   1       0.273   4.294   0.408  0.00  0.00    -0.007 A 
ATOM      6  C5  UNL d   1       0.341   5.573  -0.142  0.00  0.00     0.039 A 
ENDROOT
BRANCH   4   7
ATOM      7  O   UNL d   1       0.079   1.959   0.154  0.00  0.00    -0.526 OA
ATOM      8  H5  UNL d   1       0.011   1.290  -0.548  0.00  0.00     0.418 HD
ENDBRANCH   4   7
TORSDOF 1
ENDMDL
