MODEL 1
REMARK minimizedAffinity 0.21763581
REMARK minimizedRMSD -1
REMARK  1 active torsions:
REMARK  status: ('A' for Active; 'I' for Inactive)
REMARK    1  A    between atoms: C3_4  and  O_7 
ROOT
ATOM      1  C   UNL d   1      -5.994  -4.845   4.613  0.00  0.00    -0.033 A 
ATOM      2  C1  UNL d   1      -5.991  -5.996   3.822  0.00  0.00     0.039 A 
ATOM      3  C2  UNL d   1      -5.988  -5.888   2.430  0.00  0.00    -0.080 A 
ATOM      4  C3  UNL d   1      -5.987  -4.626   1.842  0.00  0.00     0.150 A 
ATOM      5  C4  UNL d   1      -5.986  -3.476   2.624  0.00  0.00    -0.007 A 
ATOM      6  C5  UNL d   1      -5.990  -3.585   4.014  0.00  0.00     0.039 A 
ENDROOT
BRANCH   4   7
ATOM      7  O   UNL d   1      -5.989  -4.470   0.488  0.00  0.00    -0.526 OA
ATOM      8  H5  UNL d   1      -6.018  -5.351   0.077  0.00  0.00     0.418 HD
ENDBRANCH   4   7
TORSDOF 1
ENDMDL
