MODEL 1
REMARK minimizedAffinity 5.69261837
REMARK minimizedRMSD -1
REMARK  1 active torsions:
REMARK  status: ('A' for Active; 'I' for Inactive)
REMARK    1  A    between atoms: C3_4  and  O_7 
ROOT
ATOM      1  C   UNL d   1       0.306   5.360  -1.395  0.00  0.00    -0.033 A 
ATOM      2  C1  UNL d   1      -0.156   5.405  -0.078  0.00  0.00     0.039 A 
ATOM      3  C2  UNL d   1      -0.377   4.220   0.627  0.00  0.00    -0.080 A 
ATOM      4  C3  UNL d   1      -0.132   2.999   0.005  0.00  0.00     0.150 A 
ATOM      5  C4  UNL d   1       0.332   2.947  -1.306  0.00  0.00    -0.007 A 
ATOM      6  C5  UNL d   1       0.551   4.131  -2.008  0.00  0.00     0.039 A 
ENDROOT
BRANCH   4   7
ATOM      7  O   UNL d   1      -0.337   1.816   0.651  0.00  0.00    -0.526 OA
ATOM      8  H5  UNL d   1      -0.685   2.007   1.538  0.00  0.00     0.418 HD
ENDBRANCH   4   7
TORSDOF 1
ENDMDL
