MODEL 1
REMARK minimizedAffinity 8.49903774
REMARK minimizedRMSD -1
REMARK  1 active torsions:
REMARK  status: ('A' for Active; 'I' for Inactive)
REMARK    1  A    between atoms: C3_4  and  O_7 
ROOT
ATOM      1  C   UNL d   1       2.134  -2.288   1.387  0.00  0.00    -0.033 A 
ATOM      2  C1  UNL d   1       1.924  -1.198   0.541  0.00  0.00     0.039 A 
ATOM      3  C2  UNL d   1       1.648  -1.405  -0.812  0.00  0.00    -0.080 A 
ATOM      4  C3  UNL d   1       1.584  -2.705  -1.305  0.00  0.00     0.150 A 
ATOM      5  C4  UNL d   1       1.789  -3.796  -0.467  0.00  0.00    -0.007 A 
ATOM      6  C5  UNL d   1       2.066  -3.587   0.883  0.00  0.00     0.039 A 
ENDROOT
BRANCH   4   7
ATOM      7  O   UNL d   1       1.322  -2.956  -2.619  0.00  0.00    -0.526 OA
ATOM      8  H5  UNL d   1       1.231  -2.107  -3.083  0.00  0.00     0.418 HD
ENDBRANCH   4   7
TORSDOF 1
ENDMDL
