MODEL 1
REMARK minimizedAffinity -4.63336611
REMARK minimizedRMSD -1
REMARK  1 active torsions:
REMARK  status: ('A' for Active; 'I' for Inactive)
REMARK    1  A    between atoms: C1_2  and  C2_3 
ROOT
ATOM      1  C2  UNL d   1      -0.093   0.336   0.029  0.00  0.00    -0.073 A 
ATOM      2  C3  UNL d   1       0.117   1.637  -0.441  0.00  0.00    -0.002 A 
ATOM      3  C4  UNL d   1       1.350   2.264  -0.255  0.00  0.00     0.004 A 
ATOM      4  C5  UNL d   1       2.386   1.594   0.396  0.00  0.00    -0.004 A 
ATOM      5  C6  UNL d   1       2.200   0.289   0.862  0.00  0.00    -0.075 A 
ATOM      6  C7  UNL d   1       3.304  -0.444   1.566  0.00  0.00     0.076 C 
ATOM      7  C8  UNL d   1       0.958  -0.332   0.674  0.00  0.00     0.001 A 
ENDROOT
BRANCH   1   8
ATOM      8  C1  UNL d   1      -1.420  -0.347  -0.176  0.00  0.00     0.053 C 
ATOM      9  C   UNL d   1      -2.105   0.108  -1.455  0.00  0.00     0.018 C 
ENDBRANCH   1   8
TORSDOF 1
ENDMDL
