MODEL 1
REMARK minimizedAffinity -5.53157902
REMARK minimizedRMSD -1
REMARK  1 active torsions:
REMARK  status: ('A' for Active; 'I' for Inactive)
REMARK    1  A    between atoms: C1_2  and  C2_3 
ROOT
ATOM      1  C2  UNL d   1      -0.368  -0.448   0.277  0.00  0.00    -0.073 A 
ATOM      2  C3  UNL d   1       0.191   0.780  -0.094  0.00  0.00    -0.002 A 
ATOM      3  C4  UNL d   1       1.509   1.086   0.247  0.00  0.00     0.004 A 
ATOM      4  C5  UNL d   1       2.283   0.166   0.954  0.00  0.00    -0.004 A 
ATOM      5  C6  UNL d   1       1.746  -1.072   1.323  0.00  0.00    -0.075 A 
ATOM      6  C7  UNL d   1       2.564  -2.072   2.086  0.00  0.00     0.076 C 
ATOM      7  C8  UNL d   1       0.420  -1.370   0.979  0.00  0.00     0.001 A 
ENDROOT
BRANCH   1   8
ATOM      8  C1  UNL d   1      -1.789  -0.785  -0.094  0.00  0.00     0.053 C 
ATOM      9  C   UNL d   1      -2.208  -0.131  -1.402  0.00  0.00     0.018 C 
ENDBRANCH   1   8
TORSDOF 1
ENDMDL
