MODEL 1
REMARK minimizedAffinity -4.60360575
REMARK minimizedRMSD -1
REMARK  1 active torsions:
REMARK  status: ('A' for Active; 'I' for Inactive)
REMARK    1  A    between atoms: C1_2  and  C2_3 
ROOT
ATOM      1  C2  UNL d   1      -2.363  -0.692  -1.220  0.00  0.00    -0.073 A 
ATOM      2  C3  UNL d   1      -2.650  -1.782  -2.049  0.00  0.00    -0.002 A 
ATOM      3  C4  UNL d   1      -3.383  -1.601  -3.223  0.00  0.00     0.004 A 
ATOM      4  C5  UNL d   1      -3.829  -0.330  -3.582  0.00  0.00    -0.004 A 
ATOM      5  C6  UNL d   1      -3.543   0.774  -2.772  0.00  0.00    -0.075 A 
ATOM      6  C7  UNL d   1      -4.018   2.148  -3.144  0.00  0.00     0.076 C 
ATOM      7  C8  UNL d   1      -2.809   0.583  -1.594  0.00  0.00     0.001 A 
ENDROOT
BRANCH   1   8
ATOM      8  C1  UNL d   1      -1.567  -0.882   0.045  0.00  0.00     0.053 C 
ATOM      9  C   UNL d   1      -0.245  -0.131   0.005  0.00  0.00     0.018 C 
ENDBRANCH   1   8
TORSDOF 1
ENDMDL
