MODEL 1
REMARK minimizedAffinity -5.68361282
REMARK minimizedRMSD -1
REMARK  1 active torsions:
REMARK  status: ('A' for Active; 'I' for Inactive)
REMARK    1  A    between atoms: C1_2  and  C2_3 
ROOT
ATOM      1  C2  UNL d   1      -0.296  -0.683   0.232  0.00  0.00    -0.073 A 
ATOM      2  C3  UNL d   1      -0.299  -1.934   0.858  0.00  0.00    -0.002 A 
ATOM      3  C4  UNL d   1       0.866  -2.433   1.442  0.00  0.00     0.004 A 
ATOM      4  C5  UNL d   1       2.042  -1.685   1.413  0.00  0.00    -0.004 A 
ATOM      5  C6  UNL d   1       2.063  -0.427   0.802  0.00  0.00    -0.075 A 
ATOM      6  C7  UNL d   1       3.321   0.390   0.759  0.00  0.00     0.076 C 
ATOM      7  C8  UNL d   1       0.890   0.067   0.215  0.00  0.00     0.001 A 
ENDROOT
BRANCH   1   8
ATOM      8  C1  UNL d   1      -1.553  -0.137  -0.395  0.00  0.00     0.053 C 
ATOM      9  C   UNL d   1      -1.669  -0.516  -1.863  0.00  0.00     0.018 C 
ENDBRANCH   1   8
TORSDOF 1
ENDMDL
