MODEL 1
REMARK minimizedAffinity -4.92794085
REMARK minimizedRMSD -1
REMARK  1 active torsions:
REMARK  status: ('A' for Active; 'I' for Inactive)
REMARK    1  A    between atoms: C1_2  and  C2_3 
ROOT
ATOM      1  C2  UNL d   1       0.661   0.606   0.096  0.00  0.00    -0.073 A 
ATOM      2  C3  UNL d   1       1.786   1.131  -0.550  0.00  0.00    -0.002 A 
ATOM      3  C4  UNL d   1       3.044   0.561  -0.350  0.00  0.00     0.004 A 
ATOM      4  C5  UNL d   1       3.189  -0.542   0.491  0.00  0.00    -0.004 A 
ATOM      5  C6  UNL d   1       2.075  -1.089   1.136  0.00  0.00    -0.075 A 
ATOM      6  C7  UNL d   1       2.215  -2.274   2.045  0.00  0.00     0.076 C 
ATOM      7  C8  UNL d   1       0.815  -0.509   0.932  0.00  0.00     0.001 A 
ENDROOT
BRANCH   1   8
ATOM      8  C1  UNL d   1      -0.701   1.214  -0.122  0.00  0.00     0.053 C 
ATOM      9  C   UNL d   1      -1.809   0.176  -0.036  0.00  0.00     0.018 C 
ENDBRANCH   1   8
TORSDOF 1
ENDMDL
