MODEL 1
REMARK minimizedAffinity -4.33963108
REMARK minimizedRMSD -1
REMARK  1 active torsions:
REMARK  status: ('A' for Active; 'I' for Inactive)
REMARK    1  A    between atoms: C1_2  and  C2_3 
ROOT
ATOM      1  C2  UNL d   1      -0.236  -0.027   0.086  0.00  0.00    -0.073 A 
ATOM      2  C3  UNL d   1      -0.213   1.352   0.321  0.00  0.00    -0.002 A 
ATOM      3  C4  UNL d   1       0.971   1.983   0.704  0.00  0.00     0.004 A 
ATOM      4  C5  UNL d   1       2.145   1.243   0.850  0.00  0.00    -0.004 A 
ATOM      5  C6  UNL d   1       2.145  -0.134   0.608  0.00  0.00    -0.075 A 
ATOM      6  C7  UNL d   1       3.399  -0.944   0.762  0.00  0.00     0.076 C 
ATOM      7  C8  UNL d   1       0.951  -0.760   0.226  0.00  0.00     0.001 A 
ENDROOT
BRANCH   1   8
ATOM      8  C1  UNL d   1      -1.511  -0.711  -0.335  0.00  0.00     0.053 C 
ATOM      9  C   UNL d   1      -1.779  -0.552  -1.823  0.00  0.00     0.018 C 
ENDBRANCH   1   8
TORSDOF 1
ENDMDL
