MODEL 1
REMARK minimizedAffinity 17.1303978
REMARK minimizedRMSD -1
REMARK  1 active torsions:
REMARK  status: ('A' for Active; 'I' for Inactive)
REMARK    1  A    between atoms: C1_2  and  C2_3 
ROOT
ATOM      1  C2  UNL d   1       0.077   3.040   0.042  0.00  0.00    -0.076 A 
ATOM      2  C3  UNL d   1       0.902   4.092  -0.392  0.00  0.00     0.004 A 
ATOM      3  C4  UNL d   1       0.905   4.498  -1.726  0.00  0.00    -0.003 A 
ATOM      4  C5  UNL d   1       0.082   3.859  -2.647  0.00  0.00     0.000 A 
ATOM      5  C6  UNL d   1      -0.756   2.825  -2.230  0.00  0.00     0.000 A 
ATOM      6  C7  UNL d   1      -0.783   2.414  -0.886  0.00  0.00    -0.073 A 
ATOM      7  C8  UNL d   1      -1.701   1.290  -0.493  0.00  0.00     0.078 C 
ENDROOT
BRANCH   1   8
ATOM      8  C1  UNL d   1       0.136   2.625   1.495  0.00  0.00     0.053 C 
ATOM      9  C   UNL d   1       1.562   2.538   2.018  0.00  0.00     0.018 C 
ENDBRANCH   1   8
TORSDOF 1
ENDMDL
