MODEL 1
REMARK minimizedAffinity 5.776021
REMARK minimizedRMSD -1
REMARK  1 active torsions:
REMARK  status: ('A' for Active; 'I' for Inactive)
REMARK    1  A    between atoms: C1_2  and  C2_3 
ROOT
ATOM      1  C2  UNL d   1      -0.157   1.081   2.713  0.00  0.00    -0.076 A 
ATOM      2  C3  UNL d   1      -1.533   0.978   2.986  0.00  0.00     0.004 A 
ATOM      3  C4  UNL d   1      -2.462   1.750   2.291  0.00  0.00    -0.003 A 
ATOM      4  C5  UNL d   1      -2.031   2.636   1.310  0.00  0.00     0.000 A 
ATOM      5  C6  UNL d   1      -0.672   2.738   1.013  0.00  0.00     0.000 A 
ATOM      6  C7  UNL d   1       0.276   1.955   1.694  0.00  0.00    -0.073 A 
ATOM      7  C8  UNL d   1       1.729   2.111   1.338  0.00  0.00     0.078 C 
ENDROOT
BRANCH   1   8
ATOM      8  C1  UNL d   1       0.806   0.239   3.519  0.00  0.00     0.053 C 
ATOM      9  C   UNL d   1       1.193  -1.048   2.805  0.00  0.00     0.018 C 
ENDBRANCH   1   8
TORSDOF 1
ENDMDL
