MODEL 1
REMARK minimizedAffinity -0.892819107
REMARK minimizedRMSD -1
REMARK  1 active torsions:
REMARK  status: ('A' for Active; 'I' for Inactive)
REMARK    1  A    between atoms: C1_2  and  C2_3 
ROOT
ATOM      1  C2  UNL d   1       0.495   3.004   0.622  0.00  0.00    -0.076 A 
ATOM      2  C3  UNL d   1      -0.416   2.276  -0.162  0.00  0.00     0.004 A 
ATOM      3  C4  UNL d   1      -1.104   1.184   0.365  0.00  0.00    -0.003 A 
ATOM      4  C5  UNL d   1      -0.892   0.804   1.686  0.00  0.00     0.000 A 
ATOM      5  C6  UNL d   1      -0.005   1.525   2.483  0.00  0.00     0.000 A 
ATOM      6  C7  UNL d   1       0.685   2.638   1.972  0.00  0.00    -0.073 A 
ATOM      7  C8  UNL d   1       1.634   3.376   2.875  0.00  0.00     0.078 C 
ENDROOT
BRANCH   1   8
ATOM      8  C1  UNL d   1       1.233   4.162  -0.012  0.00  0.00     0.053 C 
ATOM      9  C   UNL d   1       0.513   4.712  -1.234  0.00  0.00     0.018 C 
ENDBRANCH   1   8
TORSDOF 1
ENDMDL
