MODEL 1
REMARK minimizedAffinity 5.45428276
REMARK minimizedRMSD -1
REMARK  1 active torsions:
REMARK  status: ('A' for Active; 'I' for Inactive)
REMARK    1  A    between atoms: C1_2  and  C2_3 
ROOT
ATOM      1  C2  UNL d   1       4.983  -2.475  -4.040  0.00  0.00    -0.076 A 
ATOM      2  C3  UNL d   1       4.045  -1.435  -3.918  0.00  0.00     0.004 A 
ATOM      3  C4  UNL d   1       3.134  -1.411  -2.863  0.00  0.00    -0.003 A 
ATOM      4  C5  UNL d   1       3.147  -2.426  -1.913  0.00  0.00     0.000 A 
ATOM      5  C6  UNL d   1       4.082  -3.456  -2.009  0.00  0.00     0.000 A 
ATOM      6  C7  UNL d   1       5.018  -3.487  -3.057  0.00  0.00    -0.073 A 
ATOM      7  C8  UNL d   1       6.000  -4.624  -3.115  0.00  0.00     0.078 C 
ENDROOT
BRANCH   1   8
ATOM      8  C1  UNL d   1       5.928  -2.463  -5.220  0.00  0.00     0.053 C 
ATOM      9  C   UNL d   1       5.980  -1.109  -5.911  0.00  0.00     0.018 C 
ENDBRANCH   1   8
TORSDOF 1
ENDMDL
