MODEL 1
REMARK minimizedAffinity 3.12421107
REMARK minimizedRMSD -1
REMARK  1 active torsions:
REMARK  status: ('A' for Active; 'I' for Inactive)
REMARK    1  A    between atoms: C1_2  and  C2_3 
ROOT
ATOM      1  C2  UNL d   1       0.575   1.644   0.995  0.00  0.00    -0.076 A 
ATOM      2  C3  UNL d   1       0.358   1.660  -0.394  0.00  0.00     0.004 A 
ATOM      3  C4  UNL d   1       0.585   2.814  -1.142  0.00  0.00    -0.003 A 
ATOM      4  C5  UNL d   1       1.034   3.970  -0.513  0.00  0.00     0.000 A 
ATOM      5  C6  UNL d   1       1.271   3.967   0.861  0.00  0.00     0.000 A 
ATOM      6  C7  UNL d   1       1.062   2.807   1.627  0.00  0.00    -0.073 A 
ATOM      7  C8  UNL d   1       1.328   2.862   3.107  0.00  0.00     0.078 C 
ENDROOT
BRANCH   1   8
ATOM      8  C1  UNL d   1       0.285   0.371   1.758  0.00  0.00     0.053 C 
ATOM      9  C   UNL d   1       1.448  -0.609   1.719  0.00  0.00     0.018 C 
ENDBRANCH   1   8
TORSDOF 1
ENDMDL
