MODEL 1
REMARK minimizedAffinity -3.0960474
REMARK minimizedRMSD -1
REMARK  1 active torsions:
REMARK  status: ('A' for Active; 'I' for Inactive)
REMARK    1  A    between atoms: C1_2  and  C2_3 
ROOT
ATOM      1  C2  UNL d   1       0.130   2.307  -0.019  0.00  0.00    -0.076 A 
ATOM      2  C3  UNL d   1      -0.235   2.731   1.271  0.00  0.00     0.004 A 
ATOM      3  C4  UNL d   1      -0.301   1.829   2.331  0.00  0.00    -0.003 A 
ATOM      4  C5  UNL d   1      -0.002   0.487   2.119  0.00  0.00     0.000 A 
ATOM      5  C6  UNL d   1       0.379   0.052   0.850  0.00  0.00     0.000 A 
ATOM      6  C7  UNL d   1       0.467   0.952  -0.226  0.00  0.00    -0.073 A 
ATOM      7  C8  UNL d   1       0.878   0.428  -1.575  0.00  0.00     0.078 C 
ENDROOT
BRANCH   1   8
ATOM      8  C1  UNL d   1       0.158   3.326  -1.136  0.00  0.00     0.053 C 
ATOM      9  C   UNL d   1       0.694   4.675  -0.680  0.00  0.00     0.018 C 
ENDBRANCH   1   8
TORSDOF 1
ENDMDL
