MODEL 1
REMARK minimizedAffinity 1.61644542
REMARK minimizedRMSD -1
REMARK  1 active torsions:
REMARK  status: ('A' for Active; 'I' for Inactive)
REMARK    1  A    between atoms: C1_2  and  C2_3 
ROOT
ATOM      1  C2  UNL d   1      -1.713   4.310  -0.040  0.00  0.00    -0.076 A 
ATOM      2  C3  UNL d   1      -1.757   4.313   1.365  0.00  0.00     0.004 A 
ATOM      3  C4  UNL d   1      -2.632   5.151   2.053  0.00  0.00    -0.003 A 
ATOM      4  C5  UNL d   1      -3.478   6.000   1.348  0.00  0.00     0.000 A 
ATOM      5  C6  UNL d   1      -3.460   5.998  -0.046  0.00  0.00     0.000 A 
ATOM      6  C7  UNL d   1      -2.595   5.147  -0.756  0.00  0.00    -0.073 A 
ATOM      7  C8  UNL d   1      -2.613   5.191  -2.260  0.00  0.00     0.078 C 
ENDROOT
BRANCH   1   8
ATOM      8  C1  UNL d   1      -0.724   3.399  -0.732  0.00  0.00     0.053 C 
ATOM      9  C   UNL d   1       0.561   4.117  -1.115  0.00  0.00     0.018 C 
ENDBRANCH   1   8
TORSDOF 1
ENDMDL
