MODEL 1
REMARK minimizedAffinity 10.8046236
REMARK minimizedRMSD -1
REMARK  1 active torsions:
REMARK  status: ('A' for Active; 'I' for Inactive)
REMARK    1  A    between atoms: C1_2  and  C2_3 
ROOT
ATOM      1  C2  UNL d   1       0.540  -2.804  -1.302  0.00  0.00    -0.076 A 
ATOM      2  C3  UNL d   1       0.845  -1.441  -1.139  0.00  0.00     0.004 A 
ATOM      3  C4  UNL d   1       1.964  -1.038  -0.414  0.00  0.00    -0.003 A 
ATOM      4  C5  UNL d   1       2.799  -1.991   0.160  0.00  0.00     0.000 A 
ATOM      5  C6  UNL d   1       2.522  -3.347  -0.006  0.00  0.00     0.000 A 
ATOM      6  C7  UNL d   1       1.406  -3.771  -0.748  0.00  0.00    -0.073 A 
ATOM      7  C8  UNL d   1       1.152  -5.247  -0.890  0.00  0.00     0.078 C 
ENDROOT
BRANCH   1   8
ATOM      8  C1  UNL d   1      -0.703  -3.181  -2.076  0.00  0.00     0.053 C 
ATOM      9  C   UNL d   1      -0.432  -3.363  -3.561  0.00  0.00     0.018 C 
ENDBRANCH   1   8
TORSDOF 1
ENDMDL
