MODEL 1
REMARK minimizedAffinity 7.22949791
REMARK minimizedRMSD -1
REMARK  1 active torsions:
REMARK  status: ('A' for Active; 'I' for Inactive)
REMARK    1  A    between atoms: C1_2  and  C2_3 
ROOT
ATOM      1  C2  UNL d   1      -0.908   3.286  -1.435  0.00  0.00    -0.076 A 
ATOM      2  C3  UNL d   1      -1.147   2.663  -0.198  0.00  0.00     0.004 A 
ATOM      3  C4  UNL d   1      -0.175   2.653   0.801  0.00  0.00    -0.003 A 
ATOM      4  C5  UNL d   1       1.052   3.268   0.580  0.00  0.00     0.000 A 
ATOM      5  C6  UNL d   1       1.300   3.907  -0.635  0.00  0.00     0.000 A 
ATOM      6  C7  UNL d   1       0.325   3.940  -1.646  0.00  0.00    -0.073 A 
ATOM      7  C8  UNL d   1       0.649   4.637  -2.939  0.00  0.00     0.078 C 
ENDROOT
BRANCH   1   8
ATOM      8  C1  UNL d   1      -1.989   3.240  -2.490  0.00  0.00     0.053 C 
ATOM      9  C   UNL d   1      -3.078   2.230  -2.166  0.00  0.00     0.018 C 
ENDBRANCH   1   8
TORSDOF 1
ENDMDL
