MODEL 1
REMARK minimizedAffinity 12.5296907
REMARK minimizedRMSD -1
REMARK  1 active torsions:
REMARK  status: ('A' for Active; 'I' for Inactive)
REMARK    1  A    between atoms: C1_2  and  C2_3 
ROOT
ATOM      1  C2  UNL d   1       0.794   3.745   0.761  0.00  0.00    -0.076 A 
ATOM      2  C3  UNL d   1      -0.589   3.600   0.552  0.00  0.00     0.004 A 
ATOM      3  C4  UNL d   1      -1.421   3.121   1.563  0.00  0.00    -0.003 A 
ATOM      4  C5  UNL d   1      -0.883   2.779   2.799  0.00  0.00     0.000 A 
ATOM      5  C6  UNL d   1       0.483   2.933   3.029  0.00  0.00     0.000 A 
ATOM      6  C7  UNL d   1       1.334   3.430   2.026  0.00  0.00    -0.073 A 
ATOM      7  C8  UNL d   1       2.801   3.569   2.327  0.00  0.00     0.078 C 
ENDROOT
BRANCH   1   8
ATOM      8  C1  UNL d   1       1.651   4.243  -0.381  0.00  0.00     0.053 C 
ATOM      9  C   UNL d   1       2.572   5.380   0.035  0.00  0.00     0.018 C 
ENDBRANCH   1   8
TORSDOF 1
ENDMDL
