MODEL 1
REMARK minimizedAffinity 17.4917603
REMARK minimizedRMSD -1
REMARK  1 active torsions:
REMARK  status: ('A' for Active; 'I' for Inactive)
REMARK    1  A    between atoms: C1_2  and  C2_3 
ROOT
ATOM      1  C2  UNL d   1       0.597   3.199   0.489  0.00  0.00    -0.076 A 
ATOM      2  C3  UNL d   1       1.575   2.741   1.389  0.00  0.00     0.004 A 
ATOM      3  C4  UNL d   1       1.227   2.303   2.665  0.00  0.00    -0.003 A 
ATOM      4  C5  UNL d   1      -0.106   2.315   3.063  0.00  0.00     0.000 A 
ATOM      5  C6  UNL d   1      -1.091   2.749   2.177  0.00  0.00     0.000 A 
ATOM      6  C7  UNL d   1      -0.759   3.179   0.881  0.00  0.00    -0.073 A 
ATOM      7  C8  UNL d   1      -1.862   3.643  -0.031  0.00  0.00     0.078 C 
ENDROOT
BRANCH   1   8
ATOM      8  C1  UNL d   1       1.037   3.688  -0.872  0.00  0.00     0.053 C 
ATOM      9  C   UNL d   1       2.155   4.715  -0.789  0.00  0.00     0.018 C 
ENDBRANCH   1   8
TORSDOF 1
ENDMDL
