MODEL 1
REMARK minimizedAffinity 13.2479811
REMARK minimizedRMSD -1
REMARK  1 active torsions:
REMARK  status: ('A' for Active; 'I' for Inactive)
REMARK    1  A    between atoms: C1_2  and  C2_3 
ROOT
ATOM      1  C2  UNL d   1       1.333  -1.860   1.228  0.00  0.00    -0.081 A 
ATOM      2  C3  UNL d   1      -0.016  -2.229   1.287  0.00  0.00     0.006 A 
ATOM      3  C4  UNL d   1      -0.378  -3.569   1.452  0.00  0.00     0.002 A 
ATOM      4  C5  UNL d   1       0.604  -4.559   1.568  0.00  0.00    -0.080 A 
ATOM      5  C6  UNL d   1       0.230  -5.997   1.776  0.00  0.00     0.076 C 
ATOM      6  C7  UNL d   1       1.951  -4.192   1.492  0.00  0.00     0.002 A 
ATOM      7  C8  UNL d   1       2.313  -2.854   1.327  0.00  0.00     0.006 A 
ENDROOT
BRANCH   1   8
ATOM      8  C1  UNL d   1       1.726  -0.409   1.116  0.00  0.00     0.054 C 
ATOM      9  C   UNL d   1       3.239  -0.249   1.050  0.00  0.00     0.018 C 
ENDBRANCH   1   8
TORSDOF 1
ENDMDL
