MODEL 1
REMARK minimizedAffinity 15.0831985
REMARK minimizedRMSD -1
REMARK  1 active torsions:
REMARK  status: ('A' for Active; 'I' for Inactive)
REMARK    1  A    between atoms: C1_2  and  C2_3 
ROOT
ATOM      1  C2  UNL d   1      -2.986   3.751  -2.496  0.00  0.00    -0.081 A 
ATOM      2  C3  UNL d   1      -3.846   2.808  -1.921  0.00  0.00     0.006 A 
ATOM      3  C4  UNL d   1      -4.814   3.204  -0.995  0.00  0.00     0.002 A 
ATOM      4  C5  UNL d   1      -4.943   4.549  -0.634  0.00  0.00    -0.080 A 
ATOM      5  C6  UNL d   1      -5.998   4.992   0.336  0.00  0.00     0.076 C 
ATOM      6  C7  UNL d   1      -4.072   5.489  -1.196  0.00  0.00     0.002 A 
ATOM      7  C8  UNL d   1      -3.104   5.094  -2.121  0.00  0.00     0.006 A 
ENDROOT
BRANCH   1   8
ATOM      8  C1  UNL d   1      -1.984   3.337  -3.543  0.00  0.00     0.054 C 
ATOM      9  C   UNL d   1      -2.242   4.044  -4.866  0.00  0.00     0.018 C 
ENDBRANCH   1   8
TORSDOF 1
ENDMDL
