MODEL 1
REMARK minimizedAffinity 7.38538122
REMARK minimizedRMSD -1
REMARK  1 active torsions:
REMARK  status: ('A' for Active; 'I' for Inactive)
REMARK    1  A    between atoms: C1_2  and  C2_3 
ROOT
ATOM      1  C2  UNL d   1      -4.732  -4.126   3.819  0.00  0.00    -0.081 A 
ATOM      2  C3  UNL d   1      -5.230  -5.379   3.444  0.00  0.00     0.006 A 
ATOM      3  C4  UNL d   1      -5.189  -5.787   2.108  0.00  0.00     0.002 A 
ATOM      4  C5  UNL d   1      -4.643  -4.952   1.128  0.00  0.00    -0.080 A 
ATOM      5  C6  UNL d   1      -4.565  -5.389  -0.305  0.00  0.00     0.076 C 
ATOM      6  C7  UNL d   1      -4.161  -3.692   1.500  0.00  0.00     0.002 A 
ATOM      7  C8  UNL d   1      -4.203  -3.284   2.835  0.00  0.00     0.006 A 
ENDROOT
BRANCH   1   8
ATOM      8  C1  UNL d   1      -4.716  -3.710   5.268  0.00  0.00     0.054 C 
ATOM      9  C   UNL d   1      -5.999  -2.987   5.651  0.00  0.00     0.018 C 
ENDBRANCH   1   8
TORSDOF 1
ENDMDL
