MODEL 1
REMARK minimizedAffinity 13.9754534
REMARK minimizedRMSD -1
REMARK  1 active torsions:
REMARK  status: ('A' for Active; 'I' for Inactive)
REMARK    1  A    between atoms: C1_2  and  C2_3 
ROOT
ATOM      1  C2  UNL d   1       2.386  -0.382   0.828  0.00  0.00    -0.081 A 
ATOM      2  C3  UNL d   1       3.227  -1.307   0.198  0.00  0.00     0.006 A 
ATOM      3  C4  UNL d   1       2.814  -2.628   0.010  0.00  0.00     0.002 A 
ATOM      4  C5  UNL d   1       1.549  -3.044   0.441  0.00  0.00    -0.080 A 
ATOM      5  C6  UNL d   1       1.081  -4.451   0.218  0.00  0.00     0.076 C 
ATOM      6  C7  UNL d   1       0.715  -2.124   1.086  0.00  0.00     0.002 A 
ATOM      7  C8  UNL d   1       1.128  -0.804   1.275  0.00  0.00     0.006 A 
ENDROOT
BRANCH   1   8
ATOM      8  C1  UNL d   1       2.803   1.059   0.975  0.00  0.00     0.054 C 
ATOM      9  C   UNL d   1       1.999   1.965   0.054  0.00  0.00     0.018 C 
ENDBRANCH   1   8
TORSDOF 1
ENDMDL
