MODEL 1
REMARK minimizedAffinity 14.1379004
REMARK minimizedRMSD -1
REMARK  1 active torsions:
REMARK  status: ('A' for Active; 'I' for Inactive)
REMARK    1  A    between atoms: C1_2  and  C2_3 
ROOT
ATOM      1  C2  UNL d   1      -2.230   4.341  -4.279  0.00  0.00    -0.081 A 
ATOM      2  C3  UNL d   1      -2.964   3.173  -4.038  0.00  0.00     0.006 A 
ATOM      3  C4  UNL d   1      -3.687   3.024  -2.852  0.00  0.00     0.002 A 
ATOM      4  C5  UNL d   1      -3.696   4.043  -1.893  0.00  0.00    -0.080 A 
ATOM      5  C6  UNL d   1      -4.494   3.908  -0.630  0.00  0.00     0.076 C 
ATOM      6  C7  UNL d   1      -2.949   5.202  -2.127  0.00  0.00     0.002 A 
ATOM      7  C8  UNL d   1      -2.224   5.351  -3.312  0.00  0.00     0.006 A 
ENDROOT
BRANCH   1   8
ATOM      8  C1  UNL d   1      -1.500   4.531  -5.585  0.00  0.00     0.054 C 
ATOM      9  C   UNL d   1      -1.478   5.996  -5.998  0.00  0.00     0.018 C 
ENDBRANCH   1   8
TORSDOF 1
ENDMDL
