MODEL 1
REMARK minimizedAffinity 6.89945936
REMARK minimizedRMSD -1
REMARK  1 active torsions:
REMARK  status: ('A' for Active; 'I' for Inactive)
REMARK    1  A    between atoms: C1_2  and  C2_3 
ROOT
ATOM      1  C2  UNL d   1      -1.589  -2.242   2.712  0.00  0.00    -0.081 A 
ATOM      2  C3  UNL d   1      -1.083  -1.058   3.262  0.00  0.00     0.006 A 
ATOM      3  C4  UNL d   1       0.209  -0.627   2.949  0.00  0.00     0.002 A 
ATOM      4  C5  UNL d   1       1.012  -1.367   2.075  0.00  0.00    -0.080 A 
ATOM      5  C6  UNL d   1       2.389  -0.900   1.707  0.00  0.00     0.076 C 
ATOM      6  C7  UNL d   1       0.513  -2.559   1.539  0.00  0.00     0.002 A 
ATOM      7  C8  UNL d   1      -0.778  -2.991   1.852  0.00  0.00     0.006 A 
ENDROOT
BRANCH   1   8
ATOM      8  C1  UNL d   1      -3.004  -2.675   2.996  0.00  0.00     0.054 C 
ATOM      9  C   UNL d   1      -3.551  -3.549   1.876  0.00  0.00     0.018 C 
ENDBRANCH   1   8
TORSDOF 1
ENDMDL
