MODEL 1
REMARK minimizedAffinity 2.00190973
REMARK minimizedRMSD -1
REMARK  1 active torsions:
REMARK  status: ('A' for Active; 'I' for Inactive)
REMARK    1  A    between atoms: C1_2  and  C2_3 
ROOT
ATOM      1  C2  UNL d   1      -5.285  -5.339   1.157  0.00  0.00    -0.081 A 
ATOM      2  C3  UNL d   1      -4.583  -4.138   1.314  0.00  0.00     0.006 A 
ATOM      3  C4  UNL d   1      -4.379  -3.598   2.586  0.00  0.00     0.002 A 
ATOM      4  C5  UNL d   1      -4.867  -4.254   3.722  0.00  0.00    -0.080 A 
ATOM      5  C6  UNL d   1      -4.629  -3.701   5.096  0.00  0.00     0.076 C 
ATOM      6  C7  UNL d   1      -5.583  -5.445   3.563  0.00  0.00     0.002 A 
ATOM      7  C8  UNL d   1      -5.788  -5.985   2.291  0.00  0.00     0.006 A 
ENDROOT
BRANCH   1   8
ATOM      8  C1  UNL d   1      -5.450  -5.957  -0.208  0.00  0.00     0.054 C 
ATOM      9  C   UNL d   1      -4.231  -5.700  -1.083  0.00  0.00     0.018 C 
ENDBRANCH   1   8
TORSDOF 1
ENDMDL
