MODEL 1
REMARK minimizedAffinity 12.5350065
REMARK minimizedRMSD -1
REMARK  1 active torsions:
REMARK  status: ('A' for Active; 'I' for Inactive)
REMARK    1  A    between atoms: C1_2  and  C2_3 
ROOT
ATOM      1  C2  UNL d   1      -2.508   3.725  -3.515  0.00  0.00    -0.081 A 
ATOM      2  C3  UNL d   1      -3.315   2.621  -3.212  0.00  0.00     0.006 A 
ATOM      3  C4  UNL d   1      -4.208   2.671  -2.138  0.00  0.00     0.002 A 
ATOM      4  C5  UNL d   1      -4.313   3.825  -1.355  0.00  0.00    -0.080 A 
ATOM      5  C6  UNL d   1      -5.288   3.901  -0.218  0.00  0.00     0.076 C 
ATOM      6  C7  UNL d   1      -3.494   4.921  -1.647  0.00  0.00     0.002 A 
ATOM      7  C8  UNL d   1      -2.601   4.872  -2.720  0.00  0.00     0.006 A 
ENDROOT
BRANCH   1   8
ATOM      8  C1  UNL d   1      -1.591   3.698  -4.711  0.00  0.00     0.054 C 
ATOM      9  C   UNL d   1      -2.339   4.053  -5.989  0.00  0.00     0.018 C 
ENDBRANCH   1   8
TORSDOF 1
ENDMDL
