MODEL 1
REMARK minimizedAffinity 16.4575195
REMARK minimizedRMSD -1
REMARK  1 active torsions:
REMARK  status: ('A' for Active; 'I' for Inactive)
REMARK    1  A    between atoms: C1_2  and  C2_3 
ROOT
ATOM      1  C2  UNL d   1      -1.776  -2.412   3.344  0.00  0.00    -0.081 A 
ATOM      2  C3  UNL d   1      -1.388  -1.134   3.764  0.00  0.00     0.006 A 
ATOM      3  C4  UNL d   1      -0.223  -0.547   3.264  0.00  0.00     0.002 A 
ATOM      4  C5  UNL d   1       0.568  -1.224   2.329  0.00  0.00    -0.080 A 
ATOM      5  C6  UNL d   1       1.804  -0.593   1.761  0.00  0.00     0.076 C 
ATOM      6  C7  UNL d   1       0.189  -2.508   1.923  0.00  0.00     0.002 A 
ATOM      7  C8  UNL d   1      -0.975  -3.096   2.424  0.00  0.00     0.006 A 
ENDROOT
BRANCH   1   8
ATOM      8  C1  UNL d   1      -3.065  -3.021   3.833  0.00  0.00     0.054 C 
ATOM      9  C   UNL d   1      -3.856  -3.637   2.688  0.00  0.00     0.018 C 
ENDBRANCH   1   8
TORSDOF 1
ENDMDL
