MODEL 1
REMARK minimizedAffinity 3.3520782
REMARK minimizedRMSD -1
REMARK  1 active torsions:
REMARK  status: ('A' for Active; 'I' for Inactive)
REMARK    1  A    between atoms: C1_2  and  C2_3 
ROOT
ATOM      1  C2  UNL d   1      -3.750  -5.321   0.327  0.00  0.00    -0.081 A 
ATOM      2  C3  UNL d   1      -4.359  -5.997   1.391  0.00  0.00     0.006 A 
ATOM      3  C4  UNL d   1      -4.587  -5.346   2.606  0.00  0.00     0.002 A 
ATOM      4  C5  UNL d   1      -4.216  -4.008   2.775  0.00  0.00    -0.080 A 
ATOM      5  C6  UNL d   1      -4.482  -3.289   4.064  0.00  0.00     0.076 C 
ATOM      6  C7  UNL d   1      -3.591  -3.338   1.718  0.00  0.00     0.002 A 
ATOM      7  C8  UNL d   1      -3.363  -3.988   0.503  0.00  0.00     0.006 A 
ENDROOT
BRANCH   1   8
ATOM      8  C1  UNL d   1      -3.561  -6.000  -1.005  0.00  0.00     0.054 C 
ATOM      9  C   UNL d   1      -4.851  -6.000  -1.813  0.00  0.00     0.018 C 
ENDBRANCH   1   8
TORSDOF 1
ENDMDL
