MODEL 1
REMARK minimizedAffinity 11.1391268
REMARK minimizedRMSD -1
REMARK  1 active torsions:
REMARK  status: ('A' for Active; 'I' for Inactive)
REMARK    1  A    between atoms: C1_2  and  C2_3 
ROOT
ATOM      1  C2  UNL d   1      -5.404  -4.484   3.846  0.00  0.00    -0.081 A 
ATOM      2  C3  UNL d   1      -5.991  -5.091   2.729  0.00  0.00     0.006 A 
ATOM      3  C4  UNL d   1      -5.404  -4.971   1.467  0.00  0.00     0.002 A 
ATOM      4  C5  UNL d   1      -4.217  -4.249   1.302  0.00  0.00    -0.080 A 
ATOM      5  C6  UNL d   1      -3.560  -4.138  -0.041  0.00  0.00     0.076 C 
ATOM      6  C7  UNL d   1      -3.640  -3.628   2.415  0.00  0.00     0.002 A 
ATOM      7  C8  UNL d   1      -4.227  -3.747   3.677  0.00  0.00     0.006 A 
ENDROOT
BRANCH   1   8
ATOM      8  C1  UNL d   1      -6.000  -4.666   5.218  0.00  0.00     0.054 C 
ATOM      9  C   UNL d   1      -6.000  -3.359   5.999  0.00  0.00     0.018 C 
ENDBRANCH   1   8
TORSDOF 1
ENDMDL
