MODEL 1
REMARK minimizedAffinity 16.0855236
REMARK minimizedRMSD -1
REMARK  1 active torsions:
REMARK  status: ('A' for Active; 'I' for Inactive)
REMARK    1  A    between atoms: C1_2  and  C2_3 
ROOT
ATOM      1  C2  UNL d   1       3.878  -5.252  -5.850  0.00  0.00    -0.081 A 
ATOM      2  C3  UNL d   1       3.866  -3.872  -5.614  0.00  0.00     0.006 A 
ATOM      3  C4  UNL d   1       2.658  -3.198  -5.417  0.00  0.00     0.002 A 
ATOM      4  C5  UNL d   1       1.445  -3.893  -5.447  0.00  0.00    -0.080 A 
ATOM      5  C6  UNL d   1       0.143  -3.186  -5.208  0.00  0.00     0.076 C 
ATOM      6  C7  UNL d   1       1.455  -5.269  -5.700  0.00  0.00     0.002 A 
ATOM      7  C8  UNL d   1       2.663  -5.943  -5.897  0.00  0.00     0.006 A 
ENDROOT
BRANCH   1   8
ATOM      8  C1  UNL d   1       5.183  -5.993  -5.998  0.00  0.00     0.054 C 
ATOM      9  C   UNL d   1       5.997  -5.941  -4.713  0.00  0.00     0.018 C 
ENDBRANCH   1   8
TORSDOF 1
ENDMDL
