MODEL 1
REMARK minimizedAffinity -0.557344377
REMARK minimizedRMSD -1
REMARK  0 active torsions:
REMARK  status: ('A' for Active; 'I' for Inactive)
ROOT
ATOM      1  C1  DEN d   1      -1.253  -3.767   4.124  0.00  0.00     0.130 A 
ATOM      2  C2  DEN d   1      -1.335  -4.856   5.094  0.00  0.00    -0.031 A 
ATOM      3  C3  DEN d   1      -0.174  -4.749   6.000  0.00  0.00     0.027 A 
ATOM      4  C4  DEN d   1       1.730  -3.009   5.999  0.00  0.00     0.027 A 
ATOM      5  C5  DEN d   1       2.236  -1.899   5.359  0.00  0.00    -0.003 A 
ATOM      6  C6  DEN d   1       1.638  -1.358   4.252  0.00  0.00     0.001 A 
ATOM      7  C7  DEN d   1       0.473  -1.900   3.777  0.00  0.00     0.017 A 
ATOM      8  C8  DEN d   1      -0.039  -3.024   4.412  0.00  0.00    -0.094 A 
ATOM      9  C9  DEN d   1       0.574  -3.548   5.537  0.00  0.00    -0.072 A 
ENDROOT
TORSDOF 0
ENDMDL
