MODEL 1
REMARK minimizedAffinity -1.67970073
REMARK minimizedRMSD -1
REMARK  0 active torsions:
REMARK  status: ('A' for Active; 'I' for Inactive)
ROOT
ATOM      1  C1  DEN d   1       4.556   1.913   5.967  0.00  0.00     0.130 A 
ATOM      2  C2  DEN d   1       3.453   0.955   5.988  0.00  0.00    -0.031 A 
ATOM      3  C3  DEN d   1       2.188   1.716   5.999  0.00  0.00     0.027 A 
ATOM      4  C4  DEN d   1       1.830   4.270   5.981  0.00  0.00     0.027 A 
ATOM      5  C5  DEN d   1       2.465   5.493   5.974  0.00  0.00    -0.003 A 
ATOM      6  C6  DEN d   1       3.830   5.607   6.000  0.00  0.00     0.001 A 
ATOM      7  C7  DEN d   1       4.606   4.478   5.986  0.00  0.00     0.017 A 
ATOM      8  C8  DEN d   1       3.973   3.242   6.000  0.00  0.00    -0.094 A 
ATOM      9  C9  DEN d   1       2.592   3.147   5.962  0.00  0.00    -0.072 A 
ENDROOT
TORSDOF 0
ENDMDL
