MODEL 1
REMARK minimizedAffinity -0.25582248
REMARK minimizedRMSD -1
REMARK  0 active torsions:
REMARK  status: ('A' for Active; 'I' for Inactive)
ROOT
ATOM      1  C1  DEN d   1       0.608   4.312   5.999  0.00  0.00     0.130 A 
ATOM      2  C2  DEN d   1       1.212   5.609   5.711  0.00  0.00    -0.031 A 
ATOM      3  C3  DEN d   1       2.624   5.384   5.343  0.00  0.00     0.027 A 
ATOM      4  C4  DEN d   1       3.925   3.162   5.187  0.00  0.00     0.027 A 
ATOM      5  C5  DEN d   1       3.839   1.797   5.349  0.00  0.00    -0.003 A 
ATOM      6  C6  DEN d   1       2.689   1.183   5.770  0.00  0.00     0.001 A 
ATOM      7  C7  DEN d   1       1.564   1.931   5.998  0.00  0.00     0.017 A 
ATOM      8  C8  DEN d   1       1.645   3.309   5.843  0.00  0.00    -0.094 A 
ATOM      9  C9  DEN d   1       2.814   3.909   5.406  0.00  0.00    -0.072 A 
ENDROOT
TORSDOF 0
ENDMDL
