MODEL 1
REMARK minimizedAffinity 8.57774925
REMARK minimizedRMSD -1
REMARK  0 active torsions:
REMARK  status: ('A' for Active; 'I' for Inactive)
ROOT
ATOM      1  C1  DEN d   1       2.662   4.645   3.650  0.00  0.00     0.130 A 
ATOM      2  C2  DEN d   1       3.349   4.210   4.863  0.00  0.00    -0.031 A 
ATOM      3  C3  DEN d   1       2.422   4.385   6.000  0.00  0.00     0.027 A 
ATOM      4  C4  DEN d   1       0.003   5.278   5.999  0.00  0.00     0.027 A 
ATOM      5  C5  DEN d   1      -1.008   5.782   5.210  0.00  0.00    -0.003 A 
ATOM      6  C6  DEN d   1      -0.855   5.972   3.862  0.00  0.00     0.001 A 
ATOM      7  C7  DEN d   1       0.319   5.615   3.254  0.00  0.00     0.017 A 
ATOM      8  C8  DEN d   1       1.345   5.113   4.045  0.00  0.00    -0.094 A 
ATOM      9  C9  DEN d   1       1.167   4.916   5.404  0.00  0.00    -0.072 A 
ENDROOT
TORSDOF 0
ENDMDL
