MODEL 1
REMARK minimizedAffinity 3.77302337
REMARK minimizedRMSD -1
REMARK  0 active torsions:
REMARK  status: ('A' for Active; 'I' for Inactive)
ROOT
ATOM      1  C1  DEN d   1       2.409   1.554   6.000  0.00  0.00     0.130 A 
ATOM      2  C2  DEN d   1       3.724   1.181   5.484  0.00  0.00    -0.031 A 
ATOM      3  C3  DEN d   1       4.342   2.386   4.895  0.00  0.00     0.027 A 
ATOM      4  C4  DEN d   1       3.398   4.781   4.737  0.00  0.00     0.027 A 
ATOM      5  C5  DEN d   1       2.315   5.583   5.025  0.00  0.00    -0.003 A 
ATOM      6  C6  DEN d   1       1.184   5.094   5.623  0.00  0.00     0.001 A 
ATOM      7  C7  DEN d   1       1.127   3.776   5.993  0.00  0.00     0.017 A 
ATOM      8  C8  DEN d   1       2.212   2.960   5.699  0.00  0.00    -0.094 A 
ATOM      9  C9  DEN d   1       3.351   3.476   5.105  0.00  0.00    -0.072 A 
ENDROOT
TORSDOF 0
ENDMDL
