MODEL 1
REMARK minimizedAffinity 13.3906498
REMARK minimizedRMSD -1
REMARK  0 active torsions:
REMARK  status: ('A' for Active; 'I' for Inactive)
ROOT
ATOM      1  C1  DEN d   1      -4.367   3.932  -4.435  0.00  0.00     0.130 A 
ATOM      2  C2  DEN d   1      -5.209   4.482  -3.376  0.00  0.00    -0.031 A 
ATOM      3  C3  DEN d   1      -5.999   3.375  -2.801  0.00  0.00     0.027 A 
ATOM      4  C4  DEN d   1      -5.997   0.876  -3.440  0.00  0.00     0.027 A 
ATOM      5  C5  DEN d   1      -5.456  -0.065  -4.288  0.00  0.00    -0.003 A 
ATOM      6  C6  DEN d   1      -4.548   0.263  -5.259  0.00  0.00     0.001 A 
ATOM      7  C7  DEN d   1      -4.118   1.558  -5.376  0.00  0.00     0.017 A 
ATOM      8  C8  DEN d   1      -4.664   2.514  -4.530  0.00  0.00    -0.094 A 
ATOM      9  C9  DEN d   1      -5.572   2.160  -3.547  0.00  0.00    -0.072 A 
ENDROOT
TORSDOF 0
ENDMDL
