MODEL 1
REMARK minimizedAffinity 1.98852587
REMARK minimizedRMSD -1
REMARK  0 active torsions:
REMARK  status: ('A' for Active; 'I' for Inactive)
ROOT
ATOM      1  C1  DEN d   1      -1.397  -5.765   3.783  0.00  0.00     0.130 A 
ATOM      2  C2  DEN d   1      -2.254  -6.000   4.942  0.00  0.00    -0.031 A 
ATOM      3  C3  DEN d   1      -1.863  -5.047   6.000  0.00  0.00     0.027 A 
ATOM      4  C4  DEN d   1      -0.026  -3.236   5.954  0.00  0.00     0.027 A 
ATOM      5  C5  DEN d   1       0.971  -2.667   5.193  0.00  0.00    -0.003 A 
ATOM      6  C6  DEN d   1       1.268  -3.110   3.931  0.00  0.00     0.001 A 
ATOM      7  C7  DEN d   1       0.531  -4.122   3.375  0.00  0.00     0.017 A 
ATOM      8  C8  DEN d   1      -0.470  -4.706   4.140  0.00  0.00    -0.094 A 
ATOM      9  C9  DEN d   1      -0.764  -4.236   5.409  0.00  0.00    -0.072 A 
ENDROOT
TORSDOF 0
ENDMDL
