MODEL 1
REMARK minimizedAffinity 10.1084547
REMARK minimizedRMSD -1
REMARK  0 active torsions:
REMARK  status: ('A' for Active; 'I' for Inactive)
ROOT
ATOM      1  C1  DEN d   1       3.752  -0.721  -0.759  0.00  0.00     0.130 A 
ATOM      2  C2  DEN d   1       2.313  -0.610  -0.532  0.00  0.00    -0.031 A 
ATOM      3  C3  DEN d   1       2.033   0.755  -0.043  0.00  0.00     0.027 A 
ATOM      4  C4  DEN d   1       3.677   2.697   0.379  0.00  0.00     0.027 A 
ATOM      5  C5  DEN d   1       5.001   3.075   0.342  0.00  0.00    -0.003 A 
ATOM      6  C6  DEN d   1       5.997   2.211  -0.029  0.00  0.00     0.001 A 
ATOM      7  C7  DEN d   1       5.680   0.938  -0.421  0.00  0.00     0.017 A 
ATOM      8  C8  DEN d   1       4.348   0.547  -0.379  0.00  0.00    -0.094 A 
ATOM      9  C9  DEN d   1       3.354   1.439  -0.013  0.00  0.00    -0.072 A 
ENDROOT
TORSDOF 0
ENDMDL
