MODEL 1
REMARK minimizedAffinity 6.70299101
REMARK minimizedRMSD -1
REMARK  0 active torsions:
REMARK  status: ('A' for Active; 'I' for Inactive)
ROOT
ATOM      1  C1  DEN d   1       4.106   1.129   4.651  0.00  0.00     0.130 A 
ATOM      2  C2  DEN d   1       3.879   1.642   6.000  0.00  0.00    -0.031 A 
ATOM      3  C3  DEN d   1       4.193   3.085   5.999  0.00  0.00     0.027 A 
ATOM      4  C4  DEN d   1       5.000   4.568   4.049  0.00  0.00     0.027 A 
ATOM      5  C5  DEN d   1       5.348   4.579   2.717  0.00  0.00    -0.003 A 
ATOM      6  C6  DEN d   1       5.339   3.444   1.950  0.00  0.00     0.001 A 
ATOM      7  C7  DEN d   1       4.932   2.257   2.500  0.00  0.00     0.017 A 
ATOM      8  C8  DEN d   1       4.586   2.237   3.845  0.00  0.00    -0.094 A 
ATOM      9  C9  DEN d   1       4.590   3.397   4.599  0.00  0.00    -0.072 A 
ENDROOT
TORSDOF 0
ENDMDL
