MODEL 1
REMARK minimizedAffinity 17.5736389
REMARK minimizedRMSD -1
REMARK  1 active torsions:
REMARK  status: ('A' for Active; 'I' for Inactive)
REMARK    1  A    between atoms: C1_2  and  C2_3 
ROOT
ATOM      1  C2  UNL d   1       4.088   1.121  -1.108  0.00  0.00    -0.081 A 
ATOM      2  C3  UNL d   1       4.673   1.418   0.129  0.00  0.00     0.006 A 
ATOM      3  C4  UNL d   1       4.226   0.789   1.293  0.00  0.00     0.002 A 
ATOM      4  C5  UNL d   1       3.193  -0.153   1.239  0.00  0.00    -0.080 A 
ATOM      5  C6  UNL d   1       2.724  -0.858   2.477  0.00  0.00     0.076 C 
ATOM      6  C7  UNL d   1       2.597  -0.437   0.006  0.00  0.00     0.002 A 
ATOM      7  C8  UNL d   1       3.042   0.192  -1.158  0.00  0.00     0.006 A 
ENDROOT
BRANCH   1   8
ATOM      8  C1  UNL d   1       4.611   1.749  -2.375  0.00  0.00     0.054 C 
ATOM      9  C   UNL d   1       6.000   2.336  -2.168  0.00  0.00     0.018 C 
ENDBRANCH   1   8
TORSDOF 1
ENDMDL
