MODEL 1
REMARK minimizedAffinity 13.2643299
REMARK minimizedRMSD -1
REMARK  1 active torsions:
REMARK  status: ('A' for Active; 'I' for Inactive)
REMARK    1  A    between atoms: C1_2  and  C2_3 
ROOT
ATOM      1  C2  UNL d   1      -1.201   1.922  -0.181  0.00  0.00    -0.081 A 
ATOM      2  C3  UNL d   1      -1.280   0.805  -1.022  0.00  0.00     0.006 A 
ATOM      3  C4  UNL d   1      -2.414  -0.010  -1.012  0.00  0.00     0.002 A 
ATOM      4  C5  UNL d   1      -3.491   0.282  -0.168  0.00  0.00    -0.080 A 
ATOM      5  C6  UNL d   1      -4.727  -0.567  -0.170  0.00  0.00     0.076 C 
ATOM      6  C7  UNL d   1      -3.405   1.388   0.684  0.00  0.00     0.002 A 
ATOM      7  C8  UNL d   1      -2.271   2.203   0.676  0.00  0.00     0.006 A 
ENDROOT
BRANCH   1   8
ATOM      8  C1  UNL d   1      -0.006   2.839  -0.236  0.00  0.00     0.054 C 
ATOM      9  C   UNL d   1       0.036   3.765   0.972  0.00  0.00     0.018 C 
ENDBRANCH   1   8
TORSDOF 1
ENDMDL
