MODEL 1
REMARK minimizedAffinity 11.3892021
REMARK minimizedRMSD -1
REMARK  1 active torsions:
REMARK  status: ('A' for Active; 'I' for Inactive)
REMARK    1  A    between atoms: C1_2  and  C2_3 
ROOT
ATOM      1  C2  UNL d   1       5.157   1.873  -1.607  0.00  0.00    -0.081 A 
ATOM      2  C3  UNL d   1       5.486   1.974  -0.250  0.00  0.00     0.006 A 
ATOM      3  C4  UNL d   1       4.739   1.291   0.713  0.00  0.00     0.002 A 
ATOM      4  C5  UNL d   1       3.656   0.490   0.334  0.00  0.00    -0.080 A 
ATOM      5  C6  UNL d   1       2.865  -0.272   1.355  0.00  0.00     0.076 C 
ATOM      6  C7  UNL d   1       3.316   0.404  -1.020  0.00  0.00     0.002 A 
ATOM      7  C8  UNL d   1       4.062   1.087  -1.983  0.00  0.00     0.006 A 
ENDROOT
BRANCH   1   8
ATOM      8  C1  UNL d   1       6.000   2.557  -2.653  0.00  0.00     0.054 C 
ATOM      9  C   UNL d   1       5.648   4.033  -2.769  0.00  0.00     0.018 C 
ENDBRANCH   1   8
TORSDOF 1
ENDMDL
