MODEL 1
REMARK minimizedAffinity 4.69512844
REMARK minimizedRMSD -1
REMARK  1 active torsions:
REMARK  status: ('A' for Active; 'I' for Inactive)
REMARK    1  A    between atoms: C1_2  and  C2_3 
ROOT
ATOM      1  C2  UNL d   1       3.127   0.750   0.027  0.00  0.00    -0.081 A 
ATOM      2  C3  UNL d   1       4.045   1.614   0.636  0.00  0.00     0.006 A 
ATOM      3  C4  UNL d   1       4.984   2.306  -0.132  0.00  0.00     0.002 A 
ATOM      4  C5  UNL d   1       5.015   2.152  -1.522  0.00  0.00    -0.080 A 
ATOM      5  C6  UNL d   1       5.998   2.913  -2.362  0.00  0.00     0.076 C 
ATOM      6  C7  UNL d   1       4.109   1.276  -2.130  0.00  0.00     0.002 A 
ATOM      7  C8  UNL d   1       3.171   0.583  -1.362  0.00  0.00     0.006 A 
ENDROOT
BRANCH   1   8
ATOM      8  C1  UNL d   1       2.071   0.052   0.846  0.00  0.00     0.054 C 
ATOM      9  C   UNL d   1       2.653  -0.510   2.135  0.00  0.00     0.018 C 
ENDBRANCH   1   8
TORSDOF 1
ENDMDL
