MODEL 1
REMARK minimizedAffinity 9.56760216
REMARK minimizedRMSD -1
REMARK  1 active torsions:
REMARK  status: ('A' for Active; 'I' for Inactive)
REMARK    1  A    between atoms: C1_2  and  C2_3 
ROOT
ATOM      1  C2  UNL d   1       5.252   1.922  -1.921  0.00  0.00    -0.081 A 
ATOM      2  C3  UNL d   1       4.150   1.115  -2.230  0.00  0.00     0.006 A 
ATOM      3  C4  UNL d   1       3.423   0.490  -1.214  0.00  0.00     0.002 A 
ATOM      4  C5  UNL d   1       3.780   0.669   0.127  0.00  0.00    -0.080 A 
ATOM      5  C6  UNL d   1       2.990   0.028   1.229  0.00  0.00     0.076 C 
ATOM      6  C7  UNL d   1       4.892   1.460   0.435  0.00  0.00     0.002 A 
ATOM      7  C8  UNL d   1       5.620   2.084  -0.581  0.00  0.00     0.006 A 
ENDROOT
BRANCH   1   8
ATOM      8  C1  UNL d   1       5.999   2.648  -3.010  0.00  0.00     0.054 C 
ATOM      9  C   UNL d   1       5.605   4.117  -3.067  0.00  0.00     0.018 C 
ENDBRANCH   1   8
TORSDOF 1
ENDMDL
