MODEL 1
REMARK minimizedAffinity 6.22454214
REMARK minimizedRMSD -1
REMARK  1 active torsions:
REMARK  status: ('A' for Active; 'I' for Inactive)
REMARK    1  A    between atoms: C1_2  and  C2_3 
ROOT
ATOM      1  C2  UNL d   1       3.000   0.386  -0.104  0.00  0.00    -0.081 A 
ATOM      2  C3  UNL d   1       3.931   1.253   0.479  0.00  0.00     0.006 A 
ATOM      3  C4  UNL d   1       4.911   1.869  -0.302  0.00  0.00     0.002 A 
ATOM      4  C5  UNL d   1       4.972   1.634  -1.680  0.00  0.00    -0.080 A 
ATOM      5  C6  UNL d   1       6.000   2.312  -2.536  0.00  0.00     0.076 C 
ATOM      6  C7  UNL d   1       4.052   0.754  -2.260  0.00  0.00     0.002 A 
ATOM      7  C8  UNL d   1       3.072   0.137  -1.479  0.00  0.00     0.006 A 
ENDROOT
BRANCH   1   8
ATOM      8  C1  UNL d   1       1.901  -0.230   0.726  0.00  0.00     0.054 C 
ATOM      9  C   UNL d   1       2.319  -0.367   2.183  0.00  0.00     0.018 C 
ENDBRANCH   1   8
TORSDOF 1
ENDMDL
