MODEL 1
REMARK minimizedAffinity 22.1400757
REMARK minimizedRMSD -1
REMARK  1 active torsions:
REMARK  status: ('A' for Active; 'I' for Inactive)
REMARK    1  A    between atoms: C1_2  and  C2_3 
ROOT
ATOM      1  C2  UNL d   1       1.497   2.689   1.987  0.00  0.00    -0.081 A 
ATOM      2  C3  UNL d   1       0.806   2.735   0.769  0.00  0.00     0.006 A 
ATOM      3  C4  UNL d   1       1.212   1.940  -0.305  0.00  0.00     0.002 A 
ATOM      4  C5  UNL d   1       2.309   1.081  -0.178  0.00  0.00    -0.080 A 
ATOM      5  C6  UNL d   1       2.737   0.200  -1.314  0.00  0.00     0.076 C 
ATOM      6  C7  UNL d   1       3.010   1.048   1.032  0.00  0.00     0.002 A 
ATOM      7  C8  UNL d   1       2.605   1.843   2.107  0.00  0.00     0.006 A 
ENDROOT
BRANCH   1   8
ATOM      8  C1  UNL d   1       1.022   3.497   3.167  0.00  0.00     0.054 C 
ATOM      9  C   UNL d   1       1.136   2.705   4.462  0.00  0.00     0.018 C 
ENDBRANCH   1   8
TORSDOF 1
ENDMDL
