MODEL 1
REMARK minimizedAffinity 12.9471951
REMARK minimizedRMSD -1
REMARK  1 active torsions:
REMARK  status: ('A' for Active; 'I' for Inactive)
REMARK    1  A    between atoms: C1_2  and  C2_3 
ROOT
ATOM      1  C2  UNL d   1       0.865   3.587   1.124  0.00  0.00    -0.081 A 
ATOM      2  C3  UNL d   1       2.064   3.041   1.599  0.00  0.00     0.006 A 
ATOM      3  C4  UNL d   1       2.596   1.888   1.017  0.00  0.00     0.002 A 
ATOM      4  C5  UNL d   1       1.944   1.268  -0.054  0.00  0.00    -0.080 A 
ATOM      5  C6  UNL d   1       2.521   0.047  -0.708  0.00  0.00     0.076 C 
ATOM      6  C7  UNL d   1       0.738   1.804  -0.518  0.00  0.00     0.002 A 
ATOM      7  C8  UNL d   1       0.205   2.956   0.065  0.00  0.00     0.006 A 
ENDROOT
BRANCH   1   8
ATOM      8  C1  UNL d   1       0.322   4.867   1.708  0.00  0.00     0.054 C 
ATOM      9  C   UNL d   1       1.332   6.000   1.593  0.00  0.00     0.018 C 
ENDBRANCH   1   8
TORSDOF 1
ENDMDL
