MODEL 1
REMARK minimizedAffinity -4.34208965
REMARK minimizedRMSD -1
REMARK  0 active torsions:
REMARK  status: ('A' for Active; 'I' for Inactive)
ROOT
ATOM      1  C   UNL d   1      -2.587  -0.827   1.203  0.00  0.00     0.077 C 
ATOM      2  C1  UNL d   1      -1.100  -0.651   1.108  0.00  0.00    -0.074 A 
ATOM      3  C2  UNL d   1      -0.511  -0.127  -0.047  0.00  0.00    -0.005 A 
ATOM      4  C3  UNL d   1       0.872   0.039  -0.118  0.00  0.00     0.006 A 
ATOM      5  C4  UNL d   1       1.679  -0.317   0.964  0.00  0.00    -0.005 A 
ATOM      6  C5  UNL d   1       1.107  -0.841   2.127  0.00  0.00    -0.074 A 
ATOM      7  C6  UNL d   1       1.959  -1.219   3.303  0.00  0.00     0.077 C 
ATOM      8  C7  UNL d   1      -0.284  -0.999   2.193  0.00  0.00    -0.001 A 
ENDROOT
TORSDOF 0
ENDMDL
