MODEL 1
REMARK minimizedAffinity -1.41041815
REMARK minimizedRMSD -1
REMARK  0 active torsions:
REMARK  status: ('A' for Active; 'I' for Inactive)
ROOT
ATOM      1  C   UNL d   1       1.787  -1.462  -1.744  0.00  0.00     0.077 C 
ATOM      2  C1  UNL d   1       1.022  -1.106  -0.504  0.00  0.00    -0.074 A 
ATOM      3  C2  UNL d   1      -0.111  -0.290  -0.567  0.00  0.00    -0.005 A 
ATOM      4  C3  UNL d   1      -0.818   0.024   0.594  0.00  0.00     0.006 A 
ATOM      5  C4  UNL d   1      -0.399  -0.474   1.828  0.00  0.00    -0.005 A 
ATOM      6  C5  UNL d   1       0.732  -1.293   1.911  0.00  0.00    -0.074 A 
ATOM      7  C6  UNL d   1       1.190  -1.845   3.228  0.00  0.00     0.077 C 
ATOM      8  C7  UNL d   1       1.432  -1.610   0.739  0.00  0.00    -0.001 A 
ENDROOT
TORSDOF 0
ENDMDL
