MODEL 1
REMARK minimizedAffinity -3.32780361
REMARK minimizedRMSD -1
REMARK  0 active torsions:
REMARK  status: ('A' for Active; 'I' for Inactive)
ROOT
ATOM      1  C   UNL d   1       1.125   0.055   3.101  0.00  0.00     0.077 C 
ATOM      2  C1  UNL d   1       0.439  -0.159   1.784  0.00  0.00    -0.074 A 
ATOM      3  C2  UNL d   1       1.155  -0.100   0.584  0.00  0.00    -0.005 A 
ATOM      4  C3  UNL d   1       0.506  -0.310  -0.633  0.00  0.00     0.006 A 
ATOM      5  C4  UNL d   1      -0.863  -0.581  -0.662  0.00  0.00    -0.005 A 
ATOM      6  C5  UNL d   1      -1.594  -0.646   0.529  0.00  0.00    -0.074 A 
ATOM      7  C6  UNL d   1      -3.064  -0.946   0.516  0.00  0.00     0.077 C 
ATOM      8  C7  UNL d   1      -0.934  -0.440   1.747  0.00  0.00    -0.001 A 
ENDROOT
TORSDOF 0
ENDMDL
