MODEL 1
REMARK minimizedAffinity -1.78589189
REMARK minimizedRMSD -1
REMARK  0 active torsions:
REMARK  status: ('A' for Active; 'I' for Inactive)
ROOT
ATOM      1  C   UNL d   1       1.300  -0.867  -1.692  0.00  0.00     0.077 C 
ATOM      2  C1  UNL d   1       0.708  -0.601  -0.340  0.00  0.00    -0.074 A 
ATOM      3  C2  UNL d   1      -0.611  -0.157  -0.208  0.00  0.00    -0.005 A 
ATOM      4  C3  UNL d   1      -1.151   0.077   1.056  0.00  0.00     0.006 A 
ATOM      5  C4  UNL d   1      -0.378  -0.129   2.200  0.00  0.00    -0.005 A 
ATOM      6  C5  UNL d   1       0.943  -0.573   2.087  0.00  0.00    -0.074 A 
ATOM      7  C6  UNL d   1       1.785  -0.809   3.306  0.00  0.00     0.077 C 
ATOM      8  C7  UNL d   1       1.476  -0.813   0.813  0.00  0.00    -0.001 A 
ENDROOT
TORSDOF 0
ENDMDL
