MODEL 1
REMARK minimizedAffinity -3.80654693
REMARK minimizedRMSD -1
REMARK  0 active torsions:
REMARK  status: ('A' for Active; 'I' for Inactive)
ROOT
ATOM      1  C   UNL d   1      -1.149  -2.719   3.444  0.00  0.00     0.077 C 
ATOM      2  C1  UNL d   1      -0.266  -1.772   2.687  0.00  0.00    -0.074 A 
ATOM      3  C2  UNL d   1       1.097  -1.668   2.983  0.00  0.00    -0.005 A 
ATOM      4  C3  UNL d   1       1.908  -0.789   2.264  0.00  0.00     0.006 A 
ATOM      5  C4  UNL d   1       1.365  -0.007   1.245  0.00  0.00    -0.005 A 
ATOM      6  C5  UNL d   1       0.004  -0.098   0.934  0.00  0.00    -0.074 A 
ATOM      7  C6  UNL d   1      -0.594   0.729  -0.165  0.00  0.00     0.077 C 
ATOM      8  C7  UNL d   1      -0.803  -0.988   1.656  0.00  0.00    -0.001 A 
ENDROOT
TORSDOF 0
ENDMDL
