MODEL 1
REMARK minimizedAffinity -3.7477951
REMARK minimizedRMSD -1
REMARK  0 active torsions:
REMARK  status: ('A' for Active; 'I' for Inactive)
ROOT
ATOM      1  C   UNL d   1       1.135  -0.663   2.399  0.00  0.00     0.077 C 
ATOM      2  C1  UNL d   1       0.870  -0.679   0.923  0.00  0.00    -0.074 A 
ATOM      3  C2  UNL d   1       1.902  -0.918   0.010  0.00  0.00    -0.005 A 
ATOM      4  C3  UNL d   1       1.638  -0.940  -1.360  0.00  0.00     0.006 A 
ATOM      5  C4  UNL d   1       0.342  -0.723  -1.829  0.00  0.00    -0.005 A 
ATOM      6  C5  UNL d   1      -0.703  -0.484  -0.931  0.00  0.00    -0.074 A 
ATOM      7  C6  UNL d   1      -2.103  -0.259  -1.419  0.00  0.00     0.077 C 
ATOM      8  C7  UNL d   1      -0.431  -0.470   0.444  0.00  0.00    -0.001 A 
ENDROOT
TORSDOF 0
ENDMDL
