MODEL 1
REMARK minimizedAffinity 11.0859957
REMARK minimizedRMSD -1
REMARK  1 active torsions:
REMARK  status: ('A' for Active; 'I' for Inactive)
REMARK    1  A    between atoms: N_2  and  C1_3 
ROOT
ATOM      1  C1  UNL d   1      -2.907  -4.947  -5.654  0.00  0.00     0.143 A 
ATOM      2  C2  UNL d   1      -3.387  -3.647  -5.846  0.00  0.00    -0.057 A 
ATOM      3  C3  UNL d   1      -4.756  -3.394  -6.000  0.00  0.00     0.033 A 
ATOM      4  C4  UNL d   1      -5.668  -4.444  -5.993  0.00  0.00    -0.042 A 
ATOM      5  C5  UNL d   1      -5.211  -5.746  -5.829  0.00  0.00     0.033 A 
ATOM      6  C6  UNL d   1      -3.844  -5.992  -5.669  0.00  0.00    -0.057 A 
ENDROOT
BRANCH   1   7
ATOM      7  N   UNL d   1      -1.550  -5.273  -5.594  0.00  0.00    -0.732 N 
ATOM      8  C   UNL d   1      -0.739  -4.850  -4.473  0.00  0.00     0.284 C 
ATOM      9  H3  UNL d   1      -1.365  -6.224  -5.906  0.00  0.00     0.395 HD
ENDBRANCH   1   7
TORSDOF 1
ENDMDL
