MODEL 1
REMARK minimizedAffinity 7.83051538
REMARK minimizedRMSD -1
REMARK  1 active torsions:
REMARK  status: ('A' for Active; 'I' for Inactive)
REMARK    1  A    between atoms: N_2  and  C1_3 
ROOT
ATOM      1  C1  UNL d   1      -2.364   4.480  -2.281  0.00  0.00     0.143 A 
ATOM      2  C2  UNL d   1      -1.789   5.510  -1.528  0.00  0.00    -0.057 A 
ATOM      3  C3  UNL d   1      -0.675   5.278  -0.713  0.00  0.00     0.033 A 
ATOM      4  C4  UNL d   1      -0.132   4.001  -0.613  0.00  0.00    -0.042 A 
ATOM      5  C5  UNL d   1      -0.703   2.957  -1.332  0.00  0.00     0.033 A 
ATOM      6  C6  UNL d   1      -1.811   3.196  -2.150  0.00  0.00    -0.057 A 
ENDROOT
BRANCH   1   7
ATOM      7  N   UNL d   1      -3.532   4.626  -3.033  0.00  0.00    -0.732 N 
ATOM      8  C   UNL d   1      -4.786   4.958  -2.392  0.00  0.00     0.284 C 
ATOM      9  H3  UNL d   1      -3.371   5.117  -3.910  0.00  0.00     0.395 HD
ENDBRANCH   1   7
TORSDOF 1
ENDMDL
