MODEL 1
REMARK minimizedAffinity -6.10175657
REMARK minimizedRMSD -1
REMARK  0 active torsions:
REMARK  status: ('A' for Active; 'I' for Inactive)
ROOT
ATOM      1  C2' OXE d   1      -0.580  -0.881   0.927  0.00  0.00     0.078 C 
ATOM      2  C1' OXE d   1       0.422   1.595   0.063  0.00  0.00     0.078 C 
ATOM      3  C1  OXE d   1       0.791   0.369  -0.735  0.00  0.00    -0.078 A 
ATOM      4  C2  OXE d   1       0.335  -0.844  -0.279  0.00  0.00    -0.078 A 
ATOM      5  C3  OXE d   1       0.600  -1.999  -1.008  0.00  0.00     0.003 A 
ATOM      6  C4  OXE d   1       1.455  -1.957  -2.116  0.00  0.00    -0.002 A 
ATOM      7  C5  OXE d   1       1.963  -0.737  -2.575  0.00  0.00    -0.002 A 
ATOM      8  C6  OXE d   1       1.607   0.438  -1.923  0.00  0.00     0.003 A 
ENDROOT
TORSDOF 0
ENDMDL
