MODEL 1
REMARK minimizedAffinity 6.38505793
REMARK minimizedRMSD -1
REMARK  0 active torsions:
REMARK  status: ('A' for Active; 'I' for Inactive)
ROOT
ATOM      1  C2' OXE d   1       1.298  -0.463  -3.630  0.00  0.00     0.078 C 
ATOM      2  C1' OXE d   1       0.725  -1.779  -1.218  0.00  0.00     0.078 C 
ATOM      3  C1  OXE d   1       1.087  -0.317  -1.153  0.00  0.00    -0.078 A 
ATOM      4  C2  OXE d   1       1.411   0.308  -2.333  0.00  0.00    -0.078 A 
ATOM      5  C3  OXE d   1       1.699   1.670  -2.336  0.00  0.00     0.003 A 
ATOM      6  C4  OXE d   1       1.812   2.373  -1.130  0.00  0.00    -0.002 A 
ATOM      7  C5  OXE d   1       1.525   1.746   0.087  0.00  0.00    -0.002 A 
ATOM      8  C6  OXE d   1       1.120   0.416   0.089  0.00  0.00     0.003 A 
ENDROOT
TORSDOF 0
ENDMDL
