MODEL 1
REMARK minimizedAffinity -3.67375565
REMARK minimizedRMSD -1
REMARK  0 active torsions:
REMARK  status: ('A' for Active; 'I' for Inactive)
ROOT
ATOM      1  C2' OXE d   1      -0.510  -0.045   0.950  0.00  0.00     0.078 C 
ATOM      2  C1' OXE d   1       1.362   2.041   0.780  0.00  0.00     0.078 C 
ATOM      3  C1  OXE d   1       1.199   1.142  -0.420  0.00  0.00    -0.078 A 
ATOM      4  C2  OXE d   1       0.315   0.095  -0.311  0.00  0.00    -0.078 A 
ATOM      5  C3  OXE d   1       0.087  -0.731  -1.407  0.00  0.00     0.003 A 
ATOM      6  C4  OXE d   1       0.861  -0.601  -2.567  0.00  0.00    -0.002 A 
ATOM      7  C5  OXE d   1       1.795   0.433  -2.684  0.00  0.00    -0.002 A 
ATOM      8  C6  OXE d   1       1.946   1.337  -1.638  0.00  0.00     0.003 A 
ENDROOT
TORSDOF 0
ENDMDL
