MODEL 1
REMARK minimizedAffinity -5.11740971
REMARK minimizedRMSD -1
REMARK  0 active torsions:
REMARK  status: ('A' for Active; 'I' for Inactive)
ROOT
ATOM      1  C2' OXE d   1      -0.256  -2.003  -0.405  0.00  0.00     0.078 C 
ATOM      2  C1' OXE d   1      -0.611   0.471   0.871  0.00  0.00     0.078 C 
ATOM      3  C1  OXE d   1       0.209   0.444  -0.394  0.00  0.00    -0.078 A 
ATOM      4  C2  OXE d   1       0.417  -0.779  -0.987  0.00  0.00    -0.078 A 
ATOM      5  C3  OXE d   1       1.120  -0.853  -2.186  0.00  0.00     0.003 A 
ATOM      6  C4  OXE d   1       1.747   0.283  -2.711  0.00  0.00    -0.002 A 
ATOM      7  C5  OXE d   1       1.581   1.531  -2.102  0.00  0.00    -0.002 A 
ATOM      8  C6  OXE d   1       0.782   1.636  -0.969  0.00  0.00     0.003 A 
ENDROOT
TORSDOF 0
ENDMDL
