MODEL 1
REMARK minimizedAffinity -3.46712494
REMARK minimizedRMSD -1
REMARK  0 active torsions:
REMARK  status: ('A' for Active; 'I' for Inactive)
ROOT
ATOM      1  C2' OXE d   1      -0.069  -2.216  -1.894  0.00  0.00     0.078 C 
ATOM      2  C1' OXE d   1       1.000   0.041  -3.175  0.00  0.00     0.078 C 
ATOM      3  C1  OXE d   1       0.674   0.154  -1.707  0.00  0.00    -0.078 A 
ATOM      4  C2  OXE d   1       0.108  -0.941  -1.099  0.00  0.00    -0.078 A 
ATOM      5  C3  OXE d   1      -0.162  -0.909   0.266  0.00  0.00     0.003 A 
ATOM      6  C4  OXE d   1      -0.004   0.278   0.992  0.00  0.00    -0.002 A 
ATOM      7  C5  OXE d   1       0.534   1.417   0.383  0.00  0.00    -0.002 A 
ATOM      8  C6  OXE d   1       0.917   1.359  -0.952  0.00  0.00     0.003 A 
ENDROOT
TORSDOF 0
ENDMDL
