MODEL 1
REMARK minimizedAffinity -5.16435623
REMARK minimizedRMSD -1
REMARK  0 active torsions:
REMARK  status: ('A' for Active; 'I' for Inactive)
ROOT
ATOM      1  C2' OXE d   1       0.976   1.940   0.763  0.00  0.00     0.078 C 
ATOM      2  C1' OXE d   1      -0.861  -0.141   1.181  0.00  0.00     0.078 C 
ATOM      3  C1  OXE d   1      -0.179  -0.063  -0.162  0.00  0.00    -0.078 A 
ATOM      4  C2  OXE d   1       0.683   0.986  -0.374  0.00  0.00    -0.078 A 
ATOM      5  C3  OXE d   1       1.380   1.074  -1.576  0.00  0.00     0.003 A 
ATOM      6  C4  OXE d   1       1.095   0.192  -2.626  0.00  0.00    -0.002 A 
ATOM      7  C5  OXE d   1       0.191  -0.859  -2.445  0.00  0.00    -0.002 A 
ATOM      8  C6  OXE d   1      -0.422  -1.026  -1.208  0.00  0.00     0.003 A 
ENDROOT
TORSDOF 0
ENDMDL
