MODEL 1
REMARK minimizedAffinity -4.21771955
REMARK minimizedRMSD -1
REMARK  0 active torsions:
REMARK  status: ('A' for Active; 'I' for Inactive)
ROOT
ATOM      1  C2' OXE d   1       1.702  -0.275  -2.842  0.00  0.00     0.078 C 
ATOM      2  C1' OXE d   1       0.645  -2.623  -1.724  0.00  0.00     0.078 C 
ATOM      3  C1  OXE d   1       0.529  -1.349  -0.925  0.00  0.00    -0.078 A 
ATOM      4  C2  OXE d   1       1.091  -0.214  -1.459  0.00  0.00    -0.078 A 
ATOM      5  C3  OXE d   1       0.964   0.999  -0.788  0.00  0.00     0.003 A 
ATOM      6  C4  OXE d   1       0.406   1.045   0.495  0.00  0.00    -0.002 A 
ATOM      7  C5  OXE d   1      -0.136  -0.107   1.075  0.00  0.00    -0.002 A 
ATOM      8  C6  OXE d   1      -0.121  -1.301   0.362  0.00  0.00     0.003 A 
ENDROOT
TORSDOF 0
ENDMDL
