MODEL 1
REMARK minimizedAffinity -5.6072998
REMARK minimizedRMSD -1
REMARK  0 active torsions:
REMARK  status: ('A' for Active; 'I' for Inactive)
ROOT
ATOM      1  C2' OXE d   1      -0.672  -0.732   1.079  0.00  0.00     0.078 C 
ATOM      2  C1' OXE d   1       0.290  -2.489  -0.888  0.00  0.00     0.078 C 
ATOM      3  C1  OXE d   1       0.551  -1.016  -1.073  0.00  0.00    -0.078 A 
ATOM      4  C2  OXE d   1       0.037  -0.159  -0.130  0.00  0.00    -0.078 A 
ATOM      5  C3  OXE d   1       0.296   1.206  -0.223  0.00  0.00     0.003 A 
ATOM      6  C4  OXE d   1       0.944   1.728  -1.349  0.00  0.00    -0.002 A 
ATOM      7  C5  OXE d   1       1.441   0.877  -2.341  0.00  0.00    -0.002 A 
ATOM      8  C6  OXE d   1       1.291  -0.498  -2.197  0.00  0.00     0.003 A 
ENDROOT
TORSDOF 0
ENDMDL
