MODEL 1
REMARK minimizedAffinity -4.11319351
REMARK minimizedRMSD -1
REMARK  0 active torsions:
REMARK  status: ('A' for Active; 'I' for Inactive)
ROOT
ATOM      1  C2' OXE d   1       0.067  -2.376  -0.927  0.00  0.00     0.078 C 
ATOM      2  C1' OXE d   1      -0.508  -0.657   1.217  0.00  0.00     0.078 C 
ATOM      3  C1  OXE d   1       0.300  -0.105   0.070  0.00  0.00    -0.078 A 
ATOM      4  C2  OXE d   1       0.617  -0.966  -0.953  0.00  0.00    -0.078 A 
ATOM      5  C3  OXE d   1       1.314  -0.493  -2.062  0.00  0.00     0.003 A 
ATOM      6  C4  OXE d   1       1.827   0.809  -2.073  0.00  0.00    -0.002 A 
ATOM      7  C5  OXE d   1       1.550   1.691  -1.023  0.00  0.00    -0.002 A 
ATOM      8  C6  OXE d   1       0.754   1.264   0.033  0.00  0.00     0.003 A 
ENDROOT
TORSDOF 0
ENDMDL
