MODEL 1
REMARK minimizedAffinity -3.63230252
REMARK minimizedRMSD -1
REMARK  0 active torsions:
REMARK  status: ('A' for Active; 'I' for Inactive)
ROOT
ATOM      1  C2' OXE d   1       1.061   0.780   1.296  0.00  0.00     0.078 C 
ATOM      2  C1' OXE d   1      -0.629  -1.431   0.925  0.00  0.00     0.078 C 
ATOM      3  C1  OXE d   1      -0.096  -0.739  -0.305  0.00  0.00    -0.078 A 
ATOM      4  C2  OXE d   1       0.693   0.370  -0.114  0.00  0.00    -0.078 A 
ATOM      5  C3  OXE d   1       1.255   1.013  -1.213  0.00  0.00     0.003 A 
ATOM      6  C4  OXE d   1       0.901   0.633  -2.514  0.00  0.00    -0.002 A 
ATOM      7  C5  OXE d   1       0.068  -0.469  -2.730  0.00  0.00    -0.002 A 
ATOM      8  C6  OXE d   1      -0.404  -1.191  -1.639  0.00  0.00     0.003 A 
ENDROOT
TORSDOF 0
ENDMDL
