MODEL 1
REMARK minimizedAffinity -2.46952701
REMARK minimizedRMSD -1
REMARK  0 active torsions:
REMARK  status: ('A' for Active; 'I' for Inactive)
ROOT
ATOM      1  C2' OXE d   1       1.113   1.986   0.772  0.00  0.00     0.078 C 
ATOM      2  C1' OXE d   1      -0.848   0.004   1.100  0.00  0.00     0.078 C 
ATOM      3  C1  OXE d   1       0.021  -0.063  -0.131  0.00  0.00    -0.078 A 
ATOM      4  C2  OXE d   1       0.946   0.938  -0.307  0.00  0.00    -0.078 A 
ATOM      5  C3  OXE d   1       1.809   0.894  -1.398  0.00  0.00     0.003 A 
ATOM      6  C4  OXE d   1       1.642  -0.073  -2.396  0.00  0.00    -0.002 A 
ATOM      7  C5  OXE d   1       0.679  -1.078  -2.257  0.00  0.00    -0.002 A 
ATOM      8  C6  OXE d   1      -0.109  -1.112  -1.112  0.00  0.00     0.003 A 
ENDROOT
TORSDOF 0
ENDMDL
