MODEL 1
REMARK minimizedAffinity -0.787719548
REMARK minimizedRMSD -1
REMARK  0 active torsions:
REMARK  status: ('A' for Active; 'I' for Inactive)
ROOT
ATOM      1  C2' OXE d   1       1.956   0.371  -2.010  0.00  0.00     0.078 C 
ATOM      2  C1' OXE d   1       0.832  -2.115  -1.350  0.00  0.00     0.078 C 
ATOM      3  C1  OXE d   1       0.356  -0.903  -0.588  0.00  0.00    -0.078 A 
ATOM      4  C2  OXE d   1       0.945   0.302  -0.886  0.00  0.00    -0.078 A 
ATOM      5  C3  OXE d   1       0.505   1.460  -0.251  0.00  0.00     0.003 A 
ATOM      6  C4  OXE d   1      -0.423   1.386   0.794  0.00  0.00    -0.002 A 
ATOM      7  C5  OXE d   1      -1.007   0.163   1.140  0.00  0.00    -0.002 A 
ATOM      8  C6  OXE d   1      -0.660  -0.982   0.432  0.00  0.00     0.003 A 
ENDROOT
TORSDOF 0
ENDMDL
