MODEL 1
REMARK minimizedAffinity -4.45550776
REMARK minimizedRMSD -1
REMARK  0 active torsions:
REMARK  status: ('A' for Active; 'I' for Inactive)
ROOT
ATOM      1  C2' OXE d   1       0.887   1.933  -0.282  0.00  0.00     0.078 C 
ATOM      2  C1' OXE d   1       1.237   0.178  -2.444  0.00  0.00     0.078 C 
ATOM      3  C1  OXE d   1       0.736  -0.399  -1.144  0.00  0.00    -0.078 A 
ATOM      4  C2  OXE d   1       0.612   0.459  -0.078  0.00  0.00    -0.078 A 
ATOM      5  C3  OXE d   1       0.103  -0.011   1.129  0.00  0.00     0.003 A 
ATOM      6  C4  OXE d   1      -0.139  -1.377   1.313  0.00  0.00    -0.002 A 
ATOM      7  C5  OXE d   1       0.018  -2.275   0.252  0.00  0.00    -0.002 A 
ATOM      8  C6  OXE d   1       0.413  -1.796  -0.993  0.00  0.00     0.003 A 
ENDROOT
TORSDOF 0
ENDMDL
