MODEL 1
REMARK minimizedAffinity -2.30457139
REMARK minimizedRMSD -1
REMARK  0 active torsions:
REMARK  status: ('A' for Active; 'I' for Inactive)
ROOT
ATOM      1  C2' OXE d   1      -1.621   1.882   3.869  0.00  0.00     0.078 C 
ATOM      2  C1' OXE d   1      -0.883  -0.390   2.396  0.00  0.00     0.078 C 
ATOM      3  C1  OXE d   1      -2.271   0.162   2.189  0.00  0.00    -0.078 A 
ATOM      4  C2  OXE d   1      -2.640   1.246   2.948  0.00  0.00    -0.078 A 
ATOM      5  C3  OXE d   1      -3.890   1.828   2.757  0.00  0.00     0.003 A 
ATOM      6  C4  OXE d   1      -4.829   1.228   1.910  0.00  0.00    -0.002 A 
ATOM      7  C5  OXE d   1      -4.488   0.100   1.157  0.00  0.00    -0.002 A 
ATOM      8  C6  OXE d   1      -3.201  -0.419   1.253  0.00  0.00     0.003 A 
ENDROOT
TORSDOF 0
ENDMDL
