MODEL 1
REMARK minimizedAffinity 2.73149204
REMARK minimizedRMSD -1
REMARK  0 active torsions:
REMARK  status: ('A' for Active; 'I' for Inactive)
ROOT
ATOM      1  C2' OXE d   1       2.043   0.373  -1.723  0.00  0.00     0.078 C 
ATOM      2  C1' OXE d   1       0.649   2.103  -0.008  0.00  0.00     0.078 C 
ATOM      3  C1  OXE d   1       0.394   0.623   0.127  0.00  0.00    -0.078 A 
ATOM      4  C2  OXE d   1       1.046  -0.213  -0.748  0.00  0.00    -0.078 A 
ATOM      5  C3  OXE d   1       0.888  -1.591  -0.631  0.00  0.00     0.003 A 
ATOM      6  C4  OXE d   1      -0.044  -2.125   0.268  0.00  0.00    -0.002 A 
ATOM      7  C5  OXE d   1      -0.748  -1.288   1.141  0.00  0.00    -0.002 A 
ATOM      8  C6  OXE d   1      -0.509   0.082   1.112  0.00  0.00     0.003 A 
ENDROOT
TORSDOF 0
ENDMDL
