MODEL 1
REMARK minimizedAffinity -0.238369912
REMARK minimizedRMSD -1
REMARK  0 active torsions:
REMARK  status: ('A' for Active; 'I' for Inactive)
ROOT
ATOM      1  C2' OXE d   1       0.289  -2.328  -1.344  0.00  0.00     0.078 C 
ATOM      2  C1' OXE d   1       1.652  -0.012  -2.154  0.00  0.00     0.078 C 
ATOM      3  C1  OXE d   1       0.868   0.048  -0.867  0.00  0.00    -0.078 A 
ATOM      4  C2  OXE d   1       0.166  -1.076  -0.503  0.00  0.00    -0.078 A 
ATOM      5  C3  OXE d   1      -0.530  -1.093   0.703  0.00  0.00     0.003 A 
ATOM      6  C4  OXE d   1      -0.647   0.072   1.470  0.00  0.00    -0.002 A 
ATOM      7  C5  OXE d   1       0.028   1.239   1.097  0.00  0.00    -0.002 A 
ATOM      8  C6  OXE d   1       0.822   1.231  -0.044  0.00  0.00     0.003 A 
ENDROOT
TORSDOF 0
ENDMDL
