MODEL 1
REMARK minimizedAffinity 32.9523506
REMARK minimizedRMSD -1
REMARK  0 active torsions:
REMARK  status: ('A' for Active; 'I' for Inactive)
ROOT
ATOM      1  C   UNL d   1      -1.038   2.587  -1.612  0.00  0.00     0.124 A 
ATOM      2  C1  UNL d   1       0.065   2.969  -0.861  0.00  0.00     0.062 A 
ATOM      3  C2  UNL d   1       0.936   3.942  -1.342  0.00  0.00     0.162 A 
ATOM      4  C3  UNL d   1       0.708   4.541  -2.581  0.00  0.00    -0.034 A 
ATOM      5  C4  UNL d   1      -0.403   4.151  -3.331  0.00  0.00     0.162 A 
ATOM      6  C5  UNL d   1      -1.271   3.178  -2.845  0.00  0.00     0.062 A 
ATOM      7  F   UNL d   1      -2.336   2.810  -3.573  0.00  0.00    -0.097 F 
ATOM      8  F1  UNL d   1      -0.653   4.707  -4.526  0.00  0.00    -0.096 F 
ATOM      9  I   UNL d   1       2.008   5.997  -3.303  0.00  0.00    -0.060 I 
ATOM     10  F2  UNL d   1       1.994   4.292  -0.595  0.00  0.00    -0.096 F 
ATOM     11  F3  UNL d   1       0.293   2.399   0.331  0.00  0.00    -0.097 F 
ATOM     12  F4  UNL d   1      -1.874   1.650  -1.147  0.00  0.00    -0.092 F 
ENDROOT
TORSDOF 0
ENDMDL
