MODEL 1
REMARK minimizedAffinity 18.2028065
REMARK minimizedRMSD -1
REMARK  0 active torsions:
REMARK  status: ('A' for Active; 'I' for Inactive)
ROOT
ATOM      1  C   UNL d   1      -0.958   2.825  -2.972  0.00  0.00     0.124 A 
ATOM      2  C1  UNL d   1      -2.100   2.078  -2.721  0.00  0.00     0.062 A 
ATOM      3  C2  UNL d   1      -2.349   1.585  -1.443  0.00  0.00     0.162 A 
ATOM      4  C3  UNL d   1      -1.452   1.839  -0.405  0.00  0.00    -0.034 A 
ATOM      5  C4  UNL d   1      -0.305   2.590  -0.665  0.00  0.00     0.162 A 
ATOM      6  C5  UNL d   1      -0.061   3.080  -1.944  0.00  0.00     0.062 A 
ATOM      7  F   UNL d   1       1.043   3.802  -2.184  0.00  0.00    -0.097 F 
ATOM      8  F1  UNL d   1       0.578   2.853   0.310  0.00  0.00    -0.096 F 
ATOM      9  I   UNL d   1      -1.820   1.104   1.507  0.00  0.00    -0.060 I 
ATOM     10  F2  UNL d   1      -3.461   0.866  -1.230  0.00  0.00    -0.096 F 
ATOM     11  F3  UNL d   1      -2.968   1.829  -3.713  0.00  0.00    -0.097 F 
ATOM     12  F4  UNL d   1      -0.721   3.297  -4.202  0.00  0.00    -0.092 F 
ENDROOT
TORSDOF 0
ENDMDL
