MODEL 1
REMARK minimizedAffinity 19.010128
REMARK minimizedRMSD -1
REMARK  0 active torsions:
REMARK  status: ('A' for Active; 'I' for Inactive)
ROOT
ATOM      1  C   UNL d   1       3.145  -4.121  -2.743  0.00  0.00     0.124 A 
ATOM      2  C1  UNL d   1       3.899  -3.672  -3.819  0.00  0.00     0.062 A 
ATOM      3  C2  UNL d   1       3.340  -2.802  -4.751  0.00  0.00     0.162 A 
ATOM      4  C3  UNL d   1       2.020  -2.373  -4.610  0.00  0.00    -0.034 A 
ATOM      5  C4  UNL d   1       1.268  -2.829  -3.525  0.00  0.00     0.162 A 
ATOM      6  C5  UNL d   1       1.832  -3.699  -2.597  0.00  0.00     0.062 A 
ATOM      7  F   UNL d   1       1.102  -4.131  -1.558  0.00  0.00    -0.097 F 
ATOM      8  F1  UNL d   1      -0.003  -2.437  -3.359  0.00  0.00    -0.096 F 
ATOM      9  I   UNL d   1       1.180  -1.072  -6.000  0.00  0.00    -0.060 I 
ATOM     10  F2  UNL d   1       4.091  -2.385  -5.781  0.00  0.00    -0.096 F 
ATOM     11  F3  UNL d   1       5.168  -4.079  -3.963  0.00  0.00    -0.097 F 
ATOM     12  F4  UNL d   1       3.686  -4.959  -1.849  0.00  0.00    -0.092 F 
ENDROOT
TORSDOF 0
ENDMDL
