MODEL 1
REMARK minimizedAffinity 26.6569767
REMARK minimizedRMSD -1
REMARK  0 active torsions:
REMARK  status: ('A' for Active; 'I' for Inactive)
ROOT
ATOM      1  C   UNL d   1      -4.624   5.834  -0.254  0.00  0.00     0.124 A 
ATOM      2  C1  UNL d   1      -4.120   5.735  -1.543  0.00  0.00     0.062 A 
ATOM      3  C2  UNL d   1      -2.745   5.705  -1.757  0.00  0.00     0.162 A 
ATOM      4  C3  UNL d   1      -1.863   5.773  -0.678  0.00  0.00    -0.034 A 
ATOM      5  C4  UNL d   1      -2.378   5.873   0.616  0.00  0.00     0.162 A 
ATOM      6  C5  UNL d   1      -3.753   5.903   0.824  0.00  0.00     0.062 A 
ATOM      7  F   UNL d   1      -4.238   5.998   2.071  0.00  0.00    -0.097 F 
ATOM      8  F1  UNL d   1      -1.558   5.940   1.676  0.00  0.00    -0.096 F 
ATOM      9  I   UNL d   1       0.193   5.728  -0.994  0.00  0.00    -0.060 I 
ATOM     10  F2  UNL d   1      -2.286   5.609  -3.014  0.00  0.00    -0.096 F 
ATOM     11  F3  UNL d   1      -4.960   5.669  -2.587  0.00  0.00    -0.097 F 
ATOM     12  F4  UNL d   1      -5.947   5.864  -0.051  0.00  0.00    -0.092 F 
ENDROOT
TORSDOF 0
ENDMDL
