MODEL 1
REMARK minimizedAffinity 33.5667038
REMARK minimizedRMSD -1
REMARK  0 active torsions:
REMARK  status: ('A' for Active; 'I' for Inactive)
ROOT
ATOM      1  C   UNL d   1      -1.188   2.432  -1.907  0.00  0.00     0.124 A 
ATOM      2  C1  UNL d   1      -1.533   3.104  -3.071  0.00  0.00     0.062 A 
ATOM      3  C2  UNL d   1      -0.718   4.122  -3.558  0.00  0.00     0.162 A 
ATOM      4  C3  UNL d   1       0.451   4.473  -2.882  0.00  0.00    -0.034 A 
ATOM      5  C4  UNL d   1       0.790   3.792  -1.711  0.00  0.00     0.162 A 
ATOM      6  C5  UNL d   1      -0.028   2.776  -1.228  0.00  0.00     0.062 A 
ATOM      7  F   UNL d   1       0.306   2.127  -0.103  0.00  0.00    -0.097 F 
ATOM      8  F1  UNL d   1       1.906   4.104  -1.036  0.00  0.00    -0.096 F 
ATOM      9  I   UNL d   1       1.672   5.994  -3.607  0.00  0.00    -0.060 I 
ATOM     10  F2  UNL d   1      -1.075   4.755  -4.685  0.00  0.00    -0.096 F 
ATOM     11  F3  UNL d   1      -2.654   2.774  -3.728  0.00  0.00    -0.097 F 
ATOM     12  F4  UNL d   1      -1.975   1.453  -1.440  0.00  0.00    -0.092 F 
ENDROOT
TORSDOF 0
ENDMDL
