MODEL 1
REMARK minimizedAffinity 28.5550632
REMARK minimizedRMSD -1
REMARK  0 active torsions:
REMARK  status: ('A' for Active; 'I' for Inactive)
ROOT
ATOM      1  C   UNL d   1       0.333   3.884  -1.714  0.00  0.00     0.124 A 
ATOM      2  C1  UNL d   1      -0.728   3.544  -2.543  0.00  0.00     0.062 A 
ATOM      3  C2  UNL d   1      -1.683   2.625  -2.117  0.00  0.00     0.162 A 
ATOM      4  C3  UNL d   1      -1.583   2.040  -0.855  0.00  0.00    -0.034 A 
ATOM      5  C4  UNL d   1      -0.513   2.386  -0.027  0.00  0.00     0.162 A 
ATOM      6  C5  UNL d   1       0.439   3.304  -0.457  0.00  0.00     0.062 A 
ATOM      7  F   UNL d   1       1.463   3.631   0.345  0.00  0.00    -0.097 F 
ATOM      8  F1  UNL d   1      -0.386   1.842   1.192  0.00  0.00    -0.096 F 
ATOM      9  I   UNL d   1      -3.009   0.666  -0.214  0.00  0.00    -0.060 I 
ATOM     10  F2  UNL d   1      -2.697   2.316  -2.939  0.00  0.00    -0.096 F 
ATOM     11  F3  UNL d   1      -0.832   4.101  -3.758  0.00  0.00    -0.097 F 
ATOM     12  F4  UNL d   1       1.251   4.767  -2.127  0.00  0.00    -0.092 F 
ENDROOT
TORSDOF 0
ENDMDL
