MODEL 1
REMARK minimizedAffinity 29.2770252
REMARK minimizedRMSD -1
REMARK  0 active torsions:
REMARK  status: ('A' for Active; 'I' for Inactive)
ROOT
ATOM      1  C   UNL d   1       1.409  -2.746  -0.003  0.00  0.00     0.124 A 
ATOM      2  C1  UNL d   1       1.310  -3.456  -1.191  0.00  0.00     0.062 A 
ATOM      3  C2  UNL d   1       2.287  -4.385  -1.535  0.00  0.00     0.162 A 
ATOM      4  C3  UNL d   1       3.373  -4.610  -0.689  0.00  0.00    -0.034 A 
ATOM      5  C4  UNL d   1       3.467  -3.891   0.504  0.00  0.00     0.162 A 
ATOM      6  C5  UNL d   1       2.487  -2.964   0.843  0.00  0.00     0.062 A 
ATOM      7  F   UNL d   1       2.585  -2.278   1.991  0.00  0.00    -0.097 F 
ATOM      8  F1  UNL d   1       4.497  -4.083   1.341  0.00  0.00    -0.096 F 
ATOM      9  I   UNL d   1       4.837  -5.999  -1.200  0.00  0.00    -0.060 I 
ATOM     10  F2  UNL d   1       2.165  -5.058  -2.689  0.00  0.00    -0.096 F 
ATOM     11  F3  UNL d   1       0.269  -3.247  -2.011  0.00  0.00    -0.097 F 
ATOM     12  F4  UNL d   1       0.467  -1.852   0.325  0.00  0.00    -0.092 F 
ENDROOT
TORSDOF 0
ENDMDL
