MODEL 1
REMARK minimizedAffinity 42.3186874
REMARK minimizedRMSD -1
REMARK  0 active torsions:
REMARK  status: ('A' for Active; 'I' for Inactive)
ROOT
ATOM      1  C   UNL d   1       1.618  -3.383  -0.813  0.00  0.00     0.124 A 
ATOM      2  C1  UNL d   1       2.291  -4.500  -1.289  0.00  0.00     0.062 A 
ATOM      3  C2  UNL d   1       3.541  -4.836  -0.777  0.00  0.00     0.162 A 
ATOM      4  C3  UNL d   1       4.126  -4.053   0.219  0.00  0.00    -0.034 A 
ATOM      5  C4  UNL d   1       3.444  -2.931   0.692  0.00  0.00     0.162 A 
ATOM      6  C5  UNL d   1       2.195  -2.600   0.176  0.00  0.00     0.062 A 
ATOM      7  F   UNL d   1       1.547  -1.520   0.637  0.00  0.00    -0.097 F 
ATOM      8  F1  UNL d   1       3.978  -2.157   1.648  0.00  0.00    -0.096 F 
ATOM      9  I   UNL d   1       5.995  -4.552   0.988  0.00  0.00    -0.060 I 
ATOM     10  F2  UNL d   1       4.168  -5.920  -1.255  0.00  0.00    -0.096 F 
ATOM     11  F3  UNL d   1       1.736  -5.258  -2.246  0.00  0.00    -0.097 F 
ATOM     12  F4  UNL d   1       0.416  -3.062  -1.309  0.00  0.00    -0.092 F 
ENDROOT
TORSDOF 0
ENDMDL
