MODEL 1
REMARK minimizedAffinity 41.2801666
REMARK minimizedRMSD -1
REMARK  0 active torsions:
REMARK  status: ('A' for Active; 'I' for Inactive)
ROOT
ATOM      1  C   UNL d   1      -4.686   2.825  -3.628  0.00  0.00     0.124 A 
ATOM      2  C1  UNL d   1      -3.762   2.082  -4.350  0.00  0.00     0.062 A 
ATOM      3  C2  UNL d   1      -2.399   2.285  -4.160  0.00  0.00     0.162 A 
ATOM      4  C3  UNL d   1      -1.949   3.235  -3.242  0.00  0.00    -0.034 A 
ATOM      5  C4  UNL d   1      -2.884   3.979  -2.520  0.00  0.00     0.162 A 
ATOM      6  C5  UNL d   1      -4.246   3.772  -2.714  0.00  0.00     0.062 A 
ATOM      7  F   UNL d   1      -5.137   4.491  -2.015  0.00  0.00    -0.097 F 
ATOM      8  F1  UNL d   1      -2.486   4.900  -1.630  0.00  0.00    -0.096 F 
ATOM      9  I   UNL d   1       0.089   3.541  -2.955  0.00  0.00    -0.060 I 
ATOM     10  F2  UNL d   1      -1.529   1.553  -4.872  0.00  0.00    -0.096 F 
ATOM     11  F3  UNL d   1      -4.185   1.167  -5.234  0.00  0.00    -0.097 F 
ATOM     12  F4  UNL d   1      -5.998   2.629  -3.813  0.00  0.00    -0.092 F 
ENDROOT
TORSDOF 0
ENDMDL
