MODEL 1
REMARK minimizedAffinity 19.5317745
REMARK minimizedRMSD -1
REMARK  0 active torsions:
REMARK  status: ('A' for Active; 'I' for Inactive)
ROOT
ATOM      1  C   UNL d   1      -2.068   1.859   2.109  0.00  0.00     0.124 A 
ATOM      2  C1  UNL d   1      -2.748   2.993   1.685  0.00  0.00     0.062 A 
ATOM      3  C2  UNL d   1      -2.237   3.769   0.649  0.00  0.00     0.162 A 
ATOM      4  C3  UNL d   1      -1.040   3.413   0.027  0.00  0.00    -0.034 A 
ATOM      5  C4  UNL d   1      -0.362   2.271   0.459  0.00  0.00     0.162 A 
ATOM      6  C5  UNL d   1      -0.876   1.500   1.496  0.00  0.00     0.062 A 
ATOM      7  F   UNL d   1      -0.219   0.404   1.904  0.00  0.00    -0.097 F 
ATOM      8  F1  UNL d   1       0.791   1.900  -0.116  0.00  0.00    -0.096 F 
ATOM      9  I   UNL d   1      -0.273   4.570  -1.523  0.00  0.00    -0.060 I 
ATOM     10  F2  UNL d   1      -2.914   4.859   0.260  0.00  0.00    -0.096 F 
ATOM     11  F3  UNL d   1      -3.899   3.343   2.277  0.00  0.00    -0.097 F 
ATOM     12  F4  UNL d   1      -2.562   1.115   3.107  0.00  0.00    -0.092 F 
ENDROOT
TORSDOF 0
ENDMDL
