MODEL 1
REMARK minimizedAffinity 30.8793793
REMARK minimizedRMSD -1
REMARK  0 active torsions:
REMARK  status: ('A' for Active; 'I' for Inactive)
ROOT
ATOM      1  C   UNL d   1      -1.725   4.571  -2.984  0.00  0.00     0.124 A 
ATOM      2  C1  UNL d   1      -1.029   4.277  -1.820  0.00  0.00     0.062 A 
ATOM      3  C2  UNL d   1      -1.589   4.563  -0.578  0.00  0.00     0.162 A 
ATOM      4  C3  UNL d   1      -2.854   5.145  -0.494  0.00  0.00    -0.034 A 
ATOM      5  C4  UNL d   1      -3.548   5.438  -1.669  0.00  0.00     0.162 A 
ATOM      6  C5  UNL d   1      -2.983   5.150  -2.908  0.00  0.00     0.062 A 
ATOM      7  F   UNL d   1      -3.658   5.434  -4.032  0.00  0.00    -0.097 F 
ATOM      8  F1  UNL d   1      -4.766   5.997  -1.625  0.00  0.00    -0.096 F 
ATOM      9  I   UNL d   1      -3.695   5.574   1.361  0.00  0.00    -0.060 I 
ATOM     10  F2  UNL d   1      -0.893   4.269   0.531  0.00  0.00    -0.096 F 
ATOM     11  F3  UNL d   1       0.188   3.718  -1.891  0.00  0.00    -0.097 F 
ATOM     12  F4  UNL d   1      -1.183   4.296  -4.177  0.00  0.00    -0.092 F 
ENDROOT
TORSDOF 0
ENDMDL
