MODEL 1
REMARK minimizedAffinity 13.5714588
REMARK minimizedRMSD -1
REMARK  0 active torsions:
REMARK  status: ('A' for Active; 'I' for Inactive)
ROOT
ATOM      1  C   UNL d   1      -0.860   3.666  -2.168  0.00  0.00     0.124 A 
ATOM      2  C1  UNL d   1      -0.130   4.247  -1.140  0.00  0.00     0.062 A 
ATOM      3  C2  UNL d   1      -0.077   3.640   0.111  0.00  0.00     0.162 A 
ATOM      4  C3  UNL d   1      -0.757   2.444   0.342  0.00  0.00    -0.034 A 
ATOM      5  C4  UNL d   1      -1.490   1.866  -0.696  0.00  0.00     0.162 A 
ATOM      6  C5  UNL d   1      -1.540   2.477  -1.944  0.00  0.00     0.062 A 
ATOM      7  F   UNL d   1      -2.246   1.914  -2.936  0.00  0.00    -0.097 F 
ATOM      8  F1  UNL d   1      -2.155   0.717  -0.508  0.00  0.00    -0.096 F 
ATOM      9  I   UNL d   1      -0.681   1.533   2.212  0.00  0.00    -0.060 I 
ATOM     10  F2  UNL d   1       0.637   4.223   1.086  0.00  0.00    -0.096 F 
ATOM     11  F3  UNL d   1       0.527   5.397  -1.353  0.00  0.00    -0.097 F 
ATOM     12  F4  UNL d   1      -0.910   4.253  -3.370  0.00  0.00    -0.092 F 
ENDROOT
TORSDOF 0
ENDMDL
