MODEL 1
REMARK minimizedAffinity 4.47573185
REMARK minimizedRMSD -1
REMARK  0 active torsions:
REMARK  status: ('A' for Active; 'I' for Inactive)
ROOT
ATOM      1  C   UNL d   1      -2.303   0.594   3.109  0.00  0.00     0.124 A 
ATOM      2  C1  UNL d   1      -2.994   1.677   2.585  0.00  0.00     0.062 A 
ATOM      3  C2  UNL d   1      -2.408   2.472   1.603  0.00  0.00     0.162 A 
ATOM      4  C3  UNL d   1      -1.125   2.185   1.138  0.00  0.00    -0.034 A 
ATOM      5  C4  UNL d   1      -0.436   1.094   1.671  0.00  0.00     0.162 A 
ATOM      6  C5  UNL d   1      -1.026   0.303   2.652  0.00  0.00     0.062 A 
ATOM      7  F   UNL d   1      -0.357  -0.744   3.158  0.00  0.00    -0.097 F 
ATOM      8  F1  UNL d   1       0.799   0.790   1.247  0.00  0.00    -0.096 F 
ATOM      9  I   UNL d   1      -0.246   3.370  -0.329  0.00  0.00    -0.060 I 
ATOM     10  F2  UNL d   1      -3.099   3.513   1.114  0.00  0.00    -0.096 F 
ATOM     11  F3  UNL d   1      -4.228   1.961   3.025  0.00  0.00    -0.097 F 
ATOM     12  F4  UNL d   1      -2.868  -0.168   4.054  0.00  0.00    -0.092 F 
ENDROOT
TORSDOF 0
ENDMDL
