MODEL 1
REMARK minimizedAffinity 10.9990873
REMARK minimizedRMSD -1
REMARK  0 active torsions:
REMARK  status: ('A' for Active; 'I' for Inactive)
ROOT
ATOM      1  C   UNL d   1      -0.375   4.528  -1.875  0.00  0.00     0.124 A 
ATOM      2  C1  UNL d   1       0.376   4.872  -0.759  0.00  0.00     0.062 A 
ATOM      3  C2  UNL d   1       0.378   4.048   0.363  0.00  0.00     0.162 A 
ATOM      4  C3  UNL d   1      -0.372   2.872   0.375  0.00  0.00    -0.034 A 
ATOM      5  C4  UNL d   1      -1.125   2.534  -0.751  0.00  0.00     0.162 A 
ATOM      6  C5  UNL d   1      -1.124   3.361  -1.870  0.00  0.00     0.062 A 
ATOM      7  F   UNL d   1      -1.850   3.027  -2.948  0.00  0.00    -0.097 F 
ATOM      8  F1  UNL d   1      -1.858   1.411  -0.774  0.00  0.00    -0.096 F 
ATOM      9  I   UNL d   1      -0.371   1.639   2.051  0.00  0.00    -0.060 I 
ATOM     10  F2  UNL d   1       1.113   4.405   1.427  0.00  0.00    -0.096 F 
ATOM     11  F3  UNL d   1       1.100   6.000  -0.761  0.00  0.00    -0.097 F 
ATOM     12  F4  UNL d   1      -0.376   5.323  -2.953  0.00  0.00    -0.092 F 
ENDROOT
TORSDOF 0
ENDMDL
