MODEL 1
REMARK minimizedAffinity 14.7496634
REMARK minimizedRMSD -1
REMARK  0 active torsions:
REMARK  status: ('A' for Active; 'I' for Inactive)
ROOT
ATOM      1  C   UNL d   1       0.012   4.258  -1.362  0.00  0.00     0.124 A 
ATOM      2  C1  UNL d   1      -0.937   3.925  -2.319  0.00  0.00     0.062 A 
ATOM      3  C2  UNL d   1      -1.734   2.796  -2.151  0.00  0.00     0.162 A 
ATOM      4  C3  UNL d   1      -1.586   1.992  -1.020  0.00  0.00    -0.034 A 
ATOM      5  C4  UNL d   1      -0.628   2.332  -0.063  0.00  0.00     0.162 A 
ATOM      6  C5  UNL d   1       0.166   3.462  -0.236  0.00  0.00     0.062 A 
ATOM      7  F   UNL d   1       1.082   3.782   0.689  0.00  0.00    -0.097 F 
ATOM      8  F1  UNL d   1      -0.459   1.581   1.035  0.00  0.00    -0.096 F 
ATOM      9  I   UNL d   1      -2.775   0.303  -0.765  0.00  0.00    -0.060 I 
ATOM     10  F2  UNL d   1      -2.643   2.498  -3.091  0.00  0.00    -0.096 F 
ATOM     11  F3  UNL d   1      -1.087   4.692  -3.408  0.00  0.00    -0.097 F 
ATOM     12  F4  UNL d   1       0.778   5.344  -1.527  0.00  0.00    -0.092 F 
ENDROOT
TORSDOF 0
ENDMDL
