MODEL 1
REMARK minimizedAffinity -3.61608791
REMARK minimizedRMSD -1
REMARK  0 active torsions:
REMARK  status: ('A' for Active; 'I' for Inactive)
ROOT
ATOM      1  C   UNL d   1       1.270   0.391  -0.063  0.00  0.00     0.020 A 
ATOM      2  C1  UNL d   1       0.339   0.973  -0.923  0.00  0.00     0.020 A 
ATOM      3  C2  UNL d   1      -0.981   0.520  -0.932  0.00  0.00     0.034 A 
ATOM      4  C3  UNL d   1      -1.375  -0.519  -0.080  0.00  0.00     0.017 A 
ATOM      5  C4  UNL d   1      -0.440  -1.102   0.782  0.00  0.00     0.017 A 
ATOM      6  C5  UNL d   1       0.881  -0.644   0.787  0.00  0.00     0.034 A 
ATOM      7 Cl   UNL d   1      -0.851  -2.388   1.862  0.00  0.00    -0.070 Cl
ATOM      8 Cl1  UNL d   1      -3.025  -1.029  -0.144  0.00  0.00    -0.070 Cl
ENDROOT
TORSDOF 0
ENDMDL
