MODEL 1
REMARK minimizedAffinity -5.299119
REMARK minimizedRMSD -1
REMARK  0 active torsions:
REMARK  status: ('A' for Active; 'I' for Inactive)
ROOT
ATOM      1  C   UNL d   1       0.683   0.877  -0.968  0.00  0.00     0.020 A 
ATOM      2  C1  UNL d   1      -0.431   1.320  -1.680  0.00  0.00     0.020 A 
ATOM      3  C2  UNL d   1      -1.686   0.759  -1.433  0.00  0.00     0.034 A 
ATOM      4  C3  UNL d   1      -1.830  -0.248  -0.471  0.00  0.00     0.017 A 
ATOM      5  C4  UNL d   1      -0.711  -0.691   0.244  0.00  0.00     0.017 A 
ATOM      6  C5  UNL d   1       0.543  -0.126  -0.008  0.00  0.00     0.034 A 
ATOM      7 Cl   UNL d   1      -0.810  -1.929   1.446  0.00  0.00    -0.070 Cl
ATOM      8 Cl1  UNL d   1      -3.411  -0.896  -0.217  0.00  0.00    -0.070 Cl
ENDROOT
TORSDOF 0
ENDMDL
