MODEL 1
REMARK minimizedAffinity 0.739131927
REMARK minimizedRMSD -1
REMARK  0 active torsions:
REMARK  status: ('A' for Active; 'I' for Inactive)
ROOT
ATOM      1  C   UNL d   1       1.529   0.019   0.564  0.00  0.00     0.020 A 
ATOM      2  C1  UNL d   1       0.607   0.886  -0.020  0.00  0.00     0.020 A 
ATOM      3  C2  UNL d   1      -0.756   0.586   0.019  0.00  0.00     0.034 A 
ATOM      4  C3  UNL d   1      -1.202  -0.584   0.644  0.00  0.00     0.017 A 
ATOM      5  C4  UNL d   1      -0.276  -1.454   1.231  0.00  0.00     0.017 A 
ATOM      6  C5  UNL d   1       1.088  -1.149   1.188  0.00  0.00     0.034 A 
ATOM      7 Cl   UNL d   1      -0.750  -2.917   2.020  0.00  0.00    -0.070 Cl
ATOM      8 Cl1  UNL d   1      -2.902  -0.891   0.656  0.00  0.00    -0.070 Cl
ENDROOT
TORSDOF 0
ENDMDL
