MODEL 1
REMARK minimizedAffinity 0.574017465
REMARK minimizedRMSD -1
REMARK  0 active torsions:
REMARK  status: ('A' for Active; 'I' for Inactive)
ROOT
ATOM      1  C   UNL d   1      -1.518  -0.014   1.231  0.00  0.00     0.020 A 
ATOM      2  C1  UNL d   1      -1.517   1.192   1.932  0.00  0.00     0.020 A 
ATOM      3  C2  UNL d   1      -0.409   2.039   1.861  0.00  0.00     0.034 A 
ATOM      4  C3  UNL d   1       0.702   1.683   1.088  0.00  0.00     0.017 A 
ATOM      5  C4  UNL d   1       0.699   0.473   0.385  0.00  0.00     0.017 A 
ATOM      6  C5  UNL d   1      -0.412  -0.373   0.459  0.00  0.00     0.034 A 
ATOM      7 Cl   UNL d   1       2.033  -0.036  -0.590  0.00  0.00    -0.070 Cl
ATOM      8 Cl1  UNL d   1       2.036   2.779   1.045  0.00  0.00    -0.070 Cl
ENDROOT
TORSDOF 0
ENDMDL
