MODEL 1
REMARK minimizedAffinity -5.2741828
REMARK minimizedRMSD -1
REMARK  0 active torsions:
REMARK  status: ('A' for Active; 'I' for Inactive)
ROOT
ATOM      1  C   UNL d   1      -0.715   0.523  -0.490  0.00  0.00     0.020 A 
ATOM      2  C1  UNL d   1      -1.899   0.620  -1.219  0.00  0.00     0.020 A 
ATOM      3  C2  UNL d   1      -2.893  -0.349  -1.069  0.00  0.00     0.034 A 
ATOM      4  C3  UNL d   1      -2.705  -1.420  -0.188  0.00  0.00     0.017 A 
ATOM      5  C4  UNL d   1      -1.516  -1.517   0.544  0.00  0.00     0.017 A 
ATOM      6  C5  UNL d   1      -0.524  -0.543   0.390  0.00  0.00     0.034 A 
ATOM      7 Cl   UNL d   1      -1.212  -2.809   1.651  0.00  0.00    -0.070 Cl
ATOM      8 Cl1  UNL d   1      -3.977  -2.582  -0.052  0.00  0.00    -0.070 Cl
ENDROOT
TORSDOF 0
ENDMDL
