MODEL 1
REMARK minimizedAffinity 1.18272662
REMARK minimizedRMSD -1
REMARK  0 active torsions:
REMARK  status: ('A' for Active; 'I' for Inactive)
ROOT
ATOM      1  C   UNL d   1       0.793   0.916  -0.392  0.00  0.00     0.020 A 
ATOM      2  C1  UNL d   1       0.921  -0.438  -0.698  0.00  0.00     0.020 A 
ATOM      3  C2  UNL d   1       0.827  -1.395   0.314  0.00  0.00     0.034 A 
ATOM      4  C3  UNL d   1       0.604  -0.999   1.638  0.00  0.00     0.017 A 
ATOM      5  C4  UNL d   1       0.475   0.360   1.945  0.00  0.00     0.017 A 
ATOM      6  C5  UNL d   1       0.570   1.314   0.927  0.00  0.00     0.034 A 
ATOM      7 Cl   UNL d   1       0.199   0.925   3.554  0.00  0.00    -0.070 Cl
ATOM      8 Cl1  UNL d   1       0.497  -2.237   2.840  0.00  0.00    -0.070 Cl
ENDROOT
TORSDOF 0
ENDMDL
