MODEL 1
REMARK minimizedAffinity -5.31236219
REMARK minimizedRMSD -1
REMARK  0 active torsions:
REMARK  status: ('A' for Active; 'I' for Inactive)
ROOT
ATOM      1  C   UNL d   1      -3.383  -1.559  -0.082  0.00  0.00     0.020 A 
ATOM      2  C1  UNL d   1      -3.111  -0.382  -0.777  0.00  0.00     0.020 A 
ATOM      3  C2  UNL d   1      -1.843   0.199  -0.697  0.00  0.00     0.034 A 
ATOM      4  C3  UNL d   1      -0.844  -0.398   0.080  0.00  0.00     0.017 A 
ATOM      5  C4  UNL d   1      -1.118  -1.580   0.777  0.00  0.00     0.017 A 
ATOM      6  C5  UNL d   1      -2.389  -2.157   0.694  0.00  0.00     0.034 A 
ATOM      7 Cl   UNL d   1       0.064  -2.375   1.756  0.00  0.00    -0.070 Cl
ATOM      8 Cl1  UNL d   1       0.701   0.374   0.133  0.00  0.00    -0.070 Cl
ENDROOT
TORSDOF 0
ENDMDL
