MODEL 1
REMARK minimizedAffinity -2.71224475
REMARK minimizedRMSD -1
REMARK  0 active torsions:
REMARK  status: ('A' for Active; 'I' for Inactive)
ROOT
ATOM      1  C   UNL d   1       1.324  -0.095   0.061  0.00  0.00     0.020 A 
ATOM      2  C1  UNL d   1       1.509  -1.151   0.952  0.00  0.00     0.020 A 
ATOM      3  C2  UNL d   1       0.507  -2.111   1.114  0.00  0.00     0.034 A 
ATOM      4  C3  UNL d   1      -0.683  -2.016   0.385  0.00  0.00     0.017 A 
ATOM      5  C4  UNL d   1      -0.868  -0.955  -0.509  0.00  0.00     0.017 A 
ATOM      6  C5  UNL d   1       0.138   0.003  -0.668  0.00  0.00     0.034 A 
ATOM      7 Cl   UNL d   1      -2.310  -0.771  -1.444  0.00  0.00    -0.070 Cl
ATOM      8 Cl1  UNL d   1      -1.879  -3.238   0.635  0.00  0.00    -0.070 Cl
ENDROOT
TORSDOF 0
ENDMDL
