MODEL 1
REMARK minimizedAffinity -5.22276497
REMARK minimizedRMSD -1
REMARK  0 active torsions:
REMARK  status: ('A' for Active; 'I' for Inactive)
ROOT
ATOM      1  C   UNL d   1      -2.964  -1.468   0.269  0.00  0.00     0.020 A 
ATOM      2  C1  UNL d   1      -2.088  -1.953   1.240  0.00  0.00     0.020 A 
ATOM      3  C2  UNL d   1      -0.763  -1.515   1.266  0.00  0.00     0.034 A 
ATOM      4  C3  UNL d   1      -0.309  -0.588   0.320  0.00  0.00     0.017 A 
ATOM      5  C4  UNL d   1      -1.189  -0.101  -0.653  0.00  0.00     0.017 A 
ATOM      6  C5  UNL d   1      -2.515  -0.544  -0.675  0.00  0.00     0.034 A 
ATOM      7 Cl   UNL d   1      -0.703   1.044  -1.853  0.00  0.00    -0.070 Cl
ATOM      8 Cl1  UNL d   1       1.343  -0.089   0.412  0.00  0.00    -0.070 Cl
ENDROOT
TORSDOF 0
ENDMDL
