MODEL 1
REMARK minimizedAffinity -1.62706375
REMARK minimizedRMSD -1
REMARK  0 active torsions:
REMARK  status: ('A' for Active; 'I' for Inactive)
ROOT
ATOM      1  C   UNL d   1      -0.783   1.276  -1.275  0.00  0.00     0.020 A 
ATOM      2  C1  UNL d   1      -1.068   0.002  -0.786  0.00  0.00     0.020 A 
ATOM      3  C2  UNL d   1      -0.118  -0.681  -0.023  0.00  0.00     0.034 A 
ATOM      4  C3  UNL d   1       1.121  -0.090   0.252  0.00  0.00     0.017 A 
ATOM      5  C4  UNL d   1       1.405   1.189  -0.240  0.00  0.00     0.017 A 
ATOM      6  C5  UNL d   1       0.450   1.868  -1.003  0.00  0.00     0.034 A 
ATOM      7 Cl   UNL d   1       2.911   1.983   0.059  0.00  0.00    -0.070 Cl
ATOM      8 Cl1  UNL d   1       2.248  -0.992   1.202  0.00  0.00    -0.070 Cl
ENDROOT
TORSDOF 0
ENDMDL
