MODEL 1
REMARK minimizedAffinity 0.853400886
REMARK minimizedRMSD -1
REMARK  0 active torsions:
REMARK  status: ('A' for Active; 'I' for Inactive)
ROOT
ATOM      1  C   UNL d   1       2.327   0.594   1.014  0.00  0.00     0.020 A 
ATOM      2  C1  UNL d   1       2.225   1.713   1.840  0.00  0.00     0.020 A 
ATOM      3  C2  UNL d   1       1.131   1.851   2.696  0.00  0.00     0.034 A 
ATOM      4  C3  UNL d   1       0.133   0.870   2.728  0.00  0.00     0.017 A 
ATOM      5  C4  UNL d   1       0.236  -0.253   1.898  0.00  0.00     0.017 A 
ATOM      6  C5  UNL d   1       1.335  -0.386   1.043  0.00  0.00     0.034 A 
ATOM      7 Cl   UNL d   1      -0.954  -1.505   1.881  0.00  0.00    -0.070 Cl
ATOM      8 Cl1  UNL d   1      -1.192   1.106   3.811  0.00  0.00    -0.070 Cl
ENDROOT
TORSDOF 0
ENDMDL
