MODEL 1
REMARK minimizedAffinity 7.42587519
REMARK minimizedRMSD -1
REMARK  0 active torsions:
REMARK  status: ('A' for Active; 'I' for Inactive)
ROOT
ATOM      1  C   UNL d   1       1.515  -2.107   2.460  0.00  0.00     0.020 A 
ATOM      2  C1  UNL d   1       1.630  -1.078   3.394  0.00  0.00     0.020 A 
ATOM      3  C2  UNL d   1       0.719  -0.020   3.383  0.00  0.00     0.034 A 
ATOM      4  C3  UNL d   1      -0.310   0.013   2.435  0.00  0.00     0.017 A 
ATOM      5  C4  UNL d   1      -0.424  -1.020   1.497  0.00  0.00     0.017 A 
ATOM      6  C5  UNL d   1       0.490  -2.077   1.514  0.00  0.00     0.034 A 
ATOM      7 Cl   UNL d   1      -1.668  -1.049   0.297  0.00  0.00    -0.070 Cl
ATOM      8 Cl1  UNL d   1      -1.400   1.353   2.479  0.00  0.00    -0.070 Cl
ENDROOT
TORSDOF 0
ENDMDL
