MODEL 1
REMARK minimizedAffinity -1.99738073
REMARK minimizedRMSD -1
REMARK  0 active torsions:
REMARK  status: ('A' for Active; 'I' for Inactive)
ROOT
ATOM      1  C   UNL d   1      -2.398  -1.474   0.498  0.00  0.00     0.020 A 
ATOM      2  C1  UNL d   1      -2.771  -1.569  -0.842  0.00  0.00     0.020 A 
ATOM      3  C2  UNL d   1      -1.990  -0.964  -1.829  0.00  0.00     0.034 A 
ATOM      4  C3  UNL d   1      -0.832  -0.261  -1.477  0.00  0.00     0.017 A 
ATOM      5  C4  UNL d   1      -0.458  -0.167  -0.131  0.00  0.00     0.017 A 
ATOM      6  C5  UNL d   1      -1.244  -0.775   0.852  0.00  0.00     0.034 A 
ATOM      7 Cl   UNL d   1       0.957   0.683   0.380  0.00  0.00    -0.070 Cl
ATOM      8 Cl1  UNL d   1       0.087   0.463  -2.749  0.00  0.00    -0.070 Cl
ENDROOT
TORSDOF 0
ENDMDL
