MODEL 1
REMARK minimizedAffinity -2.67549658
REMARK minimizedRMSD -1
REMARK  0 active torsions:
REMARK  status: ('A' for Active; 'I' for Inactive)
ROOT
ATOM      1  C   UNL d   1       3.240   2.782   1.307  0.00  0.00     0.020 A 
ATOM      2  C1  UNL d   1       2.074   3.440   0.917  0.00  0.00     0.020 A 
ATOM      3  C2  UNL d   1       0.991   2.710   0.424  0.00  0.00     0.034 A 
ATOM      4  C3  UNL d   1       1.071   1.316   0.319  0.00  0.00     0.017 A 
ATOM      5  C4  UNL d   1       2.242   0.656   0.710  0.00  0.00     0.017 A 
ATOM      6  C5  UNL d   1       3.323   1.393   1.203  0.00  0.00     0.034 A 
ATOM      7 Cl   UNL d   1       2.415  -1.060   0.610  0.00  0.00    -0.070 Cl
ATOM      8 Cl1  UNL d   1      -0.307   0.476  -0.299  0.00  0.00    -0.070 Cl
ENDROOT
TORSDOF 0
ENDMDL
