MODEL 1
REMARK minimizedAffinity -0.210274681
REMARK minimizedRMSD -1
REMARK  0 active torsions:
REMARK  status: ('A' for Active; 'I' for Inactive)
ROOT
ATOM      1  C   UNL d   1       2.844   2.820   1.689  0.00  0.00     0.020 A 
ATOM      2  C1  UNL d   1       1.770   3.492   1.108  0.00  0.00     0.020 A 
ATOM      3  C2  UNL d   1       0.766   2.772   0.457  0.00  0.00     0.034 A 
ATOM      4  C3  UNL d   1       0.834   1.376   0.385  0.00  0.00     0.017 A 
ATOM      5  C4  UNL d   1       1.913   0.702   0.969  0.00  0.00     0.017 A 
ATOM      6  C5  UNL d   1       2.915   1.428   1.620  0.00  0.00     0.034 A 
ATOM      7 Cl   UNL d   1       2.066  -1.019   0.922  0.00  0.00    -0.070 Cl
ATOM      8 Cl1  UNL d   1      -0.443   0.551  -0.435  0.00  0.00    -0.070 Cl
ENDROOT
TORSDOF 0
ENDMDL
