MODEL 1
REMARK minimizedAffinity -0.246343181
REMARK minimizedRMSD -1
REMARK  0 active torsions:
REMARK  status: ('A' for Active; 'I' for Inactive)
ROOT
ATOM      1  C   UNL d   1       1.276   0.145   0.304  0.00  0.00     0.020 A 
ATOM      2  C1  UNL d   1       0.997   0.750   1.528  0.00  0.00     0.020 A 
ATOM      3  C2  UNL d   1       1.659   1.925   1.893  0.00  0.00     0.034 A 
ATOM      4  C3  UNL d   1       2.602   2.497   1.033  0.00  0.00     0.017 A 
ATOM      5  C4  UNL d   1       2.882   1.889  -0.196  0.00  0.00     0.017 A 
ATOM      6  C5  UNL d   1       2.216   0.713  -0.557  0.00  0.00     0.034 A 
ATOM      7 Cl   UNL d   1       4.033   2.536  -1.311  0.00  0.00    -0.070 Cl
ATOM      8 Cl1  UNL d   1       3.382   3.951   1.548  0.00  0.00    -0.070 Cl
ENDROOT
TORSDOF 0
ENDMDL
