MODEL 1
REMARK minimizedAffinity -4.51946068
REMARK minimizedRMSD -1
REMARK  0 active torsions:
REMARK  status: ('A' for Active; 'I' for Inactive)
ROOT
ATOM      1  C   UNL d   1       1.453   0.199   0.495  0.00  0.00     0.020 A 
ATOM      2  C1  UNL d   1       0.531  -0.619   1.145  0.00  0.00     0.020 A 
ATOM      3  C2  UNL d   1      -0.739  -0.813   0.597  0.00  0.00     0.034 A 
ATOM      4  C3  UNL d   1      -1.090  -0.187  -0.605  0.00  0.00     0.017 A 
ATOM      5  C4  UNL d   1      -0.163   0.634  -1.257  0.00  0.00     0.017 A 
ATOM      6  C5  UNL d   1       1.107   0.825  -0.703  0.00  0.00     0.034 A 
ATOM      7 Cl   UNL d   1      -0.523   1.440  -2.743  0.00  0.00    -0.070 Cl
ATOM      8 Cl1  UNL d   1      -2.677  -0.472  -1.226  0.00  0.00    -0.070 Cl
ENDROOT
TORSDOF 0
ENDMDL
