MODEL 1
REMARK minimizedAffinity 3.64460135
REMARK minimizedRMSD -1
REMARK  1 active torsions:
REMARK  status: ('A' for Active; 'I' for Inactive)
REMARK    1  A    between atoms: N_2  and  C1_3 
ROOT
ATOM      1  C1  UNL d   1       1.573  -0.488  -5.361  0.00  0.00     0.143 A 
ATOM      2  C2  UNL d   1       0.329  -0.610  -5.989  0.00  0.00    -0.057 A 
ATOM      3  C3  UNL d   1      -0.757  -1.209  -5.339  0.00  0.00     0.033 A 
ATOM      4  C4  UNL d   1      -0.608  -1.725  -4.055  0.00  0.00    -0.042 A 
ATOM      5  C5  UNL d   1       0.626  -1.637  -3.422  0.00  0.00     0.033 A 
ATOM      6  C6  UNL d   1       1.705  -1.031  -4.074  0.00  0.00    -0.057 A 
ENDROOT
BRANCH   1   7
ATOM      7  N   UNL d   1       2.717   0.009  -5.992  0.00  0.00    -0.732 N 
ATOM      8  C   UNL d   1       3.975  -0.701  -5.902  0.00  0.00     0.284 C 
ATOM      9  H3  UNL d   1       2.518   0.388  -6.915  0.00  0.00     0.395 HD
ENDBRANCH   1   7
TORSDOF 1
ENDMDL
