MODEL 1
REMARK minimizedAffinity 2.52531743
REMARK minimizedRMSD -1
REMARK  1 active torsions:
REMARK  status: ('A' for Active; 'I' for Inactive)
REMARK    1  A    between atoms: N_2  and  C1_3 
ROOT
ATOM      1  C1  UNL d   1       1.688  -4.898  -3.417  0.00  0.00     0.143 A 
ATOM      2  C2  UNL d   1       0.295  -5.015  -3.481  0.00  0.00    -0.057 A 
ATOM      3  C3  UNL d   1      -0.337  -5.557  -4.607  0.00  0.00     0.033 A 
ATOM      4  C4  UNL d   1       0.414  -5.966  -5.704  0.00  0.00    -0.042 A 
ATOM      5  C5  UNL d   1       1.798  -5.837  -5.672  0.00  0.00     0.033 A 
ATOM      6  C6  UNL d   1       2.424  -5.301  -4.543  0.00  0.00    -0.057 A 
ENDROOT
BRANCH   1   7
ATOM      7  N   UNL d   1       2.369  -4.278  -2.367  0.00  0.00    -0.732 N 
ATOM      8  C   UNL d   1       2.257  -2.850  -2.157  0.00  0.00     0.284 C 
ATOM      9  H3  UNL d   1       2.346  -4.827  -1.511  0.00  0.00     0.395 HD
ENDBRANCH   1   7
TORSDOF 1
ENDMDL
