MODEL 1
REMARK minimizedAffinity 4.26449776
REMARK minimizedRMSD -1
REMARK  1 active torsions:
REMARK  status: ('A' for Active; 'I' for Inactive)
REMARK    1  A    between atoms: N_2  and  C1_3 
ROOT
ATOM      1  C1  UNL d   1       1.327  -1.542   3.666  0.00  0.00     0.143 A 
ATOM      2  C2  UNL d   1       0.877  -1.071   4.904  0.00  0.00    -0.057 A 
ATOM      3  C3  UNL d   1       1.747  -0.953   5.995  0.00  0.00     0.033 A 
ATOM      4  C4  UNL d   1       3.080  -1.332   5.874  0.00  0.00    -0.042 A 
ATOM      5  C5  UNL d   1       3.543  -1.826   4.660  0.00  0.00     0.033 A 
ATOM      6  C6  UNL d   1       2.671  -1.935   3.572  0.00  0.00    -0.057 A 
ENDROOT
BRANCH   1   7
ATOM      7  N   UNL d   1       0.490  -1.775   2.572  0.00  0.00    -0.732 N 
ATOM      8  C   UNL d   1      -0.780  -2.446   2.745  0.00  0.00     0.284 C 
ATOM      9  H3  UNL d   1       0.459  -0.985   1.931  0.00  0.00     0.395 HD
ENDBRANCH   1   7
TORSDOF 1
ENDMDL
