MODEL 1
REMARK minimizedAffinity 2.14523649
REMARK minimizedRMSD -1
REMARK  1 active torsions:
REMARK  status: ('A' for Active; 'I' for Inactive)
REMARK    1  A    between atoms: N_2  and  C1_3 
ROOT
ATOM      1  C1  UNL d   1       0.127   0.184   2.631  0.00  0.00     0.143 A 
ATOM      2  C2  UNL d   1      -1.201  -0.124   2.317  0.00  0.00    -0.057 A 
ATOM      3  C3  UNL d   1      -1.676  -1.439   2.383  0.00  0.00     0.033 A 
ATOM      4  C4  UNL d   1      -0.821  -2.477   2.738  0.00  0.00    -0.042 A 
ATOM      5  C5  UNL d   1       0.509  -2.198   3.030  0.00  0.00     0.033 A 
ATOM      6  C6  UNL d   1       0.976  -0.881   2.969  0.00  0.00    -0.057 A 
ENDROOT
BRANCH   1   7
ATOM      7  N   UNL d   1       0.685   1.457   2.489  0.00  0.00    -0.732 N 
ATOM      8  C   UNL d   1       1.991   1.627   1.891  0.00  0.00     0.284 C 
ATOM      9  H3  UNL d   1       0.000   2.151   2.197  0.00  0.00     0.395 HD
ENDBRANCH   1   7
TORSDOF 1
ENDMDL
