MODEL 1
REMARK minimizedAffinity 8.27442455
REMARK minimizedRMSD -1
REMARK  1 active torsions:
REMARK  status: ('A' for Active; 'I' for Inactive)
REMARK    1  A    between atoms: N_2  and  C1_3 
ROOT
ATOM      1  C1  UNL d   1       1.815  -0.754  -5.117  0.00  0.00     0.143 A 
ATOM      2  C2  UNL d   1       2.215  -1.346  -3.915  0.00  0.00    -0.057 A 
ATOM      3  C3  UNL d   1       3.569  -1.475  -3.583  0.00  0.00     0.033 A 
ATOM      4  C4  UNL d   1       4.552  -1.038  -4.465  0.00  0.00    -0.042 A 
ATOM      5  C5  UNL d   1       4.178  -0.469  -5.678  0.00  0.00     0.033 A 
ATOM      6  C6  UNL d   1       2.824  -0.337  -6.000  0.00  0.00    -0.057 A 
ENDROOT
BRANCH   1   7
ATOM      7  N   UNL d   1       0.488  -0.686  -5.548  0.00  0.00    -0.732 N 
ATOM      8  C   UNL d   1      -0.512  -1.576  -4.998  0.00  0.00     0.284 C 
ATOM      9  H3  UNL d   1       0.168   0.272  -5.672  0.00  0.00     0.395 HD
ENDBRANCH   1   7
TORSDOF 1
ENDMDL
