MODEL 1
REMARK minimizedAffinity -4.96681738
REMARK minimizedRMSD -1
REMARK  1 active torsions:
REMARK  status: ('A' for Active; 'I' for Inactive)
REMARK    1  A    between atoms: C1_2  and  C2_3 
ROOT
ATOM      1  C2  UNL d   1      -0.335  -0.053  -0.201  0.00  0.00    -0.076 A 
ATOM      2  C3  UNL d   1      -0.349  -1.407   0.177  0.00  0.00     0.004 A 
ATOM      3  C4  UNL d   1       0.704  -2.256  -0.158  0.00  0.00    -0.003 A 
ATOM      4  C5  UNL d   1       1.789  -1.766  -0.875  0.00  0.00     0.000 A 
ATOM      5  C6  UNL d   1       1.828  -0.421  -1.243  0.00  0.00     0.000 A 
ATOM      6  C7  UNL d   1       0.783   0.453  -0.899  0.00  0.00    -0.073 A 
ATOM      7  C8  UNL d   1       0.875   1.892  -1.327  0.00  0.00     0.078 C 
ENDROOT
BRANCH   1   8
ATOM      8  C1  UNL d   1      -1.518   0.815   0.167  0.00  0.00     0.053 C 
ATOM      9  C   UNL d   1      -1.894   0.695   1.635  0.00  0.00     0.018 C 
ENDBRANCH   1   8
TORSDOF 1
ENDMDL
