MODEL 1
REMARK minimizedAffinity 0.524261713
REMARK minimizedRMSD -1
REMARK  1 active torsions:
REMARK  status: ('A' for Active; 'I' for Inactive)
REMARK    1  A    between atoms: C1_2  and  C2_3 
ROOT
ATOM      1  C2  UNL d   1       5.249   0.539   3.931  0.00  0.00    -0.076 A 
ATOM      2  C3  UNL d   1       5.252   1.805   3.321  0.00  0.00     0.004 A 
ATOM      3  C4  UNL d   1       5.599   2.947   4.041  0.00  0.00    -0.003 A 
ATOM      4  C5  UNL d   1       5.948   2.841   5.383  0.00  0.00     0.000 A 
ATOM      5  C6  UNL d   1       5.967   1.590   5.999  0.00  0.00     0.000 A 
ATOM      6  C7  UNL d   1       5.636   0.427   5.283  0.00  0.00    -0.073 A 
ATOM      7  C8  UNL d   1       5.667  -0.895   6.000  0.00  0.00     0.078 C 
ENDROOT
BRANCH   1   8
ATOM      8  C1  UNL d   1       4.838  -0.661   3.107  0.00  0.00     0.053 C 
ATOM      9  C   UNL d   1       5.917  -1.731   3.058  0.00  0.00     0.018 C 
ENDBRANCH   1   8
TORSDOF 1
ENDMDL
