MODEL 1
REMARK minimizedAffinity -3.45618868
REMARK minimizedRMSD -1
REMARK  1 active torsions:
REMARK  status: ('A' for Active; 'I' for Inactive)
REMARK    1  A    between atoms: C1_2  and  C2_3 
ROOT
ATOM      1  C2  UNL d   1      -0.197  -0.036  -0.128  0.00  0.00    -0.076 A 
ATOM      2  C3  UNL d   1      -0.092  -1.411   0.142  0.00  0.00     0.004 A 
ATOM      3  C4  UNL d   1       1.015  -2.144  -0.282  0.00  0.00    -0.003 A 
ATOM      4  C5  UNL d   1       2.037  -1.512  -0.982  0.00  0.00     0.000 A 
ATOM      5  C6  UNL d   1       1.959  -0.145  -1.244  0.00  0.00     0.000 A 
ATOM      6  C7  UNL d   1       0.857   0.612  -0.809  0.00  0.00    -0.073 A 
ATOM      7  C8  UNL d   1       0.821   2.082  -1.123  0.00  0.00     0.078 C 
ENDROOT
BRANCH   1   8
ATOM      8  C1  UNL d   1      -1.434   0.701   0.333  0.00  0.00     0.053 C 
ATOM      9  C   UNL d   1      -1.858   0.305   1.739  0.00  0.00     0.018 C 
ENDBRANCH   1   8
TORSDOF 1
ENDMDL
