MODEL 1
REMARK minimizedAffinity -4.43841648
REMARK minimizedRMSD -1
REMARK  1 active torsions:
REMARK  status: ('A' for Active; 'I' for Inactive)
REMARK    1  A    between atoms: C1_2  and  C2_3 
ROOT
ATOM      1  C2  UNL d   1       0.103  -0.084  -0.144  0.00  0.00    -0.076 A 
ATOM      2  C3  UNL d   1       0.261  -1.430   0.228  0.00  0.00     0.004 A 
ATOM      3  C4  UNL d   1       1.415  -2.137  -0.109  0.00  0.00    -0.003 A 
ATOM      4  C5  UNL d   1       2.429  -1.508  -0.821  0.00  0.00     0.000 A 
ATOM      5  C6  UNL d   1       2.297  -0.167  -1.183  0.00  0.00     0.000 A 
ATOM      6  C7  UNL d   1       1.148   0.564  -0.837  0.00  0.00    -0.073 A 
ATOM      7  C8  UNL d   1       1.056   2.005  -1.258  0.00  0.00     0.078 C 
ENDROOT
BRANCH   1   8
ATOM      8  C1  UNL d   1      -1.181   0.623   0.225  0.00  0.00     0.053 C 
ATOM      9  C   UNL d   1      -1.527   0.474   1.699  0.00  0.00     0.018 C 
ENDBRANCH   1   8
TORSDOF 1
ENDMDL
