MODEL 1
REMARK minimizedAffinity -2.88630009
REMARK minimizedRMSD -1
REMARK  1 active torsions:
REMARK  status: ('A' for Active; 'I' for Inactive)
REMARK    1  A    between atoms: C1_2  and  C2_3 
ROOT
ATOM      1  C2  UNL d   1      -1.018  -0.342   0.881  0.00  0.00    -0.076 A 
ATOM      2  C3  UNL d   1      -1.784  -0.819   1.958  0.00  0.00     0.004 A 
ATOM      3  C4  UNL d   1      -2.127   0.016   3.020  0.00  0.00    -0.003 A 
ATOM      4  C5  UNL d   1      -1.711   1.343   3.021  0.00  0.00     0.000 A 
ATOM      5  C6  UNL d   1      -0.965   1.838   1.951  0.00  0.00     0.000 A 
ATOM      6  C7  UNL d   1      -0.624   1.013   0.866  0.00  0.00    -0.073 A 
ATOM      7  C8  UNL d   1       0.187   1.598  -0.258  0.00  0.00     0.078 C 
ENDROOT
BRANCH   1   8
ATOM      8  C1  UNL d   1      -0.652  -1.302  -0.229  0.00  0.00     0.053 C 
ATOM      9  C   UNL d   1       0.741  -1.888  -0.058  0.00  0.00     0.018 C 
ENDBRANCH   1   8
TORSDOF 1
ENDMDL
