MODEL 1
REMARK minimizedAffinity 0.265951991
REMARK minimizedRMSD -1
REMARK  1 active torsions:
REMARK  status: ('A' for Active; 'I' for Inactive)
REMARK    1  A    between atoms: C1_2  and  C2_3 
ROOT
ATOM      1  C2  UNL d   1      -1.379   0.569   1.367  0.00  0.00    -0.076 A 
ATOM      2  C3  UNL d   1      -1.704   1.363   0.254  0.00  0.00     0.004 A 
ATOM      3  C4  UNL d   1      -0.756   1.646  -0.727  0.00  0.00    -0.003 A 
ATOM      4  C5  UNL d   1       0.534   1.139  -0.611  0.00  0.00     0.000 A 
ATOM      5  C6  UNL d   1       0.869   0.335   0.477  0.00  0.00     0.000 A 
ATOM      6  C7  UNL d   1      -0.080   0.026   1.467  0.00  0.00    -0.073 A 
ATOM      7  C8  UNL d   1       0.338  -0.841   2.623  0.00  0.00     0.078 C 
ENDROOT
BRANCH   1   8
ATOM      8  C1  UNL d   1      -2.441   0.318   2.413  0.00  0.00     0.053 C 
ATOM      9  C   UNL d   1      -2.247   1.172   3.657  0.00  0.00     0.018 C 
ENDBRANCH   1   8
TORSDOF 1
ENDMDL
