MODEL 1
REMARK minimizedAffinity -6.37758255
REMARK minimizedRMSD -1
REMARK  1 active torsions:
REMARK  status: ('A' for Active; 'I' for Inactive)
REMARK    1  A    between atoms: C1_2  and  C2_3 
ROOT
ATOM      1  C2  UNL d   1       0.441  -0.027  -0.649  0.00  0.00    -0.076 A 
ATOM      2  C3  UNL d   1       1.243   1.010  -1.157  0.00  0.00     0.004 A 
ATOM      3  C4  UNL d   1       2.547   0.766  -1.584  0.00  0.00    -0.003 A 
ATOM      4  C5  UNL d   1       3.071  -0.520  -1.510  0.00  0.00     0.000 A 
ATOM      5  C6  UNL d   1       2.284  -1.565  -1.026  0.00  0.00     0.000 A 
ATOM      6  C7  UNL d   1       0.962  -1.338  -0.607  0.00  0.00    -0.073 A 
ATOM      7  C8  UNL d   1       0.160  -2.500  -0.088  0.00  0.00     0.078 C 
ENDROOT
BRANCH   1   8
ATOM      8  C1  UNL d   1      -0.956   0.303  -0.177  0.00  0.00     0.053 C 
ATOM      9  C   UNL d   1      -1.036   0.472   1.333  0.00  0.00     0.018 C 
ENDBRANCH   1   8
TORSDOF 1
ENDMDL
