MODEL 1
REMARK minimizedAffinity -3.42348957
REMARK minimizedRMSD -1
REMARK  1 active torsions:
REMARK  status: ('A' for Active; 'I' for Inactive)
REMARK    1  A    between atoms: C1_2  and  C2_3 
ROOT
ATOM      1  C2  UNL d   1      -1.641   1.547   2.017  0.00  0.00    -0.076 A 
ATOM      2  C3  UNL d   1      -1.764   0.438   1.162  0.00  0.00     0.004 A 
ATOM      3  C4  UNL d   1      -1.317   0.496  -0.157  0.00  0.00    -0.003 A 
ATOM      4  C5  UNL d   1      -0.739   1.664  -0.642  0.00  0.00     0.000 A 
ATOM      5  C6  UNL d   1      -0.593   2.768   0.197  0.00  0.00     0.000 A 
ATOM      6  C7  UNL d   1      -1.024   2.721   1.534  0.00  0.00    -0.073 A 
ATOM      7  C8  UNL d   1      -0.847   3.943   2.393  0.00  0.00     0.078 C 
ENDROOT
BRANCH   1   8
ATOM      8  C1  UNL d   1      -2.169   1.435   3.429  0.00  0.00     0.053 C 
ATOM      9  C   UNL d   1      -3.200   0.327   3.580  0.00  0.00     0.018 C 
ENDBRANCH   1   8
TORSDOF 1
ENDMDL
