MODEL 1
REMARK minimizedAffinity -3.95022416
REMARK minimizedRMSD -1
REMARK  1 active torsions:
REMARK  status: ('A' for Active; 'I' for Inactive)
REMARK    1  A    between atoms: C1_2  and  C2_3 
ROOT
ATOM      1  C2  UNL d   1      -3.573   0.194   2.807  0.00  0.00    -0.076 A 
ATOM      2  C3  UNL d   1      -2.924  -0.262   1.647  0.00  0.00     0.004 A 
ATOM      3  C4  UNL d   1      -1.870   0.456   1.085  0.00  0.00    -0.003 A 
ATOM      4  C5  UNL d   1      -1.447   1.642   1.676  0.00  0.00     0.000 A 
ATOM      5  C6  UNL d   1      -2.068   2.100   2.837  0.00  0.00     0.000 A 
ATOM      6  C7  UNL d   1      -3.121   1.379   3.425  0.00  0.00    -0.073 A 
ATOM      7  C8  UNL d   1      -3.759   1.923   4.675  0.00  0.00     0.078 C 
ENDROOT
BRANCH   1   8
ATOM      8  C1  UNL d   1      -4.728  -0.613   3.356  0.00  0.00     0.053 C 
ATOM      9  C   UNL d   1      -4.268  -1.854   4.105  0.00  0.00     0.018 C 
ENDBRANCH   1   8
TORSDOF 1
ENDMDL
