MODEL 1
REMARK minimizedAffinity -4.60339785
REMARK minimizedRMSD -1
REMARK  1 active torsions:
REMARK  status: ('A' for Active; 'I' for Inactive)
REMARK    1  A    between atoms: C1_2  and  C2_3 
ROOT
ATOM      1  C2  UNL d   1      -0.339   0.281  -0.308  0.00  0.00    -0.076 A 
ATOM      2  C3  UNL d   1      -0.181  -1.039   0.151  0.00  0.00     0.004 A 
ATOM      3  C4  UNL d   1       0.968  -1.769  -0.146  0.00  0.00    -0.003 A 
ATOM      4  C5  UNL d   1       1.978  -1.192  -0.907  0.00  0.00     0.000 A 
ATOM      5  C6  UNL d   1       1.847   0.121  -1.356  0.00  0.00     0.000 A 
ATOM      6  C7  UNL d   1       0.702   0.877  -1.051  0.00  0.00    -0.073 A 
ATOM      7  C8  UNL d   1       0.610   2.288  -1.566  0.00  0.00     0.078 C 
ENDROOT
BRANCH   1   8
ATOM      8  C1  UNL d   1      -1.618   1.015   0.023  0.00  0.00     0.053 C 
ATOM      9  C   UNL d   1      -2.089   0.754   1.446  0.00  0.00     0.018 C 
ENDBRANCH   1   8
TORSDOF 1
ENDMDL
