MODEL 1
REMARK minimizedAffinity -2.17023849
REMARK minimizedRMSD -1
REMARK  0 active torsions:
REMARK  status: ('A' for Active; 'I' for Inactive)
ROOT
ATOM      1  C   UNL d   1      -0.810  -3.458  -1.805  0.00  0.00     0.023 A 
ATOM      2  C1  UNL d   1      -0.335  -2.377  -2.547  0.00  0.00     0.003 A 
ATOM      3  C2  UNL d   1      -0.050  -1.165  -1.914  0.00  0.00     0.048 A 
ATOM      4  C3  UNL d   1      -0.242  -1.042  -0.539  0.00  0.00     0.023 A 
ATOM      5  C4  UNL d   1      -0.716  -2.121   0.208  0.00  0.00     0.048 A 
ATOM      6  C5  UNL d   1      -1.001  -3.331  -0.429  0.00  0.00     0.003 A 
ATOM      7  I   UNL d   1       0.182   0.760   0.406  0.00  0.00    -0.146 I 
ENDROOT
TORSDOF 0
ENDMDL
