MODEL 1
REMARK minimizedAffinity -3.30883741
REMARK minimizedRMSD -1
REMARK  0 active torsions:
REMARK  status: ('A' for Active; 'I' for Inactive)
ROOT
ATOM      1  C   UNL d   1      -1.147  -2.195   0.108  0.00  0.00     0.023 A 
ATOM      2  C1  UNL d   1      -0.610  -1.540  -1.000  0.00  0.00     0.003 A 
ATOM      3  C2  UNL d   1      -0.208  -0.207  -0.897  0.00  0.00     0.048 A 
ATOM      4  C3  UNL d   1      -0.345   0.465   0.317  0.00  0.00     0.023 A 
ATOM      5  C4  UNL d   1      -0.881  -0.186   1.429  0.00  0.00     0.048 A 
ATOM      6  C5  UNL d   1      -1.282  -1.519   1.321  0.00  0.00     0.003 A 
ATOM      7  I   UNL d   1       0.253   2.450   0.472  0.00  0.00    -0.146 I 
ENDROOT
TORSDOF 0
ENDMDL
