MODEL 1
REMARK minimizedAffinity -3.3644073
REMARK minimizedRMSD -1
REMARK  0 active torsions:
REMARK  status: ('A' for Active; 'I' for Inactive)
ROOT
ATOM      1  C   UNL d   1      -0.490  -0.977  -0.489  0.00  0.00     0.023 A 
ATOM      2  C1  UNL d   1       0.202  -0.204  -1.422  0.00  0.00     0.003 A 
ATOM      3  C2  UNL d   1       0.749   1.023  -1.045  0.00  0.00     0.048 A 
ATOM      4  C3  UNL d   1       0.602   1.472   0.268  0.00  0.00     0.023 A 
ATOM      5  C4  UNL d   1      -0.088   0.701   1.205  0.00  0.00     0.048 A 
ATOM      6  C5  UNL d   1      -0.635  -0.525   0.822  0.00  0.00     0.003 A 
ATOM      7  I   UNL d   1       1.417   3.299   0.832  0.00  0.00    -0.146 I 
ENDROOT
TORSDOF 0
ENDMDL
