MODEL 1
REMARK minimizedAffinity -0.898992956
REMARK minimizedRMSD -1
REMARK  0 active torsions:
REMARK  status: ('A' for Active; 'I' for Inactive)
ROOT
ATOM      1  C   UNL d   1      -0.795  -1.291   0.467  0.00  0.00     0.023 A 
ATOM      2  C1  UNL d   1      -0.620  -0.677   1.707  0.00  0.00     0.003 A 
ATOM      3  C2  UNL d   1      -0.152   0.637   1.778  0.00  0.00     0.048 A 
ATOM      4  C3  UNL d   1       0.139   1.331   0.604  0.00  0.00     0.023 A 
ATOM      5  C4  UNL d   1      -0.035   0.721  -0.639  0.00  0.00     0.048 A 
ATOM      6  C5  UNL d   1      -0.502  -0.593  -0.705  0.00  0.00     0.003 A 
ATOM      7  I   UNL d   1       0.836   3.286   0.706  0.00  0.00    -0.146 I 
ENDROOT
TORSDOF 0
ENDMDL
