MODEL 1
REMARK minimizedAffinity -1.33531141
REMARK minimizedRMSD -1
REMARK  0 active torsions:
REMARK  status: ('A' for Active; 'I' for Inactive)
ROOT
ATOM      1  C   UNL d   1      -0.897  -1.883   0.778  0.00  0.00     0.023 A 
ATOM      2  C1  UNL d   1      -0.317  -1.467  -0.421  0.00  0.00     0.003 A 
ATOM      3  C2  UNL d   1       0.073  -0.136  -0.584  0.00  0.00     0.048 A 
ATOM      4  C3  UNL d   1      -0.119   0.773   0.456  0.00  0.00     0.023 A 
ATOM      5  C4  UNL d   1      -0.698   0.361   1.657  0.00  0.00     0.048 A 
ATOM      6  C5  UNL d   1      -1.087  -0.971   1.816  0.00  0.00     0.003 A 
ATOM      7  I   UNL d   1       0.462   2.754   0.216  0.00  0.00    -0.146 I 
ENDROOT
TORSDOF 0
ENDMDL
