MODEL 1
REMARK minimizedAffinity -2.33290315
REMARK minimizedRMSD -1
REMARK  0 active torsions:
REMARK  status: ('A' for Active; 'I' for Inactive)
ROOT
ATOM      1  C   UNL d   1      -0.830  -3.055  -0.667  0.00  0.00     0.023 A 
ATOM      2  C1  UNL d   1      -0.311  -2.315  -1.729  0.00  0.00     0.003 A 
ATOM      3  C2  UNL d   1      -0.035  -0.956  -1.567  0.00  0.00     0.048 A 
ATOM      4  C3  UNL d   1      -0.280  -0.343  -0.339  0.00  0.00     0.023 A 
ATOM      5  C4  UNL d   1      -0.799  -1.079   0.728  0.00  0.00     0.048 A 
ATOM      6  C5  UNL d   1      -1.074  -2.438   0.560  0.00  0.00     0.003 A 
ATOM      7  I   UNL d   1       0.130   1.680  -0.094  0.00  0.00    -0.146 I 
ENDROOT
TORSDOF 0
ENDMDL
