MODEL 1
REMARK minimizedAffinity 0.331784934
REMARK minimizedRMSD -1
REMARK  0 active torsions:
REMARK  status: ('A' for Active; 'I' for Inactive)
ROOT
ATOM      1  C   UNL d   1      -1.476  -2.003   1.072  0.00  0.00     0.023 A 
ATOM      2  C1  UNL d   1      -1.945  -0.860   1.721  0.00  0.00     0.003 A 
ATOM      3  C2  UNL d   1      -1.420   0.393   1.398  0.00  0.00     0.048 A 
ATOM      4  C3  UNL d   1      -0.429   0.496   0.423  0.00  0.00     0.023 A 
ATOM      5  C4  UNL d   1       0.042  -0.644  -0.230  0.00  0.00     0.048 A 
ATOM      6  C5  UNL d   1      -0.484  -1.895   0.098  0.00  0.00     0.003 A 
ATOM      7  I   UNL d   1       0.353   2.360  -0.061  0.00  0.00    -0.146 I 
ENDROOT
TORSDOF 0
ENDMDL
