MODEL 1
REMARK minimizedAffinity -2.28634763
REMARK minimizedRMSD -1
REMARK  0 active torsions:
REMARK  status: ('A' for Active; 'I' for Inactive)
ROOT
ATOM      1  C   UNL d   1      -1.064  -2.473   0.682  0.00  0.00     0.023 A 
ATOM      2  C1  UNL d   1      -1.073  -1.520   1.701  0.00  0.00     0.003 A 
ATOM      3  C2  UNL d   1      -0.555  -0.244   1.470  0.00  0.00     0.048 A 
ATOM      4  C3  UNL d   1      -0.029   0.072   0.218  0.00  0.00     0.023 A 
ATOM      5  C4  UNL d   1      -0.019  -0.877  -0.805  0.00  0.00     0.048 A 
ATOM      6  C5  UNL d   1      -0.538  -2.152  -0.569  0.00  0.00     0.003 A 
ATOM      7  I   UNL d   1       0.743   1.971  -0.128  0.00  0.00    -0.146 I 
ENDROOT
TORSDOF 0
ENDMDL
