MODEL 1
REMARK minimizedAffinity -2.5212245
REMARK minimizedRMSD -1
REMARK  0 active torsions:
REMARK  status: ('A' for Active; 'I' for Inactive)
ROOT
ATOM      1  C   UNL d   1      -1.025  -2.406   0.046  0.00  0.00     0.023 A 
ATOM      2  C1  UNL d   1      -1.136  -1.577   1.163  0.00  0.00     0.003 A 
ATOM      3  C2  UNL d   1      -0.755  -0.236   1.079  0.00  0.00     0.048 A 
ATOM      4  C3  UNL d   1      -0.265   0.270  -0.125  0.00  0.00     0.023 A 
ATOM      5  C4  UNL d   1      -0.154  -0.556  -1.245  0.00  0.00     0.048 A 
ATOM      6  C5  UNL d   1      -0.535  -1.896  -1.156  0.00  0.00     0.003 A 
ATOM      7  I   UNL d   1       0.301   2.265  -0.253  0.00  0.00    -0.146 I 
ENDROOT
TORSDOF 0
ENDMDL
