MODEL 1
REMARK minimizedAffinity -2.36432028
REMARK minimizedRMSD -1
REMARK  0 active torsions:
REMARK  status: ('A' for Active; 'I' for Inactive)
ROOT
ATOM      1  C   UNL d   1      -0.839  -2.683   0.026  0.00  0.00     0.023 A 
ATOM      2  C1  UNL d   1      -0.329  -2.158  -1.162  0.00  0.00     0.003 A 
ATOM      3  C2  UNL d   1       0.018  -0.808  -1.237  0.00  0.00     0.048 A 
ATOM      4  C3  UNL d   1      -0.145   0.012  -0.121  0.00  0.00     0.023 A 
ATOM      5  C4  UNL d   1      -0.654  -0.510   1.070  0.00  0.00     0.048 A 
ATOM      6  C5  UNL d   1      -1.002  -1.860   1.140  0.00  0.00     0.003 A 
ATOM      7  I   UNL d   1       0.372   2.022  -0.230  0.00  0.00    -0.146 I 
ENDROOT
TORSDOF 0
ENDMDL
