MODEL 1
REMARK minimizedAffinity -0.650620818
REMARK minimizedRMSD -1
REMARK  0 active torsions:
REMARK  status: ('A' for Active; 'I' for Inactive)
ROOT
ATOM      1  C   UNL d   1       1.303   3.323  -0.038  0.00  0.00     0.023 A 
ATOM      2  C1  UNL d   1       0.302   2.815  -0.866  0.00  0.00     0.003 A 
ATOM      3  C2  UNL d   1      -0.258   1.564  -0.600  0.00  0.00     0.048 A 
ATOM      4  C3  UNL d   1       0.187   0.826   0.496  0.00  0.00     0.023 A 
ATOM      5  C4  UNL d   1       1.187   1.331   1.329  0.00  0.00     0.048 A 
ATOM      6  C5  UNL d   1       1.745   2.582   1.058  0.00  0.00     0.003 A 
ATOM      7  I   UNL d   1      -0.646  -1.036   0.895  0.00  0.00    -0.146 I 
ENDROOT
TORSDOF 0
ENDMDL
