MODEL 1
REMARK minimizedAffinity -2.114254
REMARK minimizedRMSD -1
REMARK  0 active torsions:
REMARK  status: ('A' for Active; 'I' for Inactive)
ROOT
ATOM      1  C   UNL d   1      -0.872  -3.265  -0.684  0.00  0.00     0.023 A 
ATOM      2  C1  UNL d   1      -0.391  -2.484  -1.734  0.00  0.00     0.003 A 
ATOM      3  C2  UNL d   1      -0.103  -1.133  -1.527  0.00  0.00     0.048 A 
ATOM      4  C3  UNL d   1      -0.298  -0.571  -0.266  0.00  0.00     0.023 A 
ATOM      5  C4  UNL d   1      -0.779  -1.348   0.788  0.00  0.00     0.048 A 
ATOM      6  C5  UNL d   1      -1.066  -2.698   0.576  0.00  0.00     0.003 A 
ATOM      7  I   UNL d   1       0.129   1.439   0.045  0.00  0.00    -0.146 I 
ENDROOT
TORSDOF 0
ENDMDL
