MODEL 1
REMARK minimizedAffinity -2.08589578
REMARK minimizedRMSD -1
REMARK  0 active torsions:
REMARK  status: ('A' for Active; 'I' for Inactive)
ROOT
ATOM      1  C   UNL d   1      -1.081  -1.248   0.696  0.00  0.00     0.023 A 
ATOM      2  C1  UNL d   1      -0.316  -0.981  -0.440  0.00  0.00     0.003 A 
ATOM      3  C2  UNL d   1       0.299   0.263  -0.592  0.00  0.00     0.048 A 
ATOM      4  C3  UNL d   1       0.147   1.235   0.396  0.00  0.00     0.023 A 
ATOM      5  C4  UNL d   1      -0.616   0.972   1.535  0.00  0.00     0.048 A 
ATOM      6  C5  UNL d   1      -1.231  -0.273   1.682  0.00  0.00     0.003 A 
ATOM      7  I   UNL d   1       1.063   3.088   0.172  0.00  0.00    -0.146 I 
ENDROOT
TORSDOF 0
ENDMDL
