MODEL 1
REMARK minimizedAffinity 0.462034822
REMARK minimizedRMSD -1
REMARK  0 active torsions:
REMARK  status: ('A' for Active; 'I' for Inactive)
ROOT
ATOM      1  C   UNL d   1      -0.607  -0.482   1.241  0.00  0.00     0.023 A 
ATOM      2  C1  UNL d   1      -0.177  -0.002   0.004  0.00  0.00     0.003 A 
ATOM      3  C2  UNL d   1      -0.280  -0.807  -1.133  0.00  0.00     0.048 A 
ATOM      4  C3  UNL d   1      -0.815  -2.090  -1.025  0.00  0.00     0.023 A 
ATOM      5  C4  UNL d   1      -1.248  -2.574   0.211  0.00  0.00     0.048 A 
ATOM      6  C5  UNL d   1      -1.141  -1.766   1.344  0.00  0.00     0.003 A 
ATOM      7  I   UNL d   1      -0.970  -3.289  -2.715  0.00  0.00    -0.146 I 
ENDROOT
TORSDOF 0
ENDMDL
