MODEL 1
REMARK minimizedAffinity 1.52371681
REMARK minimizedRMSD -1
REMARK  0 active torsions:
REMARK  status: ('A' for Active; 'I' for Inactive)
ROOT
ATOM      1  C   UNL d   1      -1.062  -1.435   0.350  0.00  0.00     0.023 A 
ATOM      2  C1  UNL d   1      -0.983  -0.685   1.524  0.00  0.00     0.003 A 
ATOM      3  C2  UNL d   1      -0.387   0.577   1.509  0.00  0.00     0.048 A 
ATOM      4  C3  UNL d   1       0.129   1.084   0.317  0.00  0.00     0.023 A 
ATOM      5  C4  UNL d   1       0.051   0.338  -0.861  0.00  0.00     0.048 A 
ATOM      6  C5  UNL d   1      -0.545  -0.924  -0.840  0.00  0.00     0.003 A 
ATOM      7  I   UNL d   1       1.017   2.963   0.291  0.00  0.00    -0.146 I 
ENDROOT
TORSDOF 0
ENDMDL
