MODEL 1
REMARK minimizedAffinity -3.33491349
REMARK minimizedRMSD -1
REMARK  0 active torsions:
REMARK  status: ('A' for Active; 'I' for Inactive)
ROOT
ATOM      1  C   UNL d   1      -0.731  -3.171  -1.257  0.00  0.00     0.023 A 
ATOM      2  C1  UNL d   1      -0.992  -2.791   0.059  0.00  0.00     0.003 A 
ATOM      3  C2  UNL d   1      -0.670  -1.503   0.492  0.00  0.00     0.048 A 
ATOM      4  C3  UNL d   1      -0.088  -0.600  -0.397  0.00  0.00     0.023 A 
ATOM      5  C4  UNL d   1       0.175  -0.976  -1.715  0.00  0.00     0.048 A 
ATOM      6  C5  UNL d   1      -0.149  -2.265  -2.143  0.00  0.00     0.003 A 
ATOM      7  I   UNL d   1       0.393   1.317   0.245  0.00  0.00    -0.146 I 
ENDROOT
TORSDOF 0
ENDMDL
