MODEL 1
REMARK minimizedAffinity 4.93742085
REMARK minimizedRMSD -1
REMARK  0 active torsions:
REMARK  status: ('A' for Active; 'I' for Inactive)
ROOT
ATOM      1  C4' PXY d   1       2.186  -5.440   4.646  0.00  0.00     0.077 C 
ATOM      2  C1' PXY d   1       1.248  -0.140   2.539  0.00  0.00     0.077 C 
ATOM      3  C1  PXY d   1       1.506  -1.529   3.087  0.00  0.00    -0.082 A 
ATOM      4  C2  PXY d   1       0.494  -2.363   3.259  0.00  0.00     0.003 A 
ATOM      5  C3  PXY d   1       0.705  -3.612   3.784  0.00  0.00     0.003 A 
ATOM      6  C4  PXY d   1       1.973  -4.031   4.086  0.00  0.00    -0.082 A 
ATOM      7  C5  PXY d   1       3.013  -3.190   3.903  0.00  0.00     0.003 A 
ATOM      8  C6  PXY d   1       2.772  -1.912   3.408  0.00  0.00     0.003 A 
ENDROOT
TORSDOF 0
ENDMDL
