MODEL 1
REMARK minimizedAffinity 0.765897453
REMARK minimizedRMSD -1
REMARK  0 active torsions:
REMARK  status: ('A' for Active; 'I' for Inactive)
ROOT
ATOM      1  C4' PXY d   1       2.879  -4.878   4.817  0.00  0.00     0.077 C 
ATOM      2  C1' PXY d   1       0.424  -1.356   0.946  0.00  0.00     0.077 C 
ATOM      3  C1  PXY d   1       1.062  -2.290   1.955  0.00  0.00    -0.082 A 
ATOM      4  C2  PXY d   1       1.383  -1.835   3.156  0.00  0.00     0.003 A 
ATOM      5  C3  PXY d   1       1.991  -2.658   4.069  0.00  0.00     0.003 A 
ATOM      6  C4  PXY d   1       2.224  -3.973   3.770  0.00  0.00    -0.082 A 
ATOM      7  C5  PXY d   1       1.890  -4.447   2.551  0.00  0.00     0.003 A 
ATOM      8  C6  PXY d   1       1.311  -3.585   1.623  0.00  0.00     0.003 A 
ENDROOT
TORSDOF 0
ENDMDL
