MODEL 1
REMARK minimizedAffinity 4.17405987
REMARK minimizedRMSD -1
REMARK  0 active torsions:
REMARK  status: ('A' for Active; 'I' for Inactive)
ROOT
ATOM      1  C4' PXY d   1      -4.060   2.130  -3.456  0.00  0.00     0.077 C 
ATOM      2  C1' PXY d   1      -4.952   2.757   2.221  0.00  0.00     0.077 C 
ATOM      3  C1  PXY d   1      -4.726   2.582   0.732  0.00  0.00    -0.082 A 
ATOM      4  C2  PXY d   1      -3.621   3.054   0.179  0.00  0.00     0.003 A 
ATOM      5  C3  PXY d   1      -3.416   2.933  -1.172  0.00  0.00     0.003 A 
ATOM      6  C4  PXY d   1      -4.326   2.275  -1.955  0.00  0.00    -0.082 A 
ATOM      7  C5  PXY d   1      -5.451   1.781  -1.395  0.00  0.00     0.003 A 
ATOM      8  C6  PXY d   1      -5.660   1.951  -0.030  0.00  0.00     0.003 A 
ENDROOT
TORSDOF 0
ENDMDL
