MODEL 1
REMARK minimizedAffinity 6.01959419
REMARK minimizedRMSD -1
REMARK  0 active torsions:
REMARK  status: ('A' for Active; 'I' for Inactive)
ROOT
ATOM      1  C4' PXY d   1       0.424  -2.227  -0.386  0.00  0.00     0.077 C 
ATOM      2  C1' PXY d   1       2.126  -0.852   4.965  0.00  0.00     0.077 C 
ATOM      3  C1  PXY d   1       1.679  -1.200   3.559  0.00  0.00    -0.082 A 
ATOM      4  C2  PXY d   1       1.152  -2.390   3.315  0.00  0.00     0.003 A 
ATOM      5  C3  PXY d   1       0.771  -2.732   2.043  0.00  0.00     0.003 A 
ATOM      6  C4  PXY d   1       0.882  -1.829   1.020  0.00  0.00    -0.082 A 
ATOM      7  C5  PXY d   1       1.408  -0.610   1.262  0.00  0.00     0.003 A 
ATOM      8  C6  PXY d   1       1.827  -0.297   2.552  0.00  0.00     0.003 A 
ENDROOT
TORSDOF 0
ENDMDL
