MODEL 1
REMARK minimizedAffinity 5.97942877
REMARK minimizedRMSD -1
REMARK  0 active torsions:
REMARK  status: ('A' for Active; 'I' for Inactive)
ROOT
ATOM      1  C4' PXY d   1       1.456  -3.402  -1.533  0.00  0.00     0.077 C 
ATOM      2  C1' PXY d   1       1.635  -1.537   3.935  0.00  0.00     0.077 C 
ATOM      3  C1  PXY d   1       1.595  -2.037   2.505  0.00  0.00    -0.082 A 
ATOM      4  C2  PXY d   1       1.414  -1.176   1.516  0.00  0.00     0.003 A 
ATOM      5  C3  PXY d   1       1.343  -1.615   0.219  0.00  0.00     0.003 A 
ATOM      6  C4  PXY d   1       1.513  -2.942  -0.074  0.00  0.00    -0.082 A 
ATOM      7  C5  PXY d   1       1.709  -3.825   0.928  0.00  0.00     0.003 A 
ATOM      8  C6  PXY d   1       1.736  -3.365   2.241  0.00  0.00     0.003 A 
ENDROOT
TORSDOF 0
ENDMDL
