MODEL 1
REMARK minimizedAffinity 7.09863043
REMARK minimizedRMSD -1
REMARK  0 active torsions:
REMARK  status: ('A' for Active; 'I' for Inactive)
ROOT
ATOM      1  C4' PXY d   1       0.653  -3.792  -1.893  0.00  0.00     0.077 C 
ATOM      2  C1' PXY d   1       1.367  -1.698   3.448  0.00  0.00     0.077 C 
ATOM      3  C1  PXY d   1       1.189  -2.256   2.050  0.00  0.00    -0.082 A 
ATOM      4  C2  PXY d   1       0.763  -1.465   1.078  0.00  0.00     0.003 A 
ATOM      5  C3  PXY d   1       0.565  -1.961  -0.184  0.00  0.00     0.003 A 
ATOM      6  C4  PXY d   1       0.857  -3.269  -0.468  0.00  0.00    -0.082 A 
ATOM      7  C5  PXY d   1       1.301  -4.080   0.515  0.00  0.00     0.003 A 
ATOM      8  C6  PXY d   1       1.456  -3.567   1.799  0.00  0.00     0.003 A 
ENDROOT
TORSDOF 0
ENDMDL
