MODEL 1
REMARK minimizedAffinity 2.44081235
REMARK minimizedRMSD -1
REMARK  0 active torsions:
REMARK  status: ('A' for Active; 'I' for Inactive)
ROOT
ATOM      1  C4' PXY d   1      -5.203   4.130   2.365  0.00  0.00     0.077 C 
ATOM      2  C1' PXY d   1      -4.759   1.697  -2.860  0.00  0.00     0.077 C 
ATOM      3  C1  PXY d   1      -4.882   2.345  -1.495  0.00  0.00    -0.082 A 
ATOM      4  C2  PXY d   1      -4.010   2.044  -0.547  0.00  0.00     0.003 A 
ATOM      5  C3  PXY d   1      -4.125   2.596   0.703  0.00  0.00     0.003 A 
ATOM      6  C4  PXY d   1      -5.112   3.507   0.970  0.00  0.00    -0.082 A 
ATOM      7  C5  PXY d   1      -6.000   3.828   0.005  0.00  0.00     0.003 A 
ATOM      8  C6  PXY d   1      -5.890   3.225  -1.245  0.00  0.00     0.003 A 
ENDROOT
TORSDOF 0
ENDMDL
