MODEL 1
REMARK minimizedAffinity 0.848320961
REMARK minimizedRMSD -1
REMARK  0 active torsions:
REMARK  status: ('A' for Active; 'I' for Inactive)
ROOT
ATOM      1  C4' PXY d   1       2.872   3.107   2.814  0.00  0.00     0.077 C 
ATOM      2  C1' PXY d   1       1.617  -2.530   3.069  0.00  0.00     0.077 C 
ATOM      3  C1  PXY d   1       1.955  -1.054   2.993  0.00  0.00    -0.082 A 
ATOM      4  C2  PXY d   1       1.645  -0.259   4.004  0.00  0.00     0.003 A 
ATOM      5  C3  PXY d   1       1.915   1.083   3.939  0.00  0.00     0.003 A 
ATOM      6  C4  PXY d   1       2.558   1.609   2.851  0.00  0.00    -0.082 A 
ATOM      7  C5  PXY d   1       2.888   0.802   1.819  0.00  0.00     0.003 A 
ATOM      8  C6  PXY d   1       2.567  -0.551   1.888  0.00  0.00     0.003 A 
ENDROOT
TORSDOF 0
ENDMDL
