MODEL 1
REMARK minimizedAffinity 1.43628597
REMARK minimizedRMSD -1
REMARK  0 active torsions:
REMARK  status: ('A' for Active; 'I' for Inactive)
ROOT
ATOM      1  C4' PXY d   1      -5.999   2.015  -1.861  0.00  0.00     0.077 C 
ATOM      2  C1' PXY d   1      -3.961   4.920   2.702  0.00  0.00     0.077 C 
ATOM      3  C1  PXY d   1      -4.507   4.165   1.506  0.00  0.00    -0.082 A 
ATOM      4  C2  PXY d   1      -4.016   2.974   1.205  0.00  0.00     0.003 A 
ATOM      5  C3  PXY d   1      -4.475   2.291   0.109  0.00  0.00     0.003 A 
ATOM      6  C4  PXY d   1      -5.485   2.810  -0.657  0.00  0.00    -0.082 A 
ATOM      7  C5  PXY d   1      -5.998   4.020  -0.351  0.00  0.00     0.003 A 
ATOM      8  C6  PXY d   1      -5.490   4.715   0.743  0.00  0.00     0.003 A 
ENDROOT
TORSDOF 0
ENDMDL
