MODEL 1
REMARK minimizedAffinity 7.86798382
REMARK minimizedRMSD -1
REMARK  2 active torsions:
REMARK  status: ('A' for Active; 'I' for Inactive)
REMARK    1  A    between atoms: C1_2  and  C2_3 
REMARK    2  A    between atoms: C2_3  and  C3_4 
ROOT
ATOM      1  C3  UNL d   1       4.721  -0.410  -5.719  0.00  0.00    -0.075 A 
ATOM      2  C4  UNL d   1       5.923   0.200  -5.331  0.00  0.00     0.002 A 
ATOM      3  C5  UNL d   1       5.994   1.584  -5.165  0.00  0.00     0.002 A 
ATOM      4  C6  UNL d   1       4.870   2.374  -5.394  0.00  0.00    -0.004 A 
ATOM      5  C7  UNL d   1       3.675   1.781  -5.796  0.00  0.00     0.002 A 
ATOM      6  C8  UNL d   1       3.600   0.396  -5.959  0.00  0.00     0.002 A 
ENDROOT
BRANCH   1   7
ATOM      7  C2  UNL d   1       4.630  -1.909  -5.872  0.00  0.00     0.056 C 
BRANCH   7   8
ATOM      8  C1  UNL d   1       3.197  -2.437  -5.999  0.00  0.00     0.007 C 
ATOM      9  C   UNL d   1       2.962  -3.728  -5.226  0.00  0.00     0.009 C 
ENDBRANCH   7   8
ENDBRANCH   1   7
TORSDOF 2
ENDMDL
