MODEL 1
REMARK minimizedAffinity -2.08685517
REMARK minimizedRMSD -1
REMARK  2 active torsions:
REMARK  status: ('A' for Active; 'I' for Inactive)
REMARK    1  A    between atoms: C1_2  and  C2_3 
REMARK    2  A    between atoms: C2_3  and  C3_4 
ROOT
ATOM      1  C3  UNL d   1       0.159   0.319  -0.252  0.00  0.00    -0.075 A 
ATOM      2  C4  UNL d   1      -1.163   0.763  -0.105  0.00  0.00     0.002 A 
ATOM      3  C5  UNL d   1      -2.146  -0.092   0.392  0.00  0.00     0.002 A 
ATOM      4  C6  UNL d   1      -1.824  -1.403   0.737  0.00  0.00    -0.004 A 
ATOM      5  C7  UNL d   1      -0.517  -1.860   0.580  0.00  0.00     0.002 A 
ATOM      6  C8  UNL d   1       0.470  -1.004   0.087  0.00  0.00     0.002 A 
ENDROOT
BRANCH   1   7
ATOM      7  C2  UNL d   1       1.235   1.249  -0.761  0.00  0.00     0.056 C 
BRANCH   7   8
ATOM      8  C1  UNL d   1       2.592   1.070  -0.072  0.00  0.00     0.007 C 
ATOM      9  C   UNL d   1       2.506   1.128   1.447  0.00  0.00     0.009 C 
ENDBRANCH   7   8
ENDBRANCH   1   7
TORSDOF 2
ENDMDL
