MODEL 1
REMARK minimizedAffinity -2.88414907
REMARK minimizedRMSD -1
REMARK  2 active torsions:
REMARK  status: ('A' for Active; 'I' for Inactive)
REMARK    1  A    between atoms: C1_2  and  C2_3 
REMARK    2  A    between atoms: C2_3  and  C3_4 
ROOT
ATOM      1  C3  UNL d   1       1.501   0.276   1.307  0.00  0.00    -0.075 A 
ATOM      2  C4  UNL d   1       1.193   1.430   0.571  0.00  0.00     0.002 A 
ATOM      3  C5  UNL d   1      -0.009   1.523  -0.130  0.00  0.00     0.002 A 
ATOM      4  C6  UNL d   1      -0.912   0.462  -0.114  0.00  0.00    -0.004 A 
ATOM      5  C7  UNL d   1      -0.610  -0.695   0.600  0.00  0.00     0.002 A 
ATOM      6  C8  UNL d   1       0.591  -0.789   1.307  0.00  0.00     0.002 A 
ENDROOT
BRANCH   1   7
ATOM      7  C2  UNL d   1       2.787   0.181   2.092  0.00  0.00     0.056 C 
BRANCH   7   8
ATOM      8  C1  UNL d   1       2.674  -0.645   3.378  0.00  0.00     0.007 C 
ATOM      9  C   UNL d   1       2.385   0.200   4.611  0.00  0.00     0.009 C 
ENDBRANCH   7   8
ENDBRANCH   1   7
TORSDOF 2
ENDMDL
