MODEL 1
REMARK minimizedAffinity 2.92322183
REMARK minimizedRMSD -1
REMARK  2 active torsions:
REMARK  status: ('A' for Active; 'I' for Inactive)
REMARK    1  A    between atoms: C1_2  and  C2_3 
REMARK    2  A    between atoms: C2_3  and  C3_4 
ROOT
ATOM      1  C3  UNL d   1       1.054  -0.403   1.530  0.00  0.00    -0.075 A 
ATOM      2  C4  UNL d   1       0.228   0.236   0.594  0.00  0.00     0.002 A 
ATOM      3  C5  UNL d   1       0.572   1.489   0.084  0.00  0.00     0.002 A 
ATOM      4  C6  UNL d   1       1.737   2.121   0.511  0.00  0.00    -0.004 A 
ATOM      5  C7  UNL d   1       2.557   1.503   1.453  0.00  0.00     0.002 A 
ATOM      6  C8  UNL d   1       2.217   0.248   1.961  0.00  0.00     0.002 A 
ENDROOT
BRANCH   1   7
ATOM      7  C2  UNL d   1       0.702  -1.771   2.063  0.00  0.00     0.056 C 
BRANCH   7   8
ATOM      8  C1  UNL d   1      -0.205  -2.587   1.137  0.00  0.00     0.007 C 
ATOM      9  C   UNL d   1       0.564  -3.384   0.091  0.00  0.00     0.009 C 
ENDBRANCH   7   8
ENDBRANCH   1   7
TORSDOF 2
ENDMDL
