MODEL 1
REMARK minimizedAffinity 4.48434401
REMARK minimizedRMSD -1
REMARK  2 active torsions:
REMARK  status: ('A' for Active; 'I' for Inactive)
REMARK    1  A    between atoms: C1_2  and  C2_3 
REMARK    2  A    between atoms: C2_3  and  C3_4 
ROOT
ATOM      1  C3  UNL d   1       0.083  -1.904  -0.364  0.00  0.00    -0.075 A 
ATOM      2  C4  UNL d   1      -1.304  -1.759  -0.514  0.00  0.00     0.002 A 
ATOM      3  C5  UNL d   1      -1.896  -1.872  -1.772  0.00  0.00     0.002 A 
ATOM      4  C6  UNL d   1      -1.110  -2.121  -2.895  0.00  0.00    -0.004 A 
ATOM      5  C7  UNL d   1       0.270  -2.250  -2.761  0.00  0.00     0.002 A 
ATOM      6  C8  UNL d   1       0.865  -2.141  -1.502  0.00  0.00     0.002 A 
ENDROOT
BRANCH   1   7
ATOM      7  C2  UNL d   1       0.726  -1.811   0.999  0.00  0.00     0.056 C 
BRANCH   7   8
ATOM      8  C1  UNL d   1       1.431  -0.477   1.267  0.00  0.00     0.007 C 
ATOM      9  C   UNL d   1       2.909  -0.635   1.597  0.00  0.00     0.009 C 
ENDBRANCH   7   8
ENDBRANCH   1   7
TORSDOF 2
ENDMDL
