MODEL 1
REMARK minimizedAffinity 4.72913504
REMARK minimizedRMSD -1
REMARK  2 active torsions:
REMARK  status: ('A' for Active; 'I' for Inactive)
REMARK    1  A    between atoms: C1_2  and  C2_3 
REMARK    2  A    between atoms: C2_3  and  C3_4 
ROOT
ATOM      1  C3  UNL d   1       4.524  -1.557  -5.965  0.00  0.00    -0.075 A 
ATOM      2  C4  UNL d   1       5.815  -1.013  -5.899  0.00  0.00     0.002 A 
ATOM      3  C5  UNL d   1       5.999   0.369  -5.842  0.00  0.00     0.002 A 
ATOM      4  C6  UNL d   1       4.898   1.223  -5.859  0.00  0.00    -0.004 A 
ATOM      5  C7  UNL d   1       3.612   0.694  -5.941  0.00  0.00     0.002 A 
ATOM      6  C8  UNL d   1       3.425  -0.689  -5.994  0.00  0.00     0.002 A 
ENDROOT
BRANCH   1   7
ATOM      7  C2  UNL d   1       4.317  -3.052  -5.998  0.00  0.00     0.056 C 
BRANCH   7   8
ATOM      8  C1  UNL d   1       3.029  -3.519  -5.311  0.00  0.00     0.007 C 
ATOM      9  C   UNL d   1       3.274  -4.182  -3.962  0.00  0.00     0.009 C 
ENDBRANCH   7   8
ENDBRANCH   1   7
TORSDOF 2
ENDMDL
