MODEL 1
REMARK minimizedAffinity 3.88829064
REMARK minimizedRMSD -1
REMARK  2 active torsions:
REMARK  status: ('A' for Active; 'I' for Inactive)
REMARK    1  A    between atoms: C1_2  and  C2_3 
REMARK    2  A    between atoms: C2_3  and  C3_4 
ROOT
ATOM      1  C3  UNL d   1       1.634  -1.461   3.098  0.00  0.00    -0.075 A 
ATOM      2  C4  UNL d   1       2.204  -0.244   2.695  0.00  0.00     0.002 A 
ATOM      3  C5  UNL d   1       1.833   0.345   1.486  0.00  0.00     0.002 A 
ATOM      4  C6  UNL d   1       0.899  -0.278   0.661  0.00  0.00    -0.004 A 
ATOM      5  C7  UNL d   1       0.339  -1.495   1.044  0.00  0.00     0.002 A 
ATOM      6  C8  UNL d   1       0.704  -2.085   2.255  0.00  0.00     0.002 A 
ENDROOT
BRANCH   1   7
ATOM      7  C2  UNL d   1       2.008  -2.089   4.420  0.00  0.00     0.056 C 
BRANCH   7   8
ATOM      8  C1  UNL d   1       1.295  -3.415   4.704  0.00  0.00     0.007 C 
ATOM      9  C   UNL d   1       2.234  -4.509   5.193  0.00  0.00     0.009 C 
ENDBRANCH   7   8
ENDBRANCH   1   7
TORSDOF 2
ENDMDL
