MODEL 1
REMARK minimizedAffinity -5.51212645
REMARK minimizedRMSD -1
REMARK  2 active torsions:
REMARK  status: ('A' for Active; 'I' for Inactive)
REMARK    1  A    between atoms: C1_2  and  C2_3 
REMARK    2  A    between atoms: C2_3  and  C3_4 
ROOT
ATOM      1  C3  UNL d   1       0.100   0.119  -0.093  0.00  0.00    -0.075 A 
ATOM      2  C4  UNL d   1      -0.970   0.958   0.250  0.00  0.00     0.002 A 
ATOM      3  C5  UNL d   1      -0.780   2.335   0.371  0.00  0.00     0.002 A 
ATOM      4  C6  UNL d   1       0.482   2.888   0.161  0.00  0.00    -0.004 A 
ATOM      5  C7  UNL d   1       1.555   2.062  -0.164  0.00  0.00     0.002 A 
ATOM      6  C8  UNL d   1       1.367   0.685  -0.290  0.00  0.00     0.002 A 
ENDROOT
BRANCH   1   7
ATOM      7  C2  UNL d   1      -0.105  -1.368  -0.255  0.00  0.00     0.056 C 
BRANCH   7   8
ATOM      8  C1  UNL d   1       0.470  -1.940  -1.555  0.00  0.00     0.007 C 
ATOM      9  C   UNL d   1      -0.505  -2.843  -2.297  0.00  0.00     0.009 C 
ENDBRANCH   7   8
ENDBRANCH   1   7
TORSDOF 2
ENDMDL
