MODEL 1
REMARK minimizedAffinity -6.00128126
REMARK minimizedRMSD -1
REMARK  2 active torsions:
REMARK  status: ('A' for Active; 'I' for Inactive)
REMARK    1  A    between atoms: C1_2  and  C2_3 
REMARK    2  A    between atoms: C2_3  and  C3_4 
ROOT
ATOM      1  C3  UNL d   1       0.876   1.057   0.067  0.00  0.00    -0.075 A 
ATOM      2  C4  UNL d   1       0.499   2.292   0.615  0.00  0.00     0.002 A 
ATOM      3  C5  UNL d   1       1.428   3.076   1.300  0.00  0.00     0.002 A 
ATOM      4  C6  UNL d   1       2.739   2.633   1.455  0.00  0.00    -0.004 A 
ATOM      5  C7  UNL d   1       3.120   1.400   0.929  0.00  0.00     0.002 A 
ATOM      6  C8  UNL d   1       2.195   0.615   0.240  0.00  0.00     0.002 A 
ENDROOT
BRANCH   1   7
ATOM      7  C2  UNL d   1      -0.116   0.217  -0.700  0.00  0.00     0.056 C 
BRANCH   7   8
ATOM      8  C1  UNL d   1      -0.537  -1.067   0.022  0.00  0.00     0.007 C 
ATOM      9  C   UNL d   1      -1.579  -0.832   1.107  0.00  0.00     0.009 C 
ENDBRANCH   7   8
ENDBRANCH   1   7
TORSDOF 2
ENDMDL
