MODEL 1
REMARK minimizedAffinity -6.59414148
REMARK minimizedRMSD -1
REMARK  2 active torsions:
REMARK  status: ('A' for Active; 'I' for Inactive)
REMARK    1  A    between atoms: C1_2  and  C2_3 
REMARK    2  A    between atoms: C2_3  and  C3_4 
ROOT
ATOM      1  C3  UNL d   1       0.518   0.586   0.098  0.00  0.00    -0.075 A 
ATOM      2  C4  UNL d   1       1.910   0.430   0.172  0.00  0.00     0.002 A 
ATOM      3  C5  UNL d   1       2.741   1.542   0.300  0.00  0.00     0.002 A 
ATOM      4  C6  UNL d   1       2.195   2.823   0.346  0.00  0.00    -0.004 A 
ATOM      5  C7  UNL d   1       0.815   2.991   0.257  0.00  0.00     0.002 A 
ATOM      6  C8  UNL d   1      -0.020   1.879   0.133  0.00  0.00     0.002 A 
ENDROOT
BRANCH   1   7
ATOM      7  C2  UNL d   1      -0.390  -0.616  -0.012  0.00  0.00     0.056 C 
BRANCH   7   8
ATOM      8  C1  UNL d   1       0.353  -1.954  -0.083  0.00  0.00     0.007 C 
ATOM      9  C   UNL d   1      -0.315  -2.963  -1.007  0.00  0.00     0.009 C 
ENDBRANCH   7   8
ENDBRANCH   1   7
TORSDOF 2
ENDMDL
