MODEL 1
REMARK minimizedAffinity -4.42670202
REMARK minimizedRMSD -1
REMARK  2 active torsions:
REMARK  status: ('A' for Active; 'I' for Inactive)
REMARK    1  A    between atoms: C1_2  and  C2_3 
REMARK    2  A    between atoms: C2_3  and  C3_4 
ROOT
ATOM      1  C3  UNL d   1       0.343   0.897   0.125  0.00  0.00    -0.075 A 
ATOM      2  C4  UNL d   1       1.739   1.023   0.181  0.00  0.00     0.002 A 
ATOM      3  C5  UNL d   1       2.330   2.265   0.415  0.00  0.00     0.002 A 
ATOM      4  C6  UNL d   1       1.535   3.396   0.587  0.00  0.00    -0.004 A 
ATOM      5  C7  UNL d   1       0.148   3.286   0.517  0.00  0.00     0.002 A 
ATOM      6  C8  UNL d   1      -0.446   2.044   0.286  0.00  0.00     0.002 A 
ENDROOT
BRANCH   1   7
ATOM      7  C2  UNL d   1      -0.303  -0.449  -0.100  0.00  0.00     0.056 C 
BRANCH   7   8
ATOM      8  C1  UNL d   1       0.681  -1.555  -0.494  0.00  0.00     0.007 C 
ATOM      9  C   UNL d   1       0.087  -2.571  -1.461  0.00  0.00     0.009 C 
ENDBRANCH   7   8
ENDBRANCH   1   7
TORSDOF 2
ENDMDL
