MODEL 1
REMARK minimizedAffinity -6.18107224
REMARK minimizedRMSD -1
REMARK  2 active torsions:
REMARK  status: ('A' for Active; 'I' for Inactive)
REMARK    1  A    between atoms: C1_2  and  C2_3 
REMARK    2  A    between atoms: C2_3  and  C3_4 
ROOT
ATOM      1  C3  UNL d   1       0.520   0.883   0.108  0.00  0.00    -0.075 A 
ATOM      2  C4  UNL d   1       1.896   0.863   0.380  0.00  0.00     0.002 A 
ATOM      3  C5  UNL d   1       2.584   2.049   0.638  0.00  0.00     0.002 A 
ATOM      4  C6  UNL d   1       1.911   3.268   0.617  0.00  0.00    -0.004 A 
ATOM      5  C7  UNL d   1       0.548   3.301   0.331  0.00  0.00     0.002 A 
ATOM      6  C8  UNL d   1      -0.145   2.116   0.077  0.00  0.00     0.002 A 
ENDROOT
BRANCH   1   7
ATOM      7  C2  UNL d   1      -0.236  -0.399  -0.143  0.00  0.00     0.056 C 
BRANCH   7   8
ATOM      8  C1  UNL d   1       0.352  -1.620   0.571  0.00  0.00     0.007 C 
ATOM      9  C   UNL d   1       0.086  -2.929  -0.160  0.00  0.00     0.009 C 
ENDBRANCH   7   8
ENDBRANCH   1   7
TORSDOF 2
ENDMDL
