MODEL 1
REMARK minimizedAffinity -2.35154676
REMARK minimizedRMSD -1
REMARK  2 active torsions:
REMARK  status: ('A' for Active; 'I' for Inactive)
REMARK    1  A    between atoms: C1_2  and  C2_3 
REMARK    2  A    between atoms: C2_3  and  C3_4 
ROOT
ATOM      1  C3  UNL d   1      -0.088  -1.134  -0.098  0.00  0.00    -0.075 A 
ATOM      2  C4  UNL d   1      -1.220  -0.328   0.089  0.00  0.00     0.002 A 
ATOM      3  C5  UNL d   1      -1.085   1.044   0.300  0.00  0.00     0.002 A 
ATOM      4  C6  UNL d   1       0.180   1.626   0.335  0.00  0.00    -0.004 A 
ATOM      5  C7  UNL d   1       1.313   0.832   0.166  0.00  0.00     0.002 A 
ATOM      6  C8  UNL d   1       1.181  -0.541  -0.049  0.00  0.00     0.002 A 
ENDROOT
BRANCH   1   7
ATOM      7  C2  UNL d   1      -0.228  -2.616  -0.356  0.00  0.00     0.056 C 
BRANCH   7   8
ATOM      8  C1  UNL d   1      -1.157  -2.960  -1.525  0.00  0.00     0.007 C 
ATOM      9  C   UNL d   1      -0.426  -3.574  -2.711  0.00  0.00     0.009 C 
ENDBRANCH   7   8
ENDBRANCH   1   7
TORSDOF 2
ENDMDL
