MODEL 1
REMARK minimizedAffinity -1.96672034
REMARK minimizedRMSD -1
REMARK  2 active torsions:
REMARK  status: ('A' for Active; 'I' for Inactive)
REMARK    1  A    between atoms: C1_2  and  C2_3 
REMARK    2  A    between atoms: C2_3  and  C3_4 
ROOT
ATOM      1  C3  UNL d   1       0.814   2.884   0.788  0.00  0.00    -0.075 A 
ATOM      2  C4  UNL d   1      -0.563   2.625   0.717  0.00  0.00     0.002 A 
ATOM      3  C5  UNL d   1      -1.333   2.569   1.879  0.00  0.00     0.002 A 
ATOM      4  C6  UNL d   1      -0.738   2.759   3.123  0.00  0.00    -0.004 A 
ATOM      5  C7  UNL d   1       0.632   3.000   3.207  0.00  0.00     0.002 A 
ATOM      6  C8  UNL d   1       1.405   3.062   2.046  0.00  0.00     0.002 A 
ENDROOT
BRANCH   1   7
ATOM      7  C2  UNL d   1       1.648   2.975  -0.467  0.00  0.00     0.056 C 
BRANCH   7   8
ATOM      8  C1  UNL d   1       2.995   2.250  -0.375  0.00  0.00     0.007 C 
ATOM      9  C   UNL d   1       2.867   0.802   0.080  0.00  0.00     0.009 C 
ENDBRANCH   7   8
ENDBRANCH   1   7
TORSDOF 2
ENDMDL
