MODEL 1
REMARK minimizedAffinity -6.4223752
REMARK minimizedRMSD -1
REMARK  2 active torsions:
REMARK  status: ('A' for Active; 'I' for Inactive)
REMARK    1  A    between atoms: C1_2  and  C2_3 
REMARK    2  A    between atoms: C2_3  and  C3_4 
ROOT
ATOM      1  C3  UNL d   1       0.149   0.338   0.117  0.00  0.00    -0.075 A 
ATOM      2  C4  UNL d   1       1.445   0.841   0.303  0.00  0.00     0.002 A 
ATOM      3  C5  UNL d   1       1.659   2.213   0.442  0.00  0.00     0.002 A 
ATOM      4  C6  UNL d   1       0.584   3.098   0.387  0.00  0.00    -0.004 A 
ATOM      5  C7  UNL d   1      -0.705   2.611   0.186  0.00  0.00     0.002 A 
ATOM      6  C8  UNL d   1      -0.923   1.238   0.051  0.00  0.00     0.002 A 
ENDROOT
BRANCH   1   7
ATOM      7  C2  UNL d   1      -0.093  -1.147  -0.005  0.00  0.00     0.056 C 
BRANCH   7   8
ATOM      8  C1  UNL d   1      -0.245  -1.638  -1.448  0.00  0.00     0.007 C 
ATOM      9  C   UNL d   1      -0.601  -3.116  -1.546  0.00  0.00     0.009 C 
ENDBRANCH   7   8
ENDBRANCH   1   7
TORSDOF 2
ENDMDL
