MODEL 1
REMARK minimizedAffinity -3.69013071
REMARK minimizedRMSD -1
REMARK  2 active torsions:
REMARK  status: ('A' for Active; 'I' for Inactive)
REMARK    1  A    between atoms: C1_2  and  C2_3 
REMARK    2  A    between atoms: C2_3  and  C3_4 
ROOT
ATOM      1  C3  UNL d   1      -0.120  -0.907  -0.719  0.00  0.00    -0.075 A 
ATOM      2  C4  UNL d   1      -0.134  -0.867  -2.121  0.00  0.00     0.002 A 
ATOM      3  C5  UNL d   1      -0.489  -1.997  -2.857  0.00  0.00     0.002 A 
ATOM      4  C6  UNL d   1      -0.823  -3.182  -2.205  0.00  0.00    -0.004 A 
ATOM      5  C7  UNL d   1      -0.797  -3.237  -0.813  0.00  0.00     0.002 A 
ATOM      6  C8  UNL d   1      -0.446  -2.106  -0.073  0.00  0.00     0.002 A 
ENDROOT
BRANCH   1   7
ATOM      7  C2  UNL d   1       0.234   0.322   0.085  0.00  0.00     0.056 C 
BRANCH   7   8
ATOM      8  C1  UNL d   1      -0.965   0.986   0.770  0.00  0.00     0.007 C 
ATOM      9  C   UNL d   1      -1.508   2.184   0.001  0.00  0.00     0.009 C 
ENDBRANCH   7   8
ENDBRANCH   1   7
TORSDOF 2
ENDMDL
