MODEL 1
REMARK minimizedAffinity -3.20938826
REMARK minimizedRMSD -1
REMARK  2 active torsions:
REMARK  status: ('A' for Active; 'I' for Inactive)
REMARK    1  A    between atoms: C1_2  and  C2_3 
REMARK    2  A    between atoms: C2_3  and  C3_4 
ROOT
ATOM      1  C3  UNL d   1      -0.240  -0.018  -0.016  0.00  0.00    -0.075 A 
ATOM      2  C4  UNL d   1      -1.346   0.733   0.407  0.00  0.00     0.002 A 
ATOM      3  C5  UNL d   1      -1.245   2.116   0.562  0.00  0.00     0.002 A 
ATOM      4  C6  UNL d   1      -0.038   2.763   0.307  0.00  0.00    -0.004 A 
ATOM      5  C7  UNL d   1       1.072   2.025  -0.098  0.00  0.00     0.002 A 
ATOM      6  C8  UNL d   1       0.973   0.641  -0.258  0.00  0.00     0.002 A 
ENDROOT
BRANCH   1   7
ATOM      7  C2  UNL d   1      -0.350  -1.511  -0.214  0.00  0.00     0.056 C 
BRANCH   7   8
ATOM      8  C1  UNL d   1      -0.042  -1.975  -1.642  0.00  0.00     0.007 C 
ATOM      9  C   UNL d   1      -0.965  -3.086  -2.124  0.00  0.00     0.009 C 
ENDBRANCH   7   8
ENDBRANCH   1   7
TORSDOF 2
ENDMDL
