MODEL 1
REMARK minimizedAffinity -4.68205881
REMARK minimizedRMSD -1
REMARK  2 active torsions:
REMARK  status: ('A' for Active; 'I' for Inactive)
REMARK    1  A    between atoms: C1_2  and  C2_3 
REMARK    2  A    between atoms: C2_3  and  C3_4 
ROOT
ATOM      1  C3  UNL d   1      -0.162   0.470  -0.544  0.00  0.00    -0.075 A 
ATOM      2  C4  UNL d   1       0.540   1.653  -0.819  0.00  0.00     0.002 A 
ATOM      3  C5  UNL d   1       0.236   2.831  -0.136  0.00  0.00     0.002 A 
ATOM      4  C6  UNL d   1      -0.777   2.844   0.820  0.00  0.00    -0.004 A 
ATOM      5  C7  UNL d   1      -1.492   1.679   1.089  0.00  0.00     0.002 A 
ATOM      6  C8  UNL d   1      -1.187   0.497   0.411  0.00  0.00     0.002 A 
ENDROOT
BRANCH   1   7
ATOM      7  C2  UNL d   1       0.182  -0.816  -1.258  0.00  0.00     0.056 C 
BRANCH   7   8
ATOM      8  C1  UNL d   1      -0.117  -2.080  -0.446  0.00  0.00     0.007 C 
ATOM      9  C   UNL d   1      -0.885  -3.132  -1.234  0.00  0.00     0.009 C 
ENDBRANCH   7   8
ENDBRANCH   1   7
TORSDOF 2
ENDMDL
