MODEL 1
REMARK minimizedAffinity 5.91338778
REMARK minimizedRMSD -1
REMARK  3 active torsions:
REMARK  status: ('A' for Active; 'I' for Inactive)
REMARK    1  A    between atoms: C3'_2  and  C2'_3 
REMARK    2  A    between atoms: C2'_3  and  C1'_4 
REMARK    3  A    between atoms: C1'_4  and  C1_5 
ROOT
ATOM      1  C1  N4B d   1       0.647   1.500   3.173  0.00  0.00    -0.075 A 
ATOM      2  C2  N4B d   1      -0.282   1.099   4.158  0.00  0.00     0.002 A 
ATOM      3  C3  N4B d   1      -0.019   0.005   4.946  0.00  0.00     0.002 A 
ATOM      4  C4  N4B d   1       1.153  -0.711   4.754  0.00  0.00    -0.004 A 
ATOM      5  C5  N4B d   1       2.057  -0.303   3.818  0.00  0.00     0.002 A 
ATOM      6  C6  N4B d   1       1.807   0.797   3.022  0.00  0.00     0.002 A 
ENDROOT
BRANCH   1   7
ATOM      7  C1' N4B d   1       0.364   2.637   2.230  0.00  0.00     0.057 C 
BRANCH   7   8
ATOM      8  C2' N4B d   1       0.284   2.098   0.805  0.00  0.00     0.009 C 
BRANCH   8   9
ATOM      9  C3' N4B d   1      -0.324   3.110  -0.152  0.00  0.00     0.004 C 
ATOM     10  C4' N4B d   1       0.377   4.435  -0.118  0.00  0.00     0.003 C 
ENDBRANCH   8   9
ENDBRANCH   7   8
ENDBRANCH   1   7
TORSDOF 3
ENDMDL
