MODEL 1
REMARK minimizedAffinity 1.82246077
REMARK minimizedRMSD -1
REMARK  3 active torsions:
REMARK  status: ('A' for Active; 'I' for Inactive)
REMARK    1  A    between atoms: C3'_2  and  C2'_3 
REMARK    2  A    between atoms: C2'_3  and  C1'_4 
REMARK    3  A    between atoms: C1'_4  and  C1_5 
ROOT
ATOM      1  C1  N4B d   1      -1.453  -1.158   0.127  0.00  0.00    -0.075 A 
ATOM      2  C2  N4B d   1      -2.363  -0.110  -0.131  0.00  0.00     0.002 A 
ATOM      3  C3  N4B d   1      -1.913   1.073  -0.664  0.00  0.00     0.002 A 
ATOM      4  C4  N4B d   1      -0.562   1.238  -0.927  0.00  0.00    -0.004 A 
ATOM      5  C5  N4B d   1       0.307   0.211  -0.699  0.00  0.00     0.002 A 
ATOM      6  C6  N4B d   1      -0.131  -0.986  -0.167  0.00  0.00     0.002 A 
ENDROOT
BRANCH   1   7
ATOM      7  C1' N4B d   1      -1.884  -2.439   0.788  0.00  0.00     0.057 C 
BRANCH   7   8
ATOM      8  C2' N4B d   1      -1.078  -3.598   0.209  0.00  0.00     0.009 C 
BRANCH   8   9
ATOM      9  C3' N4B d   1      -1.725  -4.172  -1.040  0.00  0.00     0.004 C 
ATOM     10  C4' N4B d   1      -1.013  -3.773  -2.298  0.00  0.00     0.003 C 
ENDBRANCH   8   9
ENDBRANCH   7   8
ENDBRANCH   1   7
TORSDOF 3
ENDMDL
