MODEL 1
REMARK minimizedAffinity 7.22740364
REMARK minimizedRMSD -1
REMARK  3 active torsions:
REMARK  status: ('A' for Active; 'I' for Inactive)
REMARK    1  A    between atoms: C3'_2  and  C2'_3 
REMARK    2  A    between atoms: C2'_3  and  C1'_4 
REMARK    3  A    between atoms: C1'_4  and  C1_5 
ROOT
ATOM      1  C1  N4B d   1       0.477   0.996   1.970  0.00  0.00    -0.075 A 
ATOM      2  C2  N4B d   1       0.705  -0.393   1.850  0.00  0.00     0.002 A 
ATOM      3  C3  N4B d   1       0.033  -1.119   0.898  0.00  0.00     0.002 A 
ATOM      4  C4  N4B d   1      -0.881  -0.484   0.070  0.00  0.00    -0.004 A 
ATOM      5  C5  N4B d   1      -1.077   0.862   0.176  0.00  0.00     0.002 A 
ATOM      6  C6  N4B d   1      -0.405   1.605   1.126  0.00  0.00     0.002 A 
ENDROOT
BRANCH   1   7
ATOM      7  C1' N4B d   1       1.124   1.816   3.053  0.00  0.00     0.057 C 
BRANCH   7   8
ATOM      8  C2' N4B d   1       0.777   3.287   2.842  0.00  0.00     0.009 C 
BRANCH   8   9
ATOM      9  C3' N4B d   1       2.020   4.149   2.701  0.00  0.00     0.004 C 
ATOM     10  C4' N4B d   1       1.951   5.081   1.528  0.00  0.00     0.003 C 
ENDBRANCH   8   9
ENDBRANCH   7   8
ENDBRANCH   1   7
TORSDOF 3
ENDMDL
