MODEL 1
REMARK minimizedAffinity 1.15429461
REMARK minimizedRMSD -1
REMARK  3 active torsions:
REMARK  status: ('A' for Active; 'I' for Inactive)
REMARK    1  A    between atoms: C3'_2  and  C2'_3 
REMARK    2  A    between atoms: C2'_3  and  C1'_4 
REMARK    3  A    between atoms: C1'_4  and  C1_5 
ROOT
ATOM      1  C1  N4B d   1      -2.989  -2.951  -2.744  0.00  0.00    -0.075 A 
ATOM      2  C2  N4B d   1      -3.206  -1.745  -2.041  0.00  0.00     0.002 A 
ATOM      3  C3  N4B d   1      -3.757  -0.665  -2.685  0.00  0.00     0.002 A 
ATOM      4  C4  N4B d   1      -4.080  -0.760  -4.031  0.00  0.00    -0.004 A 
ATOM      5  C5  N4B d   1      -3.891  -1.936  -4.696  0.00  0.00     0.002 A 
ATOM      6  C6  N4B d   1      -3.342  -3.031  -4.060  0.00  0.00     0.002 A 
ENDROOT
BRANCH   1   7
ATOM      7  C1' N4B d   1      -2.311  -4.132  -2.105  0.00  0.00     0.057 C 
BRANCH   7   8
ATOM      8  C2' N4B d   1      -1.419  -4.816  -3.137  0.00  0.00     0.009 C 
BRANCH   8   9
ATOM      9  C3' N4B d   1      -2.136  -5.954  -3.842  0.00  0.00     0.004 C 
ATOM     10  C4' N4B d   1      -1.849  -5.997  -5.314  0.00  0.00     0.003 C 
ENDBRANCH   8   9
ENDBRANCH   7   8
ENDBRANCH   1   7
TORSDOF 3
ENDMDL
