MODEL 1
REMARK minimizedAffinity 4.43560982
REMARK minimizedRMSD -1
REMARK  3 active torsions:
REMARK  status: ('A' for Active; 'I' for Inactive)
REMARK    1  A    between atoms: C3'_2  and  C2'_3 
REMARK    2  A    between atoms: C2'_3  and  C1'_4 
REMARK    3  A    between atoms: C1'_4  and  C1_5 
ROOT
ATOM      1  C1  N4B d   1      -0.774  -0.018  -0.166  0.00  0.00    -0.075 A 
ATOM      2  C2  N4B d   1      -1.293  -1.280   0.198  0.00  0.00     0.002 A 
ATOM      3  C3  N4B d   1      -2.632  -1.420   0.467  0.00  0.00     0.002 A 
ATOM      4  C4  N4B d   1      -3.465  -0.313   0.396  0.00  0.00    -0.004 A 
ATOM      5  C5  N4B d   1      -2.960   0.897   0.019  0.00  0.00     0.002 A 
ATOM      6  C6  N4B d   1      -1.617   1.051  -0.258  0.00  0.00     0.002 A 
ENDROOT
BRANCH   1   7
ATOM      7  C1' N4B d   1       0.698   0.202  -0.385  0.00  0.00     0.057 C 
BRANCH   7   8
ATOM      8  C2' N4B d   1       1.483  -0.857   0.384  0.00  0.00     0.009 C 
BRANCH   8   9
ATOM      9  C3' N4B d   1       2.139  -0.286   1.629  0.00  0.00     0.004 C 
ATOM     10  C4' N4B d   1       2.778  -1.339   2.484  0.00  0.00     0.003 C 
ENDBRANCH   8   9
ENDBRANCH   7   8
ENDBRANCH   1   7
TORSDOF 3
ENDMDL
