MODEL 1
REMARK minimizedAffinity 16.2129879
REMARK minimizedRMSD -1
REMARK  3 active torsions:
REMARK  status: ('A' for Active; 'I' for Inactive)
REMARK    1  A    between atoms: C3'_2  and  C2'_3 
REMARK    2  A    between atoms: C2'_3  and  C1'_4 
REMARK    3  A    between atoms: C1'_4  and  C1_5 
ROOT
ATOM      1  C1  N4B d   1       1.302  -1.600   4.259  0.00  0.00    -0.075 A 
ATOM      2  C2  N4B d   1       2.342  -2.132   5.053  0.00  0.00     0.002 A 
ATOM      3  C3  N4B d   1       3.619  -2.202   4.553  0.00  0.00     0.002 A 
ATOM      4  C4  N4B d   1       3.876  -1.766   3.262  0.00  0.00    -0.004 A 
ATOM      5  C5  N4B d   1       2.871  -1.230   2.511  0.00  0.00     0.002 A 
ATOM      6  C6  N4B d   1       1.583  -1.150   3.002  0.00  0.00     0.002 A 
ENDROOT
BRANCH   1   7
ATOM      7  C1' N4B d   1      -0.127  -1.582   4.730  0.00  0.00     0.057 C 
BRANCH   7   8
ATOM      8  C2' N4B d   1      -0.888  -2.724   4.064  0.00  0.00     0.009 C 
BRANCH   8   9
ATOM      9  C3' N4B d   1      -1.686  -2.249   2.861  0.00  0.00     0.004 C 
ATOM     10  C4' N4B d   1      -1.240  -2.887   1.580  0.00  0.00     0.003 C 
ENDBRANCH   8   9
ENDBRANCH   7   8
ENDBRANCH   1   7
TORSDOF 3
ENDMDL
