MODEL 1
REMARK minimizedAffinity 2.56059694
REMARK minimizedRMSD -1
REMARK  0 active torsions:
REMARK  status: ('A' for Active; 'I' for Inactive)
ROOT
ATOM      1  C   UNL d   1       2.269  -2.221   0.716  0.00  0.00     0.077 C 
ATOM      2  C1  UNL d   1       3.024  -0.963   0.403  0.00  0.00    -0.074 A 
ATOM      3  C2  UNL d   1       4.365  -0.819   0.774  0.00  0.00    -0.005 A 
ATOM      4  C3  UNL d   1       5.057   0.353   0.468  0.00  0.00     0.006 A 
ATOM      5  C4  UNL d   1       4.416   1.390  -0.210  0.00  0.00    -0.005 A 
ATOM      6  C5  UNL d   1       3.076   1.264  -0.590  0.00  0.00    -0.074 A 
ATOM      7  C6  UNL d   1       2.376   2.365  -1.328  0.00  0.00     0.077 C 
ATOM      8  C7  UNL d   1       2.390   0.081  -0.285  0.00  0.00    -0.001 A 
ENDROOT
TORSDOF 0
ENDMDL
