MODEL 1
REMARK minimizedAffinity 1.68460846
REMARK minimizedRMSD -1
REMARK  0 active torsions:
REMARK  status: ('A' for Active; 'I' for Inactive)
ROOT
ATOM      1  C   UNL d   1       3.453  -3.468   1.086  0.00  0.00     0.077 C 
ATOM      2  C1  UNL d   1       2.070  -3.438   1.665  0.00  0.00    -0.074 A 
ATOM      3  C2  UNL d   1       1.331  -4.615   1.821  0.00  0.00    -0.005 A 
ATOM      4  C3  UNL d   1       0.049  -4.573   2.369  0.00  0.00     0.006 A 
ATOM      5  C4  UNL d   1      -0.506  -3.356   2.766  0.00  0.00    -0.005 A 
ATOM      6  C5  UNL d   1       0.218  -2.169   2.618  0.00  0.00    -0.074 A 
ATOM      7  C6  UNL d   1      -0.360  -0.853   3.048  0.00  0.00     0.077 C 
ATOM      8  C7  UNL d   1       1.508  -2.220   2.073  0.00  0.00    -0.001 A 
ENDROOT
TORSDOF 0
ENDMDL
