MODEL 1
REMARK minimizedAffinity 7.2131052
REMARK minimizedRMSD -1
REMARK  0 active torsions:
REMARK  status: ('A' for Active; 'I' for Inactive)
ROOT
ATOM      1  C   UNL d   1       2.974  -3.362   0.850  0.00  0.00     0.077 C 
ATOM      2  C1  UNL d   1       1.843  -2.645   1.525  0.00  0.00    -0.074 A 
ATOM      3  C2  UNL d   1       1.698  -1.259   1.406  0.00  0.00    -0.005 A 
ATOM      4  C3  UNL d   1       0.636  -0.606   2.031  0.00  0.00     0.006 A 
ATOM      5  C4  UNL d   1      -0.291  -1.332   2.781  0.00  0.00    -0.005 A 
ATOM      6  C5  UNL d   1      -0.163  -2.719   2.910  0.00  0.00    -0.074 A 
ATOM      7  C6  UNL d   1      -1.156  -3.515   3.704  0.00  0.00     0.077 C 
ATOM      8  C7  UNL d   1       0.903  -3.368   2.273  0.00  0.00    -0.001 A 
ENDROOT
TORSDOF 0
ENDMDL
