MODEL 1
REMARK minimizedAffinity 3.63338232
REMARK minimizedRMSD -1
REMARK  0 active torsions:
REMARK  status: ('A' for Active; 'I' for Inactive)
ROOT
ATOM      1  C   UNL d   1       2.027   0.709   2.494  0.00  0.00     0.077 C 
ATOM      2  C1  UNL d   1       1.170  -0.521   2.494  0.00  0.00    -0.074 A 
ATOM      3  C2  UNL d   1       0.027  -0.601   3.296  0.00  0.00    -0.005 A 
ATOM      4  C3  UNL d   1      -0.766  -1.748   3.279  0.00  0.00     0.006 A 
ATOM      5  C4  UNL d   1      -0.425  -2.826   2.461  0.00  0.00    -0.005 A 
ATOM      6  C5  UNL d   1       0.714  -2.764   1.651  0.00  0.00    -0.074 A 
ATOM      7  C6  UNL d   1       1.089  -3.910   0.759  0.00  0.00     0.077 C 
ATOM      8  C7  UNL d   1       1.502  -1.605   1.669  0.00  0.00    -0.001 A 
ENDROOT
TORSDOF 0
ENDMDL
