MODEL 1
REMARK minimizedAffinity 7.67616653
REMARK minimizedRMSD -1
REMARK  0 active torsions:
REMARK  status: ('A' for Active; 'I' for Inactive)
ROOT
ATOM      1  C   UNL d   1      -3.897   1.762   2.656  0.00  0.00     0.077 C 
ATOM      2  C1  UNL d   1      -3.519   2.621   3.826  0.00  0.00    -0.074 A 
ATOM      3  C2  UNL d   1      -2.241   2.548   4.389  0.00  0.00    -0.005 A 
ATOM      4  C3  UNL d   1      -1.901   3.361   5.471  0.00  0.00     0.006 A 
ATOM      5  C4  UNL d   1      -2.835   4.253   6.000  0.00  0.00    -0.005 A 
ATOM      6  C5  UNL d   1      -4.117   4.341   5.450  0.00  0.00    -0.074 A 
ATOM      7  C6  UNL d   1      -5.129   5.301   6.000  0.00  0.00     0.077 C 
ATOM      8  C7  UNL d   1      -4.449   3.526   4.358  0.00  0.00    -0.001 A 
ENDROOT
TORSDOF 0
ENDMDL
