MODEL 1
REMARK minimizedAffinity 2.59373879
REMARK minimizedRMSD -1
REMARK  0 active torsions:
REMARK  status: ('A' for Active; 'I' for Inactive)
ROOT
ATOM      1  C   UNL d   1       1.455  -0.662   3.599  0.00  0.00     0.077 C 
ATOM      2  C1  UNL d   1       1.794  -1.155   2.223  0.00  0.00    -0.074 A 
ATOM      3  C2  UNL d   1       0.956  -2.053   1.554  0.00  0.00    -0.005 A 
ATOM      4  C3  UNL d   1       1.279  -2.495   0.271  0.00  0.00     0.006 A 
ATOM      5  C4  UNL d   1       2.442  -2.044  -0.355  0.00  0.00    -0.005 A 
ATOM      6  C5  UNL d   1       3.292  -1.145   0.298  0.00  0.00    -0.074 A 
ATOM      7  C6  UNL d   1       4.541  -0.644  -0.364  0.00  0.00     0.077 C 
ATOM      8  C7  UNL d   1       2.957  -0.701   1.584  0.00  0.00    -0.001 A 
ENDROOT
TORSDOF 0
ENDMDL
