MODEL 1
REMARK minimizedAffinity 4.53388548
REMARK minimizedRMSD -1
REMARK  0 active torsions:
REMARK  status: ('A' for Active; 'I' for Inactive)
ROOT
ATOM      1  C   UNL d   1      -4.774   5.025  -4.128  0.00  0.00     0.077 C 
ATOM      2  C1  UNL d   1      -3.494   4.243  -4.123  0.00  0.00    -0.074 A 
ATOM      3  C2  UNL d   1      -3.354   3.098  -3.333  0.00  0.00    -0.005 A 
ATOM      4  C3  UNL d   1      -2.161   2.376  -3.346  0.00  0.00     0.006 A 
ATOM      5  C4  UNL d   1      -1.097   2.790  -4.148  0.00  0.00    -0.005 A 
ATOM      6  C5  UNL d   1      -1.219   3.932  -4.946  0.00  0.00    -0.074 A 
ATOM      7  C6  UNL d   1      -0.089   4.386  -5.822  0.00  0.00     0.077 C 
ATOM      8  C7  UNL d   1      -2.424   4.649  -4.933  0.00  0.00    -0.001 A 
ENDROOT
TORSDOF 0
ENDMDL
