MODEL 1
REMARK minimizedAffinity 11.9307203
REMARK minimizedRMSD -1
REMARK  0 active torsions:
REMARK  status: ('A' for Active; 'I' for Inactive)
ROOT
ATOM      1  C   UNL d   1       0.919  -0.808   2.607  0.00  0.00     0.077 C 
ATOM      2  C1  UNL d   1       1.296  -1.758   1.509  0.00  0.00    -0.074 A 
ATOM      3  C2  UNL d   1       2.211  -1.386   0.519  0.00  0.00    -0.005 A 
ATOM      4  C3  UNL d   1       2.558  -2.283  -0.491  0.00  0.00     0.006 A 
ATOM      5  C4  UNL d   1       1.995  -3.559  -0.521  0.00  0.00    -0.005 A 
ATOM      6  C5  UNL d   1       1.079  -3.949   0.461  0.00  0.00    -0.074 A 
ATOM      7  C6  UNL d   1       0.471  -5.321   0.449  0.00  0.00     0.077 C 
ATOM      8  C7  UNL d   1       0.740  -3.044   1.476  0.00  0.00    -0.001 A 
ENDROOT
TORSDOF 0
ENDMDL
