MODEL 1
REMARK minimizedAffinity 13.5540648
REMARK minimizedRMSD -1
REMARK  0 active torsions:
REMARK  status: ('A' for Active; 'I' for Inactive)
ROOT
ATOM      1  C   UNL d   1      -3.800   1.320   1.630  0.00  0.00     0.077 C 
ATOM      2  C1  UNL d   1      -2.339   1.282   1.294  0.00  0.00    -0.074 A 
ATOM      3  C2  UNL d   1      -1.888   1.604   0.010  0.00  0.00    -0.005 A 
ATOM      4  C3  UNL d   1      -0.525   1.574  -0.285  0.00  0.00     0.006 A 
ATOM      5  C4  UNL d   1       0.399   1.221   0.699  0.00  0.00    -0.005 A 
ATOM      6  C5  UNL d   1      -0.033   0.897   1.989  0.00  0.00    -0.074 A 
ATOM      7  C6  UNL d   1       0.948   0.526   3.062  0.00  0.00     0.077 C 
ATOM      8  C7  UNL d   1      -1.404   0.937   2.280  0.00  0.00    -0.001 A 
ENDROOT
TORSDOF 0
ENDMDL
