MODEL 1
REMARK minimizedAffinity 2.472826
REMARK minimizedRMSD -1
REMARK  0 active torsions:
REMARK  status: ('A' for Active; 'I' for Inactive)
ROOT
ATOM      1  C   UNL d   1       6.000   5.294  -2.232  0.00  0.00     0.077 C 
ATOM      2  C1  UNL d   1       5.757   4.141  -1.305  0.00  0.00    -0.074 A 
ATOM      3  C2  UNL d   1       6.000   4.258   0.067  0.00  0.00    -0.005 A 
ATOM      4  C3  UNL d   1       5.760   3.179   0.919  0.00  0.00     0.006 A 
ATOM      5  C4  UNL d   1       5.276   1.975   0.407  0.00  0.00    -0.005 A 
ATOM      6  C5  UNL d   1       5.026   1.839  -0.962  0.00  0.00    -0.074 A 
ATOM      7  C6  UNL d   1       4.496   0.555  -1.527  0.00  0.00     0.077 C 
ATOM      8  C7  UNL d   1       5.263   2.930  -1.810  0.00  0.00    -0.001 A 
ENDROOT
TORSDOF 0
ENDMDL
