MODEL 1
REMARK minimizedAffinity 3.63688183
REMARK minimizedRMSD -1
REMARK  0 active torsions:
REMARK  status: ('A' for Active; 'I' for Inactive)
ROOT
ATOM      1  C   UNL d   1       4.617   0.722  -0.818  0.00  0.00     0.077 C 
ATOM      2  C1  UNL d   1       3.674  -0.421  -1.056  0.00  0.00    -0.074 A 
ATOM      3  C2  UNL d   1       2.439  -0.482  -0.402  0.00  0.00    -0.005 A 
ATOM      4  C3  UNL d   1       1.569  -1.546  -0.640  0.00  0.00     0.006 A 
ATOM      5  C4  UNL d   1       1.925  -2.557  -1.533  0.00  0.00    -0.005 A 
ATOM      6  C5  UNL d   1       3.155  -2.513  -2.197  0.00  0.00    -0.074 A 
ATOM      7  C6  UNL d   1       3.548  -3.587  -3.167  0.00  0.00     0.077 C 
ATOM      8  C7  UNL d   1       4.021  -1.437  -1.958  0.00  0.00    -0.001 A 
ENDROOT
TORSDOF 0
ENDMDL
