MODEL 1
REMARK minimizedAffinity 14.0565042
REMARK minimizedRMSD -1
REMARK  0 active torsions:
REMARK  status: ('A' for Active; 'I' for Inactive)
ROOT
ATOM      1  C   UNL d   1       1.622  -1.273  -1.918  0.00  0.00     0.077 C 
ATOM      2  C1  UNL d   1       2.680  -0.604  -1.091  0.00  0.00    -0.074 A 
ATOM      3  C2  UNL d   1       2.887  -0.969   0.243  0.00  0.00    -0.005 A 
ATOM      4  C3  UNL d   1       3.881  -0.345   0.997  0.00  0.00     0.006 A 
ATOM      5  C4  UNL d   1       4.678   0.648   0.425  0.00  0.00    -0.005 A 
ATOM      6  C5  UNL d   1       4.486   1.025  -0.908  0.00  0.00    -0.074 A 
ATOM      7  C6  UNL d   1       5.340   2.083  -1.541  0.00  0.00     0.077 C 
ATOM      8  C7  UNL d   1       3.490   0.388  -1.661  0.00  0.00    -0.001 A 
ENDROOT
TORSDOF 0
ENDMDL
