MODEL 1
REMARK minimizedAffinity 8.28804779
REMARK minimizedRMSD -1
REMARK  0 active torsions:
REMARK  status: ('A' for Active; 'I' for Inactive)
ROOT
ATOM      1  C   UNL d   1       5.999   3.378   1.836  0.00  0.00     0.077 C 
ATOM      2  C1  UNL d   1       5.492   2.577   0.674  0.00  0.00    -0.074 A 
ATOM      3  C2  UNL d   1       5.774   2.959  -0.641  0.00  0.00    -0.005 A 
ATOM      4  C3  UNL d   1       5.303   2.199  -1.711  0.00  0.00     0.006 A 
ATOM      5  C4  UNL d   1       4.546   1.050  -1.478  0.00  0.00    -0.005 A 
ATOM      6  C5  UNL d   1       4.255   0.651  -0.169  0.00  0.00    -0.074 A 
ATOM      7  C6  UNL d   1       3.451  -0.586   0.100  0.00  0.00     0.077 C 
ATOM      8  C7  UNL d   1       4.737   1.417   0.901  0.00  0.00    -0.001 A 
ENDROOT
TORSDOF 0
ENDMDL
