MODEL 1
REMARK minimizedAffinity -2.52064872
REMARK minimizedRMSD -1
REMARK  0 active torsions:
REMARK  status: ('A' for Active; 'I' for Inactive)
ROOT
ATOM      1  C   UNL d   1       0.181   1.498  -0.535  0.00  0.00     0.023 A 
ATOM      2  C1  UNL d   1       1.366   1.177  -1.197  0.00  0.00     0.003 A 
ATOM      3  C2  UNL d   1       1.646  -0.151  -1.525  0.00  0.00     0.048 A 
ATOM      4  C3  UNL d   1       0.737  -1.153  -1.189  0.00  0.00     0.023 A 
ATOM      5  C4  UNL d   1      -0.451  -0.837  -0.528  0.00  0.00     0.048 A 
ATOM      6  C5  UNL d   1      -0.727   0.492  -0.201  0.00  0.00     0.003 A 
ATOM      7  I   UNL d   1       1.152  -3.131  -1.677  0.00  0.00    -0.146 I 
ENDROOT
TORSDOF 0
ENDMDL
