MODEL 1
REMARK minimizedAffinity -2.24991941
REMARK minimizedRMSD -1
REMARK  0 active torsions:
REMARK  status: ('A' for Active; 'I' for Inactive)
ROOT
ATOM      1  C   UNL d   1      -2.039   2.337   1.717  0.00  0.00     0.023 A 
ATOM      2  C1  UNL d   1      -1.153   1.496   2.392  0.00  0.00     0.003 A 
ATOM      3  C2  UNL d   1      -0.362   0.595   1.677  0.00  0.00     0.048 A 
ATOM      4  C3  UNL d   1      -0.460   0.540   0.287  0.00  0.00     0.023 A 
ATOM      5  C4  UNL d   1      -1.344   1.380  -0.393  0.00  0.00     0.048 A 
ATOM      6  C5  UNL d   1      -2.134   2.278   0.326  0.00  0.00     0.003 A 
ATOM      7  I   UNL d   1       0.717  -0.800  -0.780  0.00  0.00    -0.146 I 
ENDROOT
TORSDOF 0
ENDMDL
