MODEL 1
REMARK minimizedAffinity -1.94102132
REMARK minimizedRMSD -1
REMARK  0 active torsions:
REMARK  status: ('A' for Active; 'I' for Inactive)
ROOT
ATOM      1  C   UNL d   1      -1.389   1.225   1.571  0.00  0.00     0.023 A 
ATOM      2  C1  UNL d   1      -0.880   0.007   2.022  0.00  0.00     0.003 A 
ATOM      3  C2  UNL d   1      -0.173  -0.822   1.148  0.00  0.00     0.048 A 
ATOM      4  C3  UNL d   1       0.023  -0.426  -0.174  0.00  0.00     0.023 A 
ATOM      5  C4  UNL d   1      -0.484   0.792  -0.629  0.00  0.00     0.048 A 
ATOM      6  C5  UNL d   1      -1.191   1.617   0.247  0.00  0.00     0.003 A 
ATOM      7  I   UNL d   1       1.075  -1.658  -1.476  0.00  0.00    -0.146 I 
ENDROOT
TORSDOF 0
ENDMDL
