MODEL 1
REMARK minimizedAffinity -0.301758975
REMARK minimizedRMSD -1
REMARK  0 active torsions:
REMARK  status: ('A' for Active; 'I' for Inactive)
ROOT
ATOM      1  C   UNL d   1       1.246  -2.805  -3.091  0.00  0.00     0.023 A 
ATOM      2  C1  UNL d   1       1.491  -3.466  -1.887  0.00  0.00     0.003 A 
ATOM      3  C2  UNL d   1       1.300  -2.803  -0.673  0.00  0.00     0.048 A 
ATOM      4  C3  UNL d   1       0.863  -1.479  -0.670  0.00  0.00     0.023 A 
ATOM      5  C4  UNL d   1       0.616  -0.813  -1.872  0.00  0.00     0.048 A 
ATOM      6  C5  UNL d   1       0.809  -1.480  -3.083  0.00  0.00     0.003 A 
ATOM      7  I   UNL d   1       0.579  -0.489   1.135  0.00  0.00    -0.146 I 
ENDROOT
TORSDOF 0
ENDMDL
