MODEL 1
REMARK minimizedAffinity -4.13943243
REMARK minimizedRMSD -1
REMARK  0 active torsions:
REMARK  status: ('A' for Active; 'I' for Inactive)
ROOT
ATOM      1  C   UNL d   1      -1.145   1.708   1.827  0.00  0.00     0.023 A 
ATOM      2  C1  UNL d   1      -1.212   2.041   0.474  0.00  0.00     0.003 A 
ATOM      3  C2  UNL d   1      -0.838   1.107  -0.495  0.00  0.00     0.048 A 
ATOM      4  C3  UNL d   1      -0.399  -0.157  -0.104  0.00  0.00     0.023 A 
ATOM      5  C4  UNL d   1      -0.333  -0.495   1.249  0.00  0.00     0.048 A 
ATOM      6  C5  UNL d   1      -0.707   0.442   2.214  0.00  0.00     0.003 A 
ATOM      7  I   UNL d   1       0.157  -1.549  -1.544  0.00  0.00    -0.146 I 
ENDROOT
TORSDOF 0
ENDMDL
