MODEL 1
REMARK minimizedAffinity -2.05978751
REMARK minimizedRMSD -1
REMARK  0 active torsions:
REMARK  status: ('A' for Active; 'I' for Inactive)
ROOT
ATOM      1  C   UNL d   1       1.222   0.038  -1.020  0.00  0.00     0.023 A 
ATOM      2  C1  UNL d   1       0.972   1.381  -1.306  0.00  0.00     0.003 A 
ATOM      3  C2  UNL d   1       0.152   2.134  -0.463  0.00  0.00     0.048 A 
ATOM      4  C3  UNL d   1      -0.414   1.539   0.664  0.00  0.00     0.023 A 
ATOM      5  C4  UNL d   1      -0.166   0.197   0.954  0.00  0.00     0.048 A 
ATOM      6  C5  UNL d   1       0.654  -0.553   0.108  0.00  0.00     0.003 A 
ATOM      7  I   UNL d   1      -1.635   2.659   1.920  0.00  0.00    -0.146 I 
ENDROOT
TORSDOF 0
ENDMDL
