MODEL 1
REMARK minimizedAffinity -3.94822145
REMARK minimizedRMSD -1
REMARK  0 active torsions:
REMARK  status: ('A' for Active; 'I' for Inactive)
ROOT
ATOM      1  C   UNL d   1      -1.501   3.557   0.767  0.00  0.00     0.023 A 
ATOM      2  C1  UNL d   1      -1.692   2.418   1.549  0.00  0.00     0.003 A 
ATOM      3  C2  UNL d   1      -1.071   1.217   1.200  0.00  0.00     0.048 A 
ATOM      4  C3  UNL d   1      -0.260   1.163   0.067  0.00  0.00     0.023 A 
ATOM      5  C4  UNL d   1      -0.065   2.300  -0.718  0.00  0.00     0.048 A 
ATOM      6  C5  UNL d   1      -0.689   3.498  -0.365  0.00  0.00     0.003 A 
ATOM      7  I   UNL d   1       0.666  -0.623  -0.455  0.00  0.00    -0.146 I 
ENDROOT
TORSDOF 0
ENDMDL
