MODEL 1
REMARK minimizedAffinity -4.58435917
REMARK minimizedRMSD -1
REMARK  0 active torsions:
REMARK  status: ('A' for Active; 'I' for Inactive)
ROOT
ATOM      1  C   UNL d   1      -1.524   2.855   1.052  0.00  0.00     0.023 A 
ATOM      2  C1  UNL d   1      -1.468   1.697   1.827  0.00  0.00     0.003 A 
ATOM      3  C2  UNL d   1      -0.723   0.599   1.392  0.00  0.00     0.048 A 
ATOM      4  C3  UNL d   1      -0.035   0.666   0.181  0.00  0.00     0.023 A 
ATOM      5  C4  UNL d   1      -0.087   1.824  -0.598  0.00  0.00     0.048 A 
ATOM      6  C5  UNL d   1      -0.835   2.918  -0.159  0.00  0.00     0.003 A 
ATOM      7  I   UNL d   1       1.075  -0.966  -0.469  0.00  0.00    -0.146 I 
ENDROOT
TORSDOF 0
ENDMDL
