MODEL 1
REMARK minimizedAffinity -2.08214188
REMARK minimizedRMSD -1
REMARK  0 active torsions:
REMARK  status: ('A' for Active; 'I' for Inactive)
ROOT
ATOM      1  C   UNL d   1       1.220  -0.814  -1.189  0.00  0.00     0.023 A 
ATOM      2  C1  UNL d   1       0.936  -1.264   0.101  0.00  0.00     0.003 A 
ATOM      3  C2  UNL d   1       0.158  -0.483   0.958  0.00  0.00     0.048 A 
ATOM      4  C3  UNL d   1      -0.334   0.745   0.519  0.00  0.00     0.023 A 
ATOM      5  C4  UNL d   1      -0.054   1.199  -0.771  0.00  0.00     0.048 A 
ATOM      6  C5  UNL d   1       0.725   0.415  -1.624  0.00  0.00     0.003 A 
ATOM      7  I   UNL d   1      -1.493   1.909   1.794  0.00  0.00    -0.146 I 
ENDROOT
TORSDOF 0
ENDMDL
