MODEL 1
REMARK minimizedAffinity -4.46563339
REMARK minimizedRMSD -1
REMARK  0 active torsions:
REMARK  status: ('A' for Active; 'I' for Inactive)
ROOT
ATOM      1  C   UNL d   1      -1.842   2.737   0.961  0.00  0.00     0.023 A 
ATOM      2  C1  UNL d   1      -0.873   3.046   0.006  0.00  0.00     0.003 A 
ATOM      3  C2  UNL d   1      -0.072   2.035  -0.531  0.00  0.00     0.048 A 
ATOM      4  C3  UNL d   1      -0.247   0.718  -0.109  0.00  0.00     0.023 A 
ATOM      5  C4  UNL d   1      -1.216   0.404   0.846  0.00  0.00     0.048 A 
ATOM      6  C5  UNL d   1      -2.013   1.418   1.380  0.00  0.00     0.003 A 
ATOM      7  I   UNL d   1       0.943  -0.789  -0.906  0.00  0.00    -0.146 I 
ENDROOT
TORSDOF 0
ENDMDL
