MODEL 1
REMARK minimizedAffinity -3.11443186
REMARK minimizedRMSD -1
REMARK  0 active torsions:
REMARK  status: ('A' for Active; 'I' for Inactive)
ROOT
ATOM      1  C   UNL d   1       0.285  -0.787   0.472  0.00  0.00     0.023 A 
ATOM      2  C1  UNL d   1      -0.440  -0.096   1.444  0.00  0.00     0.003 A 
ATOM      3  C2  UNL d   1      -0.559   1.293   1.372  0.00  0.00     0.048 A 
ATOM      4  C3  UNL d   1       0.049   1.986   0.325  0.00  0.00     0.023 A 
ATOM      5  C4  UNL d   1       0.774   1.299  -0.649  0.00  0.00     0.048 A 
ATOM      6  C5  UNL d   1       0.891  -0.090  -0.573  0.00  0.00     0.003 A 
ATOM      7  I   UNL d   1      -0.127   4.054   0.216  0.00  0.00    -0.146 I 
ENDROOT
TORSDOF 0
ENDMDL
