MODEL 1
REMARK minimizedAffinity -3.6464169
REMARK minimizedRMSD -1
REMARK  0 active torsions:
REMARK  status: ('A' for Active; 'I' for Inactive)
ROOT
ATOM      1  C   UNL d   1      -0.458  -0.579   1.721  0.00  0.00     0.023 A 
ATOM      2  C1  UNL d   1       0.342  -0.499   0.581  0.00  0.00     0.003 A 
ATOM      3  C2  UNL d   1       0.334   0.659  -0.199  0.00  0.00     0.048 A 
ATOM      4  C3  UNL d   1      -0.476   1.733   0.167  0.00  0.00     0.023 A 
ATOM      5  C4  UNL d   1      -1.278   1.658   1.307  0.00  0.00     0.048 A 
ATOM      6  C5  UNL d   1      -1.267   0.498   2.084  0.00  0.00     0.003 A 
ATOM      7  I   UNL d   1      -0.490   3.458  -0.993  0.00  0.00    -0.146 I 
ENDROOT
TORSDOF 0
ENDMDL
