MODEL 1
REMARK minimizedAffinity -4.90885639
REMARK minimizedRMSD -1
REMARK  0 active torsions:
REMARK  status: ('A' for Active; 'I' for Inactive)
ROOT
ATOM      1  C   UNL d   1      -1.542   2.803   1.034  0.00  0.00     0.023 A 
ATOM      2  C1  UNL d   1      -1.694   1.544   1.615  0.00  0.00     0.003 A 
ATOM      3  C2  UNL d   1      -1.113   0.424   1.018  0.00  0.00     0.048 A 
ATOM      4  C3  UNL d   1      -0.380   0.570  -0.160  0.00  0.00     0.023 A 
ATOM      5  C4  UNL d   1      -0.225   1.828  -0.744  0.00  0.00     0.048 A 
ATOM      6  C5  UNL d   1      -0.809   2.945  -0.144  0.00  0.00     0.003 A 
ATOM      7  I   UNL d   1       0.486  -1.096  -1.050  0.00  0.00    -0.146 I 
ENDROOT
TORSDOF 0
ENDMDL
