MODEL 1
REMARK minimizedAffinity 0.238519505
REMARK minimizedRMSD -1
REMARK  0 active torsions:
REMARK  status: ('A' for Active; 'I' for Inactive)
ROOT
ATOM      1  C1  BNZ d   1      -5.961   3.441  -2.155  0.00  0.00     0.000 A 
ATOM      2  C2  BNZ d   1      -5.953   3.770  -3.485  0.00  0.00     0.000 A 
ATOM      3  C3  BNZ d   1      -5.992   2.799  -4.446  0.00  0.00     0.000 A 
ATOM      4  C4  BNZ d   1      -5.999   1.501  -4.078  0.00  0.00     0.000 A 
ATOM      5  C5  BNZ d   1      -5.998   1.154  -2.742  0.00  0.00     0.000 A 
ATOM      6  C6  BNZ d   1      -5.998   2.135  -1.777  0.00  0.00     0.000 A 
ENDROOT
TORSDOF 0
ENDMDL
