MODEL 1
REMARK minimizedAffinity -1.04786468
REMARK minimizedRMSD -1
REMARK  0 active torsions:
REMARK  status: ('A' for Active; 'I' for Inactive)
ROOT
ATOM      1  C1  BNZ d   1      -6.000   3.018  -4.506  0.00  0.00     0.000 A 
ATOM      2  C2  BNZ d   1      -5.974   4.044  -3.600  0.00  0.00     0.000 A 
ATOM      3  C3  BNZ d   1      -5.937   3.792  -2.257  0.00  0.00     0.000 A 
ATOM      4  C4  BNZ d   1      -5.965   2.516  -1.821  0.00  0.00     0.000 A 
ATOM      5  C5  BNZ d   1      -6.000   1.470  -2.722  0.00  0.00     0.000 A 
ATOM      6  C6  BNZ d   1      -5.999   1.727  -4.074  0.00  0.00     0.000 A 
ENDROOT
TORSDOF 0
ENDMDL
