MODEL 1
REMARK minimizedAffinity 0.769191027
REMARK minimizedRMSD -1
REMARK  0 active torsions:
REMARK  status: ('A' for Active; 'I' for Inactive)
ROOT
ATOM      1  C1  BNZ d   1      -5.922   2.261  -2.455  0.00  0.00     0.000 A 
ATOM      2  C2  BNZ d   1      -5.997   1.047  -3.086  0.00  0.00     0.000 A 
ATOM      3  C3  BNZ d   1      -6.000   0.967  -4.450  0.00  0.00     0.000 A 
ATOM      4  C4  BNZ d   1      -5.968   2.099  -5.181  0.00  0.00     0.000 A 
ATOM      5  C5  BNZ d   1      -5.901   3.331  -4.560  0.00  0.00     0.000 A 
ATOM      6  C6  BNZ d   1      -5.860   3.406  -3.187  0.00  0.00     0.000 A 
ENDROOT
TORSDOF 0
ENDMDL
