MODEL 1
REMARK minimizedAffinity -2.84586596
REMARK minimizedRMSD -1
REMARK  0 active torsions:
REMARK  status: ('A' for Active; 'I' for Inactive)
ROOT
ATOM      1  C1  BNZ d   1      -4.891   3.396  -3.268  0.00  0.00     0.000 A 
ATOM      2  C2  BNZ d   1      -5.999   3.002  -2.566  0.00  0.00     0.000 A 
ATOM      3  C3  BNZ d   1      -6.000   3.004  -1.199  0.00  0.00     0.000 A 
ATOM      4  C4  BNZ d   1      -4.881   3.361  -0.537  0.00  0.00     0.000 A 
ATOM      5  C5  BNZ d   1      -3.752   3.752  -1.230  0.00  0.00     0.000 A 
ATOM      6  C6  BNZ d   1      -3.768   3.786  -2.605  0.00  0.00     0.000 A 
ENDROOT
TORSDOF 0
ENDMDL
