MODEL 1
REMARK minimizedAffinity 6.63235903
REMARK minimizedRMSD -1
REMARK  0 active torsions:
REMARK  status: ('A' for Active; 'I' for Inactive)
ROOT
ATOM      1  C1  BNZ d   1      -0.719  -2.917  -1.530  0.00  0.00     0.000 A 
ATOM      2  C2  BNZ d   1      -0.146  -1.994  -0.697  0.00  0.00     0.000 A 
ATOM      3  C3  BNZ d   1       1.027  -2.266  -0.051  0.00  0.00     0.000 A 
ATOM      4  C4  BNZ d   1       1.604  -3.475  -0.207  0.00  0.00     0.000 A 
ATOM      5  C5  BNZ d   1       1.034  -4.420  -1.036  0.00  0.00     0.000 A 
ATOM      6  C6  BNZ d   1      -0.126  -4.128  -1.715  0.00  0.00     0.000 A 
ENDROOT
TORSDOF 0
ENDMDL
