MODEL 1
REMARK minimizedAffinity 0.269173115
REMARK minimizedRMSD -1
REMARK  0 active torsions:
REMARK  status: ('A' for Active; 'I' for Inactive)
ROOT
ATOM      1  C1  BNZ d   1      -5.981   3.726  -2.585  0.00  0.00     0.000 A 
ATOM      2  C2  BNZ d   1      -6.000   2.421  -2.170  0.00  0.00     0.000 A 
ATOM      3  C3  BNZ d   1      -5.989   1.399  -3.077  0.00  0.00     0.000 A 
ATOM      4  C4  BNZ d   1      -5.999   1.682  -4.396  0.00  0.00     0.000 A 
ATOM      5  C5  BNZ d   1      -5.990   2.993  -4.830  0.00  0.00     0.000 A 
ATOM      6  C6  BNZ d   1      -5.962   4.019  -3.914  0.00  0.00     0.000 A 
ENDROOT
TORSDOF 0
ENDMDL
