MODEL 1
REMARK minimizedAffinity -1.38093674
REMARK minimizedRMSD -1
REMARK  0 active torsions:
REMARK  status: ('A' for Active; 'I' for Inactive)
ROOT
ATOM      1  C1  BNZ d   1      -5.983   2.855  -4.583  0.00  0.00     0.000 A 
ATOM      2  C2  BNZ d   1      -5.994   3.601  -3.435  0.00  0.00     0.000 A 
ATOM      3  C3  BNZ d   1      -5.982   2.999  -2.209  0.00  0.00     0.000 A 
ATOM      4  C4  BNZ d   1      -6.000   1.652  -2.131  0.00  0.00     0.000 A 
ATOM      5  C5  BNZ d   1      -5.998   0.886  -3.280  0.00  0.00     0.000 A 
ATOM      6  C6  BNZ d   1      -5.971   1.496  -4.513  0.00  0.00     0.000 A 
ENDROOT
TORSDOF 0
ENDMDL
