MODEL 1
REMARK minimizedAffinity 1.47587311
REMARK minimizedRMSD -1
REMARK  0 active torsions:
REMARK  status: ('A' for Active; 'I' for Inactive)
ROOT
ATOM      1  C1  BNZ d   1      -0.081   5.829  -1.395  0.00  0.00     0.000 A 
ATOM      2  C2  BNZ d   1       0.566   4.682  -1.019  0.00  0.00     0.000 A 
ATOM      3  C3  BNZ d   1       0.028   3.454  -1.291  0.00  0.00     0.000 A 
ATOM      4  C4  BNZ d   1      -1.172   3.376  -1.901  0.00  0.00     0.000 A 
ATOM      5  C5  BNZ d   1      -1.840   4.524  -2.278  0.00  0.00     0.000 A 
ATOM      6  C6  BNZ d   1      -1.279   5.756  -2.038  0.00  0.00     0.000 A 
ENDROOT
TORSDOF 0
ENDMDL
