MODEL 1
REMARK minimizedAffinity -1.63824439
REMARK minimizedRMSD -1
REMARK  0 active torsions:
REMARK  status: ('A' for Active; 'I' for Inactive)
ROOT
ATOM      1  C1  BNZ d   1       5.110  -4.383  -1.039  0.00  0.00     0.000 A 
ATOM      2  C2  BNZ d   1       3.928  -5.046  -0.844  0.00  0.00     0.000 A 
ATOM      3  C3  BNZ d   1       2.811  -4.378  -0.425  0.00  0.00     0.000 A 
ATOM      4  C4  BNZ d   1       2.888  -3.058  -0.163  0.00  0.00     0.000 A 
ATOM      5  C5  BNZ d   1       4.075  -2.377  -0.346  0.00  0.00     0.000 A 
ATOM      6  C6  BNZ d   1       5.187  -3.045  -0.805  0.00  0.00     0.000 A 
ENDROOT
TORSDOF 0
ENDMDL
