MODEL 1
REMARK minimizedAffinity -3.27342653
REMARK minimizedRMSD -1
REMARK  0 active torsions:
REMARK  status: ('A' for Active; 'I' for Inactive)
ROOT
ATOM      1  C1  BNZ d   1      -5.987   5.241  -3.058  0.00  0.00     0.000 A 
ATOM      2  C2  BNZ d   1      -5.998   4.560  -1.870  0.00  0.00     0.000 A 
ATOM      3  C3  BNZ d   1      -5.983   3.194  -1.847  0.00  0.00     0.000 A 
ATOM      4  C4  BNZ d   1      -5.998   2.510  -3.009  0.00  0.00     0.000 A 
ATOM      5  C5  BNZ d   1      -5.996   3.182  -4.215  0.00  0.00     0.000 A 
ATOM      6  C6  BNZ d   1      -5.971   4.558  -4.235  0.00  0.00     0.000 A 
ENDROOT
TORSDOF 0
ENDMDL
