MODEL 1
REMARK minimizedAffinity -4.47323084
REMARK minimizedRMSD -1
REMARK  2 active torsions:
REMARK  status: ('A' for Active; 'I' for Inactive)
REMARK    1  A    between atoms: C2'_3  and  C1'_4 
REMARK    2  A    between atoms: C1'_4  and  C1_5 
ROOT
ATOM      1  C1  I4B d   1       1.625  -2.957   0.070  0.00  0.00    -0.075 A 
ATOM      2  C2  I4B d   1       0.274  -2.895   0.301  0.00  0.00     0.003 A 
ATOM      3  C3  I4B d   1      -0.318  -1.687   0.746  0.00  0.00     0.002 A 
ATOM      4  C4  I4B d   1       0.481  -0.590   0.993  0.00  0.00    -0.004 A 
ATOM      5  C5  I4B d   1       1.848  -0.648   0.735  0.00  0.00     0.002 A 
ATOM      6  C6  I4B d   1       2.422  -1.836   0.259  0.00  0.00     0.003 A 
ENDROOT
BRANCH   1   7
ATOM      7  C1' I4B d   1       2.222  -4.257  -0.368  0.00  0.00     0.060 C 
BRANCH   7   8
ATOM      8  C2' I4B d   1       3.531  -4.443   0.373  0.00  0.00    -0.013 C 
ATOM      9  C4' I4B d   1       3.920  -5.897   0.435  0.00  0.00     0.013 C 
ATOM     10  C3' I4B d   1       4.578  -3.631  -0.328  0.00  0.00     0.013 C 
ENDBRANCH   7   8
ENDBRANCH   1   7
TORSDOF 2
ENDMDL
