MODEL 1
REMARK minimizedAffinity 2.3357029
REMARK minimizedRMSD -1
REMARK  2 active torsions:
REMARK  status: ('A' for Active; 'I' for Inactive)
REMARK    1  A    between atoms: C2'_3  and  C1'_4 
REMARK    2  A    between atoms: C1'_4  and  C1_5 
ROOT
ATOM      1  C1  I4B d   1       1.534  -2.687   1.037  0.00  0.00    -0.075 A 
ATOM      2  C2  I4B d   1       0.164  -2.602   1.055  0.00  0.00     0.003 A 
ATOM      3  C3  I4B d   1      -0.474  -1.343   0.951  0.00  0.00     0.002 A 
ATOM      4  C4  I4B d   1       0.292  -0.197   0.883  0.00  0.00    -0.004 A 
ATOM      5  C5  I4B d   1       1.680  -0.286   0.841  0.00  0.00     0.002 A 
ATOM      6  C6  I4B d   1       2.306  -1.539   0.907  0.00  0.00     0.003 A 
ENDROOT
BRANCH   1   7
ATOM      7  C1' I4B d   1       2.175  -4.030   1.181  0.00  0.00     0.060 C 
BRANCH   7   8
ATOM      8  C2' I4B d   1       3.430  -4.043   0.332  0.00  0.00    -0.013 C 
ATOM      9  C4' I4B d   1       4.377  -2.947   0.743  0.00  0.00     0.013 C 
ATOM     10  C3' I4B d   1       4.070  -5.392   0.471  0.00  0.00     0.013 C 
ENDBRANCH   7   8
ENDBRANCH   1   7
TORSDOF 2
ENDMDL
