MODEL 1
REMARK minimizedAffinity -2.8507638
REMARK minimizedRMSD -1
REMARK  2 active torsions:
REMARK  status: ('A' for Active; 'I' for Inactive)
REMARK    1  A    between atoms: C2'_3  and  C1'_4 
REMARK    2  A    between atoms: C1'_4  and  C1_5 
ROOT
ATOM      1  C1  I4B d   1       1.750  -3.535   0.352  0.00  0.00    -0.075 A 
ATOM      2  C2  I4B d   1       0.556  -3.515  -0.326  0.00  0.00     0.003 A 
ATOM      3  C3  I4B d   1      -0.043  -2.280  -0.676  0.00  0.00     0.002 A 
ATOM      4  C4  I4B d   1       0.555  -1.100  -0.287  0.00  0.00    -0.004 A 
ATOM      5  C5  I4B d   1       1.777  -1.122   0.380  0.00  0.00     0.002 A 
ATOM      6  C6  I4B d   1       2.384  -2.348   0.691  0.00  0.00     0.003 A 
ENDROOT
BRANCH   1   7
ATOM      7  C1' I4B d   1       2.338  -4.856   0.734  0.00  0.00     0.060 C 
BRANCH   7   8
ATOM      8  C2' I4B d   1       3.777  -4.880   0.262  0.00  0.00    -0.013 C 
ATOM      9  C4' I4B d   1       4.547  -5.998   0.915  0.00  0.00     0.013 C 
ATOM     10  C3' I4B d   1       3.772  -5.027  -1.231  0.00  0.00     0.013 C 
ENDBRANCH   7   8
ENDBRANCH   1   7
TORSDOF 2
ENDMDL
