MODEL 1
REMARK minimizedAffinity -2.77023482
REMARK minimizedRMSD -1
REMARK  2 active torsions:
REMARK  status: ('A' for Active; 'I' for Inactive)
REMARK    1  A    between atoms: C2'_3  and  C1'_4 
REMARK    2  A    between atoms: C1'_4  and  C1_5 
ROOT
ATOM      1  C1  I4B d   1       1.845   0.740   0.004  0.00  0.00    -0.075 A 
ATOM      2  C2  I4B d   1       2.181   1.989   0.465  0.00  0.00     0.003 A 
ATOM      3  C3  I4B d   1       2.726   2.952  -0.418  0.00  0.00     0.002 A 
ATOM      4  C4  I4B d   1       2.963   2.611  -1.734  0.00  0.00    -0.004 A 
ATOM      5  C5  I4B d   1       2.601   1.352  -2.205  0.00  0.00     0.002 A 
ATOM      6  C6  I4B d   1       2.027   0.415  -1.334  0.00  0.00     0.003 A 
ENDROOT
BRANCH   1   7
ATOM      7  C1' I4B d   1       1.303  -0.264   0.971  0.00  0.00     0.060 C 
BRANCH   7   8
ATOM      8  C2' I4B d   1       0.456  -1.250   0.195  0.00  0.00    -0.013 C 
ATOM      9  C4' I4B d   1       1.080  -2.620   0.190  0.00  0.00     0.013 C 
ATOM     10  C3' I4B d   1      -0.908  -1.279   0.817  0.00  0.00     0.013 C 
ENDBRANCH   7   8
ENDBRANCH   1   7
TORSDOF 2
ENDMDL
