MODEL 1
REMARK minimizedAffinity -3.56991744
REMARK minimizedRMSD -1
REMARK  2 active torsions:
REMARK  status: ('A' for Active; 'I' for Inactive)
REMARK    1  A    between atoms: C2'_3  and  C1'_4 
REMARK    2  A    between atoms: C1'_4  and  C1_5 
ROOT
ATOM      1  C1  I4B d   1       3.050  -2.886   0.035  0.00  0.00    -0.075 A 
ATOM      2  C2  I4B d   1       1.951  -3.625   0.397  0.00  0.00     0.003 A 
ATOM      3  C3  I4B d   1       0.741  -2.979   0.747  0.00  0.00     0.002 A 
ATOM      4  C4  I4B d   1       0.688  -1.601   0.770  0.00  0.00    -0.004 A 
ATOM      5  C5  I4B d   1       1.796  -0.853   0.380  0.00  0.00     0.002 A 
ATOM      6  C6  I4B d   1       2.980  -1.499  -0.001  0.00  0.00     0.003 A 
ENDROOT
BRANCH   1   7
ATOM      7  C1' I4B d   1       4.322  -3.600  -0.297  0.00  0.00     0.060 C 
BRANCH   7   8
ATOM      8  C2' I4B d   1       4.183  -5.037   0.161  0.00  0.00    -0.013 C 
ATOM      9  C4' I4B d   1       4.478  -5.998  -0.961  0.00  0.00     0.013 C 
ATOM     10  C3' I4B d   1       5.119  -5.248   1.314  0.00  0.00     0.013 C 
ENDBRANCH   7   8
ENDBRANCH   1   7
TORSDOF 2
ENDMDL
