MODEL 1
REMARK minimizedAffinity -0.241182745
REMARK minimizedRMSD -1
REMARK  2 active torsions:
REMARK  status: ('A' for Active; 'I' for Inactive)
REMARK    1  A    between atoms: C2'_3  and  C1'_4 
REMARK    2  A    between atoms: C1'_4  and  C1_5 
ROOT
ATOM      1  C1  I4B d   1       1.203  -3.069   0.352  0.00  0.00    -0.075 A 
ATOM      2  C2  I4B d   1      -0.152  -3.194   0.531  0.00  0.00     0.003 A 
ATOM      3  C3  I4B d   1      -0.978  -2.043   0.551  0.00  0.00     0.002 A 
ATOM      4  C4  I4B d   1      -0.404  -0.793   0.440  0.00  0.00    -0.004 A 
ATOM      5  C5  I4B d   1       0.967  -0.670   0.236  0.00  0.00     0.002 A 
ATOM      6  C6  I4B d   1       1.775  -1.815   0.179  0.00  0.00     0.003 A 
ENDROOT
BRANCH   1   7
ATOM      7  C1' I4B d   1       2.049  -4.303   0.368  0.00  0.00     0.060 C 
BRANCH   7   8
ATOM      8  C2' I4B d   1       3.284  -4.033  -0.467  0.00  0.00    -0.013 C 
ATOM      9  C4' I4B d   1       4.027  -2.822   0.033  0.00  0.00     0.013 C 
ATOM     10  C3' I4B d   1       4.149  -5.257  -0.422  0.00  0.00     0.013 C 
ENDBRANCH   7   8
ENDBRANCH   1   7
TORSDOF 2
ENDMDL
