MODEL 1
REMARK minimizedAffinity -3.83098459
REMARK minimizedRMSD -1
REMARK  2 active torsions:
REMARK  status: ('A' for Active; 'I' for Inactive)
REMARK    1  A    between atoms: C2'_3  and  C1'_4 
REMARK    2  A    between atoms: C1'_4  and  C1_5 
ROOT
ATOM      1  C1  I4B d   1       1.320  -2.059  -0.069  0.00  0.00    -0.075 A 
ATOM      2  C2  I4B d   1       1.271  -3.420   0.102  0.00  0.00     0.003 A 
ATOM      3  C3  I4B d   1       2.468  -4.174   0.169  0.00  0.00     0.002 A 
ATOM      4  C4  I4B d   1       3.681  -3.537   0.011  0.00  0.00    -0.004 A 
ATOM      5  C5  I4B d   1       3.730  -2.154  -0.140  0.00  0.00     0.002 A 
ATOM      6  C6  I4B d   1       2.543  -1.408  -0.168  0.00  0.00     0.003 A 
ENDROOT
BRANCH   1   7
ATOM      7  C1' I4B d   1       0.036  -1.298  -0.169  0.00  0.00     0.060 C 
BRANCH   7   8
ATOM      8  C2' I4B d   1      -0.366  -0.876   1.230  0.00  0.00    -0.013 C 
ATOM      9  C4' I4B d   1       0.727  -0.081   1.894  0.00  0.00     0.013 C 
ATOM     10  C3' I4B d   1      -1.631  -0.076   1.126  0.00  0.00     0.013 C 
ENDBRANCH   7   8
ENDBRANCH   1   7
TORSDOF 2
ENDMDL
