MODEL 1
REMARK minimizedAffinity 3.75822926
REMARK minimizedRMSD -1
REMARK  2 active torsions:
REMARK  status: ('A' for Active; 'I' for Inactive)
REMARK    1  A    between atoms: C2'_3  and  C1'_4 
REMARK    2  A    between atoms: C1'_4  and  C1_5 
ROOT
ATOM      1  C1  I4B d   1       0.199  -1.417   0.661  0.00  0.00    -0.075 A 
ATOM      2  C2  I4B d   1      -0.129  -2.642   0.135  0.00  0.00     0.003 A 
ATOM      3  C3  I4B d   1       0.582  -3.801   0.529  0.00  0.00     0.002 A 
ATOM      4  C4  I4B d   1       1.640  -3.684   1.407  0.00  0.00    -0.004 A 
ATOM      5  C5  I4B d   1       1.957  -2.445   1.957  0.00  0.00     0.002 A 
ATOM      6  C6  I4B d   1       1.224  -1.306   1.592  0.00  0.00     0.003 A 
ENDROOT
BRANCH   1   7
ATOM      7  C1' I4B d   1      -0.551  -0.209   0.198  0.00  0.00     0.060 C 
BRANCH   7   8
ATOM      8  C2' I4B d   1      -1.715   0.009   1.144  0.00  0.00    -0.013 C 
ATOM      9  C4' I4B d   1      -1.337   0.937   2.268  0.00  0.00     0.013 C 
ATOM     10  C3' I4B d   1      -2.861   0.559   0.348  0.00  0.00     0.013 C 
ENDBRANCH   7   8
ENDBRANCH   1   7
TORSDOF 2
ENDMDL
