MODEL 1
REMARK minimizedAffinity -1.93852496
REMARK minimizedRMSD -1
REMARK  2 active torsions:
REMARK  status: ('A' for Active; 'I' for Inactive)
REMARK    1  A    between atoms: C2'_3  and  C1'_4 
REMARK    2  A    between atoms: C1'_4  and  C1_5 
ROOT
ATOM      1  C1  I4B d   1       1.272  -2.646   0.200  0.00  0.00    -0.075 A 
ATOM      2  C2  I4B d   1       0.050  -2.856   0.789  0.00  0.00     0.003 A 
ATOM      3  C3  I4B d   1      -0.660  -1.773   1.361  0.00  0.00     0.002 A 
ATOM      4  C4  I4B d   1      -0.093  -0.515   1.367  0.00  0.00    -0.004 A 
ATOM      5  C5  I4B d   1       1.136  -0.300   0.749  0.00  0.00     0.002 A 
ATOM      6  C6  I4B d   1       1.817  -1.370   0.151  0.00  0.00     0.003 A 
ENDROOT
BRANCH   1   7
ATOM      7  C1' I4B d   1       2.010  -3.818  -0.365  0.00  0.00     0.060 C 
BRANCH   7   8
ATOM      8  C2' I4B d   1       3.316  -3.956   0.391  0.00  0.00    -0.013 C 
ATOM      9  C4' I4B d   1       4.088  -5.164  -0.071  0.00  0.00     0.013 C 
ATOM     10  C3' I4B d   1       4.106  -2.697   0.184  0.00  0.00     0.013 C 
ENDBRANCH   7   8
ENDBRANCH   1   7
TORSDOF 2
ENDMDL
