MODEL 1
REMARK minimizedAffinity 3.28811622
REMARK minimizedRMSD -1
REMARK  2 active torsions:
REMARK  status: ('A' for Active; 'I' for Inactive)
REMARK    1  A    between atoms: C2'_3  and  C1'_4 
REMARK    2  A    between atoms: C1'_4  and  C1_5 
ROOT
ATOM      1  C1  I4B d   1       1.717  -2.004   0.339  0.00  0.00    -0.075 A 
ATOM      2  C2  I4B d   1       1.172  -3.226   0.645  0.00  0.00     0.003 A 
ATOM      3  C3  I4B d   1       1.973  -4.393   0.607  0.00  0.00     0.002 A 
ATOM      4  C4  I4B d   1       3.292  -4.300   0.211  0.00  0.00    -0.004 A 
ATOM      5  C5  I4B d   1       3.848  -3.057  -0.076  0.00  0.00     0.002 A 
ATOM      6  C6  I4B d   1       3.060  -1.900  -0.001  0.00  0.00     0.003 A 
ENDROOT
BRANCH   1   7
ATOM      7  C1' I4B d   1       0.834  -0.796   0.357  0.00  0.00     0.060 C 
BRANCH   7   8
ATOM      8  C2' I4B d   1      -0.034  -0.871   1.596  0.00  0.00    -0.013 C 
ATOM      9  C4' I4B d   1       0.558  -0.073   2.727  0.00  0.00     0.013 C 
ATOM     10  C3' I4B d   1      -1.400  -0.368   1.235  0.00  0.00     0.013 C 
ENDBRANCH   7   8
ENDBRANCH   1   7
TORSDOF 2
ENDMDL
