MODEL 1
REMARK minimizedAffinity 5.79029274
REMARK minimizedRMSD -1
REMARK  1 active torsions:
REMARK  status: ('A' for Active; 'I' for Inactive)
REMARK    1  A    between atoms: C1_2  and  C2_3 
ROOT
ATOM      1  C2  UNL d   1       3.011   0.866  -0.800  0.00  0.00    -0.081 A 
ATOM      2  C3  UNL d   1       3.361   0.332   0.446  0.00  0.00     0.006 A 
ATOM      3  C4  UNL d   1       2.845  -0.898   0.861  0.00  0.00     0.002 A 
ATOM      4  C5  UNL d   1       1.978  -1.619   0.033  0.00  0.00    -0.080 A 
ATOM      5  C6  UNL d   1       1.441  -2.955   0.453  0.00  0.00     0.076 C 
ATOM      6  C7  UNL d   1       1.614  -1.078  -1.205  0.00  0.00     0.002 A 
ATOM      7  C8  UNL d   1       2.129   0.152  -1.619  0.00  0.00     0.006 A 
ENDROOT
BRANCH   1   8
ATOM      8  C1  UNL d   1       3.616   2.161  -1.277  0.00  0.00     0.054 C 
ATOM      9  C   UNL d   1       4.457   1.952  -2.528  0.00  0.00     0.018 C 
ENDBRANCH   1   8
TORSDOF 1
ENDMDL
