MODEL 1
REMARK minimizedAffinity 19.3622723
REMARK minimizedRMSD -1
REMARK  1 active torsions:
REMARK  status: ('A' for Active; 'I' for Inactive)
REMARK    1  A    between atoms: C1_2  and  C2_3 
ROOT
ATOM      1  C2  UNL d   1       4.300   2.416   0.759  0.00  0.00    -0.081 A 
ATOM      2  C3  UNL d   1       3.853   2.806  -0.510  0.00  0.00     0.006 A 
ATOM      3  C4  UNL d   1       2.947   2.011  -1.216  0.00  0.00     0.002 A 
ATOM      4  C5  UNL d   1       2.467   0.819  -0.664  0.00  0.00    -0.080 A 
ATOM      5  C6  UNL d   1       1.470  -0.027  -1.399  0.00  0.00     0.076 C 
ATOM      6  C7  UNL d   1       2.926   0.421   0.596  0.00  0.00     0.002 A 
ATOM      7  C8  UNL d   1       3.833   1.214   1.303  0.00  0.00     0.006 A 
ENDROOT
BRANCH   1   8
ATOM      8  C1  UNL d   1       5.227   3.302   1.551  0.00  0.00     0.054 C 
ATOM      9  C   UNL d   1       4.657   3.608   2.928  0.00  0.00     0.018 C 
ENDBRANCH   1   8
TORSDOF 1
ENDMDL
