MODEL 1
REMARK minimizedAffinity 14.4346867
REMARK minimizedRMSD -1
REMARK  1 active torsions:
REMARK  status: ('A' for Active; 'I' for Inactive)
REMARK    1  A    between atoms: C1_2  and  C2_3 
ROOT
ATOM      1  C2  UNL d   1      -1.599  -4.992   3.760  0.00  0.00    -0.081 A 
ATOM      2  C3  UNL d   1      -0.789  -4.085   3.067  0.00  0.00     0.006 A 
ATOM      3  C4  UNL d   1      -0.719  -4.121   1.672  0.00  0.00     0.002 A 
ATOM      4  C5  UNL d   1      -1.463  -5.058   0.948  0.00  0.00    -0.080 A 
ATOM      5  C6  UNL d   1      -1.420  -5.088  -0.551  0.00  0.00     0.076 C 
ATOM      6  C7  UNL d   1      -2.259  -5.976   1.641  0.00  0.00     0.002 A 
ATOM      7  C8  UNL d   1      -2.329  -5.941   3.036  0.00  0.00     0.006 A 
ENDROOT
BRANCH   1   8
ATOM      8  C1  UNL d   1      -1.727  -4.914   5.260  0.00  0.00     0.054 C 
ATOM      9  C   UNL d   1      -0.507  -5.506   5.951  0.00  0.00     0.018 C 
ENDBRANCH   1   8
TORSDOF 1
ENDMDL
