MODEL 1
REMARK minimizedAffinity 2.83411431
REMARK minimizedRMSD -1
REMARK  1 active torsions:
REMARK  status: ('A' for Active; 'I' for Inactive)
REMARK    1  A    between atoms: C1_2  and  C2_3 
ROOT
ATOM      1  C2  UNL d   1       3.706   0.713  -1.740  0.00  0.00    -0.081 A 
ATOM      2  C3  UNL d   1       3.195   0.964  -0.460  0.00  0.00     0.006 A 
ATOM      3  C4  UNL d   1       2.551  -0.048   0.255  0.00  0.00     0.002 A 
ATOM      4  C5  UNL d   1       2.414  -1.328  -0.292  0.00  0.00    -0.080 A 
ATOM      5  C6  UNL d   1       1.751  -2.432   0.478  0.00  0.00     0.076 C 
ATOM      6  C7  UNL d   1       2.909  -1.574  -1.578  0.00  0.00     0.002 A 
ATOM      7  C8  UNL d   1       3.553  -0.562  -2.294  0.00  0.00     0.006 A 
ENDROOT
BRANCH   1   8
ATOM      8  C1  UNL d   1       4.458   1.784  -2.487  0.00  0.00     0.054 C 
ATOM      9  C   UNL d   1       5.284   1.192  -3.620  0.00  0.00     0.018 C 
ENDBRANCH   1   8
TORSDOF 1
ENDMDL
