MODEL 1
REMARK minimizedAffinity 11.3364229
REMARK minimizedRMSD -1
REMARK  1 active torsions:
REMARK  status: ('A' for Active; 'I' for Inactive)
REMARK    1  A    between atoms: C1_2  and  C2_3 
ROOT
ATOM      1  C2  UNL d   1      -4.919   0.037  -2.672  0.00  0.00    -0.081 A 
ATOM      2  C3  UNL d   1      -5.998   0.731  -2.112  0.00  0.00     0.006 A 
ATOM      3  C4  UNL d   1      -5.997   1.068  -0.756  0.00  0.00     0.002 A 
ATOM      4  C5  UNL d   1      -4.914   0.723   0.059  0.00  0.00    -0.080 A 
ATOM      5  C6  UNL d   1      -4.886   1.104   1.510  0.00  0.00     0.076 C 
ATOM      6  C7  UNL d   1      -3.843   0.014  -0.496  0.00  0.00     0.002 A 
ATOM      7  C8  UNL d   1      -3.845  -0.323  -1.852  0.00  0.00     0.006 A 
ENDROOT
BRANCH   1   8
ATOM      8  C1  UNL d   1      -4.889  -0.270  -4.148  0.00  0.00     0.054 C 
ATOM      9  C   UNL d   1      -6.000  -1.235  -4.535  0.00  0.00     0.018 C 
ENDBRANCH   1   8
TORSDOF 1
ENDMDL
