MODEL 1
REMARK minimizedAffinity 5.75477791
REMARK minimizedRMSD -1
REMARK  1 active torsions:
REMARK  status: ('A' for Active; 'I' for Inactive)
REMARK    1  A    between atoms: C1_2  and  C2_3 
ROOT
ATOM      1  C2  UNL d   1       2.918   0.262  -0.511  0.00  0.00    -0.081 A 
ATOM      2  C3  UNL d   1       3.140   1.128  -1.589  0.00  0.00     0.006 A 
ATOM      3  C4  UNL d   1       4.096   2.142  -1.497  0.00  0.00     0.002 A 
ATOM      4  C5  UNL d   1       4.852   2.302  -0.330  0.00  0.00    -0.080 A 
ATOM      5  C6  UNL d   1       5.902   3.368  -0.230  0.00  0.00     0.076 C 
ATOM      6  C7  UNL d   1       4.618   1.448   0.753  0.00  0.00     0.002 A 
ATOM      7  C8  UNL d   1       3.661   0.434   0.662  0.00  0.00     0.006 A 
ENDROOT
BRANCH   1   8
ATOM      8  C1  UNL d   1       1.934  -0.873  -0.630  0.00  0.00     0.054 C 
ATOM      9  C   UNL d   1       2.263  -1.996   0.344  0.00  0.00     0.018 C 
ENDBRANCH   1   8
TORSDOF 1
ENDMDL
