MODEL 1
REMARK minimizedAffinity 2.83433819
REMARK minimizedRMSD -1
REMARK  1 active torsions:
REMARK  status: ('A' for Active; 'I' for Inactive)
REMARK    1  A    between atoms: C1_2  and  C2_3 
ROOT
ATOM      1  C2  UNL d   1      -5.257   3.976   2.217  0.00  0.00    -0.081 A 
ATOM      2  C3  UNL d   1      -5.808   5.263   2.256  0.00  0.00     0.006 A 
ATOM      3  C4  UNL d   1      -5.999   5.915   3.476  0.00  0.00     0.002 A 
ATOM      4  C5  UNL d   1      -5.634   5.296   4.677  0.00  0.00    -0.080 A 
ATOM      5  C6  UNL d   1      -5.806   5.998   5.991  0.00  0.00     0.076 C 
ATOM      6  C7  UNL d   1      -5.100   4.004   4.640  0.00  0.00     0.002 A 
ATOM      7  C8  UNL d   1      -4.909   3.351   3.420  0.00  0.00     0.006 A 
ENDROOT
BRANCH   1   8
ATOM      8  C1  UNL d   1      -4.990   3.296   0.899  0.00  0.00     0.054 C 
ATOM      9  C   UNL d   1      -4.616   1.834   1.097  0.00  0.00     0.018 C 
ENDBRANCH   1   8
TORSDOF 1
ENDMDL
