MODEL 1
REMARK minimizedAffinity 15.8434048
REMARK minimizedRMSD -1
REMARK  1 active torsions:
REMARK  status: ('A' for Active; 'I' for Inactive)
REMARK    1  A    between atoms: C1_2  and  C2_3 
ROOT
ATOM      1  C2  UNL d   1      -5.583   1.907  -2.822  0.00  0.00    -0.081 A 
ATOM      2  C3  UNL d   1      -5.352   3.164  -2.250  0.00  0.00     0.006 A 
ATOM      3  C4  UNL d   1      -4.911   3.271  -0.929  0.00  0.00     0.002 A 
ATOM      4  C5  UNL d   1      -4.686   2.124  -0.161  0.00  0.00    -0.080 A 
ATOM      5  C6  UNL d   1      -4.184   2.224   1.249  0.00  0.00     0.076 C 
ATOM      6  C7  UNL d   1      -4.933   0.869  -0.726  0.00  0.00     0.002 A 
ATOM      7  C8  UNL d   1      -5.375   0.761  -2.046  0.00  0.00     0.006 A 
ENDROOT
BRANCH   1   8
ATOM      8  C1  UNL d   1      -5.996   1.786  -4.266  0.00  0.00     0.054 C 
ATOM      9  C   UNL d   1      -5.983   0.335  -4.726  0.00  0.00     0.018 C 
ENDBRANCH   1   8
TORSDOF 1
ENDMDL
