MODEL 1
REMARK minimizedAffinity 16.8649826
REMARK minimizedRMSD -1
REMARK  1 active torsions:
REMARK  status: ('A' for Active; 'I' for Inactive)
REMARK    1  A    between atoms: C1_2  and  C2_3 
ROOT
ATOM      1  C2  UNL d   1       2.924   0.887   0.034  0.00  0.00    -0.081 A 
ATOM      2  C3  UNL d   1       2.698   1.523  -1.193  0.00  0.00     0.006 A 
ATOM      3  C4  UNL d   1       3.686   2.327  -1.766  0.00  0.00     0.002 A 
ATOM      4  C5  UNL d   1       4.918   2.503  -1.127  0.00  0.00    -0.080 A 
ATOM      5  C6  UNL d   1       5.997   3.339  -1.747  0.00  0.00     0.076 C 
ATOM      6  C7  UNL d   1       5.137   1.882   0.107  0.00  0.00     0.002 A 
ATOM      7  C8  UNL d   1       4.150   1.078   0.681  0.00  0.00     0.006 A 
ENDROOT
BRANCH   1   8
ATOM      8  C1  UNL d   1       1.886  -0.033   0.624  0.00  0.00     0.054 C 
ATOM      9  C   UNL d   1       1.879  -1.383  -0.079  0.00  0.00     0.018 C 
ENDBRANCH   1   8
TORSDOF 1
ENDMDL
