MODEL 1
REMARK minimizedAffinity -4.45957375
REMARK minimizedRMSD -1
REMARK  1 active torsions:
REMARK  status: ('A' for Active; 'I' for Inactive)
REMARK    1  A    between atoms: N_2  and  C1_3 
ROOT
ATOM      1  C1  UNL d   1       0.229  -0.206  -0.026  0.00  0.00     0.143 A 
ATOM      2  C2  UNL d   1       0.483  -1.428  -0.657  0.00  0.00    -0.057 A 
ATOM      3  C3  UNL d   1       0.154  -2.644  -0.046  0.00  0.00     0.033 A 
ATOM      4  C4  UNL d   1      -0.410  -2.659   1.225  0.00  0.00    -0.042 A 
ATOM      5  C5  UNL d   1      -0.649  -1.458   1.883  0.00  0.00     0.033 A 
ATOM      6  C6  UNL d   1      -0.324  -0.247   1.264  0.00  0.00    -0.057 A 
ENDROOT
BRANCH   1   7
ATOM      7  N   UNL d   1       0.623   1.032  -0.539  0.00  0.00    -0.732 N 
ATOM      8  C   UNL d   1       0.301   2.257   0.161  0.00  0.00     0.284 C 
ATOM      9  H3  UNL d   1       1.564   1.010  -0.927  0.00  0.00     0.395 HD
ENDBRANCH   1   7
TORSDOF 1
ENDMDL
