MODEL 1
REMARK minimizedAffinity -2.26398993
REMARK minimizedRMSD -1
REMARK  1 active torsions:
REMARK  status: ('A' for Active; 'I' for Inactive)
REMARK    1  A    between atoms: N_2  and  C1_3 
ROOT
ATOM      1  C1  UNL d   1      -0.013  -1.524  -0.612  0.00  0.00     0.143 A 
ATOM      2  C2  UNL d   1      -0.443  -0.307  -0.072  0.00  0.00    -0.057 A 
ATOM      3  C3  UNL d   1      -0.734  -0.181   1.292  0.00  0.00     0.033 A 
ATOM      4  C4  UNL d   1      -0.628  -1.281   2.137  0.00  0.00    -0.042 A 
ATOM      5  C5  UNL d   1      -0.226  -2.507   1.617  0.00  0.00     0.033 A 
ATOM      6  C6  UNL d   1       0.070  -2.625   0.255  0.00  0.00    -0.057 A 
ENDROOT
BRANCH   1   7
ATOM      7  N   UNL d   1       0.198  -1.738  -1.977  0.00  0.00    -0.732 N 
ATOM      8  C   UNL d   1      -0.138  -3.008  -2.584  0.00  0.00     0.284 C 
ATOM      9  H3  UNL d   1      -0.053  -0.929  -2.540  0.00  0.00     0.395 HD
ENDBRANCH   1   7
TORSDOF 1
ENDMDL
