MODEL 1
REMARK minimizedAffinity -4.62387514
REMARK minimizedRMSD -1
REMARK  1 active torsions:
REMARK  status: ('A' for Active; 'I' for Inactive)
REMARK    1  A    between atoms: N_2  and  C1_3 
ROOT
ATOM      1  C1  UNL d   1      -0.174  -0.596  -0.452  0.00  0.00     0.143 A 
ATOM      2  C2  UNL d   1      -0.569  -1.461   0.575  0.00  0.00    -0.057 A 
ATOM      3  C3  UNL d   1      -0.630  -2.845   0.374  0.00  0.00     0.033 A 
ATOM      4  C4  UNL d   1      -0.324  -3.388  -0.869  0.00  0.00    -0.042 A 
ATOM      5  C5  UNL d   1       0.048  -2.546  -1.911  0.00  0.00     0.033 A 
ATOM      6  C6  UNL d   1       0.113  -1.165  -1.702  0.00  0.00    -0.057 A 
ENDROOT
BRANCH   1   7
ATOM      7  N   UNL d   1      -0.188   0.797  -0.344  0.00  0.00    -0.732 N 
ATOM      8  C   UNL d   1       1.001   1.517   0.059  0.00  0.00     0.284 C 
ATOM      9  H3  UNL d   1      -0.706   1.240  -1.099  0.00  0.00     0.395 HD
ENDBRANCH   1   7
TORSDOF 1
ENDMDL
