MODEL 1
REMARK minimizedAffinity -3.75848055
REMARK minimizedRMSD -1
REMARK  1 active torsions:
REMARK  status: ('A' for Active; 'I' for Inactive)
REMARK    1  A    between atoms: N_2  and  C1_3 
ROOT
ATOM      1  C1  UNL d   1       0.236   0.410  -0.224  0.00  0.00     0.143 A 
ATOM      2  C2  UNL d   1       0.782  -0.614  -1.006  0.00  0.00    -0.057 A 
ATOM      3  C3  UNL d   1       0.580  -1.961  -0.684  0.00  0.00     0.033 A 
ATOM      4  C4  UNL d   1      -0.151  -2.309   0.448  0.00  0.00    -0.042 A 
ATOM      5  C5  UNL d   1      -0.681  -1.309   1.254  0.00  0.00     0.033 A 
ATOM      6  C6  UNL d   1      -0.482   0.035   0.923  0.00  0.00    -0.057 A 
ENDROOT
BRANCH   1   7
ATOM      7  N   UNL d   1       0.484   1.768  -0.437  0.00  0.00    -0.732 N 
ATOM      8  C   UNL d   1       1.477   2.468   0.350  0.00  0.00     0.284 C 
ATOM      9  H3  UNL d   1       0.489   2.012  -1.424  0.00  0.00     0.395 HD
ENDBRANCH   1   7
TORSDOF 1
ENDMDL
