MODEL 1
REMARK minimizedAffinity -4.31971407
REMARK minimizedRMSD -1
REMARK  1 active torsions:
REMARK  status: ('A' for Active; 'I' for Inactive)
REMARK    1  A    between atoms: N_2  and  C1_3 
ROOT
ATOM      1  C1  UNL d   1       0.457  -0.185   0.652  0.00  0.00     0.143 A 
ATOM      2  C2  UNL d   1      -0.904   0.077   0.836  0.00  0.00    -0.057 A 
ATOM      3  C3  UNL d   1      -1.845  -0.959   0.875  0.00  0.00     0.033 A 
ATOM      4  C4  UNL d   1      -1.442  -2.279   0.702  0.00  0.00    -0.042 A 
ATOM      5  C5  UNL d   1      -0.097  -2.562   0.493  0.00  0.00     0.033 A 
ATOM      6  C6  UNL d   1       0.838  -1.523   0.462  0.00  0.00    -0.057 A 
ENDROOT
BRANCH   1   7
ATOM      7  N   UNL d   1       1.428   0.808   0.506  0.00  0.00    -0.732 N 
ATOM      8  C   UNL d   1       1.052   2.205   0.455  0.00  0.00     0.284 C 
ATOM      9  H3  UNL d   1       2.262   0.622   1.059  0.00  0.00     0.395 HD
ENDBRANCH   1   7
TORSDOF 1
ENDMDL
