MODEL 1
REMARK minimizedAffinity -4.76508474
REMARK minimizedRMSD -1
REMARK  1 active torsions:
REMARK  status: ('A' for Active; 'I' for Inactive)
REMARK    1  A    between atoms: N_2  and  C1_3 
ROOT
ATOM      1  C1  UNL d   1       0.203  -0.669   0.080  0.00  0.00     0.143 A 
ATOM      2  C2  UNL d   1       0.405  -0.792  -1.298  0.00  0.00    -0.057 A 
ATOM      3  C3  UNL d   1       0.294  -2.031  -1.941  0.00  0.00     0.033 A 
ATOM      4  C4  UNL d   1       0.007  -3.178  -1.209  0.00  0.00    -0.042 A 
ATOM      5  C5  UNL d   1      -0.174  -3.084   0.166  0.00  0.00     0.033 A 
ATOM      6  C6  UNL d   1      -0.068  -1.843   0.802  0.00  0.00    -0.057 A 
ENDROOT
BRANCH   1   7
ATOM      7  N   UNL d   1       0.396   0.517   0.793  0.00  0.00    -0.732 N 
ATOM      8  C   UNL d   1       0.992   1.671   0.155  0.00  0.00     0.284 C 
ATOM      9  H3  UNL d   1      -0.390   0.738   1.400  0.00  0.00     0.395 HD
ENDBRANCH   1   7
TORSDOF 1
ENDMDL
