MODEL 1
REMARK minimizedAffinity -3.08875775
REMARK minimizedRMSD -1
REMARK  1 active torsions:
REMARK  status: ('A' for Active; 'I' for Inactive)
REMARK    1  A    between atoms: N_2  and  C1_3 
ROOT
ATOM      1  C1  UNL d   1      -0.032   0.682  -0.119  0.00  0.00     0.143 A 
ATOM      2  C2  UNL d   1      -0.625   1.765  -0.777  0.00  0.00    -0.057 A 
ATOM      3  C3  UNL d   1      -0.047   3.040  -0.743  0.00  0.00     0.033 A 
ATOM      4  C4  UNL d   1       1.122   3.261  -0.023  0.00  0.00    -0.042 A 
ATOM      5  C5  UNL d   1       1.716   2.205   0.658  0.00  0.00     0.033 A 
ATOM      6  C6  UNL d   1       1.138   0.932   0.615  0.00  0.00    -0.057 A 
ENDROOT
BRANCH   1   7
ATOM      7  N   UNL d   1      -0.610  -0.587  -0.034  0.00  0.00    -0.732 N 
ATOM      8  C   UNL d   1      -0.764  -1.242   1.247  0.00  0.00     0.284 C 
ATOM      9  H3  UNL d   1      -1.410  -0.692  -0.654  0.00  0.00     0.395 HD
ENDBRANCH   1   7
TORSDOF 1
ENDMDL
