MODEL 1
REMARK minimizedAffinity -2.39823413
REMARK minimizedRMSD -1
REMARK  1 active torsions:
REMARK  status: ('A' for Active; 'I' for Inactive)
REMARK    1  A    between atoms: N_2  and  C1_3 
ROOT
ATOM      1  C1  UNL d   1       0.063   1.922   0.271  0.00  0.00     0.143 A 
ATOM      2  C2  UNL d   1      -0.272   1.031   1.297  0.00  0.00    -0.057 A 
ATOM      3  C3  UNL d   1      -0.476  -0.330   1.039  0.00  0.00     0.033 A 
ATOM      4  C4  UNL d   1      -0.377  -0.820  -0.259  0.00  0.00    -0.042 A 
ATOM      5  C5  UNL d   1      -0.069   0.051  -1.298  0.00  0.00     0.033 A 
ATOM      6  C6  UNL d   1       0.140   1.408  -1.033  0.00  0.00    -0.057 A 
ENDROOT
BRANCH   1   7
ATOM      7  N   UNL d   1       0.181   3.303   0.448  0.00  0.00    -0.732 N 
ATOM      8  C   UNL d   1       1.468   3.902   0.731  0.00  0.00     0.284 C 
ATOM      9  H3  UNL d   1      -0.386   3.829  -0.213  0.00  0.00     0.395 HD
ENDBRANCH   1   7
TORSDOF 1
ENDMDL
