MODEL 1
REMARK minimizedAffinity -2.41830802
REMARK minimizedRMSD -1
REMARK  1 active torsions:
REMARK  status: ('A' for Active; 'I' for Inactive)
REMARK    1  A    between atoms: N_2  and  C1_3 
ROOT
ATOM      1  C1  UNL d   1      -0.092   0.113   0.409  0.00  0.00     0.143 A 
ATOM      2  C2  UNL d   1      -1.355  -0.337   0.810  0.00  0.00    -0.057 A 
ATOM      3  C3  UNL d   1      -1.626  -1.702   0.958  0.00  0.00     0.033 A 
ATOM      4  C4  UNL d   1      -0.645  -2.647   0.677  0.00  0.00    -0.042 A 
ATOM      5  C5  UNL d   1       0.610  -2.225   0.253  0.00  0.00     0.033 A 
ATOM      6  C6  UNL d   1       0.877  -0.859   0.114  0.00  0.00    -0.057 A 
ENDROOT
BRANCH   1   7
ATOM      7  N   UNL d   1       0.211   1.451   0.150  0.00  0.00    -0.732 N 
ATOM      8  C   UNL d   1       1.498   2.001   0.519  0.00  0.00     0.284 C 
ATOM      9  H3  UNL d   1      -0.126   1.756  -0.761  0.00  0.00     0.395 HD
ENDBRANCH   1   7
TORSDOF 1
ENDMDL
