MODEL 1
REMARK minimizedAffinity -3.88429117
REMARK minimizedRMSD -1
REMARK  1 active torsions:
REMARK  status: ('A' for Active; 'I' for Inactive)
REMARK    1  A    between atoms: N_2  and  C1_3 
ROOT
ATOM      1  C1  UNL d   1       0.443   1.843  -0.126  0.00  0.00     0.143 A 
ATOM      2  C2  UNL d   1      -0.142   1.255  -1.252  0.00  0.00    -0.057 A 
ATOM      3  C3  UNL d   1      -0.379  -0.124  -1.310  0.00  0.00     0.033 A 
ATOM      4  C4  UNL d   1      -0.008  -0.945  -0.250  0.00  0.00    -0.042 A 
ATOM      5  C5  UNL d   1       0.598  -0.385   0.869  0.00  0.00     0.033 A 
ATOM      6  C6  UNL d   1       0.826   0.993   0.924  0.00  0.00    -0.057 A 
ENDROOT
BRANCH   1   7
ATOM      7  N   UNL d   1       0.795   3.193  -0.047  0.00  0.00    -0.732 N 
ATOM      8  C   UNL d   1       2.186   3.593  -0.032  0.00  0.00     0.284 C 
ATOM      9  H3  UNL d   1       0.199   3.784  -0.623  0.00  0.00     0.395 HD
ENDBRANCH   1   7
TORSDOF 1
ENDMDL
