MODEL 1
REMARK minimizedAffinity -2.51532125
REMARK minimizedRMSD -1
REMARK  0 active torsions:
REMARK  status: ('A' for Active; 'I' for Inactive)
ROOT
ATOM      1  C2' OXE d   1       0.358  -0.431   2.357  0.00  0.00     0.078 C 
ATOM      2  C1' OXE d   1      -0.780   2.115   2.041  0.00  0.00     0.078 C 
ATOM      3  C1  OXE d   1      -0.330   1.387   0.800  0.00  0.00    -0.078 A 
ATOM      4  C2  OXE d   1       0.268   0.161   0.967  0.00  0.00    -0.078 A 
ATOM      5  C3  OXE d   1       0.651  -0.577  -0.149  0.00  0.00     0.003 A 
ATOM      6  C4  OXE d   1       0.574  -0.018  -1.430  0.00  0.00    -0.002 A 
ATOM      7  C5  OXE d   1       0.004   1.246  -1.619  0.00  0.00    -0.002 A 
ATOM      8  C6  OXE d   1      -0.490   1.942  -0.522  0.00  0.00     0.003 A 
ENDROOT
TORSDOF 0
ENDMDL
