MODEL 1
REMARK minimizedAffinity -3.182899
REMARK minimizedRMSD -1
REMARK  0 active torsions:
REMARK  status: ('A' for Active; 'I' for Inactive)
ROOT
ATOM      1  C2' OXE d   1      -1.223   2.251   1.494  0.00  0.00     0.078 C 
ATOM      2  C1' OXE d   1      -1.007   2.424  -1.299  0.00  0.00     0.078 C 
ATOM      3  C1  OXE d   1      -0.535   1.155  -0.635  0.00  0.00    -0.078 A 
ATOM      4  C2  OXE d   1      -0.601   1.098   0.737  0.00  0.00    -0.078 A 
ATOM      5  C3  OXE d   1      -0.230  -0.071   1.396  0.00  0.00     0.003 A 
ATOM      6  C4  OXE d   1       0.354  -1.129   0.689  0.00  0.00    -0.002 A 
ATOM      7  C5  OXE d   1       0.467  -1.075  -0.704  0.00  0.00    -0.002 A 
ATOM      8  C6  OXE d   1      -0.010   0.040  -1.384  0.00  0.00     0.003 A 
ENDROOT
TORSDOF 0
ENDMDL
