MODEL 1
REMARK minimizedAffinity -4.64626741
REMARK minimizedRMSD -1
REMARK  0 active torsions:
REMARK  status: ('A' for Active; 'I' for Inactive)
ROOT
ATOM      1  C2' OXE d   1      -1.435   2.277   2.163  0.00  0.00     0.078 C 
ATOM      2  C1' OXE d   1       0.325   0.357   3.210  0.00  0.00     0.078 C 
ATOM      3  C1  OXE d   1      -0.045   0.251   1.752  0.00  0.00    -0.078 A 
ATOM      4  C2  OXE d   1      -0.944   1.167   1.259  0.00  0.00    -0.078 A 
ATOM      5  C3  OXE d   1      -1.277   1.148  -0.092  0.00  0.00     0.003 A 
ATOM      6  C4  OXE d   1      -0.826   0.112  -0.919  0.00  0.00    -0.002 A 
ATOM      7  C5  OXE d   1       0.058  -0.854  -0.428  0.00  0.00    -0.002 A 
ATOM      8  C6  OXE d   1       0.491  -0.774   0.891  0.00  0.00     0.003 A 
ENDROOT
TORSDOF 0
ENDMDL
