MODEL 1
REMARK minimizedAffinity -2.23177981
REMARK minimizedRMSD -1
REMARK  0 active torsions:
REMARK  status: ('A' for Active; 'I' for Inactive)
ROOT
ATOM      1  C2' OXE d   1       1.141   2.617   2.496  0.00  0.00     0.078 C 
ATOM      2  C1' OXE d   1      -1.623   2.717   2.015  0.00  0.00     0.078 C 
ATOM      3  C1  OXE d   1      -0.864   1.516   1.510  0.00  0.00    -0.078 A 
ATOM      4  C2  OXE d   1       0.495   1.498   1.708  0.00  0.00    -0.078 A 
ATOM      5  C3  OXE d   1       1.235   0.388   1.310  0.00  0.00     0.003 A 
ATOM      6  C4  OXE d   1       0.632  -0.639   0.573  0.00  0.00    -0.002 A 
ATOM      7  C5  OXE d   1      -0.745  -0.621   0.325  0.00  0.00    -0.002 A 
ATOM      8  C6  OXE d   1      -1.513   0.426   0.823  0.00  0.00     0.003 A 
ENDROOT
TORSDOF 0
ENDMDL
