MODEL 1
REMARK minimizedAffinity -5.39025927
REMARK minimizedRMSD -1
REMARK  0 active torsions:
REMARK  status: ('A' for Active; 'I' for Inactive)
ROOT
ATOM      1  C2' OXE d   1       1.003  -0.815   1.869  0.00  0.00     0.078 C 
ATOM      2  C1' OXE d   1       0.429  -0.954  -0.875  0.00  0.00     0.078 C 
ATOM      3  C1  OXE d   1      -0.049   0.259  -0.117  0.00  0.00    -0.078 A 
ATOM      4  C2  OXE d   1       0.195   0.297   1.235  0.00  0.00    -0.078 A 
ATOM      5  C3  OXE d   1      -0.176   1.418   1.972  0.00  0.00     0.003 A 
ATOM      6  C4  OXE d   1      -0.931   2.437   1.380  0.00  0.00    -0.002 A 
ATOM      7  C5  OXE d   1      -1.226   2.400   0.012  0.00  0.00    -0.002 A 
ATOM      8  C6  OXE d   1      -0.757   1.341  -0.757  0.00  0.00     0.003 A 
ENDROOT
TORSDOF 0
ENDMDL
