MODEL 1
REMARK minimizedAffinity -0.939074576
REMARK minimizedRMSD -1
REMARK  0 active torsions:
REMARK  status: ('A' for Active; 'I' for Inactive)
ROOT
ATOM      1  C2' OXE d   1      -1.505   2.284  -1.503  0.00  0.00     0.078 C 
ATOM      2  C1' OXE d   1      -1.442   2.110   1.298  0.00  0.00     0.078 C 
ATOM      3  C1  OXE d   1      -0.785   1.005   0.510  0.00  0.00    -0.078 A 
ATOM      4  C2  OXE d   1      -0.861   1.075  -0.861  0.00  0.00    -0.078 A 
ATOM      5  C3  OXE d   1      -0.224   0.110  -1.636  0.00  0.00     0.003 A 
ATOM      6  C4  OXE d   1       0.361  -1.011  -1.034  0.00  0.00    -0.002 A 
ATOM      7  C5  OXE d   1       0.414  -1.121   0.359  0.00  0.00    -0.002 A 
ATOM      8  C6  OXE d   1      -0.115  -0.103   1.144  0.00  0.00     0.003 A 
ENDROOT
TORSDOF 0
ENDMDL
