MODEL 1
REMARK minimizedAffinity -1.63523448
REMARK minimizedRMSD -1
REMARK  0 active torsions:
REMARK  status: ('A' for Active; 'I' for Inactive)
ROOT
ATOM      1  C2' OXE d   1      -0.084   2.160   1.458  0.00  0.00     0.078 C 
ATOM      2  C1' OXE d   1      -0.221   2.239  -1.345  0.00  0.00     0.078 C 
ATOM      3  C1  OXE d   1      -0.057   0.892  -0.686  0.00  0.00    -0.078 A 
ATOM      4  C2  OXE d   1       0.056   0.867   0.683  0.00  0.00    -0.078 A 
ATOM      5  C3  OXE d   1       0.154  -0.354   1.344  0.00  0.00     0.003 A 
ATOM      6  C4  OXE d   1       0.293  -1.543   0.619  0.00  0.00    -0.002 A 
ATOM      7  C5  OXE d   1       0.220  -1.536  -0.778  0.00  0.00    -0.002 A 
ATOM      8  C6  OXE d   1       0.003  -0.334  -1.443  0.00  0.00     0.003 A 
ENDROOT
TORSDOF 0
ENDMDL
