MODEL 1
REMARK minimizedAffinity -1.69329774
REMARK minimizedRMSD -1
REMARK  0 active torsions:
REMARK  status: ('A' for Active; 'I' for Inactive)
ROOT
ATOM      1  C2' OXE d   1      -0.705   2.252  -1.838  0.00  0.00     0.078 C 
ATOM      2  C1' OXE d   1      -0.943   2.158   0.957  0.00  0.00     0.078 C 
ATOM      3  C1  OXE d   1      -0.117   1.090   0.285  0.00  0.00    -0.078 A 
ATOM      4  C2  OXE d   1      -0.044   1.117  -1.087  0.00  0.00    -0.078 A 
ATOM      5  C3  OXE d   1       0.749   0.188  -1.753  0.00  0.00     0.003 A 
ATOM      6  C4  OXE d   1       1.349  -0.865  -1.051  0.00  0.00    -0.002 A 
ATOM      7  C5  OXE d   1       1.255  -0.934   0.343  0.00  0.00    -0.002 A 
ATOM      8  C6  OXE d   1       0.563   0.058   1.028  0.00  0.00     0.003 A 
ENDROOT
TORSDOF 0
ENDMDL
