MODEL 1
REMARK minimizedAffinity -2.22742438
REMARK minimizedRMSD -1
REMARK  0 active torsions:
REMARK  status: ('A' for Active; 'I' for Inactive)
ROOT
ATOM      1  C2' OXE d   1      -0.680  -0.077   0.027  0.00  0.00     0.078 C 
ATOM      2  C1' OXE d   1       1.847  -1.031  -0.736  0.00  0.00     0.078 C 
ATOM      3  C1  OXE d   1       0.683  -1.987  -0.810  0.00  0.00    -0.078 A 
ATOM      4  C2  OXE d   1      -0.542  -1.525  -0.391  0.00  0.00    -0.078 A 
ATOM      5  C3  OXE d   1      -1.660  -2.349  -0.490  0.00  0.00     0.003 A 
ATOM      6  C4  OXE d   1      -1.521  -3.689  -0.868  0.00  0.00    -0.002 A 
ATOM      7  C5  OXE d   1      -0.276  -4.191  -1.262  0.00  0.00    -0.002 A 
ATOM      8  C6  OXE d   1       0.826  -3.343  -1.279  0.00  0.00     0.003 A 
ENDROOT
TORSDOF 0
ENDMDL
