MODEL 1
REMARK minimizedAffinity -0.501606703
REMARK minimizedRMSD -1
REMARK  0 active torsions:
REMARK  status: ('A' for Active; 'I' for Inactive)
ROOT
ATOM      1  C2' OXE d   1      -0.192   1.268  -1.619  0.00  0.00     0.078 C 
ATOM      2  C1' OXE d   1      -0.698  -1.154  -0.295  0.00  0.00     0.078 C 
ATOM      3  C1  OXE d   1      -0.550   0.089   0.545  0.00  0.00    -0.078 A 
ATOM      4  C2  OXE d   1      -0.256   1.262  -0.107  0.00  0.00    -0.078 A 
ATOM      5  C3  OXE d   1      -0.163   2.448   0.615  0.00  0.00     0.003 A 
ATOM      6  C4  OXE d   1      -0.213   2.432   2.014  0.00  0.00    -0.002 A 
ATOM      7  C5  OXE d   1      -0.473   1.241   2.701  0.00  0.00    -0.002 A 
ATOM      8  C6  OXE d   1      -0.685   0.071   1.981  0.00  0.00     0.003 A 
ENDROOT
TORSDOF 0
ENDMDL
