MODEL 1
REMARK minimizedAffinity -5.91225815
REMARK minimizedRMSD -1
REMARK  0 active torsions:
REMARK  status: ('A' for Active; 'I' for Inactive)
ROOT
ATOM      1  C2' OXE d   1      -1.425   2.655   1.145  0.00  0.00     0.078 C 
ATOM      2  C1' OXE d   1      -0.990   2.025  -1.556  0.00  0.00     0.078 C 
ATOM      3  C1  OXE d   1      -0.292   1.184  -0.517  0.00  0.00    -0.078 A 
ATOM      4  C2  OXE d   1      -0.474   1.529   0.801  0.00  0.00    -0.078 A 
ATOM      5  C3  OXE d   1       0.103   0.753   1.802  0.00  0.00     0.003 A 
ATOM      6  C4  OXE d   1       0.989  -0.281   1.476  0.00  0.00    -0.002 A 
ATOM      7  C5  OXE d   1       1.219  -0.623   0.139  0.00  0.00    -0.002 A 
ATOM      8  C6  OXE d   1       0.555   0.071  -0.866  0.00  0.00     0.003 A 
ENDROOT
TORSDOF 0
ENDMDL
