MODEL 1
REMARK minimizedAffinity -4.69951916
REMARK minimizedRMSD -1
REMARK  0 active torsions:
REMARK  status: ('A' for Active; 'I' for Inactive)
ROOT
ATOM      1  C   UNL d   1      -0.878   3.488  -0.219  0.00  0.00     0.020 A 
ATOM      2  C1  UNL d   1      -1.509   3.350   1.016  0.00  0.00     0.020 A 
ATOM      3  C2  UNL d   1      -1.601   2.092   1.616  0.00  0.00     0.034 A 
ATOM      4  C3  UNL d   1      -1.060   0.968   0.982  0.00  0.00     0.017 A 
ATOM      5  C4  UNL d   1      -0.426   1.108  -0.258  0.00  0.00     0.017 A 
ATOM      6  C5  UNL d   1      -0.337   2.370  -0.855  0.00  0.00     0.034 A 
ATOM      7 Cl   UNL d   1       0.266  -0.232  -1.102  0.00  0.00    -0.070 Cl
ATOM      8 Cl1  UNL d   1      -1.208  -0.556   1.782  0.00  0.00    -0.070 Cl
ENDROOT
TORSDOF 0
ENDMDL
