MODEL 1
REMARK minimizedAffinity -2.5652864
REMARK minimizedRMSD -1
REMARK  0 active torsions:
REMARK  status: ('A' for Active; 'I' for Inactive)
ROOT
ATOM      1  C   UNL d   1       0.689  -0.917   0.382  0.00  0.00     0.020 A 
ATOM      2  C1  UNL d   1       1.400  -0.566  -0.764  0.00  0.00     0.020 A 
ATOM      3  C2  UNL d   1       1.117   0.633  -1.422  0.00  0.00     0.034 A 
ATOM      4  C3  UNL d   1       0.119   1.485  -0.934  0.00  0.00     0.017 A 
ATOM      5  C4  UNL d   1      -0.595   1.131   0.217  0.00  0.00     0.017 A 
ATOM      6  C5  UNL d   1      -0.307  -0.071   0.872  0.00  0.00     0.034 A 
ATOM      7 Cl   UNL d   1      -1.840   2.130   0.879  0.00  0.00    -0.070 Cl
ATOM      8 Cl1  UNL d   1      -0.178   2.952  -1.797  0.00  0.00    -0.070 Cl
ENDROOT
TORSDOF 0
ENDMDL
