MODEL 1
REMARK minimizedAffinity -3.27869153
REMARK minimizedRMSD -1
REMARK  0 active torsions:
REMARK  status: ('A' for Active; 'I' for Inactive)
ROOT
ATOM      1  C   UNL d   1      -1.564   1.390   2.255  0.00  0.00     0.020 A 
ATOM      2  C1  UNL d   1      -1.333   0.017   2.329  0.00  0.00     0.020 A 
ATOM      3  C2  UNL d   1      -0.597  -0.622   1.328  0.00  0.00     0.034 A 
ATOM      4  C3  UNL d   1      -0.089   0.113   0.250  0.00  0.00     0.017 A 
ATOM      5  C4  UNL d   1      -0.322   1.491   0.178  0.00  0.00     0.017 A 
ATOM      6  C5  UNL d   1      -1.060   2.125   1.182  0.00  0.00     0.034 A 
ATOM      7 Cl   UNL d   1       0.272   2.464  -1.121  0.00  0.00    -0.070 Cl
ATOM      8 Cl1  UNL d   1       0.813  -0.741  -0.950  0.00  0.00    -0.070 Cl
ENDROOT
TORSDOF 0
ENDMDL
