MODEL 1
REMARK minimizedAffinity -4.57889605
REMARK minimizedRMSD -1
REMARK  0 active torsions:
REMARK  status: ('A' for Active; 'I' for Inactive)
ROOT
ATOM      1  C   UNL d   1      -1.899   1.906   0.229  0.00  0.00     0.020 A 
ATOM      2  C1  UNL d   1      -1.904   1.871   1.623  0.00  0.00     0.020 A 
ATOM      3  C2  UNL d   1      -1.111   0.942   2.300  0.00  0.00     0.034 A 
ATOM      4  C3  UNL d   1      -0.309   0.046   1.584  0.00  0.00     0.017 A 
ATOM      5  C4  UNL d   1      -0.304   0.083   0.185  0.00  0.00     0.017 A 
ATOM      6  C5  UNL d   1      -1.100   1.014  -0.488  0.00  0.00     0.034 A 
ATOM      7 Cl   UNL d   1       0.659  -0.991  -0.767  0.00  0.00    -0.070 Cl
ATOM      8 Cl1  UNL d   1       0.647  -1.075   2.487  0.00  0.00    -0.070 Cl
ENDROOT
TORSDOF 0
ENDMDL
