MODEL 1
REMARK minimizedAffinity -2.22916365
REMARK minimizedRMSD -1
REMARK  0 active torsions:
REMARK  status: ('A' for Active; 'I' for Inactive)
ROOT
ATOM      1  C   UNL d   1       0.970   0.208  -1.293  0.00  0.00     0.020 A 
ATOM      2  C1  UNL d   1       0.520   1.527  -1.318  0.00  0.00     0.020 A 
ATOM      3  C2  UNL d   1      -0.271   2.015  -0.275  0.00  0.00     0.034 A 
ATOM      4  C3  UNL d   1      -0.614   1.183   0.796  0.00  0.00     0.017 A 
ATOM      5  C4  UNL d   1      -0.162  -0.142   0.820  0.00  0.00     0.017 A 
ATOM      6  C5  UNL d   1       0.630  -0.625  -0.226  0.00  0.00     0.034 A 
ATOM      7 Cl   UNL d   1      -0.544  -1.229   2.109  0.00  0.00    -0.070 Cl
ATOM      8 Cl1  UNL d   1      -1.595   1.852   2.051  0.00  0.00    -0.070 Cl
ENDROOT
TORSDOF 0
ENDMDL
