MODEL 1
REMARK minimizedAffinity -2.66369295
REMARK minimizedRMSD -1
REMARK  0 active torsions:
REMARK  status: ('A' for Active; 'I' for Inactive)
ROOT
ATOM      1  C   UNL d   1       1.009   0.264  -1.010  0.00  0.00     0.020 A 
ATOM      2  C1  UNL d   1       0.512   1.561  -1.128  0.00  0.00     0.020 A 
ATOM      3  C2  UNL d   1      -0.264   2.108  -0.104  0.00  0.00     0.034 A 
ATOM      4  C3  UNL d   1      -0.545   1.357   1.043  0.00  0.00     0.017 A 
ATOM      5  C4  UNL d   1      -0.046   0.055   1.161  0.00  0.00     0.017 A 
ATOM      6  C5  UNL d   1       0.731  -0.488   0.132  0.00  0.00     0.034 A 
ATOM      7 Cl   UNL d   1      -0.351  -0.933   2.546  0.00  0.00    -0.070 Cl
ATOM      8 Cl1  UNL d   1      -1.511   2.096   2.271  0.00  0.00    -0.070 Cl
ENDROOT
TORSDOF 0
ENDMDL
