MODEL 1
REMARK minimizedAffinity -3.54459095
REMARK minimizedRMSD -1
REMARK  0 active torsions:
REMARK  status: ('A' for Active; 'I' for Inactive)
ROOT
ATOM      1  C   UNL d   1       2.428  -0.790  -1.358  0.00  0.00     0.020 A 
ATOM      2  C1  UNL d   1       1.540  -1.420  -0.486  0.00  0.00     0.020 A 
ATOM      3  C2  UNL d   1       0.588  -2.312  -0.983  0.00  0.00     0.034 A 
ATOM      4  C3  UNL d   1       0.522  -2.577  -2.356  0.00  0.00     0.017 A 
ATOM      5  C4  UNL d   1       1.413  -1.945  -3.230  0.00  0.00     0.017 A 
ATOM      6  C5  UNL d   1       2.364  -1.052  -2.727  0.00  0.00     0.034 A 
ATOM      7 Cl   UNL d   1       1.392  -2.221  -4.936  0.00  0.00    -0.070 Cl
ATOM      8 Cl1  UNL d   1      -0.681  -3.692  -2.902  0.00  0.00    -0.070 Cl
ENDROOT
TORSDOF 0
ENDMDL
