MODEL 1
REMARK minimizedAffinity -3.88070607
REMARK minimizedRMSD -1
REMARK  0 active torsions:
REMARK  status: ('A' for Active; 'I' for Inactive)
ROOT
ATOM      1  C   UNL d   1      -2.246   1.626   0.530  0.00  0.00     0.020 A 
ATOM      2  C1  UNL d   1      -2.226   1.775   1.917  0.00  0.00     0.020 A 
ATOM      3  C2  UNL d   1      -1.243   1.135   2.674  0.00  0.00     0.034 A 
ATOM      4  C3  UNL d   1      -0.276   0.341   2.045  0.00  0.00     0.017 A 
ATOM      5  C4  UNL d   1      -0.298   0.191   0.654  0.00  0.00     0.017 A 
ATOM      6  C5  UNL d   1      -1.284   0.835  -0.099  0.00  0.00     0.034 A 
ATOM      7 Cl   UNL d   1       0.862  -0.771  -0.193  0.00  0.00    -0.070 Cl
ATOM      8 Cl1  UNL d   1       0.910  -0.421   3.044  0.00  0.00    -0.070 Cl
ENDROOT
TORSDOF 0
ENDMDL
