MODEL 1
REMARK minimizedAffinity -3.71740627
REMARK minimizedRMSD -1
REMARK  0 active torsions:
REMARK  status: ('A' for Active; 'I' for Inactive)
ROOT
ATOM      1  C   UNL d   1       1.019  -0.979  -0.421  0.00  0.00     0.020 A 
ATOM      2  C1  UNL d   1       0.243  -1.131   0.727  0.00  0.00     0.020 A 
ATOM      3  C2  UNL d   1      -0.593  -0.094   1.148  0.00  0.00     0.034 A 
ATOM      4  C3  UNL d   1      -0.655   1.099   0.419  0.00  0.00     0.017 A 
ATOM      5  C4  UNL d   1       0.124   1.251  -0.733  0.00  0.00     0.017 A 
ATOM      6  C5  UNL d   1       0.960   0.210  -1.150  0.00  0.00     0.034 A 
ATOM      7 Cl   UNL d   1       0.101   2.694  -1.684  0.00  0.00    -0.070 Cl
ATOM      8 Cl1  UNL d   1      -1.711   2.339   0.997  0.00  0.00    -0.070 Cl
ENDROOT
TORSDOF 0
ENDMDL
