MODEL 1
REMARK minimizedAffinity -0.404255956
REMARK minimizedRMSD -1
REMARK  0 active torsions:
REMARK  status: ('A' for Active; 'I' for Inactive)
ROOT
ATOM      1  C   UNL d   1      -1.289   0.073   1.866  0.00  0.00     0.020 A 
ATOM      2  C1  UNL d   1      -1.346   1.429   1.546  0.00  0.00     0.020 A 
ATOM      3  C2  UNL d   1      -0.643   1.915   0.443  0.00  0.00     0.034 A 
ATOM      4  C3  UNL d   1       0.120   1.046  -0.345  0.00  0.00     0.017 A 
ATOM      5  C4  UNL d   1       0.177  -0.315  -0.023  0.00  0.00     0.017 A 
ATOM      6  C5  UNL d   1      -0.530  -0.797   1.083  0.00  0.00     0.034 A 
ATOM      7 Cl   UNL d   1       1.097  -1.449  -0.948  0.00  0.00    -0.070 Cl
ATOM      8 Cl1  UNL d   1       0.964   1.717  -1.695  0.00  0.00    -0.070 Cl
ENDROOT
TORSDOF 0
ENDMDL
