MODEL 1
REMARK minimizedAffinity -4.55319357
REMARK minimizedRMSD -1
REMARK  0 active torsions:
REMARK  status: ('A' for Active; 'I' for Inactive)
ROOT
ATOM      1  C   UNL d   1      -0.064  -1.416   1.448  0.00  0.00     0.020 A 
ATOM      2  C1  UNL d   1       0.823  -1.303   0.379  0.00  0.00     0.020 A 
ATOM      3  C2  UNL d   1       0.872  -0.123  -0.366  0.00  0.00     0.034 A 
ATOM      4  C3  UNL d   1       0.031   0.949  -0.043  0.00  0.00     0.017 A 
ATOM      5  C4  UNL d   1      -0.860   0.834   1.030  0.00  0.00     0.017 A 
ATOM      6  C5  UNL d   1      -0.904  -0.350   1.773  0.00  0.00     0.034 A 
ATOM      7 Cl   UNL d   1      -1.928   2.113   1.489  0.00  0.00    -0.070 Cl
ATOM      8 Cl1  UNL d   1       0.145   2.378  -1.007  0.00  0.00    -0.070 Cl
ENDROOT
TORSDOF 0
ENDMDL
