MODEL 1
REMARK minimizedAffinity -2.23985267
REMARK minimizedRMSD -1
REMARK  0 active torsions:
REMARK  status: ('A' for Active; 'I' for Inactive)
ROOT
ATOM      1  C   UNL d   1       0.293  -1.051   1.288  0.00  0.00     0.020 A 
ATOM      2  C1  UNL d   1       0.986  -0.831   0.098  0.00  0.00     0.020 A 
ATOM      3  C2  UNL d   1       0.638   0.243  -0.724  0.00  0.00     0.034 A 
ATOM      4  C3  UNL d   1      -0.406   1.101  -0.358  0.00  0.00     0.017 A 
ATOM      5  C4  UNL d   1      -1.100   0.880   0.837  0.00  0.00     0.017 A 
ATOM      6  C5  UNL d   1      -0.748  -0.197   1.657  0.00  0.00     0.034 A 
ATOM      7 Cl   UNL d   1      -2.398   1.895   1.357  0.00  0.00    -0.070 Cl
ATOM      8 Cl1  UNL d   1      -0.782   2.409  -1.422  0.00  0.00    -0.070 Cl
ENDROOT
TORSDOF 0
ENDMDL
