MODEL 1
REMARK minimizedAffinity -5.06797886
REMARK minimizedRMSD -1
REMARK  0 active torsions:
REMARK  status: ('A' for Active; 'I' for Inactive)
ROOT
ATOM      1  C   UNL d   1       0.886   1.744  -1.436  0.00  0.00     0.020 A 
ATOM      2  C1  UNL d   1       1.615   0.586  -1.167  0.00  0.00     0.020 A 
ATOM      3  C2  UNL d   1       1.208  -0.274  -0.145  0.00  0.00     0.034 A 
ATOM      4  C3  UNL d   1       0.068   0.023   0.612  0.00  0.00     0.017 A 
ATOM      5  C4  UNL d   1      -0.662   1.185   0.342  0.00  0.00     0.017 A 
ATOM      6  C5  UNL d   1      -0.250   2.043  -0.683  0.00  0.00     0.034 A 
ATOM      7 Cl   UNL d   1      -2.079   1.618   1.233  0.00  0.00    -0.070 Cl
ATOM      8 Cl1  UNL d   1      -0.378  -1.086   1.860  0.00  0.00    -0.070 Cl
ENDROOT
TORSDOF 0
ENDMDL
