MODEL 1
REMARK minimizedAffinity -4.91548491
REMARK minimizedRMSD -1
REMARK  0 active torsions:
REMARK  status: ('A' for Active; 'I' for Inactive)
ROOT
ATOM      1  C   UNL d   1      -1.372   1.975  -0.065  0.00  0.00     0.020 A 
ATOM      2  C1  UNL d   1      -1.779   1.844   1.263  0.00  0.00     0.020 A 
ATOM      3  C2  UNL d   1      -1.343   0.757   2.023  0.00  0.00     0.034 A 
ATOM      4  C3  UNL d   1      -0.497  -0.204   1.456  0.00  0.00     0.017 A 
ATOM      5  C4  UNL d   1      -0.089  -0.072   0.124  0.00  0.00     0.017 A 
ATOM      6  C5  UNL d   1      -0.529   1.019  -0.633  0.00  0.00     0.034 A 
ATOM      7 Cl   UNL d   1       0.953  -1.217  -0.645  0.00  0.00    -0.070 Cl
ATOM      8 Cl1  UNL d   1       0.004  -1.522   2.454  0.00  0.00    -0.070 Cl
ENDROOT
TORSDOF 0
ENDMDL
