MODEL 1
REMARK minimizedAffinity -4.99421406
REMARK minimizedRMSD -1
REMARK  0 active torsions:
REMARK  status: ('A' for Active; 'I' for Inactive)
ROOT
ATOM      1  C   UNL d   1      -2.235   1.598   1.533  0.00  0.00     0.020 A 
ATOM      2  C1  UNL d   1      -1.985   2.176   0.289  0.00  0.00     0.020 A 
ATOM      3  C2  UNL d   1      -0.857   1.798  -0.442  0.00  0.00     0.034 A 
ATOM      4  C3  UNL d   1       0.026   0.840   0.070  0.00  0.00     0.017 A 
ATOM      5  C4  UNL d   1      -0.226   0.261   1.319  0.00  0.00     0.017 A 
ATOM      6  C5  UNL d   1      -1.357   0.643   2.047  0.00  0.00     0.034 A 
ATOM      7 Cl   UNL d   1       0.817  -0.927   2.017  0.00  0.00    -0.070 Cl
ATOM      8 Cl1  UNL d   1       1.401   0.421  -0.888  0.00  0.00    -0.070 Cl
ENDROOT
TORSDOF 0
ENDMDL
