MODEL 1
REMARK minimizedAffinity -3.76050901
REMARK minimizedRMSD -1
REMARK  0 active torsions:
REMARK  status: ('A' for Active; 'I' for Inactive)
ROOT
ATOM      1  C   UNL d   1       0.930  -0.546  -0.092  0.00  0.00     0.020 A 
ATOM      2  C1  UNL d   1       0.154  -0.812   1.035  0.00  0.00     0.020 A 
ATOM      3  C2  UNL d   1      -0.835   0.090   1.431  0.00  0.00     0.034 A 
ATOM      4  C3  UNL d   1      -1.051   1.263   0.699  0.00  0.00     0.017 A 
ATOM      5  C4  UNL d   1      -0.272   1.530  -0.432  0.00  0.00     0.017 A 
ATOM      6  C5  UNL d   1       0.717   0.623  -0.824  0.00  0.00     0.034 A 
ATOM      7 Cl   UNL d   1      -0.480   2.956  -1.386  0.00  0.00    -0.070 Cl
ATOM      8 Cl1  UNL d   1      -2.292   2.334   1.246  0.00  0.00    -0.070 Cl
ENDROOT
TORSDOF 0
ENDMDL
