MODEL 1
REMARK minimizedAffinity -3.57917094
REMARK minimizedRMSD -1
REMARK  0 active torsions:
REMARK  status: ('A' for Active; 'I' for Inactive)
ROOT
ATOM      1  C   UNL d   1      -1.734   2.505   0.116  0.00  0.00     0.020 A 
ATOM      2  C1  UNL d   1      -1.881   2.128   1.450  0.00  0.00     0.020 A 
ATOM      3  C2  UNL d   1      -1.276   0.958   1.916  0.00  0.00     0.034 A 
ATOM      4  C3  UNL d   1      -0.522   0.161   1.046  0.00  0.00     0.017 A 
ATOM      5  C4  UNL d   1      -0.375   0.541  -0.293  0.00  0.00     0.017 A 
ATOM      6  C5  UNL d   1      -0.983   1.713  -0.754  0.00  0.00     0.034 A 
ATOM      7 Cl   UNL d   1       0.540  -0.391  -1.425  0.00  0.00    -0.070 Cl
ATOM      8 Cl1  UNL d   1       0.198  -1.271   1.690  0.00  0.00    -0.070 Cl
ENDROOT
TORSDOF 0
ENDMDL
