MODEL 1
REMARK minimizedAffinity -2.41336131
REMARK minimizedRMSD -1
REMARK  0 active torsions:
REMARK  status: ('A' for Active; 'I' for Inactive)
ROOT
ATOM      1  C   UNL d   1      -1.575   0.738   0.836  0.00  0.00     0.020 A 
ATOM      2  C1  UNL d   1      -0.948  -0.447   0.455  0.00  0.00     0.020 A 
ATOM      3  C2  UNL d   1       0.439  -0.483   0.293  0.00  0.00     0.034 A 
ATOM      4  C3  UNL d   1       1.203   0.669   0.514  0.00  0.00     0.017 A 
ATOM      5  C4  UNL d   1       0.572   1.859   0.897  0.00  0.00     0.017 A 
ATOM      6  C5  UNL d   1      -0.817   1.888   1.057  0.00  0.00     0.034 A 
ATOM      7 Cl   UNL d   1       1.447   3.320   1.186  0.00  0.00    -0.070 Cl
ATOM      8 Cl1  UNL d   1       2.913   0.553   0.296  0.00  0.00    -0.070 Cl
ENDROOT
TORSDOF 0
ENDMDL
