MODEL 1
REMARK minimizedAffinity -2.79539347
REMARK minimizedRMSD -1
REMARK  0 active torsions:
REMARK  status: ('A' for Active; 'I' for Inactive)
ROOT
ATOM      1  C   UNL d   1       1.320   1.334   0.477  0.00  0.00     0.020 A 
ATOM      2  C1  UNL d   1       0.352   2.322   0.656  0.00  0.00     0.020 A 
ATOM      3  C2  UNL d   1      -1.002   2.004   0.535  0.00  0.00     0.034 A 
ATOM      4  C3  UNL d   1      -1.392   0.694   0.234  0.00  0.00     0.017 A 
ATOM      5  C4  UNL d   1      -0.421  -0.297   0.054  0.00  0.00     0.017 A 
ATOM      6  C5  UNL d   1       0.934   0.027   0.177  0.00  0.00     0.034 A 
ATOM      7 Cl   UNL d   1      -0.826  -1.936  -0.319  0.00  0.00    -0.070 Cl
ATOM      8 Cl1  UNL d   1      -3.085   0.371   0.099  0.00  0.00    -0.070 Cl
ENDROOT
TORSDOF 0
ENDMDL
