MODEL 1
REMARK minimizedAffinity 0.88960743
REMARK minimizedRMSD -1
REMARK  0 active torsions:
REMARK  status: ('A' for Active; 'I' for Inactive)
ROOT
ATOM      1  C   UNL d   1      -1.308  -0.117   0.247  0.00  0.00     0.020 A 
ATOM      2  C1  UNL d   1      -1.796   1.159   0.528  0.00  0.00     0.020 A 
ATOM      3  C2  UNL d   1      -0.909   2.195   0.826  0.00  0.00     0.034 A 
ATOM      4  C3  UNL d   1       0.470   1.958   0.844  0.00  0.00     0.017 A 
ATOM      5  C4  UNL d   1       0.959   0.678   0.562  0.00  0.00     0.017 A 
ATOM      6  C5  UNL d   1       0.067  -0.357   0.264  0.00  0.00     0.034 A 
ATOM      7 Cl   UNL d   1       2.648   0.309   0.565  0.00  0.00    -0.070 Cl
ATOM      8 Cl1  UNL d   1       1.509   3.287   1.220  0.00  0.00    -0.070 Cl
ENDROOT
TORSDOF 0
ENDMDL
