MODEL 1
REMARK minimizedAffinity -4.03991318
REMARK minimizedRMSD -1
REMARK  0 active torsions:
REMARK  status: ('A' for Active; 'I' for Inactive)
ROOT
ATOM      1  C   UNL d   1       2.326   2.112   0.871  0.00  0.00     0.020 A 
ATOM      2  C1  UNL d   1       1.267   3.001   1.051  0.00  0.00     0.020 A 
ATOM      3  C2  UNL d   1      -0.050   2.542   0.978  0.00  0.00     0.034 A 
ATOM      4  C3  UNL d   1      -0.311   1.190   0.725  0.00  0.00     0.017 A 
ATOM      5  C4  UNL d   1       0.753   0.299   0.545  0.00  0.00     0.017 A 
ATOM      6  C5  UNL d   1       2.070   0.764   0.619  0.00  0.00     0.034 A 
ATOM      7 Cl   UNL d   1       0.510  -1.383   0.230  0.00  0.00    -0.070 Cl
ATOM      8 Cl1  UNL d   1      -1.963   0.691   0.649  0.00  0.00    -0.070 Cl
ENDROOT
TORSDOF 0
ENDMDL
