MODEL 1
REMARK minimizedAffinity -3.36208797
REMARK minimizedRMSD -1
REMARK  0 active torsions:
REMARK  status: ('A' for Active; 'I' for Inactive)
ROOT
ATOM      1  C   UNL d   1      -0.764   2.629   0.261  0.00  0.00     0.020 A 
ATOM      2  C1  UNL d   1       0.415   2.826   0.979  0.00  0.00     0.020 A 
ATOM      3  C2  UNL d   1       1.361   1.802   1.062  0.00  0.00     0.034 A 
ATOM      4  C3  UNL d   1       1.130   0.577   0.427  0.00  0.00     0.017 A 
ATOM      5  C4  UNL d   1      -0.054   0.380  -0.293  0.00  0.00     0.017 A 
ATOM      6  C5  UNL d   1      -0.998   1.408  -0.373  0.00  0.00     0.034 A 
ATOM      7 Cl   UNL d   1      -0.411  -1.105  -1.103  0.00  0.00    -0.070 Cl
ATOM      8 Cl1  UNL d   1       2.343  -0.645   0.571  0.00  0.00    -0.070 Cl
ENDROOT
TORSDOF 0
ENDMDL
