MODEL 1
REMARK minimizedAffinity -1.99169803
REMARK minimizedRMSD -1
REMARK  0 active torsions:
REMARK  status: ('A' for Active; 'I' for Inactive)
ROOT
ATOM      1  C   UNL d   1      -1.004   2.443   0.836  0.00  0.00     0.020 A 
ATOM      2  C1  UNL d   1      -1.938   1.427   0.635  0.00  0.00     0.020 A 
ATOM      3  C2  UNL d   1      -1.507   0.136   0.323  0.00  0.00     0.034 A 
ATOM      4  C3  UNL d   1      -0.141  -0.143   0.211  0.00  0.00     0.017 A 
ATOM      5  C4  UNL d   1       0.796   0.877   0.413  0.00  0.00     0.017 A 
ATOM      6  C5  UNL d   1       0.360   2.169   0.725  0.00  0.00     0.034 A 
ATOM      7 Cl   UNL d   1       2.499   0.610   0.291  0.00  0.00    -0.070 Cl
ATOM      8 Cl1  UNL d   1       0.320  -1.763  -0.178  0.00  0.00    -0.070 Cl
ENDROOT
TORSDOF 0
ENDMDL
