MODEL 1
REMARK minimizedAffinity 0.00961450674
REMARK minimizedRMSD -1
REMARK  0 active torsions:
REMARK  status: ('A' for Active; 'I' for Inactive)
ROOT
ATOM      1  C   UNL d   1      -1.685   1.741   0.724  0.00  0.00     0.020 A 
ATOM      2  C1  UNL d   1      -0.612   2.626   0.818  0.00  0.00     0.020 A 
ATOM      3  C2  UNL d   1       0.695   2.157   0.674  0.00  0.00     0.034 A 
ATOM      4  C3  UNL d   1       0.933   0.799   0.434  0.00  0.00     0.017 A 
ATOM      5  C4  UNL d   1      -0.145  -0.089   0.339  0.00  0.00     0.017 A 
ATOM      6  C5  UNL d   1      -1.452   0.386   0.484  0.00  0.00     0.034 A 
ATOM      7 Cl   UNL d   1       0.070  -1.779   0.044  0.00  0.00    -0.070 Cl
ATOM      8 Cl1  UNL d   1       2.575   0.288   0.265  0.00  0.00    -0.070 Cl
ENDROOT
TORSDOF 0
ENDMDL
