MODEL 1
REMARK minimizedAffinity -3.90158868
REMARK minimizedRMSD -1
REMARK  0 active torsions:
REMARK  status: ('A' for Active; 'I' for Inactive)
ROOT
ATOM      1  C   UNL d   1       2.413   1.638   0.661  0.00  0.00     0.020 A 
ATOM      2  C1  UNL d   1       1.512   2.633   1.039  0.00  0.00     0.020 A 
ATOM      3  C2  UNL d   1       0.139   2.379   1.012  0.00  0.00     0.034 A 
ATOM      4  C3  UNL d   1      -0.336   1.126   0.607  0.00  0.00     0.017 A 
ATOM      5  C4  UNL d   1       0.569   0.128   0.228  0.00  0.00     0.017 A 
ATOM      6  C5  UNL d   1       1.942   0.389   0.257  0.00  0.00     0.034 A 
ATOM      7 Cl   UNL d   1       0.057  -1.441  -0.283  0.00  0.00    -0.070 Cl
ATOM      8 Cl1  UNL d   1      -2.047   0.881   0.599  0.00  0.00    -0.070 Cl
ENDROOT
TORSDOF 0
ENDMDL
