MODEL 1
REMARK minimizedAffinity -2.52694869
REMARK minimizedRMSD -1
REMARK  0 active torsions:
REMARK  status: ('A' for Active; 'I' for Inactive)
ROOT
ATOM      1  C   UNL d   1       0.276  -1.816   0.092  0.00  0.00     0.020 A 
ATOM      2  C1  UNL d   1      -0.957  -1.168   0.040  0.00  0.00     0.020 A 
ATOM      3  C2  UNL d   1      -1.034   0.206   0.274  0.00  0.00     0.034 A 
ATOM      4  C3  UNL d   1       0.124   0.937   0.563  0.00  0.00     0.017 A 
ATOM      5  C4  UNL d   1       1.362   0.285   0.615  0.00  0.00     0.017 A 
ATOM      6  C5  UNL d   1       1.433  -1.091   0.379  0.00  0.00     0.034 A 
ATOM      7 Cl   UNL d   1       2.835   1.120   0.964  0.00  0.00    -0.070 Cl
ATOM      8 Cl1  UNL d   1      -0.045   2.634   0.842  0.00  0.00    -0.070 Cl
ENDROOT
TORSDOF 0
ENDMDL
