MODEL 1
REMARK minimizedAffinity 0.716478705
REMARK minimizedRMSD -1
REMARK  0 active torsions:
REMARK  status: ('A' for Active; 'I' for Inactive)
ROOT
ATOM      1  C   UNL d   1      -1.352   0.570   0.310  0.00  0.00     0.020 A 
ATOM      2  C1  UNL d   1      -1.380   1.884   0.775  0.00  0.00     0.020 A 
ATOM      3  C2  UNL d   1      -0.208   2.487   1.236  0.00  0.00     0.034 A 
ATOM      4  C3  UNL d   1       0.997   1.775   1.234  0.00  0.00     0.017 A 
ATOM      5  C4  UNL d   1       1.024   0.456   0.767  0.00  0.00     0.017 A 
ATOM      6  C5  UNL d   1      -0.153  -0.142   0.306  0.00  0.00     0.034 A 
ATOM      7 Cl   UNL d   1       2.473  -0.486   0.733  0.00  0.00    -0.070 Cl
ATOM      8 Cl1  UNL d   1       2.408   2.582   1.818  0.00  0.00    -0.070 Cl
ENDROOT
TORSDOF 0
ENDMDL
