MODEL 1
REMARK minimizedAffinity -3.46150875
REMARK minimizedRMSD -1
REMARK  0 active torsions:
REMARK  status: ('A' for Active; 'I' for Inactive)
ROOT
ATOM      1  C   UNL d   1       1.740  -0.411   0.464  0.00  0.00     0.020 A 
ATOM      2  C1  UNL d   1       0.806  -1.444   0.384  0.00  0.00     0.020 A 
ATOM      3  C2  UNL d   1      -0.559  -1.157   0.454  0.00  0.00     0.034 A 
ATOM      4  C3  UNL d   1      -0.994   0.165   0.605  0.00  0.00     0.017 A 
ATOM      5  C4  UNL d   1      -0.055   1.200   0.685  0.00  0.00     0.017 A 
ATOM      6  C5  UNL d   1       1.310   0.908   0.614  0.00  0.00     0.034 A 
ATOM      7 Cl   UNL d   1      -0.515   2.856   0.872  0.00  0.00    -0.070 Cl
ATOM      8 Cl1  UNL d   1      -2.697   0.446   0.684  0.00  0.00    -0.070 Cl
ENDROOT
TORSDOF 0
ENDMDL
