MODEL 1
REMARK minimizedAffinity -1.52333045
REMARK minimizedRMSD -1
REMARK  0 active torsions:
REMARK  status: ('A' for Active; 'I' for Inactive)
ROOT
ATOM      1  C   UNL d   1       1.390  -1.223  -0.347  0.00  0.00     0.020 A 
ATOM      2  C1  UNL d   1       0.024  -0.945  -0.333  0.00  0.00     0.020 A 
ATOM      3  C2  UNL d   1      -0.428   0.319   0.052  0.00  0.00     0.034 A 
ATOM      4  C3  UNL d   1       0.487   1.310   0.425  0.00  0.00     0.017 A 
ATOM      5  C4  UNL d   1       1.858   1.031   0.410  0.00  0.00     0.017 A 
ATOM      6  C5  UNL d   1       2.305  -0.237   0.024  0.00  0.00     0.034 A 
ATOM      7 Cl   UNL d   1       3.047   2.203   0.856  0.00  0.00    -0.070 Cl
ATOM      8 Cl1  UNL d   1      -0.143   2.851   0.889  0.00  0.00    -0.070 Cl
ENDROOT
TORSDOF 0
ENDMDL
