MODEL 1
REMARK minimizedAffinity -5.07723713
REMARK minimizedRMSD -1
REMARK  0 active torsions:
REMARK  status: ('A' for Active; 'I' for Inactive)
ROOT
ATOM      1  C   UNL d   1       1.550   2.935   0.744  0.00  0.00     0.020 A 
ATOM      2  C1  UNL d   1       2.668   2.105   0.814  0.00  0.00     0.020 A 
ATOM      3  C2  UNL d   1       2.548   0.745   0.519  0.00  0.00     0.034 A 
ATOM      4  C3  UNL d   1       1.307   0.211   0.153  0.00  0.00     0.017 A 
ATOM      5  C4  UNL d   1       0.185   1.045   0.083  0.00  0.00     0.017 A 
ATOM      6  C5  UNL d   1       0.311   2.406   0.380  0.00  0.00     0.034 A 
ATOM      7 Cl   UNL d   1      -1.379   0.460  -0.361  0.00  0.00    -0.070 Cl
ATOM      8 Cl1  UNL d   1       1.232  -1.478  -0.199  0.00  0.00    -0.070 Cl
ENDROOT
TORSDOF 0
ENDMDL
