MODEL 1
REMARK minimizedAffinity -3.84906292
REMARK minimizedRMSD -1
REMARK  0 active torsions:
REMARK  status: ('A' for Active; 'I' for Inactive)
ROOT
ATOM      1  C   UNL d   1      -0.435   2.705   0.719  0.00  0.00     0.020 A 
ATOM      2  C1  UNL d   1       0.870   3.012   1.104  0.00  0.00     0.020 A 
ATOM      3  C2  UNL d   1       1.837   2.005   1.159  0.00  0.00     0.034 A 
ATOM      4  C3  UNL d   1       1.500   0.687   0.829  0.00  0.00     0.017 A 
ATOM      5  C4  UNL d   1       0.190   0.380   0.443  0.00  0.00     0.017 A 
ATOM      6  C5  UNL d   1      -0.773   1.392   0.389  0.00  0.00     0.034 A 
ATOM      7 Cl   UNL d   1      -0.300  -1.223   0.021  0.00  0.00    -0.070 Cl
ATOM      8 Cl1  UNL d   1       2.746  -0.506   0.919  0.00  0.00    -0.070 Cl
ENDROOT
TORSDOF 0
ENDMDL
