MODEL 1
REMARK minimizedAffinity -1.76478517
REMARK minimizedRMSD -1
REMARK  0 active torsions:
REMARK  status: ('A' for Active; 'I' for Inactive)
ROOT
ATOM      1  C   UNL d   1       1.495   2.118   1.164  0.00  0.00     0.020 A 
ATOM      2  C1  UNL d   1       0.476   3.063   1.052  0.00  0.00     0.020 A 
ATOM      3  C2  UNL d   1      -0.760   2.697   0.516  0.00  0.00     0.034 A 
ATOM      4  C3  UNL d   1      -0.981   1.382   0.090  0.00  0.00     0.017 A 
ATOM      5  C4  UNL d   1       0.042   0.434   0.204  0.00  0.00     0.017 A 
ATOM      6  C5  UNL d   1       1.278   0.806   0.741  0.00  0.00     0.034 A 
ATOM      7 Cl   UNL d   1      -0.155  -1.208  -0.300  0.00  0.00    -0.070 Cl
ATOM      8 Cl1  UNL d   1      -2.534   0.999  -0.562  0.00  0.00    -0.070 Cl
ENDROOT
TORSDOF 0
ENDMDL
