MODEL 1
REMARK minimizedAffinity 0.640459478
REMARK minimizedRMSD -1
REMARK  0 active torsions:
REMARK  status: ('A' for Active; 'I' for Inactive)
ROOT
ATOM      1  C   UNL d   1      -1.784   1.639   0.300  0.00  0.00     0.020 A 
ATOM      2  C1  UNL d   1      -0.694   2.323   0.835  0.00  0.00     0.020 A 
ATOM      3  C2  UNL d   1       0.568   1.725   0.851  0.00  0.00     0.034 A 
ATOM      4  C3  UNL d   1       0.742   0.437   0.331  0.00  0.00     0.017 A 
ATOM      5  C4  UNL d   1      -0.352  -0.250  -0.207  0.00  0.00     0.017 A 
ATOM      6  C5  UNL d   1      -1.613   0.355  -0.220  0.00  0.00     0.034 A 
ATOM      7 Cl   UNL d   1      -0.215  -1.841  -0.867  0.00  0.00    -0.070 Cl
ATOM      8 Cl1  UNL d   1       2.330  -0.242   0.383  0.00  0.00    -0.070 Cl
ENDROOT
TORSDOF 0
ENDMDL
