MODEL 1
REMARK minimizedAffinity -2.75427675
REMARK minimizedRMSD -1
REMARK  0 active torsions:
REMARK  status: ('A' for Active; 'I' for Inactive)
ROOT
ATOM      1  C   UNL d   1      -0.532  -2.296  -0.599  0.00  0.00     0.020 A 
ATOM      2  C1  UNL d   1       0.178  -1.272  -1.225  0.00  0.00     0.020 A 
ATOM      3  C2  UNL d   1      -0.063   0.059  -0.878  0.00  0.00     0.034 A 
ATOM      4  C3  UNL d   1      -1.015   0.370   0.100  0.00  0.00     0.017 A 
ATOM      5  C4  UNL d   1      -1.727  -0.658   0.728  0.00  0.00     0.017 A 
ATOM      6  C5  UNL d   1      -1.483  -1.989   0.376  0.00  0.00     0.034 A 
ATOM      7 Cl   UNL d   1      -2.918  -0.353   1.943  0.00  0.00    -0.070 Cl
ATOM      8 Cl1  UNL d   1      -1.261   2.037   0.480  0.00  0.00    -0.070 Cl
ENDROOT
TORSDOF 0
ENDMDL
