MODEL 1
REMARK minimizedAffinity -2.44921637
REMARK minimizedRMSD -1
REMARK  0 active torsions:
REMARK  status: ('A' for Active; 'I' for Inactive)
ROOT
ATOM      1  C   UNL d   1      -0.226  -3.972  -1.866  0.00  0.00     0.020 A 
ATOM      2  C1  UNL d   1      -1.275  -3.086  -2.111  0.00  0.00     0.020 A 
ATOM      3  C2  UNL d   1      -1.420  -1.941  -1.326  0.00  0.00     0.034 A 
ATOM      4  C3  UNL d   1      -0.515  -1.678  -0.291  0.00  0.00     0.017 A 
ATOM      5  C4  UNL d   1       0.538  -2.567  -0.045  0.00  0.00     0.017 A 
ATOM      6  C5  UNL d   1       0.678  -3.713  -0.835  0.00  0.00     0.034 A 
ATOM      7 Cl   UNL d   1       1.694  -2.310   1.213  0.00  0.00    -0.070 Cl
ATOM      8 Cl1  UNL d   1      -0.754  -0.242   0.641  0.00  0.00    -0.070 Cl
ENDROOT
TORSDOF 0
ENDMDL
