MODEL 1
REMARK minimizedAffinity 3.55141854
REMARK minimizedRMSD -1
REMARK  0 active torsions:
REMARK  status: ('A' for Active; 'I' for Inactive)
ROOT
ATOM      1  C   UNL d   1       2.906   4.917  -5.982  0.00  0.00     0.020 A 
ATOM      2  C1  UNL d   1       1.536   4.659  -5.983  0.00  0.00     0.020 A 
ATOM      3  C2  UNL d   1       1.074   3.341  -5.989  0.00  0.00     0.034 A 
ATOM      4  C3  UNL d   1       1.983   2.277  -5.993  0.00  0.00     0.017 A 
ATOM      5  C4  UNL d   1       3.358   2.537  -5.992  0.00  0.00     0.017 A 
ATOM      6  C5  UNL d   1       3.815   3.859  -5.986  0.00  0.00     0.034 A 
ATOM      7 Cl   UNL d   1       4.540   1.276  -5.997  0.00  0.00    -0.070 Cl
ATOM      8 Cl1  UNL d   1       1.341   0.672  -6.000  0.00  0.00    -0.070 Cl
ENDROOT
TORSDOF 0
ENDMDL
