MODEL 1
REMARK minimizedAffinity 2.61889672
REMARK minimizedRMSD -1
REMARK  0 active torsions:
REMARK  status: ('A' for Active; 'I' for Inactive)
ROOT
ATOM      1  C   UNL d   1       0.214   5.199   4.417  0.00  0.00     0.020 A 
ATOM      2  C1  UNL d   1       0.624   6.000   5.483  0.00  0.00     0.020 A 
ATOM      3  C2  UNL d   1       1.962   6.000   5.881  0.00  0.00     0.034 A 
ATOM      4  C3  UNL d   1       2.895   5.197   5.214  0.00  0.00     0.017 A 
ATOM      5  C4  UNL d   1       2.482   4.394   4.145  0.00  0.00     0.017 A 
ATOM      6  C5  UNL d   1       1.141   4.398   3.750  0.00  0.00     0.034 A 
ATOM      7 Cl   UNL d   1       3.575   3.377   3.274  0.00  0.00    -0.070 Cl
ATOM      8 Cl1  UNL d   1       4.533   5.246   5.761  0.00  0.00    -0.070 Cl
ENDROOT
TORSDOF 0
ENDMDL
