MODEL 1
REMARK minimizedAffinity 0.731198072
REMARK minimizedRMSD -1
REMARK  0 active torsions:
REMARK  status: ('A' for Active; 'I' for Inactive)
ROOT
ATOM      1  C   UNL d   1       0.378   6.000   5.716  0.00  0.00     0.020 A 
ATOM      2  C1  UNL d   1      -0.138   5.554   4.500  0.00  0.00     0.020 A 
ATOM      3  C2  UNL d   1       0.725   5.108   3.496  0.00  0.00     0.034 A 
ATOM      4  C3  UNL d   1       2.109   5.107   3.708  0.00  0.00     0.017 A 
ATOM      5  C4  UNL d   1       2.626   5.554   4.929  0.00  0.00     0.017 A 
ATOM      6  C5  UNL d   1       1.757   6.000   5.930  0.00  0.00     0.034 A 
ATOM      7 Cl   UNL d   1       4.321   5.582   5.263  0.00  0.00    -0.070 Cl
ATOM      8 Cl1  UNL d   1       3.117   4.541   2.424  0.00  0.00    -0.070 Cl
ENDROOT
TORSDOF 0
ENDMDL
