MODEL 1
REMARK minimizedAffinity 7.59659195
REMARK minimizedRMSD -1
REMARK  0 active torsions:
REMARK  status: ('A' for Active; 'I' for Inactive)
ROOT
ATOM      1  C   UNL d   1       4.025   4.964   5.639  0.00  0.00     0.020 A 
ATOM      2  C1  UNL d   1       3.091   5.999   5.650  0.00  0.00     0.020 A 
ATOM      3  C2  UNL d   1       1.879   5.853   4.972  0.00  0.00     0.034 A 
ATOM      4  C3  UNL d   1       1.597   4.670   4.281  0.00  0.00     0.017 A 
ATOM      5  C4  UNL d   1       2.534   3.631   4.270  0.00  0.00     0.017 A 
ATOM      6  C5  UNL d   1       3.747   3.782   4.950  0.00  0.00     0.034 A 
ATOM      7 Cl   UNL d   1       2.258   2.141   3.439  0.00  0.00    -0.070 Cl
ATOM      8 Cl1  UNL d   1       0.077   4.558   3.465  0.00  0.00    -0.070 Cl
ENDROOT
TORSDOF 0
ENDMDL
