MODEL 1
REMARK minimizedAffinity 14.0017004
REMARK minimizedRMSD -1
REMARK  0 active torsions:
REMARK  status: ('A' for Active; 'I' for Inactive)
ROOT
ATOM      1  C   UNL d   1       5.369   5.633   5.027  0.00  0.00     0.020 A 
ATOM      2  C1  UNL d   1       4.440   6.000   6.000  0.00  0.00     0.020 A 
ATOM      3  C2  UNL d   1       3.161   5.439   5.991  0.00  0.00     0.034 A 
ATOM      4  C3  UNL d   1       2.807   4.509   5.008  0.00  0.00     0.017 A 
ATOM      5  C4  UNL d   1       3.740   4.141   4.031  0.00  0.00     0.017 A 
ATOM      6  C5  UNL d   1       5.020   4.705   4.045  0.00  0.00     0.034 A 
ATOM      7 Cl   UNL d   1       3.377   2.999   2.786  0.00  0.00    -0.070 Cl
ATOM      8 Cl1  UNL d   1       1.208   3.855   5.058  0.00  0.00    -0.070 Cl
ENDROOT
TORSDOF 0
ENDMDL
