MODEL 1
REMARK minimizedAffinity 3.72010374
REMARK minimizedRMSD -1
REMARK  0 active torsions:
REMARK  status: ('A' for Active; 'I' for Inactive)
ROOT
ATOM      1  C   UNL d   1       2.026   5.438  -5.976  0.00  0.00     0.020 A 
ATOM      2  C1  UNL d   1       1.567   4.121  -5.976  0.00  0.00     0.020 A 
ATOM      3  C2  UNL d   1       2.479   3.064  -5.984  0.00  0.00     0.034 A 
ATOM      4  C3  UNL d   1       3.854   3.321  -5.991  0.00  0.00     0.017 A 
ATOM      5  C4  UNL d   1       4.314   4.643  -5.990  0.00  0.00     0.017 A 
ATOM      6  C5  UNL d   1       3.397   5.698  -5.982  0.00  0.00     0.034 A 
ATOM      7 Cl   UNL d   1       5.997   5.039  -5.998  0.00  0.00    -0.070 Cl
ATOM      8 Cl1  UNL d   1       4.925   1.965  -5.999  0.00  0.00    -0.070 Cl
ENDROOT
TORSDOF 0
ENDMDL
