MODEL 1
REMARK minimizedAffinity 1.19031084
REMARK minimizedRMSD -1
REMARK  0 active torsions:
REMARK  status: ('A' for Active; 'I' for Inactive)
ROOT
ATOM      1  C   UNL d   1       1.933   5.491  -5.999  0.00  0.00     0.020 A 
ATOM      2  C1  UNL d   1       1.668   4.123  -5.999  0.00  0.00     0.020 A 
ATOM      3  C2  UNL d   1       2.723   3.207  -6.000  0.00  0.00     0.034 A 
ATOM      4  C3  UNL d   1       4.047   3.660  -6.000  0.00  0.00     0.017 A 
ATOM      5  C4  UNL d   1       4.312   5.034  -6.000  0.00  0.00     0.017 A 
ATOM      6  C5  UNL d   1       3.252   5.946  -5.999  0.00  0.00     0.034 A 
ATOM      7 Cl   UNL d   1       5.920   5.668  -6.000  0.00  0.00    -0.070 Cl
ATOM      8 Cl1  UNL d   1       5.302   2.472  -6.000  0.00  0.00    -0.070 Cl
ENDROOT
TORSDOF 0
ENDMDL
