MODEL 1
REMARK minimizedAffinity -1.60759068
REMARK minimizedRMSD -1
REMARK  0 active torsions:
REMARK  status: ('A' for Active; 'I' for Inactive)
ROOT
ATOM      1  C   UNL d   1       3.554   5.962  -5.695  0.00  0.00     0.020 A 
ATOM      2  C1  UNL d   1       4.948   5.999  -5.663  0.00  0.00     0.020 A 
ATOM      3  C2  UNL d   1       5.680   4.813  -5.735  0.00  0.00     0.034 A 
ATOM      4  C3  UNL d   1       5.020   3.583  -5.839  0.00  0.00     0.017 A 
ATOM      5  C4  UNL d   1       3.621   3.546  -5.872  0.00  0.00     0.017 A 
ATOM      6  C5  UNL d   1       2.892   4.738  -5.799  0.00  0.00     0.034 A 
ATOM      7 Cl   UNL d   1       2.735   2.067  -5.999  0.00  0.00    -0.070 Cl
ATOM      8 Cl1  UNL d   1       5.989   2.155  -5.924  0.00  0.00    -0.070 Cl
ENDROOT
TORSDOF 0
ENDMDL
