MODEL 1
REMARK minimizedAffinity -3.72219014
REMARK minimizedRMSD -1
REMARK  0 active torsions:
REMARK  status: ('A' for Active; 'I' for Inactive)
ROOT
ATOM      1  C   UNL d   1       4.525   5.941  -5.912  0.00  0.00     0.020 A 
ATOM      2  C1  UNL d   1       3.137   5.811  -5.914  0.00  0.00     0.020 A 
ATOM      3  C2  UNL d   1       2.555   4.542  -5.941  0.00  0.00     0.034 A 
ATOM      4  C3  UNL d   1       3.361   3.398  -5.967  0.00  0.00     0.017 A 
ATOM      5  C4  UNL d   1       4.754   3.530  -5.965  0.00  0.00     0.017 A 
ATOM      6  C5  UNL d   1       5.332   4.803  -5.938  0.00  0.00     0.034 A 
ATOM      7 Cl   UNL d   1       5.814   2.165  -5.996  0.00  0.00    -0.070 Cl
ATOM      8 Cl1  UNL d   1       2.573   1.861  -5.999  0.00  0.00    -0.070 Cl
ENDROOT
TORSDOF 0
ENDMDL
