MODEL 1
REMARK minimizedAffinity 8.89942455
REMARK minimizedRMSD -1
REMARK  1 active torsions:
REMARK  status: ('A' for Active; 'I' for Inactive)
REMARK    1  A    between atoms: C1_2  and  C2_3 
ROOT
ATOM      1  C2  UNL d   1       3.249   3.705   3.450  0.00  0.00    -0.081 A 
ATOM      2  C3  UNL d   1       4.364   4.359   2.911  0.00  0.00     0.006 A 
ATOM      3  C4  UNL d   1       5.207   5.112   3.731  0.00  0.00     0.002 A 
ATOM      4  C5  UNL d   1       4.956   5.217   5.103  0.00  0.00    -0.080 A 
ATOM      5  C6  UNL d   1       5.870   5.998   6.000  0.00  0.00     0.076 C 
ATOM      6  C7  UNL d   1       3.832   4.578   5.639  0.00  0.00     0.002 A 
ATOM      7  C8  UNL d   1       2.988   3.825   4.819  0.00  0.00     0.006 A 
ENDROOT
BRANCH   1   8
ATOM      8  C1  UNL d   1       2.375   2.839   2.580  0.00  0.00     0.054 C 
ATOM      9  C   UNL d   1       1.213   2.254   3.371  0.00  0.00     0.018 C 
ENDBRANCH   1   8
TORSDOF 1
ENDMDL
