MODEL 1
REMARK minimizedAffinity 7.45349073
REMARK minimizedRMSD -1
REMARK  1 active torsions:
REMARK  status: ('A' for Active; 'I' for Inactive)
REMARK    1  A    between atoms: C1_2  and  C2_3 
ROOT
ATOM      1  C2  UNL d   1      -4.655   1.435  -3.744  0.00  0.00    -0.081 A 
ATOM      2  C3  UNL d   1      -3.786   0.943  -4.726  0.00  0.00     0.006 A 
ATOM      3  C4  UNL d   1      -2.568   0.361  -4.367  0.00  0.00     0.002 A 
ATOM      4  C5  UNL d   1      -2.202   0.255  -3.021  0.00  0.00    -0.080 A 
ATOM      5  C6  UNL d   1      -0.910  -0.395  -2.620  0.00  0.00     0.076 C 
ATOM      6  C7  UNL d   1      -3.061   0.762  -2.041  0.00  0.00     0.002 A 
ATOM      7  C8  UNL d   1      -4.279   1.344  -2.399  0.00  0.00     0.006 A 
ENDROOT
BRANCH   1   8
ATOM      8  C1  UNL d   1      -5.998   2.004  -4.124  0.00  0.00     0.054 C 
ATOM      9  C   UNL d   1      -5.999   3.523  -4.038  0.00  0.00     0.018 C 
ENDBRANCH   1   8
TORSDOF 1
ENDMDL
