MODEL 1
REMARK minimizedAffinity 2.12182713
REMARK minimizedRMSD -1
REMARK  1 active torsions:
REMARK  status: ('A' for Active; 'I' for Inactive)
REMARK    1  A    between atoms: C1_2  and  C2_3 
ROOT
ATOM      1  C2  UNL d   1       2.306   2.926   5.280  0.00  0.00    -0.081 A 
ATOM      2  C3  UNL d   1       2.429   2.828   3.889  0.00  0.00     0.006 A 
ATOM      3  C4  UNL d   1       3.514   3.412   3.231  0.00  0.00     0.002 A 
ATOM      4  C5  UNL d   1       4.498   4.096   3.953  0.00  0.00    -0.080 A 
ATOM      5  C6  UNL d   1       5.684   4.701   3.263  0.00  0.00     0.076 C 
ATOM      6  C7  UNL d   1       4.366   4.208   5.342  0.00  0.00     0.002 A 
ATOM      7  C8  UNL d   1       3.281   3.626   6.000  0.00  0.00     0.006 A 
ENDROOT
BRANCH   1   8
ATOM      8  C1  UNL d   1       1.171   2.243   6.000  0.00  0.00     0.054 C 
ATOM      9  C   UNL d   1       0.066   1.840   5.034  0.00  0.00     0.018 C 
ENDBRANCH   1   8
TORSDOF 1
ENDMDL
