MODEL 1
REMARK minimizedAffinity 8.51748848
REMARK minimizedRMSD -1
REMARK  1 active torsions:
REMARK  status: ('A' for Active; 'I' for Inactive)
REMARK    1  A    between atoms: C1_2  and  C2_3 
ROOT
ATOM      1  C2  UNL d   1       4.665   0.818  -1.716  0.00  0.00    -0.081 A 
ATOM      2  C3  UNL d   1       4.115   0.093  -2.780  0.00  0.00     0.006 A 
ATOM      3  C4  UNL d   1       2.851  -0.491  -2.660  0.00  0.00     0.002 A 
ATOM      4  C5  UNL d   1       2.115  -0.353  -1.479  0.00  0.00    -0.080 A 
ATOM      5  C6  UNL d   1       0.745  -0.949  -1.349  0.00  0.00     0.076 C 
ATOM      6  C7  UNL d   1       2.672   0.356  -0.410  0.00  0.00     0.002 A 
ATOM      7  C8  UNL d   1       3.935   0.940  -0.528  0.00  0.00     0.006 A 
ENDROOT
BRANCH   1   8
ATOM      8  C1  UNL d   1       6.000   1.503  -1.864  0.00  0.00     0.054 C 
ATOM      9  C   UNL d   1       5.999   2.466  -3.043  0.00  0.00     0.018 C 
ENDBRANCH   1   8
TORSDOF 1
ENDMDL
