MODEL 1
REMARK minimizedAffinity 2.80116272
REMARK minimizedRMSD -1
REMARK  1 active torsions:
REMARK  status: ('A' for Active; 'I' for Inactive)
REMARK    1  A    between atoms: C1_2  and  C2_3 
ROOT
ATOM      1  C2  UNL d   1       0.114   1.498   0.860  0.00  0.00    -0.081 A 
ATOM      2  C3  UNL d   1      -0.684   0.427   1.277  0.00  0.00     0.006 A 
ATOM      3  C4  UNL d   1      -0.842  -0.698   0.464  0.00  0.00     0.002 A 
ATOM      4  C5  UNL d   1      -0.198  -0.774  -0.775  0.00  0.00    -0.080 A 
ATOM      5  C6  UNL d   1      -0.335  -1.988  -1.644  0.00  0.00     0.076 C 
ATOM      6  C7  UNL d   1       0.586   0.304  -1.200  0.00  0.00     0.002 A 
ATOM      7  C8  UNL d   1       0.743   1.429  -0.388  0.00  0.00     0.006 A 
ENDROOT
BRANCH   1   8
ATOM      8  C1  UNL d   1       0.338   2.685   1.762  0.00  0.00     0.054 C 
ATOM      9  C   UNL d   1       0.104   2.322   3.222  0.00  0.00     0.018 C 
ENDBRANCH   1   8
TORSDOF 1
ENDMDL
