MODEL 1
REMARK minimizedAffinity 3.61598301
REMARK minimizedRMSD -1
REMARK  0 active torsions:
REMARK  status: ('A' for Active; 'I' for Inactive)
ROOT
ATOM      1  C   UNL d   1       2.257  -0.765   1.255  0.00  0.00     0.020 A 
ATOM      2  C1  UNL d   1       3.023  -0.001   0.375  0.00  0.00     0.020 A 
ATOM      3  C2  UNL d   1       2.441   0.528  -0.779  0.00  0.00     0.034 A 
ATOM      4  C3  UNL d   1       1.089   0.294  -1.056  0.00  0.00     0.017 A 
ATOM      5  C4  UNL d   1       0.321  -0.473  -0.173  0.00  0.00     0.017 A 
ATOM      6  C5  UNL d   1       0.909  -1.000   0.981  0.00  0.00     0.034 A 
ATOM      7 Cl   UNL d   1      -1.353  -0.805  -0.447  0.00  0.00    -0.070 Cl
ATOM      8 Cl1  UNL d   1       0.435   0.979  -2.501  0.00  0.00    -0.070 Cl
ENDROOT
TORSDOF 0
ENDMDL
