MODEL 1
REMARK minimizedAffinity 2.86347485
REMARK minimizedRMSD -1
REMARK  0 active torsions:
REMARK  status: ('A' for Active; 'I' for Inactive)
ROOT
ATOM      1  C   UNL d   1      -1.189  -3.098  -2.474  0.00  0.00     0.020 A 
ATOM      2  C1  UNL d   1      -0.939  -4.470  -2.486  0.00  0.00     0.020 A 
ATOM      3  C2  UNL d   1      -0.304  -5.054  -3.584  0.00  0.00     0.034 A 
ATOM      4  C3  UNL d   1       0.083  -4.266  -4.674  0.00  0.00     0.017 A 
ATOM      5  C4  UNL d   1      -0.168  -2.890  -4.661  0.00  0.00     0.017 A 
ATOM      6  C5  UNL d   1      -0.805  -2.310  -3.559  0.00  0.00     0.034 A 
ATOM      7 Cl   UNL d   1       0.280  -1.853  -5.969  0.00  0.00    -0.070 Cl
ATOM      8 Cl1  UNL d   1       0.865  -5.055  -5.998  0.00  0.00    -0.070 Cl
ENDROOT
TORSDOF 0
ENDMDL
