MODEL 1
REMARK minimizedAffinity 5.08432627
REMARK minimizedRMSD -1
REMARK  0 active torsions:
REMARK  status: ('A' for Active; 'I' for Inactive)
ROOT
ATOM      1  C   UNL d   1      -1.116   1.935   2.281  0.00  0.00     0.020 A 
ATOM      2  C1  UNL d   1      -1.112   1.199   3.465  0.00  0.00     0.020 A 
ATOM      3  C2  UNL d   1      -1.783  -0.025   3.529  0.00  0.00     0.034 A 
ATOM      4  C3  UNL d   1      -2.461  -0.515   2.406  0.00  0.00     0.017 A 
ATOM      5  C4  UNL d   1      -2.464   0.225   1.218  0.00  0.00     0.017 A 
ATOM      6  C5  UNL d   1      -1.791   1.449   1.160  0.00  0.00     0.034 A 
ATOM      7 Cl   UNL d   1      -3.278  -0.315  -0.208  0.00  0.00    -0.070 Cl
ATOM      8 Cl1  UNL d   1      -3.268  -2.035   2.556  0.00  0.00    -0.070 Cl
ENDROOT
TORSDOF 0
ENDMDL
