MODEL 1
REMARK minimizedAffinity 4.91199732
REMARK minimizedRMSD -1
REMARK  0 active torsions:
REMARK  status: ('A' for Active; 'I' for Inactive)
ROOT
ATOM      1  C   UNL d   1      -1.808   1.749   0.999  0.00  0.00     0.020 A 
ATOM      2  C1  UNL d   1      -3.024   1.073   0.908  0.00  0.00     0.020 A 
ATOM      3  C2  UNL d   1      -3.264  -0.042   1.714  0.00  0.00     0.034 A 
ATOM      4  C3  UNL d   1      -2.288  -0.484   2.614  0.00  0.00     0.017 A 
ATOM      5  C4  UNL d   1      -1.068   0.195   2.704  0.00  0.00     0.017 A 
ATOM      6  C5  UNL d   1      -0.832   1.311   1.896  0.00  0.00     0.034 A 
ATOM      7 Cl   UNL d   1       0.185  -0.291   3.791  0.00  0.00    -0.070 Cl
ATOM      8 Cl1  UNL d   1      -2.654  -1.870   3.579  0.00  0.00    -0.070 Cl
ENDROOT
TORSDOF 0
ENDMDL
