MODEL 1
REMARK minimizedAffinity 2.36577296
REMARK minimizedRMSD -1
REMARK  0 active torsions:
REMARK  status: ('A' for Active; 'I' for Inactive)
ROOT
ATOM      1  C   UNL d   1      -2.290   0.988   2.018  0.00  0.00     0.020 A 
ATOM      2  C1  UNL d   1      -1.376   1.460   2.960  0.00  0.00     0.020 A 
ATOM      3  C2  UNL d   1      -0.048   1.031   2.918  0.00  0.00     0.034 A 
ATOM      4  C3  UNL d   1       0.371   0.129   1.934  0.00  0.00     0.017 A 
ATOM      5  C4  UNL d   1      -0.548  -0.344   0.989  0.00  0.00     0.017 A 
ATOM      6  C5  UNL d   1      -1.877   0.088   1.035  0.00  0.00     0.034 A 
ATOM      7 Cl   UNL d   1      -0.106  -1.459  -0.255  0.00  0.00    -0.070 Cl
ATOM      8 Cl1  UNL d   1       2.029  -0.358   1.942  0.00  0.00    -0.070 Cl
ENDROOT
TORSDOF 0
ENDMDL
