MODEL 1
REMARK minimizedAffinity 2.38910317
REMARK minimizedRMSD -1
REMARK  0 active torsions:
REMARK  status: ('A' for Active; 'I' for Inactive)
ROOT
ATOM      1  C   UNL d   1      -1.415   0.734   2.420  0.00  0.00     0.020 A 
ATOM      2  C1  UNL d   1      -2.117   1.752   1.775  0.00  0.00     0.020 A 
ATOM      3  C2  UNL d   1      -2.838   1.473   0.612  0.00  0.00     0.034 A 
ATOM      4  C3  UNL d   1      -2.859   0.175   0.090  0.00  0.00     0.017 A 
ATOM      5  C4  UNL d   1      -2.153  -0.846   0.738  0.00  0.00     0.017 A 
ATOM      6  C5  UNL d   1      -1.433  -0.561   1.903  0.00  0.00     0.034 A 
ATOM      7 Cl   UNL d   1      -2.131  -2.472   0.155  0.00  0.00    -0.070 Cl
ATOM      8 Cl1  UNL d   1      -3.772  -0.098  -1.351  0.00  0.00    -0.070 Cl
ENDROOT
TORSDOF 0
ENDMDL
