MODEL 1
REMARK minimizedAffinity 2.56166577
REMARK minimizedRMSD -1
REMARK  0 active torsions:
REMARK  status: ('A' for Active; 'I' for Inactive)
ROOT
ATOM      1  C   UNL d   1      -2.331   1.219   2.421  0.00  0.00     0.020 A 
ATOM      2  C1  UNL d   1      -1.777  -0.013   2.766  0.00  0.00     0.020 A 
ATOM      3  C2  UNL d   1      -1.906  -1.102   1.902  0.00  0.00     0.034 A 
ATOM      4  C3  UNL d   1      -2.589  -0.961   0.688  0.00  0.00     0.017 A 
ATOM      5  C4  UNL d   1      -3.145   0.276   0.343  0.00  0.00     0.017 A 
ATOM      6  C5  UNL d   1      -3.013   1.363   1.212  0.00  0.00     0.034 A 
ATOM      7 Cl   UNL d   1      -4.002   0.527  -1.136  0.00  0.00    -0.070 Cl
ATOM      8 Cl1  UNL d   1      -2.709  -2.351  -0.332  0.00  0.00    -0.070 Cl
ENDROOT
TORSDOF 0
ENDMDL
