MODEL 1
REMARK minimizedAffinity 3.38489175
REMARK minimizedRMSD -1
REMARK  0 active torsions:
REMARK  status: ('A' for Active; 'I' for Inactive)
ROOT
ATOM      1  C   UNL d   1      -1.508  -3.010  -2.627  0.00  0.00     0.020 A 
ATOM      2  C1  UNL d   1      -0.160  -3.347  -2.750  0.00  0.00     0.020 A 
ATOM      3  C2  UNL d   1       0.261  -4.169  -3.798  0.00  0.00     0.034 A 
ATOM      4  C3  UNL d   1      -0.666  -4.657  -4.726  0.00  0.00     0.017 A 
ATOM      5  C4  UNL d   1      -2.018  -4.318  -4.601  0.00  0.00     0.017 A 
ATOM      6  C5  UNL d   1      -2.435  -3.495  -3.551  0.00  0.00     0.034 A 
ATOM      7 Cl   UNL d   1      -3.221  -4.882  -5.708  0.00  0.00    -0.070 Cl
ATOM      8 Cl1  UNL d   1      -0.075  -5.668  -5.996  0.00  0.00    -0.070 Cl
ENDROOT
TORSDOF 0
ENDMDL
