MODEL 1
REMARK minimizedAffinity 2.58442616
REMARK minimizedRMSD -1
REMARK  0 active torsions:
REMARK  status: ('A' for Active; 'I' for Inactive)
ROOT
ATOM      1  C   UNL d   1      -0.535  -4.622  -5.256  0.00  0.00     0.020 A 
ATOM      2  C1  UNL d   1       0.620  -4.067  -5.803  0.00  0.00     0.020 A 
ATOM      3  C2  UNL d   1       0.781  -2.680  -5.836  0.00  0.00     0.034 A 
ATOM      4  C3  UNL d   1      -0.215  -1.844  -5.320  0.00  0.00     0.017 A 
ATOM      5  C4  UNL d   1      -1.375  -2.402  -4.770  0.00  0.00     0.017 A 
ATOM      6  C5  UNL d   1      -1.531  -3.792  -4.740  0.00  0.00     0.034 A 
ATOM      7 Cl   UNL d   1      -2.649  -1.435  -4.114  0.00  0.00    -0.070 Cl
ATOM      8 Cl1  UNL d   1       0.050  -0.138  -5.392  0.00  0.00    -0.070 Cl
ENDROOT
TORSDOF 0
ENDMDL
