MODEL 1
REMARK minimizedAffinity 8.35896397
REMARK minimizedRMSD -1
REMARK  0 active torsions:
REMARK  status: ('A' for Active; 'I' for Inactive)
ROOT
ATOM      1  C   UNL d   1      -1.678   1.292   1.793  0.00  0.00     0.020 A 
ATOM      2  C1  UNL d   1      -3.023   1.614   1.968  0.00  0.00     0.020 A 
ATOM      3  C2  UNL d   1      -3.870   0.735   2.646  0.00  0.00     0.034 A 
ATOM      4  C3  UNL d   1      -3.372  -0.471   3.152  0.00  0.00     0.017 A 
ATOM      5  C4  UNL d   1      -2.022  -0.794   2.977  0.00  0.00     0.017 A 
ATOM      6  C5  UNL d   1      -1.178   0.090   2.297  0.00  0.00     0.034 A 
ATOM      7 Cl   UNL d   1      -1.335  -2.264   3.573  0.00  0.00    -0.070 Cl
ATOM      8 Cl1  UNL d   1      -4.475  -1.511   3.981  0.00  0.00    -0.070 Cl
ENDROOT
TORSDOF 0
ENDMDL
