MODEL 1
REMARK minimizedAffinity -1.78650713
REMARK minimizedRMSD -1
REMARK  0 active torsions:
REMARK  status: ('A' for Active; 'I' for Inactive)
ROOT
ATOM      1  C   UNL d   1      -3.414   1.570   0.915  0.00  0.00     0.020 A 
ATOM      2  C1  UNL d   1      -3.689   0.852  -0.248  0.00  0.00     0.020 A 
ATOM      3  C2  UNL d   1      -2.864  -0.210  -0.625  0.00  0.00     0.034 A 
ATOM      4  C3  UNL d   1      -1.759  -0.557   0.161  0.00  0.00     0.017 A 
ATOM      5  C4  UNL d   1      -1.484   0.164   1.329  0.00  0.00     0.017 A 
ATOM      6  C5  UNL d   1      -2.314   1.226   1.702  0.00  0.00     0.034 A 
ATOM      7 Cl   UNL d   1      -0.140  -0.205   2.351  0.00  0.00    -0.070 Cl
ATOM      8 Cl1  UNL d   1      -0.782  -1.881  -0.365  0.00  0.00    -0.070 Cl
ENDROOT
TORSDOF 0
ENDMDL
