MODEL 1
REMARK minimizedAffinity -6.48270941
REMARK minimizedRMSD -1
REMARK  0 active torsions:
REMARK  status: ('A' for Active; 'I' for Inactive)
ROOT
ATOM      1  N1  IND d   1      -0.275  -0.322   0.784  0.00  0.00    -0.196 N 
ATOM      2  C2  IND d   1      -1.020  -0.242   1.928  0.00  0.00     0.054 A 
ATOM      3  C3  IND d   1      -1.468   1.020   2.110  0.00  0.00    -0.031 A 
ATOM      4  C4  IND d   1      -1.186   3.089   0.604  0.00  0.00     0.051 A 
ATOM      5  C5  IND d   1      -0.555   3.518  -0.531  0.00  0.00    -0.031 A 
ATOM      6  C6  IND d   1       0.214   2.670  -1.302  0.00  0.00     0.015 A 
ATOM      7  C7  IND d   1       0.373   1.354  -0.972  0.00  0.00    -0.016 A 
ATOM      8  C8  IND d   1      -0.260   0.917   0.183  0.00  0.00    -0.047 A 
ATOM      9  C9  IND d   1      -1.007   1.782   0.993  0.00  0.00    -0.096 A 
ATOM     10  HN1 IND d   1       0.117  -1.028   0.490  0.00  0.00     0.298 HD
ENDROOT
TORSDOF 0
ENDMDL
