MODEL 1
REMARK minimizedAffinity -4.25250053
REMARK minimizedRMSD -1
REMARK  0 active torsions:
REMARK  status: ('A' for Active; 'I' for Inactive)
ROOT
ATOM      1  N1  IND d   1       0.518   0.209  -1.118  0.00  0.00    -0.196 N 
ATOM      2  C2  IND d   1       0.478  -0.995  -0.472  0.00  0.00     0.054 A 
ATOM      3  C3  IND d   1      -0.212  -0.884   0.686  0.00  0.00    -0.031 A 
ATOM      4  C4  IND d   1      -1.448   1.151   1.665  0.00  0.00     0.051 A 
ATOM      5  C5  IND d   1      -1.665   2.484   1.453  0.00  0.00    -0.031 A 
ATOM      6  C6  IND d   1      -1.158   3.139   0.350  0.00  0.00     0.015 A 
ATOM      7  C7  IND d   1      -0.420   2.480  -0.593  0.00  0.00    -0.016 A 
ATOM      8  C8  IND d   1      -0.192   1.129  -0.378  0.00  0.00    -0.047 A 
ATOM      9  C9  IND d   1      -0.669   0.468   0.762  0.00  0.00    -0.096 A 
ATOM     10  HN1 IND d   1       0.919   0.366  -1.862  0.00  0.00     0.298 HD
ENDROOT
TORSDOF 0
ENDMDL
