MODEL 1
REMARK minimizedAffinity -1.97502685
REMARK minimizedRMSD -1
REMARK  0 active torsions:
REMARK  status: ('A' for Active; 'I' for Inactive)
ROOT
ATOM      1  N1  IND d   1      -0.384  -0.065  -0.974  0.00  0.00    -0.196 N 
ATOM      2  C2  IND d   1      -0.100   0.058   0.357  0.00  0.00     0.054 A 
ATOM      3  C3  IND d   1       0.514  -1.058   0.812  0.00  0.00    -0.031 A 
ATOM      4  C4  IND d   1       1.243  -3.164  -0.477  0.00  0.00     0.051 A 
ATOM      5  C5  IND d   1       1.169  -3.753  -1.707  0.00  0.00    -0.031 A 
ATOM      6  C6  IND d   1       0.563  -3.129  -2.779  0.00  0.00     0.015 A 
ATOM      7  C7  IND d   1       0.017  -1.883  -2.662  0.00  0.00    -0.016 A 
ATOM      8  C8  IND d   1       0.084  -1.284  -1.412  0.00  0.00    -0.047 A 
ATOM      9  C9  IND d   1       0.660  -1.930  -0.310  0.00  0.00    -0.096 A 
ATOM     10  HN1 IND d   1      -0.788   0.521  -1.457  0.00  0.00     0.298 HD
ENDROOT
TORSDOF 0
ENDMDL
