MODEL 1
REMARK minimizedAffinity -2.9359479
REMARK minimizedRMSD -1
REMARK  0 active torsions:
REMARK  status: ('A' for Active; 'I' for Inactive)
ROOT
ATOM      1  N1  IND d   1       0.716  -1.348  -0.011  0.00  0.00    -0.196 N 
ATOM      2  C2  IND d   1       1.215  -1.125  -1.264  0.00  0.00     0.054 A 
ATOM      3  C3  IND d   1       0.752   0.047  -1.753  0.00  0.00    -0.031 A 
ATOM      4  C4  IND d   1      -0.754   1.808  -0.630  0.00  0.00     0.051 A 
ATOM      5  C5  IND d   1      -1.491   2.033   0.498  0.00  0.00    -0.031 A 
ATOM      6  C6  IND d   1      -1.528   1.125   1.537  0.00  0.00     0.015 A 
ATOM      7  C7  IND d   1      -0.818  -0.041   1.491  0.00  0.00    -0.016 A 
ATOM      8  C8  IND d   1      -0.075  -0.276   0.343  0.00  0.00    -0.047 A 
ATOM      9  C9  IND d   1      -0.066   0.621  -0.733  0.00  0.00    -0.096 A 
ATOM     10  HN1 IND d   1       0.869  -2.041   0.475  0.00  0.00     0.298 HD
ENDROOT
TORSDOF 0
ENDMDL
