MODEL 1
REMARK minimizedAffinity 0.7853719
REMARK minimizedRMSD -1
REMARK  0 active torsions:
REMARK  status: ('A' for Active; 'I' for Inactive)
ROOT
ATOM      1  N1  IND d   1       0.713  -3.017  -0.414  0.00  0.00    -0.196 N 
ATOM      2  C2  IND d   1       1.276  -3.109  -1.656  0.00  0.00     0.054 A 
ATOM      3  C3  IND d   1       1.275  -1.901  -2.264  0.00  0.00    -0.031 A 
ATOM      4  C4  IND d   1       0.493   0.381  -1.366  0.00  0.00     0.051 A 
ATOM      5  C5  IND d   1      -0.128   0.962  -0.296  0.00  0.00    -0.031 A 
ATOM      6  C6  IND d   1      -0.504   0.233   0.813  0.00  0.00     0.015 A 
ATOM      7  C7  IND d   1      -0.264  -1.109   0.899  0.00  0.00    -0.016 A 
ATOM      8  C8  IND d   1       0.359  -1.704  -0.189  0.00  0.00    -0.047 A 
ATOM      9  C9  IND d   1       0.706  -0.977  -1.335  0.00  0.00    -0.096 A 
ATOM     10  HN1 IND d   1       0.599  -3.669   0.135  0.00  0.00     0.298 HD
ENDROOT
TORSDOF 0
ENDMDL
