MODEL 1
REMARK minimizedAffinity -3.87496376
REMARK minimizedRMSD -1
REMARK  0 active torsions:
REMARK  status: ('A' for Active; 'I' for Inactive)
ROOT
ATOM      1  N1  IND d   1      -1.498   2.086   0.241  0.00  0.00    -0.196 N 
ATOM      2  C2  IND d   1      -1.937   2.131   1.535  0.00  0.00     0.054 A 
ATOM      3  C3  IND d   1      -1.507   1.044   2.215  0.00  0.00    -0.031 A 
ATOM      4  C4  IND d   1       0.010  -0.882   1.431  0.00  0.00     0.051 A 
ATOM      5  C5  IND d   1       0.633  -1.379   0.320  0.00  0.00    -0.031 A 
ATOM      6  C6  IND d   1       0.578  -0.732  -0.897  0.00  0.00     0.015 A 
ATOM      7  C7  IND d   1      -0.096   0.447  -1.048  0.00  0.00    -0.016 A 
ATOM      8  C8  IND d   1      -0.735   0.951   0.076  0.00  0.00    -0.047 A 
ATOM      9  C9  IND d   1      -0.718   0.278   1.304  0.00  0.00    -0.096 A 
ATOM     10  HN1 IND d   1      -1.671   2.668  -0.368  0.00  0.00     0.298 HD
ENDROOT
TORSDOF 0
ENDMDL
