MODEL 1
REMARK minimizedAffinity -4.29686403
REMARK minimizedRMSD -1
REMARK  0 active torsions:
REMARK  status: ('A' for Active; 'I' for Inactive)
ROOT
ATOM      1  N1  IND d   1       0.625   0.210  -1.041  0.00  0.00    -0.196 N 
ATOM      2  C2  IND d   1       1.124  -0.951  -0.521  0.00  0.00     0.054 A 
ATOM      3  C3  IND d   1       0.511  -1.246   0.647  0.00  0.00    -0.031 A 
ATOM      4  C4  IND d   1      -1.410  -0.016   1.840  0.00  0.00     0.051 A 
ATOM      5  C5  IND d   1      -2.175   1.115   1.769  0.00  0.00    -0.031 A 
ATOM      6  C6  IND d   1      -2.044   2.019   0.734  0.00  0.00     0.015 A 
ATOM      7  C7  IND d   1      -1.148   1.819  -0.277  0.00  0.00    -0.016 A 
ATOM      8  C8  IND d   1      -0.365   0.675  -0.204  0.00  0.00    -0.047 A 
ATOM      9  C9  IND d   1      -0.464  -0.224   0.865  0.00  0.00    -0.096 A 
ATOM     10  HN1 IND d   1       0.886   0.587  -1.769  0.00  0.00     0.298 HD
ENDROOT
TORSDOF 0
ENDMDL
