MODEL 1
REMARK minimizedAffinity -2.89432144
REMARK minimizedRMSD -1
REMARK  0 active torsions:
REMARK  status: ('A' for Active; 'I' for Inactive)
ROOT
ATOM      1  N1  IND d   1      -0.900   1.558   2.233  0.00  0.00    -0.196 N 
ATOM      2  C2  IND d   1      -2.046   2.206   1.864  0.00  0.00     0.054 A 
ATOM      3  C3  IND d   1      -2.353   1.926   0.578  0.00  0.00    -0.031 A 
ATOM      4  C4  IND d   1      -1.171   0.348  -1.078  0.00  0.00     0.051 A 
ATOM      5  C5  IND d   1      -0.061  -0.439  -1.212  0.00  0.00    -0.031 A 
ATOM      6  C6  IND d   1       0.842  -0.606  -0.182  0.00  0.00     0.015 A 
ATOM      7  C7  IND d   1       0.663   0.002   1.029  0.00  0.00    -0.016 A 
ATOM      8  C8  IND d   1      -0.459   0.807   1.165  0.00  0.00    -0.047 A 
ATOM      9  C9  IND d   1      -1.357   1.014   0.110  0.00  0.00    -0.096 A 
ATOM     10  HN1 IND d   1      -0.519   1.611   3.002  0.00  0.00     0.298 HD
ENDROOT
TORSDOF 0
ENDMDL
