MODEL 1
REMARK minimizedAffinity -5.14794397
REMARK minimizedRMSD -1
REMARK  0 active torsions:
REMARK  status: ('A' for Active; 'I' for Inactive)
ROOT
ATOM      1  N1  IND d   1       0.742   0.147  -0.812  0.00  0.00    -0.196 N 
ATOM      2  C2  IND d   1       0.533  -0.834   0.117  0.00  0.00     0.054 A 
ATOM      3  C3  IND d   1      -0.296  -0.392   1.090  0.00  0.00    -0.031 A 
ATOM      4  C4  IND d   1      -1.507   1.869   1.304  0.00  0.00     0.051 A 
ATOM      5  C5  IND d   1      -1.602   3.100   0.718  0.00  0.00    -0.031 A 
ATOM      6  C6  IND d   1      -0.908   3.415  -0.433  0.00  0.00     0.015 A 
ATOM      7  C7  IND d   1      -0.099   2.503  -1.049  0.00  0.00    -0.016 A 
ATOM      8  C8  IND d   1       0.005   1.254  -0.453  0.00  0.00    -0.047 A 
ATOM      9  C9  IND d   1      -0.663   0.942   0.738  0.00  0.00    -0.096 A 
ATOM     10  HN1 IND d   1       1.248   0.083  -1.504  0.00  0.00     0.298 HD
ENDROOT
TORSDOF 0
ENDMDL
