MODEL 1
REMARK minimizedAffinity -5.0098567
REMARK minimizedRMSD -1
REMARK  0 active torsions:
REMARK  status: ('A' for Active; 'I' for Inactive)
ROOT
ATOM      1  N1  IND d   1      -0.102   0.624  -1.076  0.00  0.00    -0.196 N 
ATOM      2  C2  IND d   1       0.739  -0.453  -1.118  0.00  0.00     0.054 A 
ATOM      3  C3  IND d   1       0.669  -1.150   0.039  0.00  0.00    -0.031 A 
ATOM      4  C4  IND d   1      -0.831  -0.760   2.094  0.00  0.00     0.051 A 
ATOM      5  C5  IND d   1      -1.738   0.120   2.614  0.00  0.00    -0.031 A 
ATOM      6  C6  IND d   1      -2.158   1.233   1.915  0.00  0.00     0.015 A 
ATOM      7  C7  IND d   1      -1.691   1.504   0.660  0.00  0.00    -0.016 A 
ATOM      8  C8  IND d   1      -0.764   0.617   0.132  0.00  0.00    -0.047 A 
ATOM      9  C9  IND d   1      -0.303  -0.492   0.853  0.00  0.00    -0.096 A 
ATOM     10  HN1 IND d   1      -0.200   1.208  -1.700  0.00  0.00     0.298 HD
ENDROOT
TORSDOF 0
ENDMDL
