MODEL 1
REMARK minimizedAffinity -2.38762665
REMARK minimizedRMSD -1
REMARK  0 active torsions:
REMARK  status: ('A' for Active; 'I' for Inactive)
ROOT
ATOM      1  N1  IND d   1      -1.652   2.371   0.396  0.00  0.00    -0.196 N 
ATOM      2  C2  IND d   1      -2.329   2.006   1.526  0.00  0.00     0.054 A 
ATOM      3  C3  IND d   1      -1.920   0.787   1.946  0.00  0.00    -0.031 A 
ATOM      4  C4  IND d   1      -0.081  -0.740   0.990  0.00  0.00     0.051 A 
ATOM      5  C5  IND d   1       0.790  -0.851  -0.057  0.00  0.00    -0.031 A 
ATOM      6  C6  IND d   1       0.896   0.127  -1.025  0.00  0.00     0.015 A 
ATOM      7  C7  IND d   1       0.139   1.263  -0.975  0.00  0.00    -0.016 A 
ATOM      8  C8  IND d   1      -0.752   1.376   0.083  0.00  0.00    -0.047 A 
ATOM      9  C9  IND d   1      -0.894   0.368   1.045  0.00  0.00    -0.096 A 
ATOM     10  HN1 IND d   1      -1.769   3.100  -0.045  0.00  0.00     0.298 HD
ENDROOT
TORSDOF 0
ENDMDL
