MODEL 1
REMARK minimizedAffinity -2.12173462
REMARK minimizedRMSD -1
REMARK  0 active torsions:
REMARK  status: ('A' for Active; 'I' for Inactive)
ROOT
ATOM      1  N1  IND d   1       1.014   0.523  -0.925  0.00  0.00    -0.196 N 
ATOM      2  C2  IND d   1       1.308  -0.809  -0.826  0.00  0.00     0.054 A 
ATOM      3  C3  IND d   1       0.693  -1.347   0.252  0.00  0.00    -0.031 A 
ATOM      4  C4  IND d   1      -0.922  -0.251   1.930  0.00  0.00     0.051 A 
ATOM      5  C5  IND d   1      -1.466   0.956   2.271  0.00  0.00    -0.031 A 
ATOM      6  C6  IND d   1      -1.208   2.102   1.547  0.00  0.00     0.015 A 
ATOM      7  C7  IND d   1      -0.402   2.082   0.445  0.00  0.00    -0.016 A 
ATOM      8  C8  IND d   1       0.158   0.860   0.100  0.00  0.00    -0.047 A 
ATOM      9  C9  IND d   1      -0.067  -0.298   0.855  0.00  0.00    -0.096 A 
ATOM     10  HN1 IND d   1       1.313   1.059  -1.527  0.00  0.00     0.298 HD
ENDROOT
TORSDOF 0
ENDMDL
