MODEL 1
REMARK minimizedAffinity -2.09888411
REMARK minimizedRMSD -1
REMARK  0 active torsions:
REMARK  status: ('A' for Active; 'I' for Inactive)
ROOT
ATOM      1  N1  IND d   1      -1.284   2.966   0.454  0.00  0.00    -0.196 N 
ATOM      2  C2  IND d   1      -2.071   2.587   1.506  0.00  0.00     0.054 A 
ATOM      3  C3  IND d   1      -1.787   1.317   1.872  0.00  0.00    -0.031 A 
ATOM      4  C4  IND d   1       0.001  -0.290   0.952  0.00  0.00     0.051 A 
ATOM      5  C5  IND d   1       0.939  -0.406  -0.035  0.00  0.00    -0.031 A 
ATOM      6  C6  IND d   1       1.191   0.617  -0.926  0.00  0.00     0.015 A 
ATOM      7  C7  IND d   1       0.519   1.805  -0.855  0.00  0.00    -0.016 A 
ATOM      8  C8  IND d   1      -0.439   1.924   0.141  0.00  0.00    -0.047 A 
ATOM      9  C9  IND d   1      -0.729   0.873   1.021  0.00  0.00    -0.096 A 
ATOM     10  HN1 IND d   1      -1.312   3.727   0.055  0.00  0.00     0.298 HD
ENDROOT
TORSDOF 0
ENDMDL
