MODEL 1
REMARK minimizedAffinity -4.98008299
REMARK minimizedRMSD -1
REMARK  0 active torsions:
REMARK  status: ('A' for Active; 'I' for Inactive)
ROOT
ATOM      1  N1  IND d   1       0.855  -0.008  -0.889  0.00  0.00    -0.196 N 
ATOM      2  C2  IND d   1       0.958  -1.128  -0.112  0.00  0.00     0.054 A 
ATOM      3  C3  IND d   1       0.324  -0.943   1.068  0.00  0.00    -0.031 A 
ATOM      4  C4  IND d   1      -1.033   1.082   1.894  0.00  0.00     0.051 A 
ATOM      5  C5  IND d   1      -1.380   2.359   1.551  0.00  0.00    -0.031 A 
ATOM      6  C6  IND d   1      -0.994   2.923   0.352  0.00  0.00     0.015 A 
ATOM      7  C7  IND d   1      -0.252   2.223  -0.558  0.00  0.00    -0.016 A 
ATOM      8  C8  IND d   1       0.107   0.929  -0.210  0.00  0.00    -0.047 A 
ATOM      9  C9  IND d   1      -0.246   0.366   1.023  0.00  0.00    -0.096 A 
ATOM     10  HN1 IND d   1       1.200   0.094  -1.670  0.00  0.00     0.298 HD
ENDROOT
TORSDOF 0
ENDMDL
