MODEL 1
REMARK minimizedAffinity -4.32351494
REMARK minimizedRMSD -1
REMARK  0 active torsions:
REMARK  status: ('A' for Active; 'I' for Inactive)
ROOT
ATOM      1  N1  IND d   1      -0.040   2.429  -0.768  0.00  0.00    -0.196 N 
ATOM      2  C2  IND d   1      -0.631   3.548  -0.250  0.00  0.00     0.054 A 
ATOM      3  C3  IND d   1      -1.361   3.231   0.843  0.00  0.00    -0.031 A 
ATOM      4  C4  IND d   1      -1.643   0.958   2.018  0.00  0.00     0.051 A 
ATOM      5  C5  IND d   1      -1.326  -0.365   1.895  0.00  0.00    -0.031 A 
ATOM      6  C6  IND d   1      -0.545  -0.834   0.858  0.00  0.00     0.015 A 
ATOM      7  C7  IND d   1      -0.041   0.009  -0.092  0.00  0.00    -0.016 A 
ATOM      8  C8  IND d   1      -0.368   1.352   0.027  0.00  0.00    -0.047 A 
ATOM      9  C9  IND d   1      -1.195   1.828   1.052  0.00  0.00    -0.096 A 
ATOM     10  HN1 IND d   1       0.454   2.403  -1.471  0.00  0.00     0.298 HD
ENDROOT
TORSDOF 0
ENDMDL
