MODEL 1
REMARK minimizedAffinity -2.72011566
REMARK minimizedRMSD -1
REMARK  0 active torsions:
REMARK  status: ('A' for Active; 'I' for Inactive)
ROOT
ATOM      1  N1  IND d   1      -2.197   0.200   1.120  0.00  0.00    -0.196 N 
ATOM      2  C2  IND d   1      -2.020   1.522   1.420  0.00  0.00     0.054 A 
ATOM      3  C3  IND d   1      -0.806   1.942   0.999  0.00  0.00    -0.031 A 
ATOM      4  C4  IND d   1       1.010   0.657  -0.295  0.00  0.00     0.051 A 
ATOM      5  C5  IND d   1       1.320  -0.589  -0.766  0.00  0.00    -0.031 A 
ATOM      6  C6  IND d   1       0.455  -1.655  -0.631  0.00  0.00     0.015 A 
ATOM      7  C7  IND d   1      -0.762  -1.513  -0.028  0.00  0.00    -0.016 A 
ATOM      8  C8  IND d   1      -1.078  -0.252   0.457  0.00  0.00    -0.047 A 
ATOM      9  C9  IND d   1      -0.186   0.824   0.361  0.00  0.00    -0.096 A 
ATOM     10  HN1 IND d   1      -2.891  -0.269   1.314  0.00  0.00     0.298 HD
ENDROOT
TORSDOF 0
ENDMDL
