MODEL 1
REMARK minimizedAffinity -1.05577362
REMARK minimizedRMSD -1
REMARK  0 active torsions:
REMARK  status: ('A' for Active; 'I' for Inactive)
ROOT
ATOM      1  N1  IND d   1       0.031  -1.481  -2.920  0.00  0.00    -0.196 N 
ATOM      2  C2  IND d   1       0.841  -2.555  -2.676  0.00  0.00     0.054 A 
ATOM      3  C3  IND d   1       1.198  -2.589  -1.372  0.00  0.00    -0.031 A 
ATOM      4  C4  IND d   1       0.488  -1.042   0.559  0.00  0.00     0.051 A 
ATOM      5  C5  IND d   1      -0.214   0.102   0.820  0.00  0.00    -0.031 A 
ATOM      6  C6  IND d   1      -0.885   0.788  -0.171  0.00  0.00     0.015 A 
ATOM      7  C7  IND d   1      -0.889   0.349  -1.464  0.00  0.00    -0.016 A 
ATOM      8  C8  IND d   1      -0.172  -0.808  -1.735  0.00  0.00    -0.047 A 
ATOM      9  C9  IND d   1       0.546  -1.486  -0.741  0.00  0.00    -0.096 A 
ATOM     10  HN1 IND d   1      -0.296  -1.263  -3.684  0.00  0.00     0.298 HD
ENDROOT
TORSDOF 0
ENDMDL
