MODEL 1
REMARK minimizedAffinity -3.13349247
REMARK minimizedRMSD -1
REMARK  1 active torsions:
REMARK  status: ('A' for Active; 'I' for Inactive)
REMARK    1  A    between atoms: C1_2  and  C2_3 
ROOT
ATOM      1  C2  UNL d   1      -0.540  -0.801   0.307  0.00  0.00    -0.077 A 
ATOM      2  C3  UNL d   1      -1.371  -0.491   1.393  0.00  0.00     0.002 A 
ATOM      3  C4  UNL d   1      -2.087   0.708   1.414  0.00  0.00     0.002 A 
ATOM      4  C5  UNL d   1      -1.982   1.603   0.352  0.00  0.00    -0.004 A 
ATOM      5  C6  UNL d   1      -1.157   1.305  -0.731  0.00  0.00     0.002 A 
ATOM      6  C7  UNL d   1      -0.440   0.108  -0.755  0.00  0.00     0.002 A 
ENDROOT
BRANCH   1   7
ATOM      7  C1  UNL d   1       0.195  -2.115   0.258  0.00  0.00     0.055 C 
ATOM      8  C   UNL d   1       1.382  -2.051  -0.692  0.00  0.00     0.019 C 
ENDBRANCH   1   7
TORSDOF 1
ENDMDL
