MODEL 1
REMARK minimizedAffinity -5.59668636
REMARK minimizedRMSD -1
REMARK  1 active torsions:
REMARK  status: ('A' for Active; 'I' for Inactive)
REMARK    1  A    between atoms: C1_2  and  C2_3 
ROOT
ATOM      1  C2  UNL d   1      -0.186   0.356   0.183  0.00  0.00    -0.077 A 
ATOM      2  C3  UNL d   1      -0.334  -1.027   0.009  0.00  0.00     0.002 A 
ATOM      3  C4  UNL d   1       0.579  -1.742  -0.769  0.00  0.00     0.002 A 
ATOM      4  C5  UNL d   1       1.647  -1.083  -1.375  0.00  0.00    -0.004 A 
ATOM      5  C6  UNL d   1       1.801   0.293  -1.209  0.00  0.00     0.002 A 
ATOM      6  C7  UNL d   1       0.889   1.009  -0.433  0.00  0.00     0.002 A 
ENDROOT
BRANCH   1   7
ATOM      7  C1  UNL d   1      -1.142   1.121   1.062  0.00  0.00     0.055 C 
ATOM      8  C   UNL d   1      -2.092   0.184   1.793  0.00  0.00     0.019 C 
ENDBRANCH   1   7
TORSDOF 1
ENDMDL
