MODEL 1
REMARK minimizedAffinity -4.98160362
REMARK minimizedRMSD -1
REMARK  1 active torsions:
REMARK  status: ('A' for Active; 'I' for Inactive)
REMARK    1  A    between atoms: C1_2  and  C2_3 
ROOT
ATOM      1  C2  UNL d   1      -0.253  -0.155   0.299  0.00  0.00    -0.077 A 
ATOM      2  C3  UNL d   1       0.190  -1.439  -0.048  0.00  0.00     0.002 A 
ATOM      3  C4  UNL d   1       1.377  -1.608  -0.762  0.00  0.00     0.002 A 
ATOM      4  C5  UNL d   1       2.134  -0.497  -1.132  0.00  0.00    -0.004 A 
ATOM      5  C6  UNL d   1       1.701   0.784  -0.793  0.00  0.00     0.002 A 
ATOM      6  C7  UNL d   1       0.514   0.955  -0.080  0.00  0.00     0.002 A 
ENDROOT
BRANCH   1   7
ATOM      7  C1  UNL d   1      -1.508   0.026   1.112  0.00  0.00     0.055 C 
ATOM      8  C   UNL d   1      -1.300   1.032   2.235  0.00  0.00     0.019 C 
ENDBRANCH   1   7
TORSDOF 1
ENDMDL
