MODEL 1
REMARK minimizedAffinity -4.36716366
REMARK minimizedRMSD -1
REMARK  1 active torsions:
REMARK  status: ('A' for Active; 'I' for Inactive)
REMARK    1  A    between atoms: C1_2  and  C2_3 
ROOT
ATOM      1  C2  UNL d   1      -0.740   0.616   1.134  0.00  0.00    -0.077 A 
ATOM      2  C3  UNL d   1      -1.844  -0.244   1.229  0.00  0.00     0.002 A 
ATOM      3  C4  UNL d   1      -2.800  -0.057   2.229  0.00  0.00     0.002 A 
ATOM      4  C5  UNL d   1      -2.665   0.990   3.138  0.00  0.00    -0.004 A 
ATOM      5  C6  UNL d   1      -1.570   1.849   3.053  0.00  0.00     0.002 A 
ATOM      6  C7  UNL d   1      -0.612   1.663   2.055  0.00  0.00     0.002 A 
ENDROOT
BRANCH   1   7
ATOM      7  C1  UNL d   1       0.267   0.446   0.026  0.00  0.00     0.055 C 
ATOM      8  C   UNL d   1       0.784  -0.984  -0.037  0.00  0.00     0.019 C 
ENDBRANCH   1   7
TORSDOF 1
ENDMDL
