MODEL 1
REMARK minimizedAffinity -4.99736834
REMARK minimizedRMSD -1
REMARK  1 active torsions:
REMARK  status: ('A' for Active; 'I' for Inactive)
REMARK    1  A    between atoms: C1_2  and  C2_3 
ROOT
ATOM      1  C2  UNL d   1      -0.042  -0.028   0.060  0.00  0.00    -0.077 A 
ATOM      2  C3  UNL d   1       0.620   0.979  -0.656  0.00  0.00     0.002 A 
ATOM      3  C4  UNL d   1       1.802   0.697  -1.344  0.00  0.00     0.002 A 
ATOM      4  C5  UNL d   1       2.330  -0.592  -1.325  0.00  0.00    -0.004 A 
ATOM      5  C6  UNL d   1       1.680  -1.600  -0.613  0.00  0.00     0.002 A 
ATOM      6  C7  UNL d   1       0.500  -1.319   0.076  0.00  0.00     0.002 A 
ENDROOT
BRANCH   1   7
ATOM      7  C1  UNL d   1      -1.343   0.263   0.762  0.00  0.00     0.055 C 
ATOM      8  C   UNL d   1      -2.197   1.237  -0.037  0.00  0.00     0.019 C 
ENDBRANCH   1   7
TORSDOF 1
ENDMDL
