MODEL 1
REMARK minimizedAffinity -4.24777746
REMARK minimizedRMSD -1
REMARK  1 active torsions:
REMARK  status: ('A' for Active; 'I' for Inactive)
REMARK    1  A    between atoms: C1_2  and  C2_3 
ROOT
ATOM      1  C2  UNL d   1      -1.704   0.507   1.478  0.00  0.00    -0.077 A 
ATOM      2  C3  UNL d   1      -2.864  -0.067   2.017  0.00  0.00     0.002 A 
ATOM      3  C4  UNL d   1      -3.277   0.258   3.311  0.00  0.00     0.002 A 
ATOM      4  C5  UNL d   1      -2.538   1.159   4.074  0.00  0.00    -0.004 A 
ATOM      5  C6  UNL d   1      -1.381   1.733   3.548  0.00  0.00     0.002 A 
ATOM      6  C7  UNL d   1      -0.966   1.409   2.256  0.00  0.00     0.002 A 
ENDROOT
BRANCH   1   7
ATOM      7  C1  UNL d   1      -1.284   0.196   0.065  0.00  0.00     0.055 C 
ATOM      8  C   UNL d   1      -0.071  -0.723   0.037  0.00  0.00     0.019 C 
ENDBRANCH   1   7
TORSDOF 1
ENDMDL
