MODEL 1
REMARK minimizedAffinity -3.85530949
REMARK minimizedRMSD -1
REMARK  1 active torsions:
REMARK  status: ('A' for Active; 'I' for Inactive)
REMARK    1  A    between atoms: C1_2  and  C2_3 
ROOT
ATOM      1  C2  UNL d   1      -0.888  -0.129   0.444  0.00  0.00    -0.077 A 
ATOM      2  C3  UNL d   1       0.028   0.850   0.036  0.00  0.00     0.002 A 
ATOM      3  C4  UNL d   1       1.164   0.495  -0.693  0.00  0.00     0.002 A 
ATOM      4  C5  UNL d   1       1.392  -0.839  -1.025  0.00  0.00    -0.004 A 
ATOM      5  C6  UNL d   1       0.487  -1.821  -0.623  0.00  0.00     0.002 A 
ATOM      6  C7  UNL d   1      -0.648  -1.468   0.107  0.00  0.00     0.002 A 
ENDROOT
BRANCH   1   7
ATOM      7  C1  UNL d   1      -2.140   0.258   1.188  0.00  0.00     0.055 C 
ATOM      8  C   UNL d   1      -1.855   1.330   2.229  0.00  0.00     0.019 C 
ENDBRANCH   1   7
TORSDOF 1
ENDMDL
