MODEL 1
REMARK minimizedAffinity -5.10085058
REMARK minimizedRMSD -1
REMARK  1 active torsions:
REMARK  status: ('A' for Active; 'I' for Inactive)
REMARK    1  A    between atoms: C1_2  and  C2_3 
ROOT
ATOM      1  C2  UNL d   1       1.810  -0.475  -1.192  0.00  0.00    -0.077 A 
ATOM      2  C3  UNL d   1       2.433   0.122  -2.298  0.00  0.00     0.002 A 
ATOM      3  C4  UNL d   1       1.978   1.347  -2.788  0.00  0.00     0.002 A 
ATOM      4  C5  UNL d   1       0.903   1.989  -2.177  0.00  0.00    -0.004 A 
ATOM      5  C6  UNL d   1       0.276   1.403  -1.078  0.00  0.00     0.002 A 
ATOM      6  C7  UNL d   1       0.728   0.177  -0.588  0.00  0.00     0.002 A 
ENDROOT
BRANCH   1   7
ATOM      7  C1  UNL d   1       2.330  -1.773  -0.631  0.00  0.00     0.055 C 
ATOM      8  C   UNL d   1       1.204  -2.614  -0.047  0.00  0.00     0.019 C 
ENDBRANCH   1   7
TORSDOF 1
ENDMDL
