MODEL 1
REMARK minimizedAffinity -0.59918052
REMARK minimizedRMSD -1
REMARK  0 active torsions:
REMARK  status: ('A' for Active; 'I' for Inactive)
ROOT
ATOM      1  C   UNL d   1       0.005   0.131  -1.339  0.00  0.00     0.172 C 
ATOM      2  N   UNL d   1      -0.287   1.419  -1.924  0.00  0.00    -0.070 N 
ATOM      3  C1  UNL d   1       0.612   2.227  -2.567  0.00  0.00    -0.004 A 
ATOM      4  C2  UNL d   1      -0.056   3.360  -2.977  0.00  0.00    -0.047 A 
ATOM      5  C3  UNL d   1      -1.404   3.230  -2.565  0.00  0.00    -0.047 A 
ATOM      6  C4  UNL d   1      -1.519   2.019  -1.915  0.00  0.00    -0.004 A 
ENDROOT
TORSDOF 0
ENDMDL
