MODEL 1
REMARK minimizedAffinity -0.753163695
REMARK minimizedRMSD -1
REMARK  0 active torsions:
REMARK  status: ('A' for Active; 'I' for Inactive)
ROOT
ATOM      1  C   UNL d   1      -1.568   2.259  -2.246  0.00  0.00     0.172 C 
ATOM      2  N   UNL d   1      -0.988   1.307  -1.327  0.00  0.00    -0.070 N 
ATOM      3  C1  UNL d   1      -1.364   1.125  -0.023  0.00  0.00    -0.004 A 
ATOM      4  C2  UNL d   1      -0.573   0.130   0.509  0.00  0.00    -0.047 A 
ATOM      5  C3  UNL d   1       0.310  -0.299  -0.510  0.00  0.00    -0.047 A 
ATOM      6  C4  UNL d   1       0.032   0.446  -1.636  0.00  0.00    -0.004 A 
ENDROOT
TORSDOF 0
ENDMDL
