MODEL 1
REMARK minimizedAffinity -2.63576174
REMARK minimizedRMSD -1
REMARK  0 active torsions:
REMARK  status: ('A' for Active; 'I' for Inactive)
ROOT
ATOM      1  C   UNL d   1       2.142  -1.941   0.355  0.00  0.00     0.172 C 
ATOM      2  N   UNL d   1       0.965  -1.173   0.023  0.00  0.00    -0.070 N 
ATOM      3  C1  UNL d   1       0.459  -0.993  -1.237  0.00  0.00    -0.004 A 
ATOM      4  C2  UNL d   1      -0.665  -0.204  -1.132  0.00  0.00    -0.047 A 
ATOM      5  C3  UNL d   1      -0.841   0.102   0.239  0.00  0.00    -0.047 A 
ATOM      6  C4  UNL d   1       0.182  -0.511   0.931  0.00  0.00    -0.004 A 
ENDROOT
TORSDOF 0
ENDMDL
