MODEL 1
REMARK minimizedAffinity 1.19236588
REMARK minimizedRMSD -1
REMARK  0 active torsions:
REMARK  status: ('A' for Active; 'I' for Inactive)
ROOT
ATOM      1  C   UNL d   1      -1.945   1.084  -1.258  0.00  0.00     0.172 C 
ATOM      2  N   UNL d   1      -1.577   0.480   0.001  0.00  0.00    -0.070 N 
ATOM      3  C1  UNL d   1      -1.278  -0.842   0.195  0.00  0.00    -0.004 A 
ATOM      4  C2  UNL d   1      -0.979  -1.015   1.530  0.00  0.00    -0.047 A 
ATOM      5  C3  UNL d   1      -1.105   0.246   2.159  0.00  0.00    -0.047 A 
ATOM      6  C4  UNL d   1      -1.476   1.154   1.190  0.00  0.00    -0.004 A 
ENDROOT
TORSDOF 0
ENDMDL
