MODEL 1
REMARK minimizedAffinity -4.03051043
REMARK minimizedRMSD -1
REMARK  0 active torsions:
REMARK  status: ('A' for Active; 'I' for Inactive)
ROOT
ATOM      1  C   UNL d   1      -0.327   0.577   1.119  0.00  0.00     0.172 C 
ATOM      2  N   UNL d   1       0.662  -0.312   1.680  0.00  0.00    -0.070 N 
ATOM      3  C1  UNL d   1       0.511  -1.058   2.819  0.00  0.00    -0.004 A 
ATOM      4  C2  UNL d   1       1.675  -1.770   3.014  0.00  0.00    -0.047 A 
ATOM      5  C3  UNL d   1       2.555  -1.441   1.956  0.00  0.00    -0.047 A 
ATOM      6  C4  UNL d   1       1.903  -0.537   1.145  0.00  0.00    -0.004 A 
ENDROOT
TORSDOF 0
ENDMDL
