MODEL 1
REMARK minimizedAffinity -4.23592615
REMARK minimizedRMSD -1
REMARK  0 active torsions:
REMARK  status: ('A' for Active; 'I' for Inactive)
ROOT
ATOM      1  C   UNL d   1      -0.292  -0.365   0.604  0.00  0.00     0.172 C 
ATOM      2  N   UNL d   1       0.776  -0.731   1.505  0.00  0.00    -0.070 N 
ATOM      3  C1  UNL d   1       1.895  -1.444   1.168  0.00  0.00    -0.004 A 
ATOM      4  C2  UNL d   1       2.665  -1.582   2.303  0.00  0.00    -0.047 A 
ATOM      5  C3  UNL d   1       1.984  -0.931   3.358  0.00  0.00    -0.047 A 
ATOM      6  C4  UNL d   1       0.818  -0.412   2.837  0.00  0.00    -0.004 A 
ENDROOT
TORSDOF 0
ENDMDL
