MODEL 1
REMARK minimizedAffinity -4.30689812
REMARK minimizedRMSD -1
REMARK  0 active torsions:
REMARK  status: ('A' for Active; 'I' for Inactive)
ROOT
ATOM      1  C   UNL d   1      -0.029   0.033   0.207  0.00  0.00     0.172 C 
ATOM      2  N   UNL d   1       0.910  -0.602   1.102  0.00  0.00    -0.070 N 
ATOM      3  C1  UNL d   1       0.818  -0.630   2.468  0.00  0.00    -0.004 A 
ATOM      4  C2  UNL d   1       1.903  -1.330   2.950  0.00  0.00    -0.047 A 
ATOM      5  C3  UNL d   1       2.674  -1.736   1.835  0.00  0.00    -0.047 A 
ATOM      6  C4  UNL d   1       2.037  -1.272   0.704  0.00  0.00    -0.004 A 
ENDROOT
TORSDOF 0
ENDMDL
