MODEL 1
REMARK minimizedAffinity -3.35762572
REMARK minimizedRMSD -1
REMARK  0 active torsions:
REMARK  status: ('A' for Active; 'I' for Inactive)
ROOT
ATOM      1  C   UNL d   1       0.216   0.051   0.322  0.00  0.00     0.172 C 
ATOM      2  N   UNL d   1       1.157  -0.729   1.090  0.00  0.00    -0.070 N 
ATOM      3  C1  UNL d   1       0.918  -1.288   2.316  0.00  0.00    -0.004 A 
ATOM      4  C2  UNL d   1       2.062  -1.949   2.709  0.00  0.00    -0.047 A 
ATOM      5  C3  UNL d   1       3.022  -1.781   1.683  0.00  0.00    -0.047 A 
ATOM      6  C4  UNL d   1       2.436  -1.022   0.693  0.00  0.00    -0.004 A 
ENDROOT
TORSDOF 0
ENDMDL
