MODEL 1
REMARK minimizedAffinity 4.57342911
REMARK minimizedRMSD -1
REMARK  0 active torsions:
REMARK  status: ('A' for Active; 'I' for Inactive)
ROOT
ATOM      1  N1  IND d   1      -3.903   2.955   3.150  0.00  0.00    -0.196 N 
ATOM      2  C2  IND d   1      -3.904   2.303   1.949  0.00  0.00     0.054 A 
ATOM      3  C3  IND d   1      -3.022   1.278   1.968  0.00  0.00    -0.031 A 
ATOM      4  C4  IND d   1      -1.547   0.427   3.899  0.00  0.00     0.051 A 
ATOM      5  C5  IND d   1      -1.175   0.721   5.180  0.00  0.00    -0.031 A 
ATOM      6  C6  IND d   1      -1.705   1.795   5.866  0.00  0.00     0.015 A 
ATOM      7  C7  IND d   1      -2.641   2.612   5.296  0.00  0.00    -0.016 A 
ATOM      8  C8  IND d   1      -3.016   2.320   3.992  0.00  0.00    -0.047 A 
ATOM      9  C9  IND d   1      -2.450   1.257   3.277  0.00  0.00    -0.096 A 
ATOM     10  HN1 IND d   1      -4.376   3.645   3.347  0.00  0.00     0.298 HD
ENDROOT
TORSDOF 0
ENDMDL
