MODEL 1
REMARK minimizedAffinity 1.2667774
REMARK minimizedRMSD -1
REMARK  0 active torsions:
REMARK  status: ('A' for Active; 'I' for Inactive)
ROOT
ATOM      1  N1  IND d   1       1.435   2.905  -2.628  0.00  0.00    -0.196 N 
ATOM      2  C2  IND d   1       0.929   3.950  -1.907  0.00  0.00     0.054 A 
ATOM      3  C3  IND d   1       0.492   3.522  -0.701  0.00  0.00    -0.031 A 
ATOM      4  C4  IND d   1       0.602   1.169   0.337  0.00  0.00     0.051 A 
ATOM      5  C5  IND d   1       0.944  -0.122   0.046  0.00  0.00    -0.031 A 
ATOM      6  C6  IND d   1       1.481  -0.476  -1.174  0.00  0.00     0.015 A 
ATOM      7  C7  IND d   1       1.707   0.453  -2.150  0.00  0.00    -0.016 A 
ATOM      8  C8  IND d   1       1.354   1.763  -1.861  0.00  0.00    -0.047 A 
ATOM      9  C9  IND d   1       0.769   2.122  -0.640  0.00  0.00    -0.096 A 
ATOM     10  HN1 IND d   1       1.750   2.952  -3.426  0.00  0.00     0.298 HD
ENDROOT
TORSDOF 0
ENDMDL
