MODEL 1
REMARK minimizedAffinity 1.1740005
REMARK minimizedRMSD -1
REMARK  0 active torsions:
REMARK  status: ('A' for Active; 'I' for Inactive)
ROOT
ATOM      1  N1  IND d   1       0.786   3.371  -0.541  0.00  0.00    -0.196 N 
ATOM      2  C2  IND d   1       0.678   3.641  -1.877  0.00  0.00     0.054 A 
ATOM      3  C3  IND d   1       0.777   2.501  -2.597  0.00  0.00    -0.031 A 
ATOM      4  C4  IND d   1       1.013   0.069  -1.785  0.00  0.00     0.051 A 
ATOM      5  C5  IND d   1       1.189  -0.676  -0.654  0.00  0.00    -0.031 A 
ATOM      6  C6  IND d   1       1.238  -0.100   0.599  0.00  0.00     0.015 A 
ATOM      7  C7  IND d   1       1.100   1.249   0.768  0.00  0.00    -0.016 A 
ATOM      8  C8  IND d   1       0.929   2.010  -0.379  0.00  0.00    -0.047 A 
ATOM      9  C9  IND d   1       0.921   1.435  -1.657  0.00  0.00    -0.096 A 
ATOM     10  HN1 IND d   1       0.767   3.952   0.092  0.00  0.00     0.298 HD
ENDROOT
TORSDOF 0
ENDMDL
