MODEL 1
REMARK minimizedAffinity 5.00571966
REMARK minimizedRMSD -1
REMARK  0 active torsions:
REMARK  status: ('A' for Active; 'I' for Inactive)
ROOT
ATOM      1  N1  IND d   1       1.054   0.991  -2.244  0.00  0.00    -0.196 N 
ATOM      2  C2  IND d   1       1.403  -0.171  -1.615  0.00  0.00     0.054 A 
ATOM      3  C3  IND d   1       1.656   0.061  -0.307  0.00  0.00    -0.031 A 
ATOM      4  C4  IND d   1       1.459   2.250   1.034  0.00  0.00     0.051 A 
ATOM      5  C5  IND d   1       1.210   3.585   0.886  0.00  0.00    -0.031 A 
ATOM      6  C6  IND d   1       0.886   4.135  -0.338  0.00  0.00     0.015 A 
ATOM      7  C7  IND d   1       0.789   3.364  -1.462  0.00  0.00    -0.016 A 
ATOM      8  C8  IND d   1       1.048   2.009  -1.316  0.00  0.00    -0.047 A 
ATOM      9  C9  IND d   1       1.418   1.452  -0.085  0.00  0.00    -0.096 A 
ATOM     10  HN1 IND d   1       0.868   1.073  -3.080  0.00  0.00     0.298 HD
ENDROOT
TORSDOF 0
ENDMDL
