MODEL 1
REMARK minimizedAffinity 7.71202898
REMARK minimizedRMSD -1
REMARK  0 active torsions:
REMARK  status: ('A' for Active; 'I' for Inactive)
ROOT
ATOM      1  N1  IND d   1      -4.325   2.450   3.369  0.00  0.00    -0.196 N 
ATOM      2  C2  IND d   1      -3.807   2.629   2.116  0.00  0.00     0.054 A 
ATOM      3  C3  IND d   1      -2.533   2.180   2.066  0.00  0.00    -0.031 A 
ATOM      4  C4  IND d   1      -1.133   1.022   3.890  0.00  0.00     0.051 A 
ATOM      5  C5  IND d   1      -1.164   0.670   5.210  0.00  0.00    -0.031 A 
ATOM      6  C6  IND d   1      -2.273   0.896   6.000  0.00  0.00     0.015 A 
ATOM      7  C7  IND d   1      -3.402   1.474   5.493  0.00  0.00    -0.016 A 
ATOM      8  C8  IND d   1      -3.372   1.839   4.154  0.00  0.00    -0.047 A 
ATOM      9  C9  IND d   1      -2.234   1.651   3.359  0.00  0.00    -0.096 A 
ATOM     10  HN1 IND d   1      -5.113   2.681   3.624  0.00  0.00     0.298 HD
ENDROOT
TORSDOF 0
ENDMDL
