MODEL 1
REMARK minimizedAffinity 0.908055782
REMARK minimizedRMSD -1
REMARK  0 active torsions:
REMARK  status: ('A' for Active; 'I' for Inactive)
ROOT
ATOM      1  N1  IND d   1       1.682  -0.186   0.298  0.00  0.00    -0.196 N 
ATOM      2  C2  IND d   1       1.600  -0.936  -0.842  0.00  0.00     0.054 A 
ATOM      3  C3  IND d   1       1.234  -0.163  -1.889  0.00  0.00    -0.031 A 
ATOM      4  C4  IND d   1       0.816   2.376  -1.980  0.00  0.00     0.051 A 
ATOM      5  C5  IND d   1       0.734   3.483  -1.183  0.00  0.00    -0.031 A 
ATOM      6  C6  IND d   1       0.971   3.423   0.175  0.00  0.00     0.015 A 
ATOM      7  C7  IND d   1       1.312   2.251   0.788  0.00  0.00    -0.016 A 
ATOM      8  C8  IND d   1       1.389   1.123  -0.017  0.00  0.00    -0.047 A 
ATOM      9  C9  IND d   1       1.108   1.169  -1.388  0.00  0.00    -0.096 A 
ATOM     10  HN1 IND d   1       1.883  -0.482   1.080  0.00  0.00     0.298 HD
ENDROOT
TORSDOF 0
ENDMDL
