MODEL 1
REMARK minimizedAffinity -2.29286003
REMARK minimizedRMSD -1
REMARK  0 active torsions:
REMARK  status: ('A' for Active; 'I' for Inactive)
ROOT
ATOM      1  N1  IND d   1       1.044   0.041  -1.728  0.00  0.00    -0.196 N 
ATOM      2  C2  IND d   1       1.062  -0.872  -0.711  0.00  0.00     0.054 A 
ATOM      3  C3  IND d   1       1.050  -0.242   0.486  0.00  0.00    -0.031 A 
ATOM      4  C4  IND d   1       0.897   2.274   1.009  0.00  0.00     0.051 A 
ATOM      5  C5  IND d   1       0.895   3.501   0.407  0.00  0.00    -0.031 A 
ATOM      6  C6  IND d   1       0.940   3.640  -0.965  0.00  0.00     0.015 A 
ATOM      7  C7  IND d   1       0.978   2.552  -1.791  0.00  0.00    -0.016 A 
ATOM      8  C8  IND d   1       0.988   1.305  -1.183  0.00  0.00    -0.047 A 
ATOM      9  C9  IND d   1       0.985   1.158   0.210  0.00  0.00    -0.096 A 
ATOM     10  HN1 IND d   1       1.064  -0.144  -2.568  0.00  0.00     0.298 HD
ENDROOT
TORSDOF 0
ENDMDL
