MODEL 1
REMARK minimizedAffinity -4.76638699
REMARK minimizedRMSD -1
REMARK  0 active torsions:
REMARK  status: ('A' for Active; 'I' for Inactive)
ROOT
ATOM      1  N1  IND d   1       1.881   2.060   1.112  0.00  0.00    -0.196 N 
ATOM      2  C2  IND d   1       1.480   3.357   0.954  0.00  0.00     0.054 A 
ATOM      3  C3  IND d   1       1.090   3.577  -0.322  0.00  0.00    -0.031 A 
ATOM      4  C4  IND d   1       0.933   1.927  -2.291  0.00  0.00     0.051 A 
ATOM      5  C5  IND d   1       1.224   0.639  -2.644  0.00  0.00    -0.031 A 
ATOM      6  C6  IND d   1       1.758  -0.260  -1.743  0.00  0.00     0.015 A 
ATOM      7  C7  IND d   1       2.011   0.094  -0.448  0.00  0.00    -0.016 A 
ATOM      8  C8  IND d   1       1.722   1.403  -0.089  0.00  0.00    -0.047 A 
ATOM      9  C9  IND d   1       1.221   2.332  -1.009  0.00  0.00    -0.096 A 
ATOM     10  HN1 IND d   1       2.183   1.713   1.838  0.00  0.00     0.298 HD
ENDROOT
TORSDOF 0
ENDMDL
