MODEL 1
REMARK minimizedAffinity 4.22933865
REMARK minimizedRMSD -1
REMARK  0 active torsions:
REMARK  status: ('A' for Active; 'I' for Inactive)
ROOT
ATOM      1  N1  IND d   1       1.261   2.931  -0.500  0.00  0.00    -0.196 N 
ATOM      2  C2  IND d   1       1.154   3.079  -1.855  0.00  0.00     0.054 A 
ATOM      3  C3  IND d   1       0.909   1.885  -2.440  0.00  0.00    -0.031 A 
ATOM      4  C4  IND d   1       0.543  -0.422  -1.359  0.00  0.00     0.051 A 
ATOM      5  C5  IND d   1       0.580  -1.065  -0.153  0.00  0.00    -0.031 A 
ATOM      6  C6  IND d   1       0.848  -0.394   1.022  0.00  0.00     0.015 A 
ATOM      7  C7  IND d   1       1.079   0.952   1.038  0.00  0.00    -0.016 A 
ATOM      8  C8  IND d   1       1.050   1.607  -0.186  0.00  0.00    -0.047 A 
ATOM      9  C9  IND d   1       0.821   0.924  -1.387  0.00  0.00    -0.096 A 
ATOM     10  HN1 IND d   1       1.431   3.560   0.061  0.00  0.00     0.298 HD
ENDROOT
TORSDOF 0
ENDMDL
