MODEL 1
REMARK minimizedAffinity 8.09212399
REMARK minimizedRMSD -1
REMARK  0 active torsions:
REMARK  status: ('A' for Active; 'I' for Inactive)
ROOT
ATOM      1  N1  IND d   1       0.749   3.573  -2.272  0.00  0.00    -0.196 N 
ATOM      2  C2  IND d   1       1.256   4.297  -1.229  0.00  0.00     0.054 A 
ATOM      3  C3  IND d   1       1.837   3.476  -0.325  0.00  0.00    -0.031 A 
ATOM      4  C4  IND d   1       2.162   0.924  -0.405  0.00  0.00     0.051 A 
ATOM      5  C5  IND d   1       1.837  -0.181  -1.142  0.00  0.00    -0.031 A 
ATOM      6  C6  IND d   1       1.121  -0.088  -2.318  0.00  0.00     0.015 A 
ATOM      7  C7  IND d   1       0.712   1.119  -2.809  0.00  0.00    -0.016 A 
ATOM      8  C8  IND d   1       1.033   2.242  -2.060  0.00  0.00    -0.047 A 
ATOM      9  C9  IND d   1       1.722   2.150  -0.844  0.00  0.00    -0.096 A 
ATOM     10  HN1 IND d   1       0.325   3.895  -2.947  0.00  0.00     0.298 HD
ENDROOT
TORSDOF 0
ENDMDL
