MODEL 1
REMARK minimizedAffinity 5.42061234
REMARK minimizedRMSD -1
REMARK  0 active torsions:
REMARK  status: ('A' for Active; 'I' for Inactive)
ROOT
ATOM      1  N1  IND d   1       1.364   3.024  -2.434  0.00  0.00    -0.196 N 
ATOM      2  C2  IND d   1       1.346   1.719  -2.029  0.00  0.00     0.054 A 
ATOM      3  C3  IND d   1       1.281   1.645  -0.681  0.00  0.00    -0.031 A 
ATOM      4  C4  IND d   1       1.093   3.539   1.053  0.00  0.00     0.051 A 
ATOM      5  C5  IND d   1       1.109   4.901   1.166  0.00  0.00    -0.031 A 
ATOM      6  C6  IND d   1       1.209   5.724   0.063  0.00  0.00     0.015 A 
ATOM      7  C7  IND d   1       1.287   5.213  -1.202  0.00  0.00    -0.016 A 
ATOM      8  C8  IND d   1       1.279   3.830  -1.320  0.00  0.00    -0.047 A 
ATOM      9  C9  IND d   1       1.220   2.990  -0.201  0.00  0.00    -0.096 A 
ATOM     10  HN1 IND d   1       1.420   3.296  -3.248  0.00  0.00     0.298 HD
ENDROOT
TORSDOF 0
ENDMDL
