MODEL 1
REMARK minimizedAffinity 16.455843
REMARK minimizedRMSD -1
REMARK  0 active torsions:
REMARK  status: ('A' for Active; 'I' for Inactive)
ROOT
ATOM      1  N1  IND d   1       0.240   4.623  -2.222  0.00  0.00    -0.196 N 
ATOM      2  C2  IND d   1       0.933   5.165  -1.176  0.00  0.00     0.054 A 
ATOM      3  C3  IND d   1       1.547   4.194  -0.464  0.00  0.00    -0.031 A 
ATOM      4  C4  IND d   1       1.634   1.657  -0.895  0.00  0.00     0.051 A 
ATOM      5  C5  IND d   1       1.126   0.685  -1.710  0.00  0.00    -0.031 A 
ATOM      6  C6  IND d   1       0.281   0.982  -2.760  0.00  0.00     0.015 A 
ATOM      7  C7  IND d   1      -0.079   2.269  -3.043  0.00  0.00    -0.016 A 
ATOM      8  C8  IND d   1       0.430   3.258  -2.213  0.00  0.00    -0.047 A 
ATOM      9  C9  IND d   1       1.253   2.959  -1.120  0.00  0.00    -0.096 A 
ATOM     10  HN1 IND d   1      -0.235   5.060  -2.791  0.00  0.00     0.298 HD
ENDROOT
TORSDOF 0
ENDMDL
