MODEL 1
REMARK minimizedAffinity 7.63062763
REMARK minimizedRMSD -1
REMARK  0 active torsions:
REMARK  status: ('A' for Active; 'I' for Inactive)
ROOT
ATOM      1  N1  IND d   1       1.057   3.564  -0.702  0.00  0.00    -0.196 N 
ATOM      2  C2  IND d   1       0.569   3.916  -1.929  0.00  0.00     0.054 A 
ATOM      3  C3  IND d   1       0.342   2.815  -2.679  0.00  0.00    -0.031 A 
ATOM      4  C4  IND d   1       0.603   0.330  -2.056  0.00  0.00     0.051 A 
ATOM      5  C5  IND d   1       1.052  -0.489  -1.058  0.00  0.00    -0.031 A 
ATOM      6  C6  IND d   1       1.532   0.012   0.135  0.00  0.00     0.015 A 
ATOM      7  C7  IND d   1       1.571   1.355   0.379  0.00  0.00    -0.016 A 
ATOM      8  C8  IND d   1       1.123   2.190  -0.634  0.00  0.00    -0.047 A 
ATOM      9  C9  IND d   1       0.674   1.690  -1.863  0.00  0.00    -0.096 A 
ATOM     10  HN1 IND d   1       1.284   4.109  -0.077  0.00  0.00     0.298 HD
ENDROOT
TORSDOF 0
ENDMDL
