MODEL 1
REMARK minimizedAffinity 0.464274406
REMARK minimizedRMSD -1
REMARK  0 active torsions:
REMARK  status: ('A' for Active; 'I' for Inactive)
ROOT
ATOM      1  N1  IND d   1       1.699  -0.529  -0.126  0.00  0.00    -0.196 N 
ATOM      2  C2  IND d   1       1.630  -1.254  -1.284  0.00  0.00     0.054 A 
ATOM      3  C3  IND d   1       1.193  -0.476  -2.299  0.00  0.00    -0.031 A 
ATOM      4  C4  IND d   1       0.629   2.036  -2.311  0.00  0.00     0.051 A 
ATOM      5  C5  IND d   1       0.506   3.116  -1.483  0.00  0.00    -0.031 A 
ATOM      6  C6  IND d   1       0.782   3.035  -0.133  0.00  0.00     0.015 A 
ATOM      7  C7  IND d   1       1.205   1.869   0.439  0.00  0.00    -0.016 A 
ATOM      8  C8  IND d   1       1.325   0.768  -0.398  0.00  0.00    -0.047 A 
ATOM      9  C9  IND d   1       1.005   0.833  -1.760  0.00  0.00    -0.096 A 
ATOM     10  HN1 IND d   1       1.937  -0.833   0.642  0.00  0.00     0.298 HD
ENDROOT
TORSDOF 0
ENDMDL
