MODEL 1
REMARK minimizedAffinity 1.47135258
REMARK minimizedRMSD -1
REMARK  0 active torsions:
REMARK  status: ('A' for Active; 'I' for Inactive)
ROOT
ATOM      1  N1  IND d   1       1.128  -1.387   0.531  0.00  0.00    -0.196 N 
ATOM      2  C2  IND d   1       1.095  -2.131  -0.615  0.00  0.00     0.054 A 
ATOM      3  C3  IND d   1       0.929  -1.330  -1.691  0.00  0.00    -0.031 A 
ATOM      4  C4  IND d   1       0.793   1.238  -1.813  0.00  0.00     0.051 A 
ATOM      5  C5  IND d   1       0.740   2.352  -1.024  0.00  0.00    -0.031 A 
ATOM      6  C6  IND d   1       0.818   2.276   0.351  0.00  0.00     0.015 A 
ATOM      7  C7  IND d   1       0.964   1.078   0.991  0.00  0.00    -0.016 A 
ATOM      8  C8  IND d   1       1.011  -0.057   0.194  0.00  0.00    -0.047 A 
ATOM      9  C9  IND d   1       0.890   0.011  -1.200  0.00  0.00    -0.096 A 
ATOM     10  HN1 IND d   1       1.209  -1.698   1.329  0.00  0.00     0.298 HD
ENDROOT
TORSDOF 0
ENDMDL
