MODEL 1
REMARK minimizedAffinity 3.39347911
REMARK minimizedRMSD -1
REMARK  0 active torsions:
REMARK  status: ('A' for Active; 'I' for Inactive)
ROOT
ATOM      1  N1  IND d   1       0.920   1.721  -2.951  0.00  0.00    -0.196 N 
ATOM      2  C2  IND d   1       1.199   0.404  -2.718  0.00  0.00     0.054 A 
ATOM      3  C3  IND d   1       1.444   0.200  -1.404  0.00  0.00    -0.031 A 
ATOM      4  C4  IND d   1       1.343   1.867   0.556  0.00  0.00     0.051 A 
ATOM      5  C5  IND d   1       1.166   3.193   0.834  0.00  0.00    -0.031 A 
ATOM      6  C6  IND d   1       0.889   4.115  -0.155  0.00  0.00     0.015 A 
ATOM      7  C7  IND d   1       0.768   3.741  -1.463  0.00  0.00    -0.016 A 
ATOM      8  C8  IND d   1       0.954   2.396  -1.750  0.00  0.00    -0.047 A 
ATOM      9  C9  IND d   1       1.277   1.463  -0.757  0.00  0.00    -0.096 A 
ATOM     10  HN1 IND d   1       0.751   2.070  -3.718  0.00  0.00     0.298 HD
ENDROOT
TORSDOF 0
ENDMDL
