MODEL 1
REMARK minimizedAffinity 8.29577351
REMARK minimizedRMSD -1
REMARK  0 active torsions:
REMARK  status: ('A' for Active; 'I' for Inactive)
ROOT
ATOM      1  N1  IND d   1       0.058   2.640  -2.550  0.00  0.00    -0.196 N 
ATOM      2  C2  IND d   1       0.350   3.738  -1.791  0.00  0.00     0.054 A 
ATOM      3  C3  IND d   1       0.998   3.372  -0.663  0.00  0.00    -0.031 A 
ATOM      4  C4  IND d   1       1.774   1.036   0.092  0.00  0.00     0.051 A 
ATOM      5  C5  IND d   1       1.705  -0.285  -0.252  0.00  0.00    -0.031 A 
ATOM      6  C6  IND d   1       1.073  -0.707  -1.404  0.00  0.00     0.015 A 
ATOM      7  C7  IND d   1       0.494   0.182  -2.265  0.00  0.00    -0.016 A 
ATOM      8  C8  IND d   1       0.556   1.523  -1.916  0.00  0.00    -0.047 A 
ATOM      9  C9  IND d   1       1.158   1.953  -0.726  0.00  0.00    -0.096 A 
ATOM     10  HN1 IND d   1      -0.365   2.645  -3.299  0.00  0.00     0.298 HD
ENDROOT
TORSDOF 0
ENDMDL
