MODEL 1
REMARK minimizedAffinity -2.84907103
REMARK minimizedRMSD -1
REMARK  0 active torsions:
REMARK  status: ('A' for Active; 'I' for Inactive)
ROOT
ATOM      1  C   UNL d   1      -4.072  -2.990  -2.232  0.00  0.00     0.077 C 
ATOM      2  C1  UNL d   1      -2.926  -2.032  -2.367  0.00  0.00    -0.074 A 
ATOM      3  C2  UNL d   1      -2.759  -1.269  -3.527  0.00  0.00    -0.005 A 
ATOM      4  C3  UNL d   1      -1.694  -0.376  -3.634  0.00  0.00     0.006 A 
ATOM      5  C4  UNL d   1      -0.785  -0.236  -2.584  0.00  0.00    -0.005 A 
ATOM      6  C5  UNL d   1      -0.937  -0.990  -1.416  0.00  0.00    -0.074 A 
ATOM      7  C6  UNL d   1       0.025  -0.845  -0.274  0.00  0.00     0.077 C 
ATOM      8  C7  UNL d   1      -2.014  -1.881  -1.313  0.00  0.00    -0.001 A 
ENDROOT
TORSDOF 0
ENDMDL
