MODEL 1
REMARK minimizedAffinity -4.05675077
REMARK minimizedRMSD -1
REMARK  0 active torsions:
REMARK  status: ('A' for Active; 'I' for Inactive)
ROOT
ATOM      1  C   UNL d   1      -0.515  -1.061  -1.115  0.00  0.00     0.077 C 
ATOM      2  C1  UNL d   1      -0.009  -0.049  -0.130  0.00  0.00    -0.074 A 
ATOM      3  C2  UNL d   1      -0.895   0.740   0.610  0.00  0.00    -0.005 A 
ATOM      4  C3  UNL d   1      -0.410   1.670   1.529  0.00  0.00     0.006 A 
ATOM      5  C4  UNL d   1       0.965   1.820   1.717  0.00  0.00    -0.005 A 
ATOM      6  C5  UNL d   1       1.866   1.040   0.986  0.00  0.00    -0.074 A 
ATOM      7  C6  UNL d   1       3.346   1.182   1.183  0.00  0.00     0.077 C 
ATOM      8  C7  UNL d   1       1.370   0.102   0.070  0.00  0.00    -0.001 A 
ENDROOT
TORSDOF 0
ENDMDL
