MODEL 1
REMARK minimizedAffinity -5.24627113
REMARK minimizedRMSD -1
REMARK  0 active torsions:
REMARK  status: ('A' for Active; 'I' for Inactive)
ROOT
ATOM      1  C   UNL d   1       3.181   2.354  -0.053  0.00  0.00     0.077 C 
ATOM      2  C1  UNL d   1       1.905   1.699   0.385  0.00  0.00    -0.074 A 
ATOM      3  C2  UNL d   1       1.302   2.041   1.600  0.00  0.00    -0.005 A 
ATOM      4  C3  UNL d   1       0.110   1.430   1.989  0.00  0.00     0.006 A 
ATOM      5  C4  UNL d   1      -0.490   0.473   1.170  0.00  0.00    -0.005 A 
ATOM      6  C5  UNL d   1       0.098   0.119  -0.049  0.00  0.00    -0.074 A 
ATOM      7  C6  UNL d   1      -0.538  -0.900  -0.946  0.00  0.00     0.077 C 
ATOM      8  C7  UNL d   1       1.292   0.742  -0.437  0.00  0.00    -0.001 A 
ENDROOT
TORSDOF 0
ENDMDL
