MODEL 1
REMARK minimizedAffinity -5.5228219
REMARK minimizedRMSD -1
REMARK  0 active torsions:
REMARK  status: ('A' for Active; 'I' for Inactive)
ROOT
ATOM      1  C   UNL d   1      -0.646  -1.382  -0.790  0.00  0.00     0.077 C 
ATOM      2  C1  UNL d   1      -0.130  -0.264   0.065  0.00  0.00    -0.074 A 
ATOM      3  C2  UNL d   1      -0.890   0.239   1.126  0.00  0.00    -0.005 A 
ATOM      4  C3  UNL d   1      -0.392   1.273   1.919  0.00  0.00     0.006 A 
ATOM      5  C4  UNL d   1       0.867   1.815   1.659  0.00  0.00    -0.005 A 
ATOM      6  C5  UNL d   1       1.641   1.324   0.603  0.00  0.00    -0.074 A 
ATOM      7  C6  UNL d   1       3.001   1.888   0.316  0.00  0.00     0.077 C 
ATOM      8  C7  UNL d   1       1.138   0.280  -0.185  0.00  0.00    -0.001 A 
ENDROOT
TORSDOF 0
ENDMDL
