MODEL 1
REMARK minimizedAffinity -4.61539412
REMARK minimizedRMSD -1
REMARK  0 active torsions:
REMARK  status: ('A' for Active; 'I' for Inactive)
ROOT
ATOM      1  C   UNL d   1       4.121   0.372   2.613  0.00  0.00     0.077 C 
ATOM      2  C1  UNL d   1       3.071   1.312   2.099  0.00  0.00    -0.074 A 
ATOM      3  C2  UNL d   1       3.273   2.696   2.120  0.00  0.00    -0.005 A 
ATOM      4  C3  UNL d   1       2.292   3.557   1.629  0.00  0.00     0.006 A 
ATOM      5  C4  UNL d   1       1.101   3.044   1.114  0.00  0.00    -0.005 A 
ATOM      6  C5  UNL d   1       0.881   1.663   1.085  0.00  0.00    -0.074 A 
ATOM      7  C6  UNL d   1      -0.389   1.095   0.526  0.00  0.00     0.077 C 
ATOM      8  C7  UNL d   1       1.875   0.804   1.573  0.00  0.00    -0.001 A 
ENDROOT
TORSDOF 0
ENDMDL
