MODEL 1
REMARK minimizedAffinity -4.56373787
REMARK minimizedRMSD -1
REMARK  0 active torsions:
REMARK  status: ('A' for Active; 'I' for Inactive)
ROOT
ATOM      1  C   UNL d   1       2.587   3.151   1.188  0.00  0.00     0.077 C 
ATOM      2  C1  UNL d   1       1.538   2.081   1.247  0.00  0.00    -0.074 A 
ATOM      3  C2  UNL d   1       0.864   1.800   2.440  0.00  0.00    -0.005 A 
ATOM      4  C3  UNL d   1      -0.116   0.808   2.477  0.00  0.00     0.006 A 
ATOM      5  C4  UNL d   1      -0.432   0.088   1.324  0.00  0.00    -0.005 A 
ATOM      6  C5  UNL d   1       0.231   0.356   0.122  0.00  0.00    -0.074 A 
ATOM      7  C6  UNL d   1      -0.103  -0.401  -1.129  0.00  0.00     0.077 C 
ATOM      8  C7  UNL d   1       1.210   1.359   0.091  0.00  0.00    -0.001 A 
ENDROOT
TORSDOF 0
ENDMDL
