MODEL 1
REMARK minimizedAffinity -4.78245354
REMARK minimizedRMSD -1
REMARK  0 active torsions:
REMARK  status: ('A' for Active; 'I' for Inactive)
ROOT
ATOM      1  C   UNL d   1       1.684   2.687   1.054  0.00  0.00     0.077 C 
ATOM      2  C1  UNL d   1       1.546   1.363   0.363  0.00  0.00    -0.074 A 
ATOM      3  C2  UNL d   1       2.674   0.647  -0.050  0.00  0.00    -0.005 A 
ATOM      4  C3  UNL d   1       2.530  -0.588  -0.682  0.00  0.00     0.006 A 
ATOM      5  C4  UNL d   1       1.260  -1.118  -0.908  0.00  0.00    -0.005 A 
ATOM      6  C5  UNL d   1       0.120  -0.417  -0.501  0.00  0.00    -0.074 A 
ATOM      7  C6  UNL d   1      -1.253  -0.977  -0.728  0.00  0.00     0.077 C 
ATOM      8  C7  UNL d   1       0.273   0.820   0.140  0.00  0.00    -0.001 A 
ENDROOT
TORSDOF 0
ENDMDL
