MODEL 1
REMARK minimizedAffinity -0.394748718
REMARK minimizedRMSD -1
REMARK  0 active torsions:
REMARK  status: ('A' for Active; 'I' for Inactive)
ROOT
ATOM      1  C   UNL d   1       3.076   0.627   0.404  0.00  0.00     0.077 C 
ATOM      2  C1  UNL d   1       1.578   0.589   0.466  0.00  0.00    -0.074 A 
ATOM      3  C2  UNL d   1       0.865   1.541   1.202  0.00  0.00    -0.005 A 
ATOM      4  C3  UNL d   1      -0.528   1.498   1.243  0.00  0.00     0.006 A 
ATOM      5  C4  UNL d   1      -1.222   0.506   0.548  0.00  0.00    -0.005 A 
ATOM      6  C5  UNL d   1      -0.526  -0.453  -0.194  0.00  0.00    -0.074 A 
ATOM      7  C6  UNL d   1      -1.256  -1.520  -0.954  0.00  0.00     0.077 C 
ATOM      8  C7  UNL d   1       0.874  -0.399  -0.236  0.00  0.00    -0.001 A 
ENDROOT
TORSDOF 0
ENDMDL
