MODEL 1
REMARK minimizedAffinity -1.54423785
REMARK minimizedRMSD -1
REMARK  0 active torsions:
REMARK  status: ('A' for Active; 'I' for Inactive)
ROOT
ATOM      1  C   UNL d   1      -0.622   1.411   1.374  0.00  0.00     0.077 C 
ATOM      2  C1  UNL d   1      -0.403   0.356   0.331  0.00  0.00    -0.074 A 
ATOM      3  C2  UNL d   1       0.825  -0.305   0.224  0.00  0.00    -0.005 A 
ATOM      4  C3  UNL d   1       1.011  -1.291  -0.745  0.00  0.00     0.006 A 
ATOM      5  C4  UNL d   1      -0.027  -1.624  -1.616  0.00  0.00    -0.005 A 
ATOM      6  C5  UNL d   1      -1.262  -0.974  -1.524  0.00  0.00    -0.074 A 
ATOM      7  C6  UNL d   1      -2.391  -1.328  -2.446  0.00  0.00     0.077 C 
ATOM      8  C7  UNL d   1      -1.443   0.010  -0.543  0.00  0.00    -0.001 A 
ENDROOT
TORSDOF 0
ENDMDL
