MODEL 1
REMARK minimizedAffinity 1.42188561
REMARK minimizedRMSD -1
REMARK  0 active torsions:
REMARK  status: ('A' for Active; 'I' for Inactive)
ROOT
ATOM      1  C   UNL d   1       2.315  -0.338  -0.767  0.00  0.00     0.077 C 
ATOM      2  C1  UNL d   1       0.903  -0.177  -0.285  0.00  0.00    -0.074 A 
ATOM      3  C2  UNL d   1       0.630   0.113   1.055  0.00  0.00    -0.005 A 
ATOM      4  C3  UNL d   1      -0.687   0.269   1.487  0.00  0.00     0.006 A 
ATOM      5  C4  UNL d   1      -1.743   0.137   0.583  0.00  0.00    -0.005 A 
ATOM      6  C5  UNL d   1      -1.489  -0.153  -0.761  0.00  0.00    -0.074 A 
ATOM      7  C6  UNL d   1      -2.611  -0.289  -1.747  0.00  0.00     0.077 C 
ATOM      8  C7  UNL d   1      -0.162  -0.301  -1.188  0.00  0.00    -0.001 A 
ENDROOT
TORSDOF 0
ENDMDL
