MODEL 1
REMARK minimizedAffinity -6.1061635
REMARK minimizedRMSD -1
REMARK  0 active torsions:
REMARK  status: ('A' for Active; 'I' for Inactive)
ROOT
ATOM      1  C   UNL d   1      -0.800  -1.559  -0.693  0.00  0.00     0.077 C 
ATOM      2  C1  UNL d   1      -0.274  -0.413   0.120  0.00  0.00    -0.074 A 
ATOM      3  C2  UNL d   1      -0.949   0.026   1.263  0.00  0.00    -0.005 A 
ATOM      4  C3  UNL d   1      -0.443   1.087   2.014  0.00  0.00     0.006 A 
ATOM      5  C4  UNL d   1       0.741   1.718   1.630  0.00  0.00    -0.005 A 
ATOM      6  C5  UNL d   1       1.430   1.292   0.490  0.00  0.00    -0.074 A 
ATOM      7  C6  UNL d   1       2.709   1.953   0.069  0.00  0.00     0.077 C 
ATOM      8  C7  UNL d   1       0.919   0.221  -0.255  0.00  0.00    -0.001 A 
ENDROOT
TORSDOF 0
ENDMDL
