MODEL 1
REMARK minimizedAffinity -1.26693356
REMARK minimizedRMSD -1
REMARK  0 active torsions:
REMARK  status: ('A' for Active; 'I' for Inactive)
ROOT
ATOM      1  C   UNL d   1       0.771   2.729   1.075  0.00  0.00     0.077 C 
ATOM      2  C1  UNL d   1       0.990   1.417   0.383  0.00  0.00    -0.074 A 
ATOM      3  C2  UNL d   1       2.272   1.012  -0.001  0.00  0.00    -0.005 A 
ATOM      4  C3  UNL d   1       2.462  -0.216  -0.635  0.00  0.00     0.006 A 
ATOM      5  C4  UNL d   1       1.372  -1.050  -0.891  0.00  0.00    -0.005 A 
ATOM      6  C5  UNL d   1       0.083  -0.662  -0.514  0.00  0.00    -0.074 A 
ATOM      7  C6  UNL d   1      -1.097  -1.550  -0.773  0.00  0.00     0.077 C 
ATOM      8  C7  UNL d   1      -0.098   0.570   0.129  0.00  0.00    -0.001 A 
ENDROOT
TORSDOF 0
ENDMDL
