MODEL 1
REMARK minimizedAffinity -5.2587328
REMARK minimizedRMSD -1
REMARK  0 active torsions:
REMARK  status: ('A' for Active; 'I' for Inactive)
ROOT
ATOM      1  C   UNL d   1       2.616   2.469   1.166  0.00  0.00     0.077 C 
ATOM      2  C1  UNL d   1       1.689   1.345   0.808  0.00  0.00    -0.074 A 
ATOM      3  C2  UNL d   1       2.054   0.387  -0.143  0.00  0.00    -0.005 A 
ATOM      4  C3  UNL d   1       1.186  -0.658  -0.458  0.00  0.00     0.006 A 
ATOM      5  C4  UNL d   1      -0.055  -0.755   0.174  0.00  0.00    -0.005 A 
ATOM      6  C5  UNL d   1      -0.437   0.193   1.128  0.00  0.00    -0.074 A 
ATOM      7  C6  UNL d   1      -1.762   0.098   1.823  0.00  0.00     0.077 C 
ATOM      8  C7  UNL d   1       0.444   1.236   1.444  0.00  0.00    -0.001 A 
ENDROOT
TORSDOF 0
ENDMDL
