MODEL 1
REMARK minimizedAffinity -1.93805015
REMARK minimizedRMSD -1
REMARK  0 active torsions:
REMARK  status: ('A' for Active; 'I' for Inactive)
ROOT
ATOM      1  C   UNL d   1       3.247   0.517   1.252  0.00  0.00     0.077 C 
ATOM      2  C1  UNL d   1       1.762   0.507   1.041  0.00  0.00    -0.074 A 
ATOM      3  C2  UNL d   1       0.895   1.011   2.016  0.00  0.00    -0.005 A 
ATOM      4  C3  UNL d   1      -0.483   1.003   1.802  0.00  0.00     0.006 A 
ATOM      5  C4  UNL d   1      -1.007   0.493   0.613  0.00  0.00    -0.005 A 
ATOM      6  C5  UNL d   1      -0.155  -0.014  -0.373  0.00  0.00    -0.074 A 
ATOM      7  C6  UNL d   1      -0.701  -0.557  -1.660  0.00  0.00     0.077 C 
ATOM      8  C7  UNL d   1       1.229   0.003  -0.153  0.00  0.00    -0.001 A 
ENDROOT
TORSDOF 0
ENDMDL
