MODEL 1
REMARK minimizedAffinity -2.84756064
REMARK minimizedRMSD -1
REMARK  0 active torsions:
REMARK  status: ('A' for Active; 'I' for Inactive)
ROOT
ATOM      1  C   UNL d   1      -2.780  -1.745  -2.669  0.00  0.00     0.077 C 
ATOM      2  C1  UNL d   1      -1.711  -1.316  -1.709  0.00  0.00    -0.074 A 
ATOM      3  C2  UNL d   1      -0.625  -2.150  -1.423  0.00  0.00    -0.005 A 
ATOM      4  C3  UNL d   1       0.367  -1.733  -0.535  0.00  0.00     0.006 A 
ATOM      5  C4  UNL d   1       0.283  -0.481   0.075  0.00  0.00    -0.005 A 
ATOM      6  C5  UNL d   1      -0.795   0.366  -0.199  0.00  0.00    -0.074 A 
ATOM      7  C6  UNL d   1      -0.895   1.719   0.441  0.00  0.00     0.077 C 
ATOM      8  C7  UNL d   1      -1.784  -0.056  -1.097  0.00  0.00    -0.001 A 
ENDROOT
TORSDOF 0
ENDMDL
