MODEL 1
REMARK minimizedAffinity -2.71903038
REMARK minimizedRMSD -1
REMARK  0 active torsions:
REMARK  status: ('A' for Active; 'I' for Inactive)
ROOT
ATOM      1  C   UNL d   1       0.894   2.264   1.709  0.00  0.00     0.077 C 
ATOM      2  C1  UNL d   1       0.367   0.913   1.327  0.00  0.00    -0.074 A 
ATOM      3  C2  UNL d   1       0.636   0.366   0.068  0.00  0.00    -0.005 A 
ATOM      4  C3  UNL d   1       0.147  -0.896  -0.270  0.00  0.00     0.006 A 
ATOM      5  C4  UNL d   1      -0.613  -1.623   0.646  0.00  0.00    -0.005 A 
ATOM      6  C5  UNL d   1      -0.891  -1.094   1.910  0.00  0.00    -0.074 A 
ATOM      7  C6  UNL d   1      -1.698  -1.867   2.910  0.00  0.00     0.077 C 
ATOM      8  C7  UNL d   1      -0.391   0.172   2.245  0.00  0.00    -0.001 A 
ENDROOT
TORSDOF 0
ENDMDL
