MODEL 1
REMARK minimizedAffinity -4.55347252
REMARK minimizedRMSD -1
REMARK  0 active torsions:
REMARK  status: ('A' for Active; 'I' for Inactive)
ROOT
ATOM      1  C   UNL d   1      -1.337  -0.565  -1.089  0.00  0.00     0.077 C 
ATOM      2  C1  UNL d   1      -0.329   0.300  -0.391  0.00  0.00    -0.074 A 
ATOM      3  C2  UNL d   1      -0.734   1.307   0.491  0.00  0.00    -0.005 A 
ATOM      4  C3  UNL d   1       0.215   2.097   1.140  0.00  0.00     0.006 A 
ATOM      5  C4  UNL d   1       1.576   1.888   0.914  0.00  0.00    -0.005 A 
ATOM      6  C5  UNL d   1       2.000   0.885   0.037  0.00  0.00    -0.074 A 
ATOM      7  C6  UNL d   1       3.459   0.641  -0.210  0.00  0.00     0.077 C 
ATOM      8  C7  UNL d   1       1.040   0.091  -0.606  0.00  0.00    -0.001 A 
ENDROOT
TORSDOF 0
ENDMDL
