MODEL 1
REMARK minimizedAffinity 6.46553612
REMARK minimizedRMSD -1
REMARK  0 active torsions:
REMARK  status: ('A' for Active; 'I' for Inactive)
ROOT
ATOM      1  C   UNL d   1       0.083  -1.043   3.380  0.00  0.00     0.172 C 
ATOM      2  N   UNL d   1       0.923  -1.688   2.399  0.00  0.00    -0.070 N 
ATOM      3  C1  UNL d   1       1.581  -2.877   2.568  0.00  0.00    -0.004 A 
ATOM      4  C2  UNL d   1       2.271  -3.147   1.406  0.00  0.00    -0.047 A 
ATOM      5  C3  UNL d   1       2.019  -2.083   0.507  0.00  0.00    -0.047 A 
ATOM      6  C4  UNL d   1       1.182  -1.194   1.147  0.00  0.00    -0.004 A 
ENDROOT
TORSDOF 0
ENDMDL
