MODEL 1
REMARK minimizedAffinity 5.89639521
REMARK minimizedRMSD -1
REMARK  0 active torsions:
REMARK  status: ('A' for Active; 'I' for Inactive)
ROOT
ATOM      1  C   UNL d   1       2.756  -4.731   1.337  0.00  0.00     0.172 C 
ATOM      2  N   UNL d   1       2.125  -3.433   1.362  0.00  0.00    -0.070 N 
ATOM      3  C1  UNL d   1       2.229  -2.475   0.388  0.00  0.00    -0.004 A 
ATOM      4  C2  UNL d   1       1.484  -1.386   0.786  0.00  0.00    -0.047 A 
ATOM      5  C3  UNL d   1       0.913  -1.700   2.042  0.00  0.00    -0.047 A 
ATOM      6  C4  UNL d   1       1.327  -2.972   2.376  0.00  0.00    -0.004 A 
ENDROOT
TORSDOF 0
ENDMDL
