MODEL 1
REMARK minimizedAffinity 1.77034163
REMARK minimizedRMSD -1
REMARK  0 active torsions:
REMARK  status: ('A' for Active; 'I' for Inactive)
ROOT
ATOM      1  C   UNL d   1       5.989  -0.116  -1.330  0.00  0.00     0.172 C 
ATOM      2  N   UNL d   1       5.990   0.612  -0.083  0.00  0.00    -0.070 N 
ATOM      3  C1  UNL d   1       5.998   0.054   1.168  0.00  0.00    -0.004 A 
ATOM      4  C2  UNL d   1       5.997   1.080   2.088  0.00  0.00    -0.047 A 
ATOM      5  C3  UNL d   1       5.988   2.297   1.366  0.00  0.00    -0.047 A 
ATOM      6  C4  UNL d   1       5.984   1.978   0.024  0.00  0.00    -0.004 A 
ENDROOT
TORSDOF 0
ENDMDL
