MODEL 1
REMARK minimizedAffinity -0.0772979632
REMARK minimizedRMSD -1
REMARK  0 active torsions:
REMARK  status: ('A' for Active; 'I' for Inactive)
ROOT
ATOM      1  C   UNL d   1       5.996   1.488   1.081  0.00  0.00     0.172 C 
ATOM      2  N   UNL d   1       4.598   1.436   0.725  0.00  0.00    -0.070 N 
ATOM      3  C1  UNL d   1       3.912   0.314   0.343  0.00  0.00    -0.004 A 
ATOM      4  C2  UNL d   1       2.608   0.681   0.091  0.00  0.00    -0.047 A 
ATOM      5  C3  UNL d   1       2.507   2.073   0.328  0.00  0.00    -0.047 A 
ATOM      6  C4  UNL d   1       3.753   2.514   0.720  0.00  0.00    -0.004 A 
ENDROOT
TORSDOF 0
ENDMDL
