MODEL 1
REMARK minimizedAffinity 0.952891648
REMARK minimizedRMSD -1
REMARK  0 active torsions:
REMARK  status: ('A' for Active; 'I' for Inactive)
ROOT
ATOM      1  C   UNL d   1      -2.479   0.132  -1.774  0.00  0.00     0.172 C 
ATOM      2  N   UNL d   1      -2.291   1.484  -2.247  0.00  0.00    -0.070 N 
ATOM      3  C1  UNL d   1      -3.258   2.276  -2.805  0.00  0.00    -0.004 A 
ATOM      4  C2  UNL d   1      -2.680   3.487  -3.122  0.00  0.00    -0.047 A 
ATOM      5  C3  UNL d   1      -1.319   3.419  -2.741  0.00  0.00    -0.047 A 
ATOM      6  C4  UNL d   1      -1.105   2.168  -2.202  0.00  0.00    -0.004 A 
ENDROOT
TORSDOF 0
ENDMDL
