MODEL 1
REMARK minimizedAffinity 13.5655088
REMARK minimizedRMSD -1
REMARK  1 active torsions:
REMARK  status: ('A' for Active; 'I' for Inactive)
REMARK    1  A    between atoms: C1_2  and  C2_3 
ROOT
ATOM      1  C2  UNL d   1      -3.343  -2.465   0.484  0.00  0.00    -0.073 A 
ATOM      2  C3  UNL d   1      -2.524  -1.448  -0.019  0.00  0.00    -0.002 A 
ATOM      3  C4  UNL d   1      -1.146  -1.642  -0.128  0.00  0.00     0.004 A 
ATOM      4  C5  UNL d   1      -0.575  -2.854   0.259  0.00  0.00    -0.004 A 
ATOM      5  C6  UNL d   1      -1.379  -3.886   0.753  0.00  0.00    -0.075 A 
ATOM      6  C7  UNL d   1      -0.780  -5.196   1.176  0.00  0.00     0.076 C 
ATOM      7  C8  UNL d   1      -2.761  -3.683   0.862  0.00  0.00     0.001 A 
ENDROOT
BRANCH   1   8
ATOM      8  C1  UNL d   1      -4.832  -2.262   0.597  0.00  0.00     0.053 C 
ATOM      9  C   UNL d   1      -5.559  -3.554   0.939  0.00  0.00     0.018 C 
ENDBRANCH   1   8
TORSDOF 1
ENDMDL
