MODEL 1
REMARK minimizedAffinity 7.75863552
REMARK minimizedRMSD -1
REMARK  1 active torsions:
REMARK  status: ('A' for Active; 'I' for Inactive)
REMARK    1  A    between atoms: C1_2  and  C2_3 
ROOT
ATOM      1  C2  UNL d   1      -1.703  -3.047   2.124  0.00  0.00    -0.073 A 
ATOM      2  C3  UNL d   1      -1.331  -4.309   1.647  0.00  0.00    -0.002 A 
ATOM      3  C4  UNL d   1      -1.145  -4.520   0.280  0.00  0.00     0.004 A 
ATOM      4  C5  UNL d   1      -1.322  -3.471  -0.622  0.00  0.00    -0.004 A 
ATOM      5  C6  UNL d   1      -1.683  -2.200  -0.164  0.00  0.00    -0.075 A 
ATOM      6  C7  UNL d   1      -1.880  -1.061  -1.122  0.00  0.00     0.076 C 
ATOM      7  C8  UNL d   1      -1.871  -1.997   1.210  0.00  0.00     0.001 A 
ENDROOT
BRANCH   1   8
ATOM      8  C1  UNL d   1      -1.899  -2.814   3.600  0.00  0.00     0.053 C 
ATOM      9  C   UNL d   1      -0.865  -1.854   4.167  0.00  0.00     0.018 C 
ENDBRANCH   1   8
TORSDOF 1
ENDMDL
