MODEL 1
REMARK minimizedAffinity 14.6382647
REMARK minimizedRMSD -1
REMARK  1 active torsions:
REMARK  status: ('A' for Active; 'I' for Inactive)
REMARK    1  A    between atoms: C1_2  and  C2_3 
ROOT
ATOM      1  C2  UNL d   1       3.487   2.451   2.998  0.00  0.00    -0.073 A 
ATOM      2  C3  UNL d   1       4.806   1.984   2.972  0.00  0.00    -0.002 A 
ATOM      3  C4  UNL d   1       5.393   1.597   1.767  0.00  0.00     0.004 A 
ATOM      4  C5  UNL d   1       4.672   1.679   0.576  0.00  0.00    -0.004 A 
ATOM      5  C6  UNL d   1       3.357   2.155   0.580  0.00  0.00    -0.075 A 
ATOM      6  C7  UNL d   1       2.567   2.247  -0.693  0.00  0.00     0.076 C 
ATOM      7  C8  UNL d   1       2.773   2.539   1.794  0.00  0.00     0.001 A 
ENDROOT
BRANCH   1   8
ATOM      8  C1  UNL d   1       2.850   2.876   4.296  0.00  0.00     0.053 C 
ATOM      9  C   UNL d   1       3.877   3.386   5.294  0.00  0.00     0.018 C 
ENDBRANCH   1   8
TORSDOF 1
ENDMDL
