MODEL 1
REMARK minimizedAffinity 6.99659634
REMARK minimizedRMSD -1
REMARK  1 active torsions:
REMARK  status: ('A' for Active; 'I' for Inactive)
REMARK    1  A    between atoms: C1_2  and  C2_3 
ROOT
ATOM      1  C2  UNL d   1      -1.636  -2.437   0.252  0.00  0.00    -0.073 A 
ATOM      2  C3  UNL d   1      -1.273  -2.424  -1.099  0.00  0.00    -0.002 A 
ATOM      3  C4  UNL d   1      -0.663  -3.538  -1.676  0.00  0.00     0.004 A 
ATOM      4  C5  UNL d   1      -0.416  -4.678  -0.911  0.00  0.00    -0.004 A 
ATOM      5  C6  UNL d   1      -0.783  -4.715   0.439  0.00  0.00    -0.075 A 
ATOM      6  C7  UNL d   1      -0.522  -5.932   1.276  0.00  0.00     0.076 C 
ATOM      7  C8  UNL d   1      -1.393  -3.590   1.011  0.00  0.00     0.001 A 
ENDROOT
BRANCH   1   8
ATOM      8  C1  UNL d   1      -2.301  -1.238   0.878  0.00  0.00     0.053 C 
ATOM      9  C   UNL d   1      -3.381  -0.652  -0.018  0.00  0.00     0.018 C 
ENDBRANCH   1   8
TORSDOF 1
ENDMDL
