MODEL 1
REMARK minimizedAffinity 10.2764339
REMARK minimizedRMSD -1
REMARK  1 active torsions:
REMARK  status: ('A' for Active; 'I' for Inactive)
REMARK    1  A    between atoms: C1_2  and  C2_3 
ROOT
ATOM      1  C2  UNL d   1       4.235   3.478   0.168  0.00  0.00    -0.073 A 
ATOM      2  C3  UNL d   1       4.260   2.861   1.424  0.00  0.00    -0.002 A 
ATOM      3  C4  UNL d   1       3.559   1.674   1.640  0.00  0.00     0.004 A 
ATOM      4  C5  UNL d   1       2.833   1.088   0.603  0.00  0.00    -0.004 A 
ATOM      5  C6  UNL d   1       2.806   1.683  -0.663  0.00  0.00    -0.075 A 
ATOM      6  C7  UNL d   1       2.028   1.067  -1.788  0.00  0.00     0.076 C 
ATOM      7  C8  UNL d   1       3.510   2.877  -0.871  0.00  0.00     0.001 A 
ENDROOT
BRANCH   1   8
ATOM      8  C1  UNL d   1       4.996   4.756  -0.072  0.00  0.00     0.053 C 
ATOM      9  C   UNL d   1       4.902   5.706   1.111  0.00  0.00     0.018 C 
ENDBRANCH   1   8
TORSDOF 1
ENDMDL
