MODEL 1
REMARK minimizedAffinity 8.3876543
REMARK minimizedRMSD -1
REMARK  1 active torsions:
REMARK  status: ('A' for Active; 'I' for Inactive)
REMARK    1  A    between atoms: C1_2  and  C2_3 
ROOT
ATOM      1  C2  UNL d   1       4.085   0.588  -2.510  0.00  0.00    -0.073 A 
ATOM      2  C3  UNL d   1       3.079   0.972  -3.404  0.00  0.00    -0.002 A 
ATOM      3  C4  UNL d   1       1.888   1.524  -2.931  0.00  0.00     0.004 A 
ATOM      4  C5  UNL d   1       1.692   1.703  -1.562  0.00  0.00    -0.004 A 
ATOM      5  C6  UNL d   1       2.690   1.336  -0.653  0.00  0.00    -0.075 A 
ATOM      6  C7  UNL d   1       2.494   1.520   0.823  0.00  0.00     0.076 C 
ATOM      7  C8  UNL d   1       3.882   0.781  -1.136  0.00  0.00     0.001 A 
ENDROOT
BRANCH   1   8
ATOM      8  C1  UNL d   1       5.375  -0.002  -3.016  0.00  0.00     0.053 C 
ATOM      9  C   UNL d   1       5.999   0.848  -4.112  0.00  0.00     0.018 C 
ENDBRANCH   1   8
TORSDOF 1
ENDMDL
