MODEL 1
REMARK minimizedAffinity 7.87392426
REMARK minimizedRMSD -1
REMARK  1 active torsions:
REMARK  status: ('A' for Active; 'I' for Inactive)
REMARK    1  A    between atoms: C1_2  and  C2_3 
ROOT
ATOM      1  C2  UNL d   1      -3.464   4.521  -4.862  0.00  0.00    -0.073 A 
ATOM      2  C3  UNL d   1      -4.611   4.908  -5.563  0.00  0.00    -0.002 A 
ATOM      3  C4  UNL d   1      -5.615   5.638  -4.925  0.00  0.00     0.004 A 
ATOM      4  C5  UNL d   1      -5.478   5.994  -3.583  0.00  0.00    -0.004 A 
ATOM      5  C6  UNL d   1      -4.333   5.627  -2.869  0.00  0.00    -0.075 A 
ATOM      6  C7  UNL d   1      -4.172   6.000  -1.425  0.00  0.00     0.076 C 
ATOM      7  C8  UNL d   1      -3.331   4.891  -3.517  0.00  0.00     0.001 A 
ENDROOT
BRANCH   1   8
ATOM      8  C1  UNL d   1      -2.375   3.738  -5.550  0.00  0.00     0.053 C 
ATOM      9  C   UNL d   1      -1.249   3.370  -4.596  0.00  0.00     0.018 C 
ENDBRANCH   1   8
TORSDOF 1
ENDMDL
