MODEL 1
REMARK minimizedAffinity 13.022254
REMARK minimizedRMSD -1
REMARK  1 active torsions:
REMARK  status: ('A' for Active; 'I' for Inactive)
REMARK    1  A    between atoms: C1_2  and  C2_3 
ROOT
ATOM      1  C2  UNL d   1      -2.909   0.731   5.899  0.00  0.00    -0.073 A 
ATOM      2  C3  UNL d   1      -4.090  -0.018   5.909  0.00  0.00    -0.002 A 
ATOM      3  C4  UNL d   1      -5.330   0.620   5.957  0.00  0.00     0.004 A 
ATOM      4  C5  UNL d   1      -5.401   2.013   5.987  0.00  0.00    -0.004 A 
ATOM      5  C6  UNL d   1      -4.232   2.780   5.965  0.00  0.00    -0.075 A 
ATOM      6  C7  UNL d   1      -4.292   4.279   5.999  0.00  0.00     0.076 C 
ATOM      7  C8  UNL d   1      -2.991   2.131   5.920  0.00  0.00     0.001 A 
ENDROOT
BRANCH   1   8
ATOM      8  C1  UNL d   1      -1.568   0.046   5.841  0.00  0.00     0.053 C 
ATOM      9  C   UNL d   1      -1.668  -1.355   5.258  0.00  0.00     0.018 C 
ENDBRANCH   1   8
TORSDOF 1
ENDMDL
