MODEL 1
REMARK minimizedAffinity 11.0829258
REMARK minimizedRMSD -1
REMARK  1 active torsions:
REMARK  status: ('A' for Active; 'I' for Inactive)
REMARK    1  A    between atoms: C1_2  and  C2_3 
ROOT
ATOM      1  C2  UNL d   1      -3.149  -0.583   5.603  0.00  0.00    -0.073 A 
ATOM      2  C3  UNL d   1      -3.855  -1.558   4.890  0.00  0.00    -0.002 A 
ATOM      3  C4  UNL d   1      -3.235  -2.756   4.531  0.00  0.00     0.004 A 
ATOM      4  C5  UNL d   1      -1.908  -2.993   4.888  0.00  0.00    -0.004 A 
ATOM      5  C6  UNL d   1      -1.189  -2.035   5.611  0.00  0.00    -0.075 A 
ATOM      6  C7  UNL d   1       0.240  -2.275   6.000  0.00  0.00     0.076 C 
ATOM      7  C8  UNL d   1      -1.818  -0.834   5.965  0.00  0.00     0.001 A 
ENDROOT
BRANCH   1   8
ATOM      8  C1  UNL d   1      -3.817   0.709   5.998  0.00  0.00     0.053 C 
ATOM      9  C   UNL d   1      -5.333   0.591   5.999  0.00  0.00     0.018 C 
ENDBRANCH   1   8
TORSDOF 1
ENDMDL
