MODEL 1
REMARK minimizedAffinity 6.70844603
REMARK minimizedRMSD -1
REMARK  1 active torsions:
REMARK  status: ('A' for Active; 'I' for Inactive)
REMARK    1  A    between atoms: C1_2  and  C2_3 
ROOT
ATOM      1  C2  UNL d   1      -2.462   3.528  -4.768  0.00  0.00    -0.073 A 
ATOM      2  C3  UNL d   1      -2.213   4.676  -4.007  0.00  0.00    -0.002 A 
ATOM      3  C4  UNL d   1      -3.183   5.674  -3.899  0.00  0.00     0.004 A 
ATOM      4  C5  UNL d   1      -4.412   5.531  -4.543  0.00  0.00    -0.004 A 
ATOM      5  C6  UNL d   1      -4.684   4.386  -5.298  0.00  0.00    -0.075 A 
ATOM      6  C7  UNL d   1      -6.000   4.218  -5.999  0.00  0.00     0.076 C 
ATOM      7  C8  UNL d   1      -3.704   3.389  -5.404  0.00  0.00     0.001 A 
ENDROOT
BRANCH   1   8
ATOM      8  C1  UNL d   1      -1.421   2.445  -4.882  0.00  0.00     0.053 C 
ATOM      9  C   UNL d   1      -0.067   2.997  -5.297  0.00  0.00     0.018 C 
ENDBRANCH   1   8
TORSDOF 1
ENDMDL
