MODEL 1
REMARK minimizedAffinity 18.8701229
REMARK minimizedRMSD -1
REMARK  1 active torsions:
REMARK  status: ('A' for Active; 'I' for Inactive)
REMARK    1  A    between atoms: C1_2  and  C2_3 
ROOT
ATOM      1  C2  UNL d   1      -2.201  -1.359   0.006  0.00  0.00    -0.073 A 
ATOM      2  C3  UNL d   1      -1.841  -1.190   1.348  0.00  0.00    -0.002 A 
ATOM      3  C4  UNL d   1      -2.823  -1.022   2.325  0.00  0.00     0.004 A 
ATOM      4  C5  UNL d   1      -4.173  -1.028   1.973  0.00  0.00    -0.004 A 
ATOM      5  C6  UNL d   1      -4.552  -1.207   0.639  0.00  0.00    -0.075 A 
ATOM      6  C7  UNL d   1      -6.000  -1.213   0.243  0.00  0.00     0.076 C 
ATOM      7  C8  UNL d   1      -3.560  -1.372  -0.337  0.00  0.00     0.001 A 
ENDROOT
BRANCH   1   8
ATOM      8  C1  UNL d   1      -1.144  -1.547  -1.052  0.00  0.00     0.053 C 
ATOM      9  C   UNL d   1      -1.723  -1.468  -2.456  0.00  0.00     0.018 C 
ENDBRANCH   1   8
TORSDOF 1
ENDMDL
