MODEL 1
REMARK minimizedAffinity -2.44553113
REMARK minimizedRMSD -1
REMARK  2 active torsions:
REMARK  status: ('A' for Active; 'I' for Inactive)
REMARK    1  A    between atoms: C1_2  and  C2_3 
REMARK    2  A    between atoms: C2_3  and  C3_4 
ROOT
ATOM      1  C3  UNL d   1      -0.838  -1.270   1.220  0.00  0.00    -0.075 A 
ATOM      2  C4  UNL d   1      -1.905  -0.542   1.768  0.00  0.00     0.002 A 
ATOM      3  C5  UNL d   1      -2.044   0.820   1.501  0.00  0.00     0.002 A 
ATOM      4  C6  UNL d   1      -1.115   1.473   0.693  0.00  0.00    -0.004 A 
ATOM      5  C7  UNL d   1      -0.043   0.763   0.157  0.00  0.00     0.002 A 
ATOM      6  C8  UNL d   1       0.096  -0.601   0.419  0.00  0.00     0.002 A 
ENDROOT
BRANCH   1   7
ATOM      7  C2  UNL d   1      -0.699  -2.751   1.481  0.00  0.00     0.056 C 
BRANCH   7   8
ATOM      8  C1  UNL d   1      -1.334  -3.637   0.404  0.00  0.00     0.007 C 
ATOM      9  C   UNL d   1      -2.814  -3.350   0.186  0.00  0.00     0.009 C 
ENDBRANCH   7   8
ENDBRANCH   1   7
TORSDOF 2
ENDMDL
