MODEL 1
REMARK minimizedAffinity -3.41985297
REMARK minimizedRMSD -1
REMARK  2 active torsions:
REMARK  status: ('A' for Active; 'I' for Inactive)
REMARK    1  A    between atoms: C1_2  and  C2_3 
REMARK    2  A    between atoms: C2_3  and  C3_4 
ROOT
ATOM      1  C3  UNL d   1       0.815  -1.247  -0.228  0.00  0.00    -0.075 A 
ATOM      2  C4  UNL d   1       0.559  -0.167   0.629  0.00  0.00     0.002 A 
ATOM      3  C5  UNL d   1       0.273   1.096   0.110  0.00  0.00     0.002 A 
ATOM      4  C6  UNL d   1       0.248   1.297  -1.268  0.00  0.00    -0.004 A 
ATOM      5  C7  UNL d   1       0.517   0.235  -2.129  0.00  0.00     0.002 A 
ATOM      6  C8  UNL d   1       0.800  -1.031  -1.612  0.00  0.00     0.002 A 
ENDROOT
BRANCH   1   7
ATOM      7  C2  UNL d   1       1.097  -2.623   0.327  0.00  0.00     0.056 C 
BRANCH   7   8
ATOM      8  C1  UNL d   1      -0.137  -3.528   0.407  0.00  0.00     0.007 C 
ATOM      9  C   UNL d   1      -1.441  -2.754   0.551  0.00  0.00     0.009 C 
ENDBRANCH   7   8
ENDBRANCH   1   7
TORSDOF 2
ENDMDL
