MODEL 1
REMARK minimizedAffinity -2.38192201
REMARK minimizedRMSD -1
REMARK  2 active torsions:
REMARK  status: ('A' for Active; 'I' for Inactive)
REMARK    1  A    between atoms: C1_2  and  C2_3 
REMARK    2  A    between atoms: C2_3  and  C3_4 
ROOT
ATOM      1  C3  UNL d   1      -0.554  -1.107  -0.072  0.00  0.00    -0.075 A 
ATOM      2  C4  UNL d   1       0.684  -1.029  -0.726  0.00  0.00     0.002 A 
ATOM      3  C5  UNL d   1       1.281  -2.176  -1.251  0.00  0.00     0.002 A 
ATOM      4  C6  UNL d   1       0.654  -3.413  -1.120  0.00  0.00    -0.004 A 
ATOM      5  C7  UNL d   1      -0.568  -3.505  -0.457  0.00  0.00     0.002 A 
ATOM      6  C8  UNL d   1      -1.169  -2.359   0.065  0.00  0.00     0.002 A 
ENDROOT
BRANCH   1   7
ATOM      7  C2  UNL d   1      -1.220   0.134   0.473  0.00  0.00     0.056 C 
BRANCH   7   8
ATOM      8  C1  UNL d   1      -2.684  -0.069   0.876  0.00  0.00     0.007 C 
ATOM      9  C   UNL d   1      -2.950   0.235   2.344  0.00  0.00     0.009 C 
ENDBRANCH   7   8
ENDBRANCH   1   7
TORSDOF 2
ENDMDL
