MODEL 1
REMARK minimizedAffinity -3.50829935
REMARK minimizedRMSD -1
REMARK  2 active torsions:
REMARK  status: ('A' for Active; 'I' for Inactive)
REMARK    1  A    between atoms: C1_2  and  C2_3 
REMARK    2  A    between atoms: C2_3  and  C3_4 
ROOT
ATOM      1  C3  UNL d   1       0.698   2.118   0.416  0.00  0.00    -0.075 A 
ATOM      2  C4  UNL d   1       2.073   1.963   0.188  0.00  0.00     0.002 A 
ATOM      3  C5  UNL d   1       2.969   2.967   0.557  0.00  0.00     0.002 A 
ATOM      4  C6  UNL d   1       2.503   4.139   1.147  0.00  0.00    -0.004 A 
ATOM      5  C7  UNL d   1       1.137   4.311   1.363  0.00  0.00     0.002 A 
ATOM      6  C8  UNL d   1       0.238   3.307   0.999  0.00  0.00     0.002 A 
ENDROOT
BRANCH   1   7
ATOM      7  C2  UNL d   1      -0.275   1.024   0.046  0.00  0.00     0.056 C 
BRANCH   7   8
ATOM      8  C1  UNL d   1       0.050   0.321  -1.276  0.00  0.00     0.007 C 
ATOM      9  C   UNL d   1       0.276  -1.176  -1.121  0.00  0.00     0.009 C 
ENDBRANCH   7   8
ENDBRANCH   1   7
TORSDOF 2
ENDMDL
