MODEL 1
REMARK minimizedAffinity 0.0161385424
REMARK minimizedRMSD -1
REMARK  2 active torsions:
REMARK  status: ('A' for Active; 'I' for Inactive)
REMARK    1  A    between atoms: C1_2  and  C2_3 
REMARK    2  A    between atoms: C2_3  and  C3_4 
ROOT
ATOM      1  C3  UNL d   1      -0.541  -2.253   0.334  0.00  0.00    -0.075 A 
ATOM      2  C4  UNL d   1      -0.468  -0.914   0.747  0.00  0.00     0.002 A 
ATOM      3  C5  UNL d   1      -1.547  -0.312   1.394  0.00  0.00     0.002 A 
ATOM      4  C6  UNL d   1      -2.714  -1.036   1.628  0.00  0.00    -0.004 A 
ATOM      5  C7  UNL d   1      -2.804  -2.361   1.208  0.00  0.00     0.002 A 
ATOM      6  C8  UNL d   1      -1.725  -2.967   0.564  0.00  0.00     0.002 A 
ENDROOT
BRANCH   1   7
ATOM      7  C2  UNL d   1       0.634  -2.919  -0.340  0.00  0.00     0.056 C 
BRANCH   7   8
ATOM      8  C1  UNL d   1       1.616  -1.940  -0.993  0.00  0.00     0.007 C 
ATOM      9  C   UNL d   1       1.198  -1.517  -2.396  0.00  0.00     0.009 C 
ENDBRANCH   7   8
ENDBRANCH   1   7
TORSDOF 2
ENDMDL
