MODEL 1
REMARK minimizedAffinity -5.77949095
REMARK minimizedRMSD -1
REMARK  2 active torsions:
REMARK  status: ('A' for Active; 'I' for Inactive)
REMARK    1  A    between atoms: C1_2  and  C2_3 
REMARK    2  A    between atoms: C2_3  and  C3_4 
ROOT
ATOM      1  C3  UNL d   1      -0.230   0.373   0.202  0.00  0.00    -0.075 A 
ATOM      2  C4  UNL d   1       0.453  -0.731  -0.329  0.00  0.00     0.002 A 
ATOM      3  C5  UNL d   1       0.118  -2.027   0.063  0.00  0.00     0.002 A 
ATOM      4  C6  UNL d   1      -0.895  -2.236   0.995  0.00  0.00    -0.004 A 
ATOM      5  C7  UNL d   1      -1.570  -1.146   1.542  0.00  0.00     0.002 A 
ATOM      6  C8  UNL d   1      -1.239   0.152   1.149  0.00  0.00     0.002 A 
ENDROOT
BRANCH   1   7
ATOM      7  C2  UNL d   1       0.108   1.777  -0.240  0.00  0.00     0.056 C 
BRANCH   7   8
ATOM      8  C1  UNL d   1       1.561   2.183   0.032  0.00  0.00     0.007 C 
ATOM      9  C   UNL d   1       1.699   3.613   0.539  0.00  0.00     0.009 C 
ENDBRANCH   7   8
ENDBRANCH   1   7
TORSDOF 2
ENDMDL
