MODEL 1
REMARK minimizedAffinity -4.15649223
REMARK minimizedRMSD -1
REMARK  2 active torsions:
REMARK  status: ('A' for Active; 'I' for Inactive)
REMARK    1  A    between atoms: C1_2  and  C2_3 
REMARK    2  A    between atoms: C2_3  and  C3_4 
ROOT
ATOM      1  C3  UNL d   1       0.593   1.768   0.111  0.00  0.00    -0.075 A 
ATOM      2  C4  UNL d   1       1.930   2.099  -0.152  0.00  0.00     0.002 A 
ATOM      3  C5  UNL d   1       2.427   3.359   0.182  0.00  0.00     0.002 A 
ATOM      4  C6  UNL d   1       1.592   4.306   0.772  0.00  0.00    -0.004 A 
ATOM      5  C7  UNL d   1       0.258   3.994   1.022  0.00  0.00     0.002 A 
ATOM      6  C8  UNL d   1      -0.240   2.732   0.694  0.00  0.00     0.002 A 
ENDROOT
BRANCH   1   7
ATOM      7  C2  UNL d   1       0.057   0.395  -0.220  0.00  0.00     0.056 C 
BRANCH   7   8
ATOM      8  C1  UNL d   1      -0.555  -0.341   0.976  0.00  0.00     0.007 C 
ATOM      9  C   UNL d   1      -0.370  -1.851   0.909  0.00  0.00     0.009 C 
ENDBRANCH   7   8
ENDBRANCH   1   7
TORSDOF 2
ENDMDL
