MODEL 1
REMARK minimizedAffinity -6.05382347
REMARK minimizedRMSD -1
REMARK  2 active torsions:
REMARK  status: ('A' for Active; 'I' for Inactive)
REMARK    1  A    between atoms: C1_2  and  C2_3 
REMARK    2  A    between atoms: C2_3  and  C3_4 
ROOT
ATOM      1  C3  UNL d   1       0.108  -0.134   0.298  0.00  0.00    -0.075 A 
ATOM      2  C4  UNL d   1       0.743  -0.981  -0.621  0.00  0.00     0.002 A 
ATOM      3  C5  UNL d   1       0.600  -2.366  -0.524  0.00  0.00     0.002 A 
ATOM      4  C6  UNL d   1      -0.169  -2.920   0.498  0.00  0.00    -0.004 A 
ATOM      5  C7  UNL d   1      -0.790  -2.087   1.427  0.00  0.00     0.002 A 
ATOM      6  C8  UNL d   1      -0.652  -0.702   1.329  0.00  0.00     0.002 A 
ENDROOT
BRANCH   1   7
ATOM      7  C2  UNL d   1       0.235   1.367   0.181  0.00  0.00     0.056 C 
BRANCH   7   8
ATOM      8  C1  UNL d   1       1.672   1.883   0.306  0.00  0.00     0.007 C 
ATOM      9  C   UNL d   1       1.833   2.959   1.371  0.00  0.00     0.009 C 
ENDBRANCH   7   8
ENDBRANCH   1   7
TORSDOF 2
ENDMDL
