MODEL 1
REMARK minimizedAffinity -5.60292912
REMARK minimizedRMSD -1
REMARK  2 active torsions:
REMARK  status: ('A' for Active; 'I' for Inactive)
REMARK    1  A    between atoms: C1_2  and  C2_3 
REMARK    2  A    between atoms: C2_3  and  C3_4 
ROOT
ATOM      1  C3  UNL d   1      -0.306  -0.645   0.571  0.00  0.00    -0.075 A 
ATOM      2  C4  UNL d   1       0.544  -1.394  -0.256  0.00  0.00     0.002 A 
ATOM      3  C5  UNL d   1       0.380  -2.775  -0.374  0.00  0.00     0.002 A 
ATOM      4  C6  UNL d   1      -0.626  -3.423   0.339  0.00  0.00    -0.004 A 
ATOM      5  C7  UNL d   1      -1.464  -2.691   1.177  0.00  0.00     0.002 A 
ATOM      6  C8  UNL d   1      -1.306  -1.309   1.293  0.00  0.00     0.002 A 
ENDROOT
BRANCH   1   7
ATOM      7  C2  UNL d   1      -0.153   0.854   0.680  0.00  0.00     0.056 C 
BRANCH   7   8
ATOM      8  C1  UNL d   1      -0.121   1.577  -0.671  0.00  0.00     0.007 C 
ATOM      9  C   UNL d   1       0.355   3.020  -0.568  0.00  0.00     0.009 C 
ENDBRANCH   7   8
ENDBRANCH   1   7
TORSDOF 2
ENDMDL
