MODEL 1
REMARK minimizedAffinity -4.71762943
REMARK minimizedRMSD -1
REMARK  2 active torsions:
REMARK  status: ('A' for Active; 'I' for Inactive)
REMARK    1  A    between atoms: C1_2  and  C2_3 
REMARK    2  A    between atoms: C2_3  and  C3_4 
ROOT
ATOM      1  C3  UNL d   1      -0.236  -0.573   0.141  0.00  0.00    -0.075 A 
ATOM      2  C4  UNL d   1       0.346  -1.587  -0.633  0.00  0.00     0.002 A 
ATOM      3  C5  UNL d   1      -0.067  -2.912  -0.491  0.00  0.00     0.002 A 
ATOM      4  C6  UNL d   1      -1.058  -3.241   0.431  0.00  0.00    -0.004 A 
ATOM      5  C7  UNL d   1      -1.631  -2.244   1.218  0.00  0.00     0.002 A 
ATOM      6  C8  UNL d   1      -1.223  -0.917   1.075  0.00  0.00     0.002 A 
ENDROOT
BRANCH   1   7
ATOM      7  C2  UNL d   1       0.186   0.867  -0.028  0.00  0.00     0.056 C 
BRANCH   7   8
ATOM      8  C1  UNL d   1       1.640   1.142   0.373  0.00  0.00     0.007 C 
ATOM      9  C   UNL d   1       2.005   2.620   0.329  0.00  0.00     0.009 C 
ENDBRANCH   7   8
ENDBRANCH   1   7
TORSDOF 2
ENDMDL
