MODEL 1
REMARK minimizedAffinity -2.3839817
REMARK minimizedRMSD -1
REMARK  2 active torsions:
REMARK  status: ('A' for Active; 'I' for Inactive)
REMARK    1  A    between atoms: C1_2  and  C2_3 
REMARK    2  A    between atoms: C2_3  and  C3_4 
ROOT
ATOM      1  C3  UNL d   1      -0.352  -0.273   0.217  0.00  0.00    -0.075 A 
ATOM      2  C4  UNL d   1      -1.612  -0.842   0.456  0.00  0.00     0.002 A 
ATOM      3  C5  UNL d   1      -1.837  -2.196   0.208  0.00  0.00     0.002 A 
ATOM      4  C6  UNL d   1      -0.810  -2.996  -0.290  0.00  0.00    -0.004 A 
ATOM      5  C7  UNL d   1       0.440  -2.438  -0.547  0.00  0.00     0.002 A 
ATOM      6  C8  UNL d   1       0.669  -1.084  -0.296  0.00  0.00     0.002 A 
ENDROOT
BRANCH   1   7
ATOM      7  C2  UNL d   1      -0.094   1.185   0.511  0.00  0.00     0.056 C 
BRANCH   7   8
ATOM      8  C1  UNL d   1       1.029   1.802  -0.329  0.00  0.00     0.007 C 
ATOM      9  C   UNL d   1       1.438   3.191   0.142  0.00  0.00     0.009 C 
ENDBRANCH   7   8
ENDBRANCH   1   7
TORSDOF 2
ENDMDL
