MODEL 1
REMARK minimizedAffinity -4.22506666
REMARK minimizedRMSD -1
REMARK  2 active torsions:
REMARK  status: ('A' for Active; 'I' for Inactive)
REMARK    1  A    between atoms: C1_2  and  C2_3 
REMARK    2  A    between atoms: C2_3  and  C3_4 
ROOT
ATOM      1  C3  UNL d   1      -0.340  -0.396   0.392  0.00  0.00    -0.075 A 
ATOM      2  C4  UNL d   1       0.849  -1.005  -0.034  0.00  0.00     0.002 A 
ATOM      3  C5  UNL d   1       0.954  -2.395  -0.086  0.00  0.00     0.002 A 
ATOM      4  C6  UNL d   1      -0.122  -3.193   0.295  0.00  0.00    -0.004 A 
ATOM      5  C7  UNL d   1      -1.303  -2.599   0.735  0.00  0.00     0.002 A 
ATOM      6  C8  UNL d   1      -1.413  -1.208   0.784  0.00  0.00     0.002 A 
ENDROOT
BRANCH   1   7
ATOM      7  C2  UNL d   1      -0.470   1.108   0.423  0.00  0.00     0.056 C 
BRANCH   7   8
ATOM      8  C1  UNL d   1       0.802   1.853   0.005  0.00  0.00     0.007 C 
ATOM      9  C   UNL d   1       1.006   3.161   0.757  0.00  0.00     0.009 C 
ENDBRANCH   7   8
ENDBRANCH   1   7
TORSDOF 2
ENDMDL
