MODEL 1
REMARK minimizedAffinity -5.16019917
REMARK minimizedRMSD -1
REMARK  2 active torsions:
REMARK  status: ('A' for Active; 'I' for Inactive)
REMARK    1  A    between atoms: C1_2  and  C2_3 
REMARK    2  A    between atoms: C2_3  and  C3_4 
ROOT
ATOM      1  C3  UNL d   1      -0.313  -0.393   0.223  0.00  0.00    -0.075 A 
ATOM      2  C4  UNL d   1      -1.302  -0.830   1.116  0.00  0.00     0.002 A 
ATOM      3  C5  UNL d   1      -1.393  -2.176   1.470  0.00  0.00     0.002 A 
ATOM      4  C6  UNL d   1      -0.505  -3.103   0.928  0.00  0.00    -0.004 A 
ATOM      5  C7  UNL d   1       0.471  -2.683   0.027  0.00  0.00     0.002 A 
ATOM      6  C8  UNL d   1       0.567  -1.336  -0.324  0.00  0.00     0.002 A 
ENDROOT
BRANCH   1   7
ATOM      7  C2  UNL d   1      -0.191   1.068  -0.140  0.00  0.00     0.056 C 
BRANCH   7   8
ATOM      8  C1  UNL d   1       1.131   1.710   0.294  0.00  0.00     0.007 C 
ATOM      9  C   UNL d   1       0.977   3.158   0.740  0.00  0.00     0.009 C 
ENDBRANCH   7   8
ENDBRANCH   1   7
TORSDOF 2
ENDMDL
