MODEL 1
REMARK minimizedAffinity -4.55462456
REMARK minimizedRMSD -1
REMARK  2 active torsions:
REMARK  status: ('A' for Active; 'I' for Inactive)
REMARK    1  A    between atoms: C1_2  and  C2_3 
REMARK    2  A    between atoms: C2_3  and  C3_4 
ROOT
ATOM      1  C3  UNL d   1      -0.375  -1.221   0.269  0.00  0.00    -0.075 A 
ATOM      2  C4  UNL d   1       0.102  -1.512  -1.017  0.00  0.00     0.002 A 
ATOM      3  C5  UNL d   1       0.040  -2.813  -1.518  0.00  0.00     0.002 A 
ATOM      4  C6  UNL d   1      -0.488  -3.839  -0.738  0.00  0.00    -0.004 A 
ATOM      5  C7  UNL d   1      -0.949  -3.565   0.548  0.00  0.00     0.002 A 
ATOM      6  C8  UNL d   1      -0.893  -2.263   1.050  0.00  0.00     0.002 A 
ENDROOT
BRANCH   1   7
ATOM      7  C2  UNL d   1      -0.338   0.189   0.806  0.00  0.00     0.056 C 
BRANCH   7   8
ATOM      8  C1  UNL d   1       0.168   1.227  -0.202  0.00  0.00     0.007 C 
ATOM      9  C   UNL d   1       1.236   2.149   0.371  0.00  0.00     0.009 C 
ENDBRANCH   7   8
ENDBRANCH   1   7
TORSDOF 2
ENDMDL
