MODEL 1
REMARK minimizedAffinity -5.43224287
REMARK minimizedRMSD -1
REMARK  2 active torsions:
REMARK  status: ('A' for Active; 'I' for Inactive)
REMARK    1  A    between atoms: C1_2  and  C2_3 
REMARK    2  A    between atoms: C2_3  and  C3_4 
ROOT
ATOM      1  C3  UNL d   1       0.099  -0.206  -0.129  0.00  0.00    -0.075 A 
ATOM      2  C4  UNL d   1      -0.653  -0.103   1.051  0.00  0.00     0.002 A 
ATOM      3  C5  UNL d   1      -1.246  -1.234   1.614  0.00  0.00     0.002 A 
ATOM      4  C6  UNL d   1      -1.102  -2.477   1.001  0.00  0.00    -0.004 A 
ATOM      5  C7  UNL d   1      -0.371  -2.588  -0.179  0.00  0.00     0.002 A 
ATOM      6  C8  UNL d   1       0.226  -1.459  -0.743  0.00  0.00     0.002 A 
ENDROOT
BRANCH   1   7
ATOM      7  C2  UNL d   1       0.767   1.009  -0.727  0.00  0.00     0.056 C 
BRANCH   7   8
ATOM      8  C1  UNL d   1       0.983   2.155   0.267  0.00  0.00     0.007 C 
ATOM      9  C   UNL d   1       2.239   2.968  -0.017  0.00  0.00     0.009 C 
ENDBRANCH   7   8
ENDBRANCH   1   7
TORSDOF 2
ENDMDL
