MODEL 1
REMARK minimizedAffinity -1.14629352
REMARK minimizedRMSD -1
REMARK  1 active torsions:
REMARK  status: ('A' for Active; 'I' for Inactive)
REMARK    1  A    between atoms: C1_2  and  C2_3 
ROOT
ATOM      1  C2  UNL d   1       0.515  -2.018  -1.092  0.00  0.00    -0.081 A 
ATOM      2  C3  UNL d   1       0.667  -1.612   0.240  0.00  0.00     0.006 A 
ATOM      3  C4  UNL d   1       0.414  -0.289   0.610  0.00  0.00     0.002 A 
ATOM      4  C5  UNL d   1      -0.004   0.647  -0.342  0.00  0.00    -0.080 A 
ATOM      5  C6  UNL d   1      -0.309   2.063   0.049  0.00  0.00     0.076 C 
ATOM      6  C7  UNL d   1      -0.140   0.246  -1.675  0.00  0.00     0.002 A 
ATOM      7  C8  UNL d   1       0.114  -1.076  -2.046  0.00  0.00     0.006 A 
ENDROOT
BRANCH   1   8
ATOM      8  C1  UNL d   1       0.725  -3.458  -1.483  0.00  0.00     0.054 C 
ATOM      9  C   UNL d   1      -0.583  -4.236  -1.456  0.00  0.00     0.018 C 
ENDBRANCH   1   8
TORSDOF 1
ENDMDL
