MODEL 1
REMARK minimizedAffinity -5.8671813
REMARK minimizedRMSD -1
REMARK  1 active torsions:
REMARK  status: ('A' for Active; 'I' for Inactive)
REMARK    1  A    between atoms: C1_2  and  C2_3 
ROOT
ATOM      1  C2  UNL d   1       0.041   1.379  -0.522  0.00  0.00    -0.081 A 
ATOM      2  C3  UNL d   1      -0.129   2.483  -1.368  0.00  0.00     0.006 A 
ATOM      3  C4  UNL d   1      -0.773   3.634  -0.908  0.00  0.00     0.002 A 
ATOM      4  C5  UNL d   1      -1.250   3.704   0.405  0.00  0.00    -0.080 A 
ATOM      5  C6  UNL d   1      -1.917   4.945   0.920  0.00  0.00     0.076 C 
ATOM      6  C7  UNL d   1      -1.096   2.595   1.244  0.00  0.00     0.002 A 
ATOM      7  C8  UNL d   1      -0.453   1.444   0.785  0.00  0.00     0.006 A 
ENDROOT
BRANCH   1   8
ATOM      8  C1  UNL d   1       0.792   0.161  -0.995  0.00  0.00     0.054 C 
ATOM      9  C   UNL d   1       0.127  -1.121  -0.513  0.00  0.00     0.018 C 
ENDBRANCH   1   8
TORSDOF 1
ENDMDL
