MODEL 1
REMARK minimizedAffinity -3.63216257
REMARK minimizedRMSD -1
REMARK  1 active torsions:
REMARK  status: ('A' for Active; 'I' for Inactive)
REMARK    1  A    between atoms: C1_2  and  C2_3 
ROOT
ATOM      1  C2  UNL d   1      -0.308   1.109   1.473  0.00  0.00    -0.081 A 
ATOM      2  C3  UNL d   1      -0.201   0.546   0.195  0.00  0.00     0.006 A 
ATOM      3  C4  UNL d   1      -0.697   1.225  -0.920  0.00  0.00     0.002 A 
ATOM      4  C5  UNL d   1      -1.300   2.479  -0.779  0.00  0.00    -0.080 A 
ATOM      5  C6  UNL d   1      -1.810   3.231  -1.972  0.00  0.00     0.076 C 
ATOM      6  C7  UNL d   1      -1.423   3.033   0.500  0.00  0.00     0.002 A 
ATOM      7  C8  UNL d   1      -0.928   2.355   1.616  0.00  0.00     0.006 A 
ENDROOT
BRANCH   1   8
ATOM      8  C1  UNL d   1       0.284   0.409   2.670  0.00  0.00     0.054 C 
ATOM      9  C   UNL d   1       1.398  -0.543   2.260  0.00  0.00     0.018 C 
ENDBRANCH   1   8
TORSDOF 1
ENDMDL
