MODEL 1
REMARK minimizedAffinity 5.59965849
REMARK minimizedRMSD -1
REMARK  1 active torsions:
REMARK  status: ('A' for Active; 'I' for Inactive)
REMARK    1  A    between atoms: C1_2  and  C2_3 
ROOT
ATOM      1  C2  UNL d   1      -0.191   1.685   0.369  0.00  0.00    -0.081 A 
ATOM      2  C3  UNL d   1       0.480   2.894   0.146  0.00  0.00     0.006 A 
ATOM      3  C4  UNL d   1       1.075   3.579   1.208  0.00  0.00     0.002 A 
ATOM      4  C5  UNL d   1       1.017   3.064   2.507  0.00  0.00    -0.080 A 
ATOM      5  C6  UNL d   1       1.679   3.774   3.651  0.00  0.00     0.076 C 
ATOM      6  C7  UNL d   1       0.332   1.865   2.732  0.00  0.00     0.002 A 
ATOM      7  C8  UNL d   1      -0.265   1.180   1.671  0.00  0.00     0.006 A 
ENDROOT
BRANCH   1   8
ATOM      8  C1  UNL d   1      -0.779   0.912  -0.784  0.00  0.00     0.054 C 
ATOM      9  C   UNL d   1       0.105  -0.267  -1.167  0.00  0.00     0.018 C 
ENDBRANCH   1   8
TORSDOF 1
ENDMDL
