MODEL 1
REMARK minimizedAffinity -0.978622675
REMARK minimizedRMSD -1
REMARK  0 active torsions:
REMARK  status: ('A' for Active; 'I' for Inactive)
ROOT
ATOM      1  C   UNL d   1       2.163  -0.622   2.652  0.00  0.00     0.077 C 
ATOM      2  C1  UNL d   1       1.498  -0.663   1.308  0.00  0.00    -0.074 A 
ATOM      3  C2  UNL d   1       1.982  -1.493   0.292  0.00  0.00    -0.005 A 
ATOM      4  C3  UNL d   1       1.348  -1.528  -0.950  0.00  0.00     0.006 A 
ATOM      5  C4  UNL d   1       0.225  -0.734  -1.188  0.00  0.00    -0.005 A 
ATOM      6  C5  UNL d   1      -0.273   0.102  -0.183  0.00  0.00    -0.074 A 
ATOM      7  C6  UNL d   1      -1.485   0.954  -0.419  0.00  0.00     0.077 C 
ATOM      8  C7  UNL d   1       0.365   0.126   1.064  0.00  0.00    -0.001 A 
ENDROOT
TORSDOF 0
ENDMDL
