MODEL 1
REMARK minimizedAffinity -5.54059124
REMARK minimizedRMSD -1
REMARK  0 active torsions:
REMARK  status: ('A' for Active; 'I' for Inactive)
ROOT
ATOM      1  C   UNL d   1       3.415   0.292   0.574  0.00  0.00     0.077 C 
ATOM      2  C1  UNL d   1       2.109  -0.305   0.140  0.00  0.00    -0.074 A 
ATOM      3  C2  UNL d   1       2.056  -1.579  -0.433  0.00  0.00    -0.005 A 
ATOM      4  C3  UNL d   1       0.833  -2.125  -0.823  0.00  0.00     0.006 A 
ATOM      5  C4  UNL d   1      -0.348  -1.402  -0.645  0.00  0.00    -0.005 A 
ATOM      6  C5  UNL d   1      -0.314  -0.127  -0.072  0.00  0.00    -0.074 A 
ATOM      7  C6  UNL d   1      -1.575   0.659   0.136  0.00  0.00     0.077 C 
ATOM      8  C7  UNL d   1       0.918   0.411   0.324  0.00  0.00    -0.001 A 
ENDROOT
TORSDOF 0
ENDMDL
