MODEL 1
REMARK minimizedAffinity -4.89473963
REMARK minimizedRMSD -1
REMARK  0 active torsions:
REMARK  status: ('A' for Active; 'I' for Inactive)
ROOT
ATOM      1  C   UNL d   1       3.386   1.866   0.686  0.00  0.00     0.077 C 
ATOM      2  C1  UNL d   1       2.445   0.734   0.402  0.00  0.00    -0.074 A 
ATOM      3  C2  UNL d   1       2.887  -0.593   0.426  0.00  0.00    -0.005 A 
ATOM      4  C3  UNL d   1       1.997  -1.636   0.168  0.00  0.00     0.006 A 
ATOM      5  C4  UNL d   1       0.658  -1.363  -0.115  0.00  0.00    -0.005 A 
ATOM      6  C5  UNL d   1       0.198  -0.043  -0.143  0.00  0.00    -0.074 A 
ATOM      7  C6  UNL d   1      -1.240   0.267  -0.436  0.00  0.00     0.077 C 
ATOM      8  C7  UNL d   1       1.096   0.999   0.124  0.00  0.00    -0.001 A 
ENDROOT
TORSDOF 0
ENDMDL
