MODEL 1
REMARK minimizedAffinity -4.46199703
REMARK minimizedRMSD -1
REMARK  0 active torsions:
REMARK  status: ('A' for Active; 'I' for Inactive)
ROOT
ATOM      1  C   UNL d   1      -1.350   1.780   0.648  0.00  0.00     0.077 C 
ATOM      2  C1  UNL d   1      -0.647   0.508   0.278  0.00  0.00    -0.074 A 
ATOM      3  C2  UNL d   1      -1.273  -0.452  -0.525  0.00  0.00    -0.005 A 
ATOM      4  C3  UNL d   1      -0.603  -1.626  -0.869  0.00  0.00     0.006 A 
ATOM      5  C4  UNL d   1       0.696  -1.853  -0.414  0.00  0.00    -0.005 A 
ATOM      6  C5  UNL d   1       1.338  -0.904   0.389  0.00  0.00    -0.074 A 
ATOM      7  C6  UNL d   1       2.738  -1.128   0.878  0.00  0.00     0.077 C 
ATOM      8  C7  UNL d   1       0.661   0.276   0.724  0.00  0.00    -0.001 A 
ENDROOT
TORSDOF 0
ENDMDL
