MODEL 1
REMARK minimizedAffinity -6.14377832
REMARK minimizedRMSD -1
REMARK  0 active torsions:
REMARK  status: ('A' for Active; 'I' for Inactive)
ROOT
ATOM      1  C   UNL d   1      -1.612   0.722  -0.284  0.00  0.00     0.077 C 
ATOM      2  C1  UNL d   1      -0.246   0.107  -0.226  0.00  0.00    -0.074 A 
ATOM      3  C2  UNL d   1      -0.017  -1.184  -0.713  0.00  0.00    -0.005 A 
ATOM      4  C3  UNL d   1       1.261  -1.740  -0.660  0.00  0.00     0.006 A 
ATOM      5  C4  UNL d   1       2.322  -1.011  -0.121  0.00  0.00    -0.005 A 
ATOM      6  C5  UNL d   1       2.113   0.282   0.370  0.00  0.00    -0.074 A 
ATOM      7  C6  UNL d   1       3.244   1.082   0.944  0.00  0.00     0.077 C 
ATOM      8  C7  UNL d   1       0.827   0.836   0.307  0.00  0.00    -0.001 A 
ENDROOT
TORSDOF 0
ENDMDL
