MODEL 1
REMARK minimizedAffinity -4.9443574
REMARK minimizedRMSD -1
REMARK  0 active torsions:
REMARK  status: ('A' for Active; 'I' for Inactive)
ROOT
ATOM      1  C   UNL d   1      -0.453  -1.158  -0.308  0.00  0.00     0.077 C 
ATOM      2  C1  UNL d   1       0.982  -0.829  -0.019  0.00  0.00    -0.074 A 
ATOM      3  C2  UNL d   1       1.970  -1.817  -0.068  0.00  0.00    -0.005 A 
ATOM      4  C3  UNL d   1       3.301  -1.494   0.194  0.00  0.00     0.006 A 
ATOM      5  C4  UNL d   1       3.658  -0.182   0.507  0.00  0.00    -0.005 A 
ATOM      6  C5  UNL d   1       2.684   0.820   0.560  0.00  0.00    -0.074 A 
ATOM      7  C6  UNL d   1       3.051   2.237   0.885  0.00  0.00     0.077 C 
ATOM      8  C7  UNL d   1       1.349   0.489   0.288  0.00  0.00    -0.001 A 
ENDROOT
TORSDOF 0
ENDMDL
