MODEL 1
REMARK minimizedAffinity -4.7520318
REMARK minimizedRMSD -1
REMARK  0 active torsions:
REMARK  status: ('A' for Active; 'I' for Inactive)
ROOT
ATOM      1  C   UNL d   1      -2.091   0.399  -0.053  0.00  0.00     0.077 C 
ATOM      2  C1  UNL d   1      -0.616   0.419   0.222  0.00  0.00    -0.074 A 
ATOM      3  C2  UNL d   1       0.098   1.621   0.223  0.00  0.00    -0.005 A 
ATOM      4  C3  UNL d   1       1.468   1.625   0.490  0.00  0.00     0.006 A 
ATOM      5  C4  UNL d   1       2.135   0.428   0.757  0.00  0.00    -0.005 A 
ATOM      6  C5  UNL d   1       1.436  -0.783   0.760  0.00  0.00    -0.074 A 
ATOM      7  C6  UNL d   1       2.136  -2.077   1.055  0.00  0.00     0.077 C 
ATOM      8  C7  UNL d   1       0.059  -0.778   0.499  0.00  0.00    -0.001 A 
ENDROOT
TORSDOF 0
ENDMDL
