MODEL 1
REMARK minimizedAffinity -1.49997127
REMARK minimizedRMSD -1
REMARK  0 active torsions:
REMARK  status: ('A' for Active; 'I' for Inactive)
ROOT
ATOM      1  C   UNL d   1      -1.146  -0.711  -0.878  0.00  0.00     0.077 C 
ATOM      2  C1  UNL d   1       0.174  -0.589  -0.177  0.00  0.00    -0.074 A 
ATOM      3  C2  UNL d   1       0.992  -1.708   0.016  0.00  0.00    -0.005 A 
ATOM      4  C3  UNL d   1       2.221  -1.577   0.662  0.00  0.00     0.006 A 
ATOM      5  C4  UNL d   1       2.646  -0.329   1.120  0.00  0.00    -0.005 A 
ATOM      6  C5  UNL d   1       1.842   0.800   0.935  0.00  0.00    -0.074 A 
ATOM      7  C6  UNL d   1       2.288   2.151   1.412  0.00  0.00     0.077 C 
ATOM      8  C7  UNL d   1       0.611   0.662   0.279  0.00  0.00    -0.001 A 
ENDROOT
TORSDOF 0
ENDMDL
