MODEL 1
REMARK minimizedAffinity 0.591935158
REMARK minimizedRMSD -1
REMARK  0 active torsions:
REMARK  status: ('A' for Active; 'I' for Inactive)
ROOT
ATOM      1  C   UNL d   1       5.652   5.118  -5.828  0.00  0.00     0.023 A 
ATOM      2  C1  UNL d   1       5.634   3.861  -5.225  0.00  0.00     0.003 A 
ATOM      3  C2  UNL d   1       4.549   3.481  -4.432  0.00  0.00     0.048 A 
ATOM      4  C3  UNL d   1       3.485   4.362  -4.249  0.00  0.00     0.023 A 
ATOM      5  C4  UNL d   1       3.498   5.621  -4.851  0.00  0.00     0.048 A 
ATOM      6  C5  UNL d   1       4.585   5.997  -5.642  0.00  0.00     0.003 A 
ATOM      7  I   UNL d   1       1.868   3.799  -3.070  0.00  0.00    -0.146 I 
ENDROOT
TORSDOF 0
ENDMDL
