MODEL 1
REMARK minimizedAffinity 7.34219885
REMARK minimizedRMSD -1
REMARK  0 active torsions:
REMARK  status: ('A' for Active; 'I' for Inactive)
ROOT
ATOM      1  C   UNL d   1      -0.525  -3.023   1.130  0.00  0.00     0.023 A 
ATOM      2  C1  UNL d   1       0.046  -4.191   0.622  0.00  0.00     0.003 A 
ATOM      3  C2  UNL d   1      -0.607  -4.909  -0.382  0.00  0.00     0.048 A 
ATOM      4  C3  UNL d   1      -1.829  -4.454  -0.874  0.00  0.00     0.023 A 
ATOM      5  C4  UNL d   1      -2.404  -3.286  -0.370  0.00  0.00     0.048 A 
ATOM      6  C5  UNL d   1      -1.748  -2.572   0.634  0.00  0.00     0.003 A 
ATOM      7  I   UNL d   1      -2.803  -5.521  -2.369  0.00  0.00    -0.146 I 
ENDROOT
TORSDOF 0
ENDMDL
