MODEL 1
REMARK minimizedAffinity -0.572512865
REMARK minimizedRMSD -1
REMARK  0 active torsions:
REMARK  status: ('A' for Active; 'I' for Inactive)
ROOT
ATOM      1  C   UNL d   1      -3.864   2.858   3.659  0.00  0.00     0.023 A 
ATOM      2  C1  UNL d   1      -4.271   1.730   2.947  0.00  0.00     0.003 A 
ATOM      3  C2  UNL d   1      -4.884   0.666   3.612  0.00  0.00     0.048 A 
ATOM      4  C3  UNL d   1      -5.088   0.737   4.990  0.00  0.00     0.023 A 
ATOM      5  C4  UNL d   1      -4.682   1.864   5.707  0.00  0.00     0.048 A 
ATOM      6  C5  UNL d   1      -4.069   2.925   5.037  0.00  0.00     0.003 A 
ATOM      7  I   UNL d   1      -6.000  -0.844   5.982  0.00  0.00    -0.146 I 
ENDROOT
TORSDOF 0
ENDMDL
