MODEL 1
REMARK minimizedAffinity 5.50767708
REMARK minimizedRMSD -1
REMARK  0 active torsions:
REMARK  status: ('A' for Active; 'I' for Inactive)
ROOT
ATOM      1  C   UNL d   1      -0.360   0.232  -2.236  0.00  0.00     0.023 A 
ATOM      2  C1  UNL d   1       0.192  -0.696  -1.353  0.00  0.00     0.003 A 
ATOM      3  C2  UNL d   1       1.323  -0.364  -0.605  0.00  0.00     0.048 A 
ATOM      4  C3  UNL d   1       1.898   0.899  -0.745  0.00  0.00     0.023 A 
ATOM      5  C4  UNL d   1       1.349   1.831  -1.627  0.00  0.00     0.048 A 
ATOM      6  C5  UNL d   1       0.218   1.494  -2.373  0.00  0.00     0.003 A 
ATOM      7  I   UNL d   1       3.582   1.397   0.367  0.00  0.00    -0.146 I 
ENDROOT
TORSDOF 0
ENDMDL
