MODEL 1
REMARK minimizedAffinity 6.19771385
REMARK minimizedRMSD -1
REMARK  0 active torsions:
REMARK  status: ('A' for Active; 'I' for Inactive)
ROOT
ATOM      1  C   UNL d   1       1.357   3.495   1.267  0.00  0.00     0.023 A 
ATOM      2  C1  UNL d   1       1.392   2.232   1.859  0.00  0.00     0.003 A 
ATOM      3  C2  UNL d   1       1.705   1.109   1.091  0.00  0.00     0.048 A 
ATOM      4  C3  UNL d   1       1.981   1.255  -0.267  0.00  0.00     0.023 A 
ATOM      5  C4  UNL d   1       1.948   2.516  -0.864  0.00  0.00     0.048 A 
ATOM      6  C5  UNL d   1       1.634   3.637  -0.092  0.00  0.00     0.003 A 
ATOM      7  I   UNL d   1       2.447  -0.416  -1.412  0.00  0.00    -0.146 I 
ENDROOT
TORSDOF 0
ENDMDL
