MODEL 1
REMARK minimizedAffinity 9.26455402
REMARK minimizedRMSD -1
REMARK  0 active torsions:
REMARK  status: ('A' for Active; 'I' for Inactive)
ROOT
ATOM      1  C   UNL d   1      -0.314   1.338  -3.668  0.00  0.00     0.023 A 
ATOM      2  C1  UNL d   1      -0.181   0.005  -3.277  0.00  0.00     0.003 A 
ATOM      3  C2  UNL d   1       0.923  -0.395  -2.522  0.00  0.00     0.048 A 
ATOM      4  C3  UNL d   1       1.891   0.542  -2.161  0.00  0.00     0.023 A 
ATOM      5  C4  UNL d   1       1.762   1.877  -2.550  0.00  0.00     0.048 A 
ATOM      6  C5  UNL d   1       0.656   2.272  -3.305  0.00  0.00     0.003 A 
ATOM      7  I   UNL d   1       3.535  -0.052  -1.037  0.00  0.00    -0.146 I 
ENDROOT
TORSDOF 0
ENDMDL
