MODEL 1
REMARK minimizedAffinity 5.47387218
REMARK minimizedRMSD -1
REMARK  0 active torsions:
REMARK  status: ('A' for Active; 'I' for Inactive)
ROOT
ATOM      1  C   UNL d   1       2.634   2.206   0.377  0.00  0.00     0.023 A 
ATOM      2  C1  UNL d   1       1.952   1.892   1.552  0.00  0.00     0.003 A 
ATOM      3  C2  UNL d   1       1.037   0.837   1.570  0.00  0.00     0.048 A 
ATOM      4  C3  UNL d   1       0.811   0.099   0.408  0.00  0.00     0.023 A 
ATOM      5  C4  UNL d   1       1.492   0.409  -0.770  0.00  0.00     0.048 A 
ATOM      6  C5  UNL d   1       2.404   1.465  -0.783  0.00  0.00     0.003 A 
ATOM      7  I   UNL d   1      -0.550  -1.472   0.432  0.00  0.00    -0.146 I 
ENDROOT
TORSDOF 0
ENDMDL
