MODEL 1
REMARK minimizedAffinity 0.811766148
REMARK minimizedRMSD -1
REMARK  0 active torsions:
REMARK  status: ('A' for Active; 'I' for Inactive)
ROOT
ATOM      1  C   UNL d   1       0.713  -2.208   0.759  0.00  0.00     0.023 A 
ATOM      2  C1  UNL d   1       1.535  -1.393  -0.018  0.00  0.00     0.003 A 
ATOM      3  C2  UNL d   1       1.670  -0.037   0.291  0.00  0.00     0.048 A 
ATOM      4  C3  UNL d   1       0.980   0.496   1.379  0.00  0.00     0.023 A 
ATOM      5  C4  UNL d   1       0.156  -0.317   2.160  0.00  0.00     0.048 A 
ATOM      6  C5  UNL d   1       0.024  -1.671   1.847  0.00  0.00     0.003 A 
ATOM      7  I   UNL d   1       1.179   2.512   1.841  0.00  0.00    -0.146 I 
ENDROOT
TORSDOF 0
ENDMDL
