MODEL 1
REMARK minimizedAffinity 10.9060631
REMARK minimizedRMSD -1
REMARK  0 active torsions:
REMARK  status: ('A' for Active; 'I' for Inactive)
ROOT
ATOM      1  C   UNL d   1      -6.000  -4.872  -2.376  0.00  0.00     0.023 A 
ATOM      2  C1  UNL d   1      -5.807  -5.804  -3.396  0.00  0.00     0.003 A 
ATOM      3  C2  UNL d   1      -4.532  -6.000  -3.932  0.00  0.00     0.048 A 
ATOM      4  C3  UNL d   1      -3.455  -5.261  -3.443  0.00  0.00     0.023 A 
ATOM      5  C4  UNL d   1      -3.644  -4.328  -2.423  0.00  0.00     0.048 A 
ATOM      6  C5  UNL d   1      -4.920  -4.135  -1.890  0.00  0.00     0.003 A 
ATOM      7  I   UNL d   1      -1.558  -5.551  -4.240  0.00  0.00    -0.146 I 
ENDROOT
TORSDOF 0
ENDMDL
