MODEL 1
REMARK minimizedAffinity 6.94574642
REMARK minimizedRMSD -1
REMARK  0 active torsions:
REMARK  status: ('A' for Active; 'I' for Inactive)
ROOT
ATOM      1  C   UNL d   1       1.792   2.857   1.861  0.00  0.00     0.023 A 
ATOM      2  C1  UNL d   1       1.284   1.599   2.187  0.00  0.00     0.003 A 
ATOM      3  C2  UNL d   1       1.387   0.546   1.276  0.00  0.00     0.048 A 
ATOM      4  C3  UNL d   1       2.001   0.757   0.042  0.00  0.00     0.023 A 
ATOM      5  C4  UNL d   1       2.512   2.013  -0.288  0.00  0.00     0.048 A 
ATOM      6  C5  UNL d   1       2.405   3.064   0.625  0.00  0.00     0.003 A 
ATOM      7  I   UNL d   1       2.156  -0.810  -1.315  0.00  0.00    -0.146 I 
ENDROOT
TORSDOF 0
ENDMDL
