MODEL 1
REMARK minimizedAffinity 9.34115982
REMARK minimizedRMSD -1
REMARK  0 active torsions:
REMARK  status: ('A' for Active; 'I' for Inactive)
ROOT
ATOM      1  C   UNL d   1       0.832  -0.797  -2.028  0.00  0.00     0.023 A 
ATOM      2  C1  UNL d   1       0.469   0.494  -2.412  0.00  0.00     0.003 A 
ATOM      3  C2  UNL d   1       0.807   1.584  -1.608  0.00  0.00     0.048 A 
ATOM      4  C3  UNL d   1       1.510   1.377  -0.422  0.00  0.00     0.023 A 
ATOM      5  C4  UNL d   1       1.876   0.087  -0.033  0.00  0.00     0.048 A 
ATOM      6  C5  UNL d   1       1.534  -1.000  -0.840  0.00  0.00     0.003 A 
ATOM      7  I   UNL d   1       2.014   2.998   0.777  0.00  0.00    -0.146 I 
ENDROOT
TORSDOF 0
ENDMDL
