MODEL 1
REMARK minimizedAffinity 5.58967447
REMARK minimizedRMSD -1
REMARK  0 active torsions:
REMARK  status: ('A' for Active; 'I' for Inactive)
ROOT
ATOM      1  C   UNL d   1       0.398  -0.041  -2.939  0.00  0.00     0.023 A 
ATOM      2  C1  UNL d   1       1.001  -0.862  -1.986  0.00  0.00     0.003 A 
ATOM      3  C2  UNL d   1       1.779  -0.301  -0.971  0.00  0.00     0.048 A 
ATOM      4  C3  UNL d   1       1.948   1.082  -0.914  0.00  0.00     0.023 A 
ATOM      5  C4  UNL d   1       1.346   1.908  -1.865  0.00  0.00     0.048 A 
ATOM      6  C5  UNL d   1       0.570   1.342  -2.879  0.00  0.00     0.003 A 
ATOM      7  I   UNL d   1       3.105   1.920   0.596  0.00  0.00    -0.146 I 
ENDROOT
TORSDOF 0
ENDMDL
