MODEL 1
REMARK minimizedAffinity 3.33978581
REMARK minimizedRMSD -1
REMARK  0 active torsions:
REMARK  status: ('A' for Active; 'I' for Inactive)
ROOT
ATOM      1  C   UNL d   1       0.161   2.243   2.770  0.00  0.00     0.023 A 
ATOM      2  C1  UNL d   1      -0.627   1.352   2.042  0.00  0.00     0.003 A 
ATOM      3  C2  UNL d   1      -0.056   0.582   1.026  0.00  0.00     0.048 A 
ATOM      4  C3  UNL d   1       1.304   0.707   0.745  0.00  0.00     0.023 A 
ATOM      5  C4  UNL d   1       2.097   1.596   1.472  0.00  0.00     0.048 A 
ATOM      6  C5  UNL d   1       1.522   2.365   2.486  0.00  0.00     0.003 A 
ATOM      7  I   UNL d   1       2.156  -0.438  -0.765  0.00  0.00    -0.146 I 
ENDROOT
TORSDOF 0
ENDMDL
