MODEL 1
REMARK minimizedAffinity 8.67882442
REMARK minimizedRMSD -1
REMARK  0 active torsions:
REMARK  status: ('A' for Active; 'I' for Inactive)
ROOT
ATOM      1  C   UNL d   1       1.910   1.569  -1.777  0.00  0.00     0.023 A 
ATOM      2  C1  UNL d   1       1.036   1.767  -2.847  0.00  0.00     0.003 A 
ATOM      3  C2  UNL d   1       0.076   0.801  -3.153  0.00  0.00     0.048 A 
ATOM      4  C3  UNL d   1      -0.007  -0.361  -2.386  0.00  0.00     0.023 A 
ATOM      5  C4  UNL d   1       0.865  -0.562  -1.314  0.00  0.00     0.048 A 
ATOM      6  C5  UNL d   1       1.824   0.406  -1.012  0.00  0.00     0.003 A 
ATOM      7  I   UNL d   1      -1.436  -1.800  -2.840  0.00  0.00    -0.146 I 
ENDROOT
TORSDOF 0
ENDMDL
