MODEL 1
REMARK minimizedAffinity -3.28935099
REMARK minimizedRMSD -1
REMARK  0 active torsions:
REMARK  status: ('A' for Active; 'I' for Inactive)
ROOT
ATOM      1  C   UNL d   1      -0.131   0.292  -1.431  0.00  0.00     0.020 A 
ATOM      2  C1  UNL d   1       0.489  -0.945  -1.256  0.00  0.00     0.020 A 
ATOM      3  C2  UNL d   1       0.539  -1.527   0.012  0.00  0.00     0.034 A 
ATOM      4  C3  UNL d   1      -0.030  -0.872   1.110  0.00  0.00     0.017 A 
ATOM      5  C4  UNL d   1      -0.652   0.369   0.933  0.00  0.00     0.017 A 
ATOM      6  C5  UNL d   1      -0.700   0.947  -0.339  0.00  0.00     0.034 A 
ATOM      7 Cl   UNL d   1      -1.377   1.237   2.240  0.00  0.00    -0.070 Cl
ATOM      8 Cl1  UNL d   1       0.069  -1.651   2.650  0.00  0.00    -0.070 Cl
ENDROOT
TORSDOF 0
ENDMDL
