MODEL 1
REMARK minimizedAffinity -2.38165545
REMARK minimizedRMSD -1
REMARK  0 active torsions:
REMARK  status: ('A' for Active; 'I' for Inactive)
ROOT
ATOM      1  C   UNL d   1      -1.357   0.809   2.120  0.00  0.00     0.020 A 
ATOM      2  C1  UNL d   1      -1.001  -0.539   2.128  0.00  0.00     0.020 A 
ATOM      3  C2  UNL d   1      -0.219  -1.061   1.096  0.00  0.00     0.034 A 
ATOM      4  C3  UNL d   1       0.209  -0.235   0.050  0.00  0.00     0.017 A 
ATOM      5  C4  UNL d   1      -0.148   1.118   0.043  0.00  0.00     0.017 A 
ATOM      6  C5  UNL d   1      -0.931   1.636   1.079  0.00  0.00     0.034 A 
ATOM      7 Cl   UNL d   1       0.343   2.199  -1.213  0.00  0.00    -0.070 Cl
ATOM      8 Cl1  UNL d   1       1.174  -0.948  -1.193  0.00  0.00    -0.070 Cl
ENDROOT
TORSDOF 0
ENDMDL
