MODEL 1
REMARK minimizedAffinity -4.70751524
REMARK minimizedRMSD -1
REMARK  0 active torsions:
REMARK  status: ('A' for Active; 'I' for Inactive)
ROOT
ATOM      1  C   UNL d   1      -1.905   2.055   1.098  0.00  0.00     0.020 A 
ATOM      2  C1  UNL d   1      -1.462   2.155  -0.221  0.00  0.00     0.020 A 
ATOM      3  C2  UNL d   1      -0.545   1.229  -0.721  0.00  0.00     0.034 A 
ATOM      4  C3  UNL d   1      -0.067   0.199   0.097  0.00  0.00     0.017 A 
ATOM      5  C4  UNL d   1      -0.512   0.100   1.421  0.00  0.00     0.017 A 
ATOM      6  C5  UNL d   1      -1.430   1.030   1.916  0.00  0.00     0.034 A 
ATOM      7 Cl   UNL d   1       0.033  -1.143   2.491  0.00  0.00    -0.070 Cl
ATOM      8 Cl1  UNL d   1       1.066  -0.912  -0.587  0.00  0.00    -0.070 Cl
ENDROOT
TORSDOF 0
ENDMDL
