MODEL 1
REMARK minimizedAffinity -3.23479104
REMARK minimizedRMSD -1
REMARK  0 active torsions:
REMARK  status: ('A' for Active; 'I' for Inactive)
ROOT
ATOM      1  C   UNL d   1      -1.496   3.139   1.334  0.00  0.00     0.020 A 
ATOM      2  C1  UNL d   1      -1.063   3.370   0.029  0.00  0.00     0.020 A 
ATOM      3  C2  UNL d   1      -0.524   2.324  -0.723  0.00  0.00     0.034 A 
ATOM      4  C3  UNL d   1      -0.417   1.043  -0.171  0.00  0.00     0.017 A 
ATOM      5  C4  UNL d   1      -0.852   0.811   1.139  0.00  0.00     0.017 A 
ATOM      6  C5  UNL d   1      -1.390   1.862   1.888  0.00  0.00     0.034 A 
ATOM      7 Cl   UNL d   1      -0.752  -0.743   1.888  0.00  0.00    -0.070 Cl
ATOM      8 Cl1  UNL d   1       0.259  -0.204  -1.159  0.00  0.00    -0.070 Cl
ENDROOT
TORSDOF 0
ENDMDL
