MODEL 1
REMARK minimizedAffinity -0.375549525
REMARK minimizedRMSD -1
REMARK  0 active torsions:
REMARK  status: ('A' for Active; 'I' for Inactive)
ROOT
ATOM      1  C   UNL d   1       0.395  -3.917  -1.255  0.00  0.00     0.020 A 
ATOM      2  C1  UNL d   1       0.984  -3.570  -2.470  0.00  0.00     0.020 A 
ATOM      3  C2  UNL d   1       1.538  -2.300  -2.640  0.00  0.00     0.034 A 
ATOM      4  C3  UNL d   1       1.502  -1.370  -1.594  0.00  0.00     0.017 A 
ATOM      5  C4  UNL d   1       0.910  -1.719  -0.375  0.00  0.00     0.017 A 
ATOM      6  C5  UNL d   1       0.357  -2.993  -0.210  0.00  0.00     0.034 A 
ATOM      7 Cl   UNL d   1       0.828  -0.626   0.961  0.00  0.00    -0.070 Cl
ATOM      8 Cl1  UNL d   1       2.206   0.183  -1.875  0.00  0.00    -0.070 Cl
ENDROOT
TORSDOF 0
ENDMDL
