MODEL 1
REMARK minimizedAffinity -5.13802528
REMARK minimizedRMSD -1
REMARK  0 active torsions:
REMARK  status: ('A' for Active; 'I' for Inactive)
ROOT
ATOM      1  C   UNL d   1      -2.167   1.455   1.838  0.00  0.00     0.020 A 
ATOM      2  C1  UNL d   1      -1.720   0.151   2.048  0.00  0.00     0.020 A 
ATOM      3  C2  UNL d   1      -0.760  -0.403   1.198  0.00  0.00     0.034 A 
ATOM      4  C3  UNL d   1      -0.245   0.347   0.134  0.00  0.00     0.017 A 
ATOM      5  C4  UNL d   1      -0.695   1.655  -0.076  0.00  0.00     0.017 A 
ATOM      6  C5  UNL d   1      -1.656   2.205   0.778  0.00  0.00     0.034 A 
ATOM      7 Cl   UNL d   1      -0.106   2.642  -1.367  0.00  0.00    -0.070 Cl
ATOM      8 Cl1  UNL d   1       0.940  -0.402  -0.877  0.00  0.00    -0.070 Cl
ENDROOT
TORSDOF 0
ENDMDL
