MODEL 1
REMARK minimizedAffinity -4.97447824
REMARK minimizedRMSD -1
REMARK  0 active torsions:
REMARK  status: ('A' for Active; 'I' for Inactive)
ROOT
ATOM      1  C   UNL d   1      -1.899   0.830   1.825  0.00  0.00     0.020 A 
ATOM      2  C1  UNL d   1      -0.930  -0.110   2.173  0.00  0.00     0.020 A 
ATOM      3  C2  UNL d   1       0.153  -0.344   1.323  0.00  0.00     0.034 A 
ATOM      4  C3  UNL d   1       0.269   0.362   0.121  0.00  0.00     0.017 A 
ATOM      5  C4  UNL d   1      -0.704   1.306  -0.228  0.00  0.00     0.017 A 
ATOM      6  C5  UNL d   1      -1.786   1.537   0.627  0.00  0.00     0.034 A 
ATOM      7 Cl   UNL d   1      -0.628   2.217  -1.695  0.00  0.00    -0.070 Cl
ATOM      8 Cl1  UNL d   1       1.635   0.022  -0.882  0.00  0.00    -0.070 Cl
ENDROOT
TORSDOF 0
ENDMDL
