MODEL 1
REMARK minimizedAffinity 1.79309452
REMARK minimizedRMSD -1
REMARK  0 active torsions:
REMARK  status: ('A' for Active; 'I' for Inactive)
ROOT
ATOM      1  C   UNL d   1       1.339   0.239  -2.052  0.00  0.00     0.020 A 
ATOM      2  C1  UNL d   1       1.582  -1.049  -1.576  0.00  0.00     0.020 A 
ATOM      3  C2  UNL d   1       0.866  -1.534  -0.479  0.00  0.00     0.034 A 
ATOM      4  C3  UNL d   1      -0.096  -0.732   0.144  0.00  0.00     0.017 A 
ATOM      5  C4  UNL d   1      -0.339   0.561  -0.335  0.00  0.00     0.017 A 
ATOM      6  C5  UNL d   1       0.380   1.042  -1.433  0.00  0.00     0.034 A 
ATOM      7 Cl   UNL d   1      -1.510   1.610   0.383  0.00  0.00    -0.070 Cl
ATOM      8 Cl1  UNL d   1      -0.943  -1.396   1.495  0.00  0.00    -0.070 Cl
ENDROOT
TORSDOF 0
ENDMDL
