MODEL 1
REMARK minimizedAffinity -4.75672197
REMARK minimizedRMSD -1
REMARK  0 active torsions:
REMARK  status: ('A' for Active; 'I' for Inactive)
ROOT
ATOM      1  C   UNL d   1       0.127  -1.487   1.669  0.00  0.00     0.020 A 
ATOM      2  C1  UNL d   1       0.605  -1.415   0.362  0.00  0.00     0.020 A 
ATOM      3  C2  UNL d   1       0.354  -0.281  -0.413  0.00  0.00     0.034 A 
ATOM      4  C3  UNL d   1      -0.378   0.787   0.119  0.00  0.00     0.017 A 
ATOM      5  C4  UNL d   1      -0.858   0.715   1.432  0.00  0.00     0.017 A 
ATOM      6  C5  UNL d   1      -0.603  -0.424   2.203  0.00  0.00     0.034 A 
ATOM      7 Cl   UNL d   1      -1.768   1.992   2.158  0.00  0.00    -0.070 Cl
ATOM      8 Cl1  UNL d   1      -0.650   2.159  -0.895  0.00  0.00    -0.070 Cl
ENDROOT
TORSDOF 0
ENDMDL
