MODEL 1
REMARK minimizedAffinity -4.75679636
REMARK minimizedRMSD -1
REMARK  0 active torsions:
REMARK  status: ('A' for Active; 'I' for Inactive)
ROOT
ATOM      1  C   UNL d   1      -1.871   2.000   1.861  0.00  0.00     0.020 A 
ATOM      2  C1  UNL d   1      -1.543   0.667   2.103  0.00  0.00     0.020 A 
ATOM      3  C2  UNL d   1      -0.738  -0.029   1.199  0.00  0.00     0.034 A 
ATOM      4  C3  UNL d   1      -0.259   0.607   0.049  0.00  0.00     0.017 A 
ATOM      5  C4  UNL d   1      -0.589   1.945  -0.194  0.00  0.00     0.017 A 
ATOM      6  C5  UNL d   1      -1.395   2.638   0.715  0.00  0.00     0.034 A 
ATOM      7 Cl   UNL d   1      -0.035   2.798  -1.592  0.00  0.00    -0.070 Cl
ATOM      8 Cl1  UNL d   1       0.732  -0.315  -1.026  0.00  0.00    -0.070 Cl
ENDROOT
TORSDOF 0
ENDMDL
