MODEL 1
REMARK minimizedAffinity -5.10951042
REMARK minimizedRMSD -1
REMARK  0 active torsions:
REMARK  status: ('A' for Active; 'I' for Inactive)
ROOT
ATOM      1  C   UNL d   1      -1.811   2.961   0.849  0.00  0.00     0.020 A 
ATOM      2  C1  UNL d   1      -1.317   3.310  -0.407  0.00  0.00     0.020 A 
ATOM      3  C2  UNL d   1      -0.464   2.440  -1.089  0.00  0.00     0.034 A 
ATOM      4  C3  UNL d   1      -0.100   1.217  -0.514  0.00  0.00     0.017 A 
ATOM      5  C4  UNL d   1      -0.596   0.867   0.747  0.00  0.00     0.017 A 
ATOM      6  C5  UNL d   1      -1.451   1.742   1.425  0.00  0.00     0.034 A 
ATOM      7 Cl   UNL d   1      -0.193  -0.625   1.521  0.00  0.00    -0.070 Cl
ATOM      8 Cl1  UNL d   1       0.959   0.190  -1.413  0.00  0.00    -0.070 Cl
ENDROOT
TORSDOF 0
ENDMDL
