MODEL 1
REMARK minimizedAffinity -3.86822438
REMARK minimizedRMSD -1
REMARK  0 active torsions:
REMARK  status: ('A' for Active; 'I' for Inactive)
ROOT
ATOM      1  C   UNL d   1      -0.770   3.863  -0.198  0.00  0.00     0.020 A 
ATOM      2  C1  UNL d   1      -0.101   3.196  -1.224  0.00  0.00     0.020 A 
ATOM      3  C2  UNL d   1       0.158   1.828  -1.115  0.00  0.00     0.034 A 
ATOM      4  C3  UNL d   1      -0.253   1.122   0.022  0.00  0.00     0.017 A 
ATOM      5  C4  UNL d   1      -0.924   1.792   1.051  0.00  0.00     0.017 A 
ATOM      6  C5  UNL d   1      -1.181   3.162   0.937  0.00  0.00     0.034 A 
ATOM      7 Cl   UNL d   1      -1.462   0.990   2.484  0.00  0.00    -0.070 Cl
ATOM      8 Cl1  UNL d   1       0.100  -0.568   0.090  0.00  0.00    -0.070 Cl
ENDROOT
TORSDOF 0
ENDMDL
