MODEL 1
REMARK minimizedAffinity -3.96536183
REMARK minimizedRMSD -1
REMARK  0 active torsions:
REMARK  status: ('A' for Active; 'I' for Inactive)
ROOT
ATOM      1  C   UNL d   1      -1.624   2.026  -0.071  0.00  0.00     0.020 A 
ATOM      2  C1  UNL d   1      -2.025   1.779   1.241  0.00  0.00     0.020 A 
ATOM      3  C2  UNL d   1      -1.442   0.737   1.965  0.00  0.00     0.034 A 
ATOM      4  C3  UNL d   1      -0.455  -0.063   1.378  0.00  0.00     0.017 A 
ATOM      5  C4  UNL d   1      -0.053   0.186   0.060  0.00  0.00     0.017 A 
ATOM      6  C5  UNL d   1      -0.640   1.231  -0.660  0.00  0.00     0.034 A 
ATOM      7 Cl   UNL d   1       1.159  -0.757  -0.732  0.00  0.00    -0.070 Cl
ATOM      8 Cl1  UNL d   1       0.223  -1.334   2.332  0.00  0.00    -0.070 Cl
ENDROOT
TORSDOF 0
ENDMDL
