MODEL 1
REMARK minimizedAffinity -3.34663677
REMARK minimizedRMSD -1
REMARK  0 active torsions:
REMARK  status: ('A' for Active; 'I' for Inactive)
ROOT
ATOM      1  C   UNL d   1      -0.597  -0.574   1.561  0.00  0.00     0.020 A 
ATOM      2  C1  UNL d   1      -1.407   0.561   1.550  0.00  0.00     0.020 A 
ATOM      3  C2  UNL d   1      -1.266   1.508   0.534  0.00  0.00     0.034 A 
ATOM      4  C3  UNL d   1      -0.313   1.323  -0.475  0.00  0.00     0.017 A 
ATOM      5  C4  UNL d   1       0.499   0.183  -0.462  0.00  0.00     0.017 A 
ATOM      6  C5  UNL d   1       0.354  -0.763   0.558  0.00  0.00     0.034 A 
ATOM      7 Cl   UNL d   1       1.697  -0.115  -1.672  0.00  0.00    -0.070 Cl
ATOM      8 Cl1  UNL d   1      -0.194   2.535  -1.700  0.00  0.00    -0.070 Cl
ENDROOT
TORSDOF 0
ENDMDL
