MODEL 1
REMARK minimizedAffinity -3.94297552
REMARK minimizedRMSD -1
REMARK  0 active torsions:
REMARK  status: ('A' for Active; 'I' for Inactive)
ROOT
ATOM      1  C   UNL d   1      -1.872   2.081   1.358  0.00  0.00     0.020 A 
ATOM      2  C1  UNL d   1      -1.501   2.228   0.021  0.00  0.00     0.020 A 
ATOM      3  C2  UNL d   1      -0.686   1.271  -0.586  0.00  0.00     0.034 A 
ATOM      4  C3  UNL d   1      -0.239   0.163   0.142  0.00  0.00     0.017 A 
ATOM      5  C4  UNL d   1      -0.612   0.016   1.483  0.00  0.00     0.017 A 
ATOM      6  C5  UNL d   1      -1.428   0.977   2.087  0.00  0.00     0.034 A 
ATOM      7 Cl   UNL d   1      -0.100  -1.325   2.446  0.00  0.00    -0.070 Cl
ATOM      8 Cl1  UNL d   1       0.766  -0.982  -0.674  0.00  0.00    -0.070 Cl
ENDROOT
TORSDOF 0
ENDMDL
