MODEL 1
REMARK minimizedAffinity -3.21388125
REMARK minimizedRMSD -1
REMARK  0 active torsions:
REMARK  status: ('A' for Active; 'I' for Inactive)
ROOT
ATOM      1  C   UNL d   1      -1.480   2.071   1.413  0.00  0.00     0.020 A 
ATOM      2  C1  UNL d   1      -1.450   2.004   0.021  0.00  0.00     0.020 A 
ATOM      3  C2  UNL d   1      -0.743   0.980  -0.613  0.00  0.00     0.034 A 
ATOM      4  C3  UNL d   1      -0.064   0.019   0.144  0.00  0.00     0.017 A 
ATOM      5  C4  UNL d   1      -0.094   0.088   1.542  0.00  0.00     0.017 A 
ATOM      6  C5  UNL d   1      -0.803   1.115   2.172  0.00  0.00     0.034 A 
ATOM      7 Cl   UNL d   1       0.720  -1.061   2.545  0.00  0.00    -0.070 Cl
ATOM      8 Cl1  UNL d   1       0.789  -1.220  -0.706  0.00  0.00    -0.070 Cl
ENDROOT
TORSDOF 0
ENDMDL
