MODEL 1
REMARK minimizedAffinity -4.59663534
REMARK minimizedRMSD -1
REMARK  1 active torsions:
REMARK  status: ('A' for Active; 'I' for Inactive)
REMARK    1  A    between atoms: C1_2  and  C2_3 
ROOT
ATOM      1  C2  UNL d   1       0.080  -0.069  -0.103  0.00  0.00    -0.073 A 
ATOM      2  C3  UNL d   1      -0.369  -1.137  -0.888  0.00  0.00    -0.002 A 
ATOM      3  C4  UNL d   1       0.424  -2.273  -1.053  0.00  0.00     0.004 A 
ATOM      4  C5  UNL d   1       1.670  -2.356  -0.431  0.00  0.00    -0.004 A 
ATOM      5  C6  UNL d   1       2.131  -1.304   0.367  0.00  0.00    -0.075 A 
ATOM      6  C7  UNL d   1       3.470  -1.377   1.041  0.00  0.00     0.076 C 
ATOM      7  C8  UNL d   1       1.330  -0.165   0.526  0.00  0.00     0.001 A 
ENDROOT
BRANCH   1   8
ATOM      8  C1  UNL d   1      -0.776   1.157   0.083  0.00  0.00     0.053 C 
ATOM      9  C   UNL d   1      -2.258   0.843  -0.048  0.00  0.00     0.018 C 
ENDBRANCH   1   8
TORSDOF 1
ENDMDL
