MODEL 1
REMARK minimizedAffinity -4.71456671
REMARK minimizedRMSD -1
REMARK  1 active torsions:
REMARK  status: ('A' for Active; 'I' for Inactive)
REMARK    1  A    between atoms: C1_2  and  C2_3 
ROOT
ATOM      1  C2  UNL d   1      -0.504   0.354  -0.068  0.00  0.00    -0.073 A 
ATOM      2  C3  UNL d   1       0.157   1.545  -0.390  0.00  0.00    -0.002 A 
ATOM      3  C4  UNL d   1       1.541   1.643  -0.248  0.00  0.00     0.004 A 
ATOM      4  C5  UNL d   1       2.279   0.552   0.211  0.00  0.00    -0.004 A 
ATOM      5  C6  UNL d   1       1.638  -0.651   0.526  0.00  0.00    -0.075 A 
ATOM      6  C7  UNL d   1       2.417  -1.833   1.023  0.00  0.00     0.076 C 
ATOM      7  C8  UNL d   1       0.247  -0.741   0.383  0.00  0.00     0.001 A 
ENDROOT
BRANCH   1   8
ATOM      8  C1  UNL d   1      -1.999   0.241  -0.226  0.00  0.00     0.053 C 
ATOM      9  C   UNL d   1      -2.742   0.773   0.989  0.00  0.00     0.018 C 
ENDBRANCH   1   8
TORSDOF 1
ENDMDL
