MODEL 1
REMARK minimizedAffinity 3.77423835
REMARK minimizedRMSD -1
REMARK  1 active torsions:
REMARK  status: ('A' for Active; 'I' for Inactive)
REMARK    1  A    between atoms: C1_2  and  C2_3 
ROOT
ATOM      1  C2  UNL d   1       1.999  -1.901  -1.691  0.00  0.00    -0.073 A 
ATOM      2  C3  UNL d   1       2.212  -2.518  -0.453  0.00  0.00    -0.002 A 
ATOM      3  C4  UNL d   1       1.233  -2.464   0.539  0.00  0.00     0.004 A 
ATOM      4  C5  UNL d   1       0.030  -1.799   0.302  0.00  0.00    -0.004 A 
ATOM      5  C6  UNL d   1      -0.207  -1.187  -0.932  0.00  0.00    -0.075 A 
ATOM      6  C7  UNL d   1      -1.495  -0.466  -1.202  0.00  0.00     0.076 C 
ATOM      7  C8  UNL d   1       0.783  -1.243  -1.923  0.00  0.00     0.001 A 
ENDROOT
BRANCH   1   8
ATOM      8  C1  UNL d   1       3.051  -1.962  -2.769  0.00  0.00     0.053 C 
ATOM      9  C   UNL d   1       3.371  -3.393  -3.172  0.00  0.00     0.018 C 
ENDBRANCH   1   8
TORSDOF 1
ENDMDL
