MODEL 1
REMARK minimizedAffinity 12.4892607
REMARK minimizedRMSD -1
REMARK  3 active torsions:
REMARK  status: ('A' for Active; 'I' for Inactive)
REMARK    1  A    between atoms: C3'_2  and  C2'_3 
REMARK    2  A    between atoms: C2'_3  and  C1'_4 
REMARK    3  A    between atoms: C1'_4  and  C1_5 
ROOT
ATOM      1  C1  N4B d   1       0.673  -1.382  -3.245  0.00  0.00    -0.075 A 
ATOM      2  C2  N4B d   1       0.125  -0.807  -4.412  0.00  0.00     0.002 A 
ATOM      3  C3  N4B d   1       0.142   0.556  -4.578  0.00  0.00     0.002 A 
ATOM      4  C4  N4B d   1       0.683   1.362  -3.587  0.00  0.00    -0.004 A 
ATOM      5  C5  N4B d   1       1.234   0.796  -2.474  0.00  0.00     0.002 A 
ATOM      6  C6  N4B d   1       1.227  -0.573  -2.296  0.00  0.00     0.002 A 
ENDROOT
BRANCH   1   7
ATOM      7  C1' N4B d   1       0.600  -2.861  -2.979  0.00  0.00     0.057 C 
BRANCH   7   8
ATOM      8  C2' N4B d   1       0.551  -3.607  -4.309  0.00  0.00     0.009 C 
BRANCH   8   9
ATOM      9  C3' N4B d   1       1.937  -3.813  -4.896  0.00  0.00     0.004 C 
ATOM     10  C4' N4B d   1       1.955  -4.830  -5.998  0.00  0.00     0.003 C 
ENDBRANCH   8   9
ENDBRANCH   7   8
ENDBRANCH   1   7
TORSDOF 3
ENDMDL
