MODEL 1
REMARK minimizedAffinity 9.7101326
REMARK minimizedRMSD -1
REMARK  3 active torsions:
REMARK  status: ('A' for Active; 'I' for Inactive)
REMARK    1  A    between atoms: C3'_2  and  C2'_3 
REMARK    2  A    between atoms: C2'_3  and  C1'_4 
REMARK    3  A    between atoms: C1'_4  and  C1_5 
ROOT
ATOM      1  C1  N4B d   1      -3.513   4.025   2.467  0.00  0.00    -0.075 A 
ATOM      2  C2  N4B d   1      -4.907   4.153   2.276  0.00  0.00     0.002 A 
ATOM      3  C3  N4B d   1      -5.622   5.055   3.025  0.00  0.00     0.002 A 
ATOM      4  C4  N4B d   1      -4.973   5.822   3.980  0.00  0.00    -0.004 A 
ATOM      5  C5  N4B d   1      -3.622   5.710   4.141  0.00  0.00     0.002 A 
ATOM      6  C6  N4B d   1      -2.890   4.811   3.392  0.00  0.00     0.002 A 
ENDROOT
BRANCH   1   7
ATOM      7  C1' N4B d   1      -2.703   2.993   1.733  0.00  0.00     0.057 C 
BRANCH   7   8
ATOM      8  C2' N4B d   1      -2.962   1.621   2.348  0.00  0.00     0.009 C 
BRANCH   8   9
ATOM      9  C3' N4B d   1      -1.944   0.591   1.890  0.00  0.00     0.004 C 
ATOM     10  C4' N4B d   1      -2.505  -0.799   1.843  0.00  0.00     0.003 C 
ENDBRANCH   8   9
ENDBRANCH   7   8
ENDBRANCH   1   7
TORSDOF 3
ENDMDL
