MODEL 1
REMARK minimizedAffinity 8.52452469
REMARK minimizedRMSD -1
REMARK  3 active torsions:
REMARK  status: ('A' for Active; 'I' for Inactive)
REMARK    1  A    between atoms: C3'_2  and  C2'_3 
REMARK    2  A    between atoms: C2'_3  and  C1'_4 
REMARK    3  A    between atoms: C1'_4  and  C1_5 
ROOT
ATOM      1  C1  N4B d   1      -2.875   1.195   2.859  0.00  0.00    -0.075 A 
ATOM      2  C2  N4B d   1      -2.191   0.523   1.822  0.00  0.00     0.002 A 
ATOM      3  C3  N4B d   1      -2.327  -0.836   1.678  0.00  0.00     0.002 A 
ATOM      4  C4  N4B d   1      -3.123  -1.544   2.565  0.00  0.00    -0.004 A 
ATOM      5  C5  N4B d   1      -3.800  -0.884   3.549  0.00  0.00     0.002 A 
ATOM      6  C6  N4B d   1      -3.677   0.482   3.703  0.00  0.00     0.002 A 
ENDROOT
BRANCH   1   7
ATOM      7  C1' N4B d   1      -2.690   2.666   3.110  0.00  0.00     0.057 C 
BRANCH   7   8
ATOM      8  C2' N4B d   1      -3.615   3.452   2.185  0.00  0.00     0.009 C 
BRANCH   8   9
ATOM      9  C3' N4B d   1      -3.304   4.939   2.200  0.00  0.00     0.004 C 
ATOM     10  C4' N4B d   1      -4.538   5.790   2.170  0.00  0.00     0.003 C 
ENDBRANCH   8   9
ENDBRANCH   7   8
ENDBRANCH   1   7
TORSDOF 3
ENDMDL
