MODEL 1
REMARK minimizedAffinity 2.90171528
REMARK minimizedRMSD -1
REMARK  3 active torsions:
REMARK  status: ('A' for Active; 'I' for Inactive)
REMARK    1  A    between atoms: C3'_2  and  C2'_3 
REMARK    2  A    between atoms: C2'_3  and  C1'_4 
REMARK    3  A    between atoms: C1'_4  and  C1_5 
ROOT
ATOM      1  C1  N4B d   1      -3.803   5.009   3.494  0.00  0.00    -0.075 A 
ATOM      2  C2  N4B d   1      -5.172   5.321   3.347  0.00  0.00     0.002 A 
ATOM      3  C3  N4B d   1      -5.882   5.816   4.413  0.00  0.00     0.002 A 
ATOM      4  C4  N4B d   1      -5.252   5.988   5.636  0.00  0.00    -0.004 A 
ATOM      5  C5  N4B d   1      -3.923   5.707   5.764  0.00  0.00     0.002 A 
ATOM      6  C6  N4B d   1      -3.196   5.213   4.699  0.00  0.00     0.002 A 
ENDROOT
BRANCH   1   7
ATOM      7  C1' N4B d   1      -3.006   4.385   2.381  0.00  0.00     0.057 C 
BRANCH   7   8
ATOM      8  C2' N4B d   1      -2.406   3.070   2.871  0.00  0.00     0.009 C 
BRANCH   8   9
ATOM      9  C3' N4B d   1      -2.842   1.893   2.015  0.00  0.00     0.004 C 
ATOM     10  C4' N4B d   1      -2.561   0.569   2.662  0.00  0.00     0.003 C 
ENDBRANCH   8   9
ENDBRANCH   7   8
ENDBRANCH   1   7
TORSDOF 3
ENDMDL
