MODEL 1
REMARK minimizedAffinity 1.08547926
REMARK minimizedRMSD -1
REMARK  3 active torsions:
REMARK  status: ('A' for Active; 'I' for Inactive)
REMARK    1  A    between atoms: C3'_2  and  C2'_3 
REMARK    2  A    between atoms: C2'_3  and  C1'_4 
REMARK    3  A    between atoms: C1'_4  and  C1_5 
ROOT
ATOM      1  C1  N4B d   1      -3.419   4.028   2.960  0.00  0.00    -0.075 A 
ATOM      2  C2  N4B d   1      -4.507   4.878   2.666  0.00  0.00     0.002 A 
ATOM      3  C3  N4B d   1      -4.870   5.861   3.554  0.00  0.00     0.002 A 
ATOM      4  C4  N4B d   1      -4.175   5.999   4.746  0.00  0.00    -0.004 A 
ATOM      5  C5  N4B d   1      -3.109   5.190   5.011  0.00  0.00     0.002 A 
ATOM      6  C6  N4B d   1      -2.730   4.201   4.125  0.00  0.00     0.002 A 
ENDROOT
BRANCH   1   7
ATOM      7  C1' N4B d   1      -3.038   2.885   2.059  0.00  0.00     0.057 C 
BRANCH   7   8
ATOM      8  C2' N4B d   1      -2.692   1.669   2.913  0.00  0.00     0.009 C 
BRANCH   8   9
ATOM      9  C3' N4B d   1      -3.312   0.395   2.364  0.00  0.00     0.004 C 
ATOM     10  C4' N4B d   1      -2.699  -0.037   1.066  0.00  0.00     0.003 C 
ENDBRANCH   8   9
ENDBRANCH   7   8
ENDBRANCH   1   7
TORSDOF 3
ENDMDL
