MODEL 1
REMARK minimizedAffinity 2.96306252
REMARK minimizedRMSD -1
REMARK  3 active torsions:
REMARK  status: ('A' for Active; 'I' for Inactive)
REMARK    1  A    between atoms: C3'_2  and  C2'_3 
REMARK    2  A    between atoms: C2'_3  and  C1'_4 
REMARK    3  A    between atoms: C1'_4  and  C1_5 
ROOT
ATOM      1  C1  N4B d   1      -3.459   5.861   2.977  0.00  0.00    -0.075 A 
ATOM      2  C2  N4B d   1      -4.859   5.902   3.162  0.00  0.00     0.002 A 
ATOM      3  C3  N4B d   1      -5.381   5.980   4.430  0.00  0.00     0.002 A 
ATOM      4  C4  N4B d   1      -4.528   5.999   5.523  0.00  0.00    -0.004 A 
ATOM      5  C5  N4B d   1      -3.177   5.985   5.334  0.00  0.00     0.002 A 
ATOM      6  C6  N4B d   1      -2.638   5.911   4.066  0.00  0.00     0.002 A 
ENDROOT
BRANCH   1   7
ATOM      7  C1' N4B d   1      -2.843   5.690   1.615  0.00  0.00     0.057 C 
BRANCH   7   8
ATOM      8  C2' N4B d   1      -2.964   4.229   1.191  0.00  0.00     0.009 C 
BRANCH   8   9
ATOM      9  C3' N4B d   1      -2.888   3.285   2.379  0.00  0.00     0.004 C 
ATOM     10  C4' N4B d   1      -2.515   1.887   1.986  0.00  0.00     0.003 C 
ENDBRANCH   8   9
ENDBRANCH   7   8
ENDBRANCH   1   7
TORSDOF 3
ENDMDL
