MODEL 1
REMARK minimizedAffinity 7.32550573
REMARK minimizedRMSD -1
REMARK  3 active torsions:
REMARK  status: ('A' for Active; 'I' for Inactive)
REMARK    1  A    between atoms: C3'_2  and  C2'_3 
REMARK    2  A    between atoms: C2'_3  and  C1'_4 
REMARK    3  A    between atoms: C1'_4  and  C1_5 
ROOT
ATOM      1  C1  N4B d   1       4.897  -3.239   5.607  0.00  0.00    -0.075 A 
ATOM      2  C2  N4B d   1       3.761  -3.932   5.134  0.00  0.00     0.002 A 
ATOM      3  C3  N4B d   1       3.774  -5.303   5.061  0.00  0.00     0.002 A 
ATOM      4  C4  N4B d   1       4.914  -5.999   5.436  0.00  0.00    -0.004 A 
ATOM      5  C5  N4B d   1       5.998  -5.324   5.917  0.00  0.00     0.002 A 
ATOM      6  C6  N4B d   1       5.997  -3.946   5.999  0.00  0.00     0.002 A 
ENDROOT
BRANCH   1   7
ATOM      7  C1' N4B d   1       4.961  -1.736   5.624  0.00  0.00     0.057 C 
BRANCH   7   8
ATOM      8  C2' N4B d   1       6.000  -1.268   4.610  0.00  0.00     0.009 C 
BRANCH   8   9
ATOM      9  C3' N4B d   1       5.356  -0.613   3.399  0.00  0.00     0.004 C 
ATOM     10  C4' N4B d   1       3.883  -0.878   3.310  0.00  0.00     0.003 C 
ENDBRANCH   8   9
ENDBRANCH   7   8
ENDBRANCH   1   7
TORSDOF 3
ENDMDL
