MODEL 1
REMARK minimizedAffinity 6.0912509
REMARK minimizedRMSD -1
REMARK  3 active torsions:
REMARK  status: ('A' for Active; 'I' for Inactive)
REMARK    1  A    between atoms: C3'_2  and  C2'_3 
REMARK    2  A    between atoms: C2'_3  and  C1'_4 
REMARK    3  A    between atoms: C1'_4  and  C1_5 
ROOT
ATOM      1  C1  N4B d   1      -3.082   5.352   2.594  0.00  0.00    -0.075 A 
ATOM      2  C2  N4B d   1      -4.287   5.655   3.265  0.00  0.00     0.002 A 
ATOM      3  C3  N4B d   1      -4.266   5.984   4.599  0.00  0.00     0.002 A 
ATOM      4  C4  N4B d   1      -3.060   5.998   5.282  0.00  0.00    -0.004 A 
ATOM      5  C5  N4B d   1      -1.898   5.729   4.620  0.00  0.00     0.002 A 
ATOM      6  C6  N4B d   1      -1.903   5.401   3.280  0.00  0.00     0.002 A 
ENDROOT
BRANCH   1   7
ATOM      7  C1' N4B d   1      -3.065   4.903   1.158  0.00  0.00     0.057 C 
BRANCH   7   8
ATOM      8  C2' N4B d   1      -3.591   3.473   1.074  0.00  0.00     0.009 C 
BRANCH   8   9
ATOM      9  C3' N4B d   1      -3.158   2.637   2.266  0.00  0.00     0.004 C 
ATOM     10  C4' N4B d   1      -3.207   1.164   1.991  0.00  0.00     0.003 C 
ENDBRANCH   8   9
ENDBRANCH   7   8
ENDBRANCH   1   7
TORSDOF 3
ENDMDL
