MODEL 1
REMARK minimizedAffinity 1.91260123
REMARK minimizedRMSD -1
REMARK  3 active torsions:
REMARK  status: ('A' for Active; 'I' for Inactive)
REMARK    1  A    between atoms: C3'_2  and  C2'_3 
REMARK    2  A    between atoms: C2'_3  and  C1'_4 
REMARK    3  A    between atoms: C1'_4  and  C1_5 
ROOT
ATOM      1  C1  N4B d   1      -3.511   3.995   2.678  0.00  0.00    -0.075 A 
ATOM      2  C2  N4B d   1      -4.658   4.798   2.491  0.00  0.00     0.002 A 
ATOM      3  C3  N4B d   1      -4.949   5.798   3.386  0.00  0.00     0.002 A 
ATOM      4  C4  N4B d   1      -4.123   6.000   4.481  0.00  0.00    -0.004 A 
ATOM      5  C5  N4B d   1      -3.003   5.237   4.641  0.00  0.00     0.002 A 
ATOM      6  C6  N4B d   1      -2.696   4.231   3.747  0.00  0.00     0.002 A 
ENDROOT
BRANCH   1   7
ATOM      7  C1' N4B d   1      -3.198   2.835   1.773  0.00  0.00     0.057 C 
BRANCH   7   8
ATOM      8  C2' N4B d   1      -2.617   1.695   2.604  0.00  0.00     0.009 C 
BRANCH   8   9
ATOM      9  C3' N4B d   1      -3.383   0.398   2.404  0.00  0.00     0.004 C 
ATOM     10  C4' N4B d   1      -4.199   0.015   3.602  0.00  0.00     0.003 C 
ENDBRANCH   8   9
ENDBRANCH   7   8
ENDBRANCH   1   7
TORSDOF 3
ENDMDL
