MODEL 1
REMARK minimizedAffinity 1.93503642
REMARK minimizedRMSD -1
REMARK  0 active torsions:
REMARK  status: ('A' for Active; 'I' for Inactive)
ROOT
ATOM      1  C1  DEN d   1       2.634  -5.922  -2.272  0.00  0.00     0.130 A 
ATOM      2  C2  DEN d   1       3.783  -5.939  -1.371  0.00  0.00    -0.031 A 
ATOM      3  C3  DEN d   1       5.009  -5.966  -2.193  0.00  0.00     0.027 A 
ATOM      4  C4  DEN d   1       5.239  -5.977  -4.762  0.00  0.00     0.027 A 
ATOM      5  C5  DEN d   1       4.544  -5.981  -5.952  0.00  0.00    -0.003 A 
ATOM      6  C6  DEN d   1       3.175  -6.000  -5.998  0.00  0.00     0.001 A 
ATOM      7  C7  DEN d   1       2.457  -5.970  -4.832  0.00  0.00     0.017 A 
ATOM      8  C8  DEN d   1       3.150  -5.973  -3.629  0.00  0.00    -0.094 A 
ATOM      9  C9  DEN d   1       4.534  -5.942  -3.603  0.00  0.00    -0.072 A 
ENDROOT
TORSDOF 0
ENDMDL
