MODEL 1
REMARK minimizedAffinity 1.57218087
REMARK minimizedRMSD -1
REMARK  0 active torsions:
REMARK  status: ('A' for Active; 'I' for Inactive)
ROOT
ATOM      1  C1  DEN d   1       5.230  -5.743  -2.251  0.00  0.00     0.130 A 
ATOM      2  C2  DEN d   1       4.047  -5.609  -1.406  0.00  0.00    -0.031 A 
ATOM      3  C3  DEN d   1       2.857  -5.624  -2.280  0.00  0.00     0.027 A 
ATOM      4  C4  DEN d   1       2.732  -5.844  -4.847  0.00  0.00     0.027 A 
ATOM      5  C5  DEN d   1       3.474  -5.970  -6.000  0.00  0.00    -0.003 A 
ATOM      6  C6  DEN d   1       4.844  -5.995  -5.988  0.00  0.00     0.001 A 
ATOM      7  C7  DEN d   1       5.513  -5.938  -4.794  0.00  0.00     0.017 A 
ATOM      8  C8  DEN d   1       4.772  -5.803  -3.628  0.00  0.00    -0.094 A 
ATOM      9  C9  DEN d   1       3.387  -5.792  -3.660  0.00  0.00    -0.072 A 
ENDROOT
TORSDOF 0
ENDMDL
