MODEL 1
REMARK minimizedAffinity 3.16712904
REMARK minimizedRMSD -1
REMARK  0 active torsions:
REMARK  status: ('A' for Active; 'I' for Inactive)
ROOT
ATOM      1  C1  DEN d   1       2.523  -3.290   2.403  0.00  0.00     0.130 A 
ATOM      2  C2  DEN d   1       1.805  -3.891   3.524  0.00  0.00    -0.031 A 
ATOM      3  C3  DEN d   1       1.160  -2.804   4.287  0.00  0.00     0.027 A 
ATOM      4  C4  DEN d   1       1.196  -0.264   3.841  0.00  0.00     0.027 A 
ATOM      5  C5  DEN d   1       1.683   0.724   3.013  0.00  0.00    -0.003 A 
ATOM      6  C6  DEN d   1       2.504   0.448   1.952  0.00  0.00     0.001 A 
ATOM      7  C7  DEN d   1       2.827  -0.852   1.664  0.00  0.00     0.017 A 
ATOM      8  C8  DEN d   1       2.347  -1.852   2.499  0.00  0.00    -0.094 A 
ATOM      9  C9  DEN d   1       1.508  -1.554   3.559  0.00  0.00    -0.072 A 
ENDROOT
TORSDOF 0
ENDMDL
