MODEL 1
REMARK minimizedAffinity 22.0164719
REMARK minimizedRMSD -1
REMARK  0 active torsions:
REMARK  status: ('A' for Active; 'I' for Inactive)
ROOT
ATOM      1  C1  DEN d   1       1.989  -1.511   1.661  0.00  0.00     0.130 A 
ATOM      2  C2  DEN d   1       1.593  -1.830   3.030  0.00  0.00    -0.031 A 
ATOM      3  C3  DEN d   1       1.759  -0.612   3.849  0.00  0.00     0.027 A 
ATOM      4  C4  DEN d   1       2.581   1.726   3.132  0.00  0.00     0.027 A 
ATOM      5  C5  DEN d   1       3.043   2.478   2.075  0.00  0.00    -0.003 A 
ATOM      6  C6  DEN d   1       3.217   1.949   0.823  0.00  0.00     0.001 A 
ATOM      7  C7  DEN d   1       2.884   0.641   0.587  0.00  0.00     0.017 A 
ATOM      8  C8  DEN d   1       2.424  -0.126   1.650  0.00  0.00    -0.094 A 
ATOM      9  C9  DEN d   1       2.244   0.431   2.905  0.00  0.00    -0.072 A 
ENDROOT
TORSDOF 0
ENDMDL
