MODEL 1
REMARK minimizedAffinity -1.05277574
REMARK minimizedRMSD -1
REMARK  0 active torsions:
REMARK  status: ('A' for Active; 'I' for Inactive)
ROOT
ATOM      1  C   UNL d   1      -2.165   6.000  -5.990  0.00  0.00     0.172 C 
ATOM      2  N   UNL d   1      -0.982   5.470  -5.354  0.00  0.00    -0.070 N 
ATOM      3  C1  UNL d   1       0.098   4.930  -6.000  0.00  0.00    -0.004 A 
ATOM      4  C2  UNL d   1       1.011   4.542  -5.043  0.00  0.00    -0.047 A 
ATOM      5  C3  UNL d   1       0.460   4.859  -3.779  0.00  0.00    -0.047 A 
ATOM      6  C4  UNL d   1      -0.774   5.432  -4.000  0.00  0.00    -0.004 A 
ENDROOT
TORSDOF 0
ENDMDL
