MODEL 1
REMARK minimizedAffinity 3.87525153
REMARK minimizedRMSD -1
REMARK  0 active torsions:
REMARK  status: ('A' for Active; 'I' for Inactive)
ROOT
ATOM      1  C   UNL d   1      -3.220   0.811   5.593  0.00  0.00     0.172 C 
ATOM      2  N   UNL d   1      -3.804   0.126   4.464  0.00  0.00    -0.070 N 
ATOM      3  C1  UNL d   1      -3.473   0.327   3.150  0.00  0.00    -0.004 A 
ATOM      4  C2  UNL d   1      -4.250  -0.516   2.386  0.00  0.00    -0.047 A 
ATOM      5  C3  UNL d   1      -5.077  -1.248   3.270  0.00  0.00    -0.047 A 
ATOM      6  C4  UNL d   1      -4.780  -0.831   4.550  0.00  0.00    -0.004 A 
ENDROOT
TORSDOF 0
ENDMDL
