MODEL 1
REMARK minimizedAffinity 0.417402446
REMARK minimizedRMSD -1
REMARK  0 active torsions:
REMARK  status: ('A' for Active; 'I' for Inactive)
ROOT
ATOM      1  C   UNL d   1       1.581   3.756  -2.951  0.00  0.00     0.172 C 
ATOM      2  N   UNL d   1       0.753   4.305  -3.998  0.00  0.00    -0.070 N 
ATOM      3  C1  UNL d   1       1.050   4.303  -5.335  0.00  0.00    -0.004 A 
ATOM      4  C2  UNL d   1       0.011   4.917  -6.000  0.00  0.00    -0.047 A 
ATOM      5  C3  UNL d   1      -0.944   5.303  -5.029  0.00  0.00    -0.047 A 
ATOM      6  C4  UNL d   1      -0.459   4.912  -3.799  0.00  0.00    -0.004 A 
ENDROOT
TORSDOF 0
ENDMDL
