MODEL 1
REMARK minimizedAffinity 1.47550607
REMARK minimizedRMSD -1
REMARK  0 active torsions:
REMARK  status: ('A' for Active; 'I' for Inactive)
ROOT
ATOM      1  C   UNL d   1      -2.600   5.967  -5.985  0.00  0.00     0.172 C 
ATOM      2  N   UNL d   1      -1.327   5.679  -5.367  0.00  0.00    -0.070 N 
ATOM      3  C1  UNL d   1      -0.235   5.149  -5.999  0.00  0.00    -0.004 A 
ATOM      4  C2  UNL d   1       0.774   5.029  -5.069  0.00  0.00    -0.047 A 
ATOM      5  C3  UNL d   1       0.271   5.502  -3.834  0.00  0.00    -0.047 A 
ATOM      6  C4  UNL d   1      -1.032   5.899  -4.047  0.00  0.00    -0.004 A 
ENDROOT
TORSDOF 0
ENDMDL
