MODEL 1
REMARK minimizedAffinity 1.52005792
REMARK minimizedRMSD -1
REMARK  0 active torsions:
REMARK  status: ('A' for Active; 'I' for Inactive)
ROOT
ATOM      1  C   UNL d   1      -5.188  -4.875  -5.658  0.00  0.00     0.172 C 
ATOM      2  N   UNL d   1      -3.780  -5.064  -5.394  0.00  0.00    -0.070 N 
ATOM      3  C1  UNL d   1      -2.972  -5.990  -5.998  0.00  0.00    -0.004 A 
ATOM      4  C2  UNL d   1      -1.705  -5.849  -5.475  0.00  0.00    -0.047 A 
ATOM      5  C3  UNL d   1      -1.753  -4.802  -4.524  0.00  0.00    -0.047 A 
ATOM      6  C4  UNL d   1      -3.050  -4.334  -4.494  0.00  0.00    -0.004 A 
ENDROOT
TORSDOF 0
ENDMDL
