MODEL 1
REMARK minimizedAffinity 6.66409779
REMARK minimizedRMSD -1
REMARK  0 active torsions:
REMARK  status: ('A' for Active; 'I' for Inactive)
ROOT
ATOM      1  C   UNL d   1       1.442   4.142  -2.969  0.00  0.00     0.172 C 
ATOM      2  N   UNL d   1       0.867   4.891  -4.062  0.00  0.00    -0.070 N 
ATOM      3  C1  UNL d   1       1.526   5.275  -5.200  0.00  0.00    -0.004 A 
ATOM      4  C2  UNL d   1       0.633   5.967  -5.990  0.00  0.00    -0.047 A 
ATOM      5  C3  UNL d   1      -0.604   6.000  -5.304  0.00  0.00    -0.047 A 
ATOM      6  C4  UNL d   1      -0.431   5.326  -4.113  0.00  0.00    -0.004 A 
ENDROOT
TORSDOF 0
ENDMDL
