MODEL 1
REMARK minimizedAffinity 4.80191851
REMARK minimizedRMSD -1
REMARK  0 active torsions:
REMARK  status: ('A' for Active; 'I' for Inactive)
ROOT
ATOM      1  C   UNL d   1       1.404   5.584  -5.978  0.00  0.00     0.172 C 
ATOM      2  N   UNL d   1       0.068   5.458  -5.445  0.00  0.00    -0.070 N 
ATOM      3  C1  UNL d   1      -1.066   5.988  -6.000  0.00  0.00    -0.004 A 
ATOM      4  C2  UNL d   1      -2.130   5.645  -5.194  0.00  0.00    -0.047 A 
ATOM      5  C3  UNL d   1      -1.618   4.883  -4.117  0.00  0.00    -0.047 A 
ATOM      6  C4  UNL d   1      -0.254   4.783  -4.297  0.00  0.00    -0.004 A 
ENDROOT
TORSDOF 0
ENDMDL
