MODEL 1
REMARK minimizedAffinity 3.47969723
REMARK minimizedRMSD -1
REMARK  0 active torsions:
REMARK  status: ('A' for Active; 'I' for Inactive)
ROOT
ATOM      1  C   UNL d   1      -3.305   5.998  -5.379  0.00  0.00     0.172 C 
ATOM      2  N   UNL d   1      -1.895   5.947  -5.070  0.00  0.00    -0.070 N 
ATOM      3  C1  UNL d   1      -1.351   6.000  -3.814  0.00  0.00    -0.004 A 
ATOM      4  C2  UNL d   1       0.019   5.922  -3.945  0.00  0.00    -0.047 A 
ATOM      5  C3  UNL d   1       0.308   5.820  -5.327  0.00  0.00    -0.047 A 
ATOM      6  C4  UNL d   1      -0.896   5.838  -6.000  0.00  0.00    -0.004 A 
ENDROOT
TORSDOF 0
ENDMDL
