MODEL 1
REMARK minimizedAffinity 8.8170805
REMARK minimizedRMSD -1
REMARK  0 active torsions:
REMARK  status: ('A' for Active; 'I' for Inactive)
ROOT
ATOM      1  C   UNL d   1      -0.341  -3.756   1.060  0.00  0.00     0.172 C 
ATOM      2  N   UNL d   1      -0.329  -2.725   2.072  0.00  0.00    -0.070 N 
ATOM      3  C1  UNL d   1       0.291  -2.810   3.290  0.00  0.00    -0.004 A 
ATOM      4  C2  UNL d   1       0.070  -1.625   3.959  0.00  0.00    -0.047 A 
ATOM      5  C3  UNL d   1      -0.710  -0.801   3.114  0.00  0.00    -0.047 A 
ATOM      6  C4  UNL d   1      -0.943  -1.506   1.952  0.00  0.00    -0.004 A 
ENDROOT
TORSDOF 0
ENDMDL
