MODEL 1
REMARK minimizedAffinity 1.1240015
REMARK minimizedRMSD -1
REMARK  0 active torsions:
REMARK  status: ('A' for Active; 'I' for Inactive)
ROOT
ATOM      1  C   UNL d   1      -3.990  -0.212  -2.115  0.00  0.00     0.172 C 
ATOM      2  N   UNL d   1      -3.734   0.049  -0.718  0.00  0.00    -0.070 N 
ATOM      3  C1  UNL d   1      -2.877  -0.657   0.083  0.00  0.00    -0.004 A 
ATOM      4  C2  UNL d   1      -2.916  -0.096   1.341  0.00  0.00    -0.047 A 
ATOM      5  C3  UNL d   1      -3.829   0.984   1.295  0.00  0.00    -0.047 A 
ATOM      6  C4  UNL d   1      -4.321   1.052   0.009  0.00  0.00    -0.004 A 
ENDROOT
TORSDOF 0
ENDMDL
