MODEL 1
REMARK minimizedAffinity 4.44151354
REMARK minimizedRMSD -1
REMARK  0 active torsions:
REMARK  status: ('A' for Active; 'I' for Inactive)
ROOT
ATOM      1  C   UNL d   1       1.984   4.758  -5.113  0.00  0.00     0.172 C 
ATOM      2  N   UNL d   1       0.574   5.068  -5.156  0.00  0.00    -0.070 N 
ATOM      3  C1  UNL d   1      -0.343   4.500  -6.000  0.00  0.00    -0.004 A 
ATOM      4  C2  UNL d   1      -1.571   5.062  -5.727  0.00  0.00    -0.047 A 
ATOM      5  C3  UNL d   1      -1.386   6.000  -4.684  0.00  0.00    -0.047 A 
ATOM      6  C4  UNL d   1      -0.049   5.983  -4.350  0.00  0.00    -0.004 A 
ENDROOT
TORSDOF 0
ENDMDL
