MODEL 1
REMARK minimizedAffinity 0.933846056
REMARK minimizedRMSD -1
REMARK  0 active torsions:
REMARK  status: ('A' for Active; 'I' for Inactive)
ROOT
ATOM      1  C   UNL d   1      -1.048  -4.502  -4.989  0.00  0.00     0.172 C 
ATOM      2  N   UNL d   1      -2.419  -4.885  -5.233  0.00  0.00    -0.070 N 
ATOM      3  C1  UNL d   1      -3.526  -4.247  -4.741  0.00  0.00    -0.004 A 
ATOM      4  C2  UNL d   1      -4.639  -4.918  -5.201  0.00  0.00    -0.047 A 
ATOM      5  C3  UNL d   1      -4.184  -5.996  -5.996  0.00  0.00    -0.047 A 
ATOM      6  C4  UNL d   1      -2.806  -5.953  -5.999  0.00  0.00    -0.004 A 
ENDROOT
TORSDOF 0
ENDMDL
