MODEL 1
REMARK minimizedAffinity 7.18049192
REMARK minimizedRMSD -1
REMARK  0 active torsions:
REMARK  status: ('A' for Active; 'I' for Inactive)
ROOT
ATOM      1  C   UNL d   1      -4.241   1.102  -0.253  0.00  0.00     0.172 C 
ATOM      2  N   UNL d   1      -3.282   0.364   0.536  0.00  0.00    -0.070 N 
ATOM      3  C1  UNL d   1      -3.023  -0.976   0.429  0.00  0.00    -0.004 A 
ATOM      4  C2  UNL d   1      -2.049  -1.293   1.351  0.00  0.00    -0.047 A 
ATOM      5  C3  UNL d   1      -1.713  -0.102   2.037  0.00  0.00    -0.047 A 
ATOM      6  C4  UNL d   1      -2.491   0.908   1.513  0.00  0.00    -0.004 A 
ENDROOT
TORSDOF 0
ENDMDL
