MODEL 1
REMARK minimizedAffinity 2.32792091
REMARK minimizedRMSD -1
REMARK  0 active torsions:
REMARK  status: ('A' for Active; 'I' for Inactive)
ROOT
ATOM      1  C   UNL d   1      -3.902   1.007  -0.249  0.00  0.00     0.172 C 
ATOM      2  N   UNL d   1      -3.173   0.238   0.731  0.00  0.00    -0.070 N 
ATOM      3  C1  UNL d   1      -2.513   0.748   1.817  0.00  0.00    -0.004 A 
ATOM      4  C2  UNL d   1      -1.948  -0.306   2.502  0.00  0.00    -0.047 A 
ATOM      5  C3  UNL d   1      -2.279  -1.491   1.803  0.00  0.00    -0.047 A 
ATOM      6  C4  UNL d   1      -3.038  -1.126   0.712  0.00  0.00    -0.004 A 
ENDROOT
TORSDOF 0
ENDMDL
