MODEL 1
REMARK minimizedAffinity -4.05701303
REMARK minimizedRMSD -1
REMARK  1 active torsions:
REMARK  status: ('A' for Active; 'I' for Inactive)
REMARK    1  A    between atoms: C1_2  and  C2_3 
ROOT
ATOM      1  C2  UNL d   1       0.107  -0.689  -2.603  0.00  0.00    -0.077 A 
ATOM      2  C3  UNL d   1      -0.268  -0.801  -3.949  0.00  0.00     0.002 A 
ATOM      3  C4  UNL d   1       0.456  -0.136  -4.941  0.00  0.00     0.002 A 
ATOM      4  C5  UNL d   1       1.559   0.642  -4.598  0.00  0.00    -0.004 A 
ATOM      5  C6  UNL d   1       1.939   0.761  -3.262  0.00  0.00     0.002 A 
ATOM      6  C7  UNL d   1       1.216   0.098  -2.269  0.00  0.00     0.002 A 
ENDROOT
BRANCH   1   7
ATOM      7  C1  UNL d   1      -0.642  -1.445  -1.537  0.00  0.00     0.055 C 
ATOM      8  C   UNL d   1      -1.369  -0.498  -0.594  0.00  0.00     0.019 C 
ENDBRANCH   1   7
TORSDOF 1
ENDMDL
