MODEL 1
REMARK minimizedAffinity -1.04605162
REMARK minimizedRMSD -1
REMARK  1 active torsions:
REMARK  status: ('A' for Active; 'I' for Inactive)
REMARK    1  A    between atoms: C1_2  and  C2_3 
ROOT
ATOM      1  C2  UNL d   1      -1.202  -1.423  -0.899  0.00  0.00    -0.077 A 
ATOM      2  C3  UNL d   1      -2.262  -0.970  -0.101  0.00  0.00     0.002 A 
ATOM      3  C4  UNL d   1      -3.399  -1.760   0.078  0.00  0.00     0.002 A 
ATOM      4  C5  UNL d   1      -3.485  -3.008  -0.533  0.00  0.00    -0.004 A 
ATOM      5  C6  UNL d   1      -2.438  -3.467  -1.330  0.00  0.00     0.002 A 
ATOM      6  C7  UNL d   1      -1.301  -2.679  -1.511  0.00  0.00     0.002 A 
ENDROOT
BRANCH   1   7
ATOM      7  C1  UNL d   1       0.047  -0.594  -1.053  0.00  0.00     0.055 C 
ATOM      8  C   UNL d   1       0.119   0.499   0.003  0.00  0.00     0.019 C 
ENDBRANCH   1   7
TORSDOF 1
ENDMDL
