MODEL 1
REMARK minimizedAffinity -5.38242435
REMARK minimizedRMSD -1
REMARK  1 active torsions:
REMARK  status: ('A' for Active; 'I' for Inactive)
REMARK    1  A    between atoms: C1_2  and  C2_3 
ROOT
ATOM      1  C2  UNL d   1       0.010   0.256   0.717  0.00  0.00    -0.077 A 
ATOM      2  C3  UNL d   1       0.905   1.057   1.439  0.00  0.00     0.002 A 
ATOM      3  C4  UNL d   1       0.446   1.865   2.482  0.00  0.00     0.002 A 
ATOM      4  C5  UNL d   1      -0.907   1.876   2.814  0.00  0.00    -0.004 A 
ATOM      5  C6  UNL d   1      -1.805   1.085   2.099  0.00  0.00     0.002 A 
ATOM      6  C7  UNL d   1      -1.349   0.278   1.056  0.00  0.00     0.002 A 
ENDROOT
BRANCH   1   7
ATOM      7  C1  UNL d   1       0.509  -0.653  -0.376  0.00  0.00     0.055 C 
ATOM      8  C   UNL d   1       0.759   0.116  -1.665  0.00  0.00     0.019 C 
ENDBRANCH   1   7
TORSDOF 1
ENDMDL
