MODEL 1
REMARK minimizedAffinity 1.69661546
REMARK minimizedRMSD -1
REMARK  1 active torsions:
REMARK  status: ('A' for Active; 'I' for Inactive)
REMARK    1  A    between atoms: C1_2  and  C2_3 
ROOT
ATOM      1  C2  UNL d   1       0.794  -0.054  -1.318  0.00  0.00    -0.077 A 
ATOM      2  C3  UNL d   1      -0.003   0.981  -0.808  0.00  0.00     0.002 A 
ATOM      3  C4  UNL d   1       0.010   1.274   0.557  0.00  0.00     0.002 A 
ATOM      4  C5  UNL d   1       0.821   0.542   1.421  0.00  0.00    -0.004 A 
ATOM      5  C6  UNL d   1       1.616  -0.490   0.924  0.00  0.00     0.002 A 
ATOM      6  C7  UNL d   1       1.603  -0.786  -0.440  0.00  0.00     0.002 A 
ENDROOT
BRANCH   1   7
ATOM      7  C1  UNL d   1       0.818  -0.340  -2.797  0.00  0.00     0.055 C 
ATOM      8  C   UNL d   1       1.591   0.730  -3.555  0.00  0.00     0.019 C 
ENDBRANCH   1   7
TORSDOF 1
ENDMDL
