MODEL 1
REMARK minimizedAffinity -2.87798524
REMARK minimizedRMSD -1
REMARK  1 active torsions:
REMARK  status: ('A' for Active; 'I' for Inactive)
REMARK    1  A    between atoms: C1_2  and  C2_3 
ROOT
ATOM      1  C2  UNL d   1       1.480   0.391  -4.142  0.00  0.00    -0.077 A 
ATOM      2  C3  UNL d   1       0.732  -0.721  -3.729  0.00  0.00     0.002 A 
ATOM      3  C4  UNL d   1      -0.399  -1.116  -4.446  0.00  0.00     0.002 A 
ATOM      4  C5  UNL d   1      -0.789  -0.409  -5.581  0.00  0.00    -0.004 A 
ATOM      5  C6  UNL d   1      -0.052   0.699  -5.998  0.00  0.00     0.002 A 
ATOM      6  C7  UNL d   1       1.078   1.097  -5.283  0.00  0.00     0.002 A 
ENDROOT
BRANCH   1   7
ATOM      7  C1  UNL d   1       2.729   0.789  -3.399  0.00  0.00     0.055 C 
ATOM      8  C   UNL d   1       3.925  -0.042  -3.839  0.00  0.00     0.019 C 
ENDBRANCH   1   7
TORSDOF 1
ENDMDL
