MODEL 1
REMARK minimizedAffinity -1.486413
REMARK minimizedRMSD -1
REMARK  0 active torsions:
REMARK  status: ('A' for Active; 'I' for Inactive)
ROOT
ATOM      1  C   UNL d   1      -0.932   1.407   1.121  0.00  0.00     0.020 A 
ATOM      2  C1  UNL d   1      -1.563   0.177   1.307  0.00  0.00     0.020 A 
ATOM      3  C2  UNL d   1      -1.166  -0.931   0.556  0.00  0.00     0.034 A 
ATOM      4  C3  UNL d   1      -0.136  -0.813  -0.384  0.00  0.00     0.017 A 
ATOM      5  C4  UNL d   1       0.496   0.422  -0.570  0.00  0.00     0.017 A 
ATOM      6  C5  UNL d   1       0.095   1.528   0.184  0.00  0.00     0.034 A 
ATOM      7 Cl   UNL d   1       1.775   0.645  -1.711  0.00  0.00    -0.070 Cl
ATOM      8 Cl1  UNL d   1       0.302  -2.226  -1.277  0.00  0.00    -0.070 Cl
ENDROOT
TORSDOF 0
ENDMDL
