MODEL 1
REMARK minimizedAffinity -1.66556656
REMARK minimizedRMSD -1
REMARK  0 active torsions:
REMARK  status: ('A' for Active; 'I' for Inactive)
ROOT
ATOM      1  C   UNL d   1       0.867  -1.468  -0.926  0.00  0.00     0.020 A 
ATOM      2  C1  UNL d   1       0.078  -1.844   0.160  0.00  0.00     0.020 A 
ATOM      3  C2  UNL d   1      -0.746  -0.904   0.784  0.00  0.00     0.034 A 
ATOM      4  C3  UNL d   1      -0.781   0.417   0.322  0.00  0.00     0.017 A 
ATOM      5  C4  UNL d   1       0.012   0.794  -0.768  0.00  0.00     0.017 A 
ATOM      6  C5  UNL d   1       0.834  -0.152  -1.389  0.00  0.00     0.034 A 
ATOM      7 Cl   UNL d   1       0.021   2.404  -1.394  0.00  0.00    -0.070 Cl
ATOM      8 Cl1  UNL d   1      -1.823   1.526   1.141  0.00  0.00    -0.070 Cl
ENDROOT
TORSDOF 0
ENDMDL
