MODEL 1
REMARK minimizedAffinity -2.75802517
REMARK minimizedRMSD -1
REMARK  0 active torsions:
REMARK  status: ('A' for Active; 'I' for Inactive)
ROOT
ATOM      1  C   UNL d   1      -1.802   1.935   1.759  0.00  0.00     0.020 A 
ATOM      2  C1  UNL d   1      -2.054   0.588   2.013  0.00  0.00     0.020 A 
ATOM      3  C2  UNL d   1      -1.391  -0.397   1.277  0.00  0.00     0.034 A 
ATOM      4  C3  UNL d   1      -0.472  -0.036   0.285  0.00  0.00     0.017 A 
ATOM      5  C4  UNL d   1      -0.220   1.317   0.032  0.00  0.00     0.017 A 
ATOM      6  C5  UNL d   1      -0.887   2.299   0.771  0.00  0.00     0.034 A 
ATOM      7 Cl   UNL d   1       0.900   1.841  -1.176  0.00  0.00    -0.070 Cl
ATOM      8 Cl1  UNL d   1       0.311  -1.306  -0.585  0.00  0.00    -0.070 Cl
ENDROOT
TORSDOF 0
ENDMDL
