MODEL 1
REMARK minimizedAffinity -1.58144057
REMARK minimizedRMSD -1
REMARK  0 active torsions:
REMARK  status: ('A' for Active; 'I' for Inactive)
ROOT
ATOM      1  C   UNL d   1       0.401   0.742  -0.889  0.00  0.00     0.020 A 
ATOM      2  C1  UNL d   1       0.865  -0.562  -0.718  0.00  0.00     0.020 A 
ATOM      3  C2  UNL d   1       0.527  -1.278   0.433  0.00  0.00     0.034 A 
ATOM      4  C3  UNL d   1      -0.277  -0.690   1.417  0.00  0.00     0.017 A 
ATOM      5  C4  UNL d   1      -0.741   0.619   1.244  0.00  0.00     0.017 A 
ATOM      6  C5  UNL d   1      -0.400   1.331   0.090  0.00  0.00     0.034 A 
ATOM      7 Cl   UNL d   1      -1.737   1.411   2.414  0.00  0.00    -0.070 Cl
ATOM      8 Cl1  UNL d   1      -0.655  -1.634   2.814  0.00  0.00    -0.070 Cl
ENDROOT
TORSDOF 0
ENDMDL
