MODEL 1
REMARK minimizedAffinity -5.05840588
REMARK minimizedRMSD -1
REMARK  0 active torsions:
REMARK  status: ('A' for Active; 'I' for Inactive)
ROOT
ATOM      1  C   UNL d   1      -1.528   1.737  -0.378  0.00  0.00     0.020 A 
ATOM      2  C1  UNL d   1      -2.010   1.812   0.928  0.00  0.00     0.020 A 
ATOM      3  C2  UNL d   1      -1.622   0.858   1.871  0.00  0.00     0.034 A 
ATOM      4  C3  UNL d   1      -0.750  -0.175   1.509  0.00  0.00     0.017 A 
ATOM      5  C4  UNL d   1      -0.267  -0.250   0.198  0.00  0.00     0.017 A 
ATOM      6  C5  UNL d   1      -0.658   0.709  -0.742  0.00  0.00     0.034 A 
ATOM      7 Cl   UNL d   1       0.812  -1.495  -0.323  0.00  0.00    -0.070 Cl
ATOM      8 Cl1  UNL d   1      -0.312  -1.320   2.727  0.00  0.00    -0.070 Cl
ENDROOT
TORSDOF 0
ENDMDL
