MODEL 1
REMARK minimizedAffinity -4.70334435
REMARK minimizedRMSD -1
REMARK  0 active torsions:
REMARK  status: ('A' for Active; 'I' for Inactive)
ROOT
ATOM      1  C   UNL d   1      -1.489  -0.270   2.087  0.00  0.00     0.020 A 
ATOM      2  C1  UNL d   1      -1.735   1.103   2.090  0.00  0.00     0.020 A 
ATOM      3  C2  UNL d   1      -1.248   1.902   1.054  0.00  0.00     0.034 A 
ATOM      4  C3  UNL d   1      -0.511   1.329   0.010  0.00  0.00     0.017 A 
ATOM      5  C4  UNL d   1      -0.264  -0.048   0.008  0.00  0.00     0.017 A 
ATOM      6  C5  UNL d   1      -0.755  -0.844   1.048  0.00  0.00     0.034 A 
ATOM      7 Cl   UNL d   1       0.637  -0.827  -1.245  0.00  0.00    -0.070 Cl
ATOM      8 Cl1  UNL d   1       0.062   2.378  -1.238  0.00  0.00    -0.070 Cl
ENDROOT
TORSDOF 0
ENDMDL
