MODEL 1
REMARK minimizedAffinity -3.76765442
REMARK minimizedRMSD -1
REMARK  0 active torsions:
REMARK  status: ('A' for Active; 'I' for Inactive)
ROOT
ATOM      1  C   UNL d   1      -1.599   1.943   0.072  0.00  0.00     0.020 A 
ATOM      2  C1  UNL d   1      -1.807   1.950   1.451  0.00  0.00     0.020 A 
ATOM      3  C2  UNL d   1      -1.291   0.921   2.241  0.00  0.00     0.034 A 
ATOM      4  C3  UNL d   1      -0.564  -0.121   1.653  0.00  0.00     0.017 A 
ATOM      5  C4  UNL d   1      -0.356  -0.128   0.269  0.00  0.00     0.017 A 
ATOM      6  C5  UNL d   1      -0.875   0.906  -0.517  0.00  0.00     0.034 A 
ATOM      7 Cl   UNL d   1       0.531  -1.378  -0.529  0.00  0.00    -0.070 Cl
ATOM      8 Cl1  UNL d   1       0.045  -1.361   2.690  0.00  0.00    -0.070 Cl
ENDROOT
TORSDOF 0
ENDMDL
