MODEL 1
REMARK minimizedAffinity -3.37283731
REMARK minimizedRMSD -1
REMARK  0 active torsions:
REMARK  status: ('A' for Active; 'I' for Inactive)
ROOT
ATOM      1  C   UNL d   1      -2.051   2.252   0.243  0.00  0.00     0.020 A 
ATOM      2  C1  UNL d   1      -1.656   2.375   1.574  0.00  0.00     0.020 A 
ATOM      3  C2  UNL d   1      -0.867   1.386   2.163  0.00  0.00     0.034 A 
ATOM      4  C3  UNL d   1      -0.470   0.267   1.421  0.00  0.00     0.017 A 
ATOM      5  C4  UNL d   1      -0.867   0.144   0.084  0.00  0.00     0.017 A 
ATOM      6  C5  UNL d   1      -1.658   1.138  -0.500  0.00  0.00     0.034 A 
ATOM      7 Cl   UNL d   1      -0.417  -1.207  -0.895  0.00  0.00    -0.070 Cl
ATOM      8 Cl1  UNL d   1       0.506  -0.918   2.213  0.00  0.00    -0.070 Cl
ENDROOT
TORSDOF 0
ENDMDL
