MODEL 1
REMARK minimizedAffinity -5.17760611
REMARK minimizedRMSD -1
REMARK  0 active torsions:
REMARK  status: ('A' for Active; 'I' for Inactive)
ROOT
ATOM      1  C   UNL d   1      -1.337   0.187   2.041  0.00  0.00     0.020 A 
ATOM      2  C1  UNL d   1      -1.874   1.456   1.829  0.00  0.00     0.020 A 
ATOM      3  C2  UNL d   1      -1.504   2.191   0.701  0.00  0.00     0.034 A 
ATOM      4  C3  UNL d   1      -0.595   1.658  -0.220  0.00  0.00     0.017 A 
ATOM      5  C4  UNL d   1      -0.057   0.383  -0.007  0.00  0.00     0.017 A 
ATOM      6  C5  UNL d   1      -0.431  -0.349   1.125  0.00  0.00     0.034 A 
ATOM      7 Cl   UNL d   1       1.070  -0.342  -1.098  0.00  0.00    -0.070 Cl
ATOM      8 Cl1  UNL d   1      -0.182   2.622  -1.593  0.00  0.00    -0.070 Cl
ENDROOT
TORSDOF 0
ENDMDL
