MODEL 1
REMARK minimizedAffinity -4.63884258
REMARK minimizedRMSD -1
REMARK  0 active torsions:
REMARK  status: ('A' for Active; 'I' for Inactive)
ROOT
ATOM      1  C   UNL d   1      -1.170  -0.237   1.867  0.00  0.00     0.020 A 
ATOM      2  C1  UNL d   1      -2.071   0.792   1.597  0.00  0.00     0.020 A 
ATOM      3  C2  UNL d   1      -1.847   1.651   0.518  0.00  0.00     0.034 A 
ATOM      4  C3  UNL d   1      -0.720   1.482  -0.293  0.00  0.00     0.017 A 
ATOM      5  C4  UNL d   1       0.184   0.449  -0.021  0.00  0.00     0.017 A 
ATOM      6  C5  UNL d   1      -0.045  -0.408   1.060  0.00  0.00     0.034 A 
ATOM      7 Cl   UNL d   1       1.598   0.178  -0.978  0.00  0.00    -0.070 Cl
ATOM      8 Cl1  UNL d   1      -0.506   2.580  -1.610  0.00  0.00    -0.070 Cl
ENDROOT
TORSDOF 0
ENDMDL
