MODEL 1
REMARK minimizedAffinity -5.12480783
REMARK minimizedRMSD -1
REMARK  0 active torsions:
REMARK  status: ('A' for Active; 'I' for Inactive)
ROOT
ATOM      1  C   UNL d   1      -1.802   2.070   0.202  0.00  0.00     0.020 A 
ATOM      2  C1  UNL d   1      -2.273   1.904   1.504  0.00  0.00     0.020 A 
ATOM      3  C2  UNL d   1      -1.855   0.809   2.263  0.00  0.00     0.034 A 
ATOM      4  C3  UNL d   1      -0.964  -0.125   1.720  0.00  0.00     0.017 A 
ATOM      5  C4  UNL d   1      -0.493   0.043   0.413  0.00  0.00     0.017 A 
ATOM      6  C5  UNL d   1      -0.914   1.142  -0.342  0.00  0.00     0.034 A 
ATOM      7 Cl   UNL d   1       0.608  -1.067  -0.325  0.00  0.00    -0.070 Cl
ATOM      8 Cl1  UNL d   1      -0.490  -1.455   2.715  0.00  0.00    -0.070 Cl
ENDROOT
TORSDOF 0
ENDMDL
