MODEL 1
REMARK minimizedAffinity -3.03411603
REMARK minimizedRMSD -1
REMARK  0 active torsions:
REMARK  status: ('A' for Active; 'I' for Inactive)
ROOT
ATOM      1  C   UNL d   1       1.106  -0.677  -0.007  0.00  0.00     0.020 A 
ATOM      2  C1  UNL d   1       0.384  -0.949   1.154  0.00  0.00     0.020 A 
ATOM      3  C2  UNL d   1      -0.734  -0.178   1.478  0.00  0.00     0.034 A 
ATOM      4  C3  UNL d   1      -1.134   0.869   0.640  0.00  0.00     0.017 A 
ATOM      5  C4  UNL d   1      -0.408   1.142  -0.525  0.00  0.00     0.017 A 
ATOM      6  C5  UNL d   1       0.710   0.367  -0.845  0.00  0.00     0.034 A 
ATOM      7 Cl   UNL d   1      -0.840   2.418  -1.608  0.00  0.00    -0.070 Cl
ATOM      8 Cl1  UNL d   1      -2.526   1.781   1.103  0.00  0.00    -0.070 Cl
ENDROOT
TORSDOF 0
ENDMDL
