MODEL 1
REMARK minimizedAffinity -4.64063215
REMARK minimizedRMSD -1
REMARK  0 active torsions:
REMARK  status: ('A' for Active; 'I' for Inactive)
ROOT
ATOM      1  C   UNL d   1       0.524   1.728  -1.407  0.00  0.00     0.020 A 
ATOM      2  C1  UNL d   1       1.111   0.466  -1.321  0.00  0.00     0.020 A 
ATOM      3  C2  UNL d   1       0.727  -0.415  -0.308  0.00  0.00     0.034 A 
ATOM      4  C3  UNL d   1      -0.247  -0.036   0.623  0.00  0.00     0.017 A 
ATOM      5  C4  UNL d   1      -0.835   1.231   0.536  0.00  0.00     0.017 A 
ATOM      6  C5  UNL d   1      -0.447   2.109  -0.480  0.00  0.00     0.034 A 
ATOM      7 Cl   UNL d   1      -2.043   1.771   1.648  0.00  0.00    -0.070 Cl
ATOM      8 Cl1  UNL d   1      -0.674  -1.176   1.850  0.00  0.00    -0.070 Cl
ENDROOT
TORSDOF 0
ENDMDL
