MODEL 1
REMARK minimizedAffinity -3.47559619
REMARK minimizedRMSD -1
REMARK  0 active torsions:
REMARK  status: ('A' for Active; 'I' for Inactive)
ROOT
ATOM      1  C   UNL d   1      -0.346  -0.521   1.797  0.00  0.00     0.020 A 
ATOM      2  C1  UNL d   1       0.448  -0.629   0.656  0.00  0.00     0.020 A 
ATOM      3  C2  UNL d   1       0.347   0.326  -0.358  0.00  0.00     0.034 A 
ATOM      4  C3  UNL d   1      -0.549   1.393  -0.233  0.00  0.00     0.017 A 
ATOM      5  C4  UNL d   1      -1.346   1.501   0.913  0.00  0.00     0.017 A 
ATOM      6  C5  UNL d   1      -1.241   0.542   1.925  0.00  0.00     0.034 A 
ATOM      7 Cl   UNL d   1      -2.475   2.790   1.139  0.00  0.00    -0.070 Cl
ATOM      8 Cl1  UNL d   1      -0.621   2.538  -1.525  0.00  0.00    -0.070 Cl
ENDROOT
TORSDOF 0
ENDMDL
