MODEL 1
REMARK minimizedAffinity -4.34188652
REMARK minimizedRMSD -1
REMARK  0 active torsions:
REMARK  status: ('A' for Active; 'I' for Inactive)
ROOT
ATOM      1  C   UNL d   1       2.191  -5.166  -0.621  0.00  0.00     0.020 A 
ATOM      2  C1  UNL d   1       2.602  -3.979  -0.015  0.00  0.00     0.020 A 
ATOM      3  C2  UNL d   1       1.943  -2.783  -0.305  0.00  0.00     0.034 A 
ATOM      4  C3  UNL d   1       0.869  -2.771  -1.204  0.00  0.00     0.017 A 
ATOM      5  C4  UNL d   1       0.458  -3.963  -1.811  0.00  0.00     0.017 A 
ATOM      6  C5  UNL d   1       1.121  -5.158  -1.517  0.00  0.00     0.034 A 
ATOM      7 Cl   UNL d   1      -0.858  -4.027  -2.930  0.00  0.00    -0.070 Cl
ATOM      8 Cl1  UNL d   1       0.100  -1.255  -1.516  0.00  0.00    -0.070 Cl
ENDROOT
TORSDOF 0
ENDMDL
