MODEL 1
REMARK minimizedAffinity -4.95109701
REMARK minimizedRMSD -1
REMARK  0 active torsions:
REMARK  status: ('A' for Active; 'I' for Inactive)
ROOT
ATOM      1  C   UNL d   1       0.672   1.884  -1.492  0.00  0.00     0.020 A 
ATOM      2  C1  UNL d   1       1.239   0.613  -1.397  0.00  0.00     0.020 A 
ATOM      3  C2  UNL d   1       0.785  -0.283  -0.427  0.00  0.00     0.034 A 
ATOM      4  C3  UNL d   1      -0.238   0.090   0.452  0.00  0.00     0.017 A 
ATOM      5  C4  UNL d   1      -0.807   1.365   0.356  0.00  0.00     0.017 A 
ATOM      6  C5  UNL d   1      -0.349   2.259  -0.617  0.00  0.00     0.034 A 
ATOM      7 Cl   UNL d   1      -2.073   1.897   1.406  0.00  0.00    -0.070 Cl
ATOM      8 Cl1  UNL d   1      -0.750  -1.069   1.627  0.00  0.00    -0.070 Cl
ENDROOT
TORSDOF 0
ENDMDL
