MODEL 1
REMARK minimizedAffinity -4.88780689
REMARK minimizedRMSD -1
REMARK  0 active torsions:
REMARK  status: ('A' for Active; 'I' for Inactive)
ROOT
ATOM      1  C   UNL d   1      -2.377   1.927  -0.069  0.00  0.00     0.020 A 
ATOM      2  C1  UNL d   1      -2.589   1.583   1.266  0.00  0.00     0.020 A 
ATOM      3  C2  UNL d   1      -1.740   0.670   1.895  0.00  0.00     0.034 A 
ATOM      4  C3  UNL d   1      -0.676   0.098   1.189  0.00  0.00     0.017 A 
ATOM      5  C4  UNL d   1      -0.464   0.443  -0.150  0.00  0.00     0.017 A 
ATOM      6  C5  UNL d   1      -1.317   1.358  -0.775  0.00  0.00     0.034 A 
ATOM      7 Cl   UNL d   1       0.829  -0.221  -1.086  0.00  0.00    -0.070 Cl
ATOM      8 Cl1  UNL d   1       0.335  -1.024   2.030  0.00  0.00    -0.070 Cl
ENDROOT
TORSDOF 0
ENDMDL
