MODEL 1
REMARK minimizedAffinity -3.24638128
REMARK minimizedRMSD -1
REMARK  0 active torsions:
REMARK  status: ('A' for Active; 'I' for Inactive)
ROOT
ATOM      1  C   UNL d   1      -0.524   1.556   2.596  0.00  0.00     0.172 C 
ATOM      2  N   UNL d   1       0.004   0.948   1.398  0.00  0.00    -0.070 N 
ATOM      3  C1  UNL d   1      -0.708   0.675   0.261  0.00  0.00    -0.004 A 
ATOM      4  C2  UNL d   1       0.154   0.099  -0.649  0.00  0.00    -0.047 A 
ATOM      5  C3  UNL d   1       1.427   0.023  -0.036  0.00  0.00    -0.047 A 
ATOM      6  C4  UNL d   1       1.306   0.555   1.230  0.00  0.00    -0.004 A 
ENDROOT
TORSDOF 0
ENDMDL
