MODEL 1
REMARK minimizedAffinity -1.84335709
REMARK minimizedRMSD -1
REMARK  0 active torsions:
REMARK  status: ('A' for Active; 'I' for Inactive)
ROOT
ATOM      1  C   UNL d   1       0.764  -0.609  -1.577  0.00  0.00     0.172 C 
ATOM      2  N   UNL d   1       0.036  -0.147  -0.419  0.00  0.00    -0.070 N 
ATOM      3  C1  UNL d   1       0.575   0.519   0.650  0.00  0.00    -0.004 A 
ATOM      4  C2  UNL d   1      -0.443   0.784   1.540  0.00  0.00    -0.047 A 
ATOM      5  C3  UNL d   1      -1.635   0.259   0.987  0.00  0.00    -0.047 A 
ATOM      6  C4  UNL d   1      -1.310  -0.312  -0.225  0.00  0.00    -0.004 A 
ENDROOT
TORSDOF 0
ENDMDL
