MODEL 1
REMARK minimizedAffinity -3.56378055
REMARK minimizedRMSD -1
REMARK  0 active torsions:
REMARK  status: ('A' for Active; 'I' for Inactive)
ROOT
ATOM      1  C   UNL d   1       0.718   0.058  -1.116  0.00  0.00     0.172 C 
ATOM      2  N   UNL d   1       0.110   0.403   0.147  0.00  0.00    -0.070 N 
ATOM      3  C1  UNL d   1      -1.235   0.520   0.381  0.00  0.00    -0.004 A 
ATOM      4  C2  UNL d   1      -1.405   0.861   1.705  0.00  0.00    -0.047 A 
ATOM      5  C3  UNL d   1      -0.119   0.954   2.287  0.00  0.00    -0.047 A 
ATOM      6  C4  UNL d   1       0.800   0.666   1.301  0.00  0.00    -0.004 A 
ENDROOT
TORSDOF 0
ENDMDL
