MODEL 1
REMARK minimizedAffinity -2.36525512
REMARK minimizedRMSD -1
REMARK  0 active torsions:
REMARK  status: ('A' for Active; 'I' for Inactive)
ROOT
ATOM      1  C   UNL d   1      -1.054   0.487   2.526  0.00  0.00     0.172 C 
ATOM      2  N   UNL d   1      -0.285  -0.009   1.410  0.00  0.00    -0.070 N 
ATOM      3  C1  UNL d   1       0.966  -0.561   1.485  0.00  0.00    -0.004 A 
ATOM      4  C2  UNL d   1       1.352  -0.907   0.208  0.00  0.00    -0.047 A 
ATOM      5  C3  UNL d   1       0.297  -0.550  -0.665  0.00  0.00    -0.047 A 
ATOM      6  C4  UNL d   1      -0.704   0.004   0.105  0.00  0.00    -0.004 A 
ENDROOT
TORSDOF 0
ENDMDL
