MODEL 1
REMARK minimizedAffinity -2.94319057
REMARK minimizedRMSD -1
REMARK  0 active torsions:
REMARK  status: ('A' for Active; 'I' for Inactive)
ROOT
ATOM      1  C   UNL d   1       0.387   0.305  -1.486  0.00  0.00     0.172 C 
ATOM      2  N   UNL d   1      -0.228   0.562  -0.205  0.00  0.00    -0.070 N 
ATOM      3  C1  UNL d   1      -1.312   1.371   0.012  0.00  0.00    -0.004 A 
ATOM      4  C2  UNL d   1      -1.589   1.351   1.362  0.00  0.00    -0.047 A 
ATOM      5  C3  UNL d   1      -0.640   0.501   1.977  0.00  0.00    -0.047 A 
ATOM      6  C4  UNL d   1       0.191   0.026   0.984  0.00  0.00    -0.004 A 
ENDROOT
TORSDOF 0
ENDMDL
