MODEL 1
REMARK minimizedAffinity -3.40773606
REMARK minimizedRMSD -1
REMARK  0 active torsions:
REMARK  status: ('A' for Active; 'I' for Inactive)
ROOT
ATOM      1  C   UNL d   1       0.978  -1.154   1.090  0.00  0.00     0.172 C 
ATOM      2  N   UNL d   1      -0.300  -0.499   0.935  0.00  0.00    -0.070 N 
ATOM      3  C1  UNL d   1      -0.866  -0.123  -0.254  0.00  0.00    -0.004 A 
ATOM      4  C2  UNL d   1      -2.080   0.465   0.023  0.00  0.00    -0.047 A 
ATOM      5  C3  UNL d   1      -2.251   0.443   1.428  0.00  0.00    -0.047 A 
ATOM      6  C4  UNL d   1      -1.134  -0.160   1.968  0.00  0.00    -0.004 A 
ENDROOT
TORSDOF 0
ENDMDL
