MODEL 1
REMARK minimizedAffinity -3.8776567
REMARK minimizedRMSD -1
REMARK  0 active torsions:
REMARK  status: ('A' for Active; 'I' for Inactive)
ROOT
ATOM      1  C   UNL d   1       0.076  -0.036  -1.141  0.00  0.00     0.172 C 
ATOM      2  N   UNL d   1      -0.466   0.236   0.170  0.00  0.00    -0.070 N 
ATOM      3  C1  UNL d   1       0.202   0.844   1.199  0.00  0.00    -0.004 A 
ATOM      4  C2  UNL d   1      -0.657   0.918   2.274  0.00  0.00    -0.047 A 
ATOM      5  C3  UNL d   1      -1.883   0.332   1.878  0.00  0.00    -0.047 A 
ATOM      6  C4  UNL d   1      -1.737  -0.082   0.570  0.00  0.00    -0.004 A 
ENDROOT
TORSDOF 0
ENDMDL
