MODEL 1
REMARK minimizedAffinity -3.9209044
REMARK minimizedRMSD -1
REMARK  0 active torsions:
REMARK  status: ('A' for Active; 'I' for Inactive)
ROOT
ATOM      1  C   UNL d   1       0.272  -0.999  -1.281  0.00  0.00     0.172 C 
ATOM      2  N   UNL d   1       0.570  -0.195  -0.119  0.00  0.00    -0.070 N 
ATOM      3  C1  UNL d   1      -0.195   0.836   0.356  0.00  0.00    -0.004 A 
ATOM      4  C2  UNL d   1       0.428   1.343   1.476  0.00  0.00    -0.047 A 
ATOM      5  C3  UNL d   1       1.610   0.591   1.681  0.00  0.00    -0.047 A 
ATOM      6  C4  UNL d   1       1.673  -0.355   0.679  0.00  0.00    -0.004 A 
ENDROOT
TORSDOF 0
ENDMDL
