MODEL 1
REMARK minimizedAffinity -1.5783726
REMARK minimizedRMSD -1
REMARK  0 active torsions:
REMARK  status: ('A' for Active; 'I' for Inactive)
ROOT
ATOM      1  C   UNL d   1      -1.795  -0.347   1.972  0.00  0.00     0.172 C 
ATOM      2  N   UNL d   1      -0.575  -0.187   1.217  0.00  0.00    -0.070 N 
ATOM      3  C1  UNL d   1       0.592  -0.872   1.430  0.00  0.00    -0.004 A 
ATOM      4  C2  UNL d   1       1.514  -0.433   0.505  0.00  0.00    -0.047 A 
ATOM      5  C3  UNL d   1       0.880   0.550  -0.291  0.00  0.00    -0.047 A 
ATOM      6  C4  UNL d   1      -0.412   0.683   0.171  0.00  0.00    -0.004 A 
ENDROOT
TORSDOF 0
ENDMDL
