MODEL 1
REMARK minimizedAffinity -2.33468866
REMARK minimizedRMSD -1
REMARK  0 active torsions:
REMARK  status: ('A' for Active; 'I' for Inactive)
ROOT
ATOM      1  C   UNL d   1      -0.628   0.843   2.823  0.00  0.00     0.172 C 
ATOM      2  N   UNL d   1       0.103   0.266   1.720  0.00  0.00    -0.070 N 
ATOM      3  C1  UNL d   1       1.298  -0.397   1.813  0.00  0.00    -0.004 A 
ATOM      4  C2  UNL d   1       1.662  -0.792   0.544  0.00  0.00    -0.047 A 
ATOM      5  C3  UNL d   1       0.652  -0.350  -0.343  0.00  0.00    -0.047 A 
ATOM      6  C4  UNL d   1      -0.301   0.302   0.411  0.00  0.00    -0.004 A 
ENDROOT
TORSDOF 0
ENDMDL
