MODEL 1
REMARK minimizedAffinity -4.04560041
REMARK minimizedRMSD -1
REMARK  0 active torsions:
REMARK  status: ('A' for Active; 'I' for Inactive)
ROOT
ATOM      1  C   UNL d   1      -0.019  -0.952  -0.156  0.00  0.00     0.172 C 
ATOM      2  N   UNL d   1      -0.017  -0.185   1.067  0.00  0.00    -0.070 N 
ATOM      3  C1  UNL d   1       0.993  -0.160   1.992  0.00  0.00    -0.004 A 
ATOM      4  C2  UNL d   1       0.613   0.688   3.009  0.00  0.00    -0.047 A 
ATOM      5  C3  UNL d   1      -0.671   1.188   2.686  0.00  0.00    -0.047 A 
ATOM      6  C4  UNL d   1      -1.037   0.631   1.479  0.00  0.00    -0.004 A 
ENDROOT
TORSDOF 0
ENDMDL
