MODEL 1
REMARK minimizedAffinity 8.75679588
REMARK minimizedRMSD -1
REMARK  1 active torsions:
REMARK  status: ('A' for Active; 'I' for Inactive)
REMARK    1  A    between atoms: C1_2  and  C2_3 
ROOT
ATOM      1  C2  UNL d   1       3.834   0.209  -0.750  0.00  0.00    -0.077 A 
ATOM      2  C3  UNL d   1       4.260   0.547   0.542  0.00  0.00     0.002 A 
ATOM      3  C4  UNL d   1       5.340   1.412   0.726  0.00  0.00     0.002 A 
ATOM      4  C5  UNL d   1       6.000   1.949  -0.377  0.00  0.00    -0.004 A 
ATOM      5  C6  UNL d   1       5.585   1.618  -1.666  0.00  0.00     0.002 A 
ATOM      6  C7  UNL d   1       4.506   0.752  -1.852  0.00  0.00     0.002 A 
ENDROOT
BRANCH   1   7
ATOM      7  C1  UNL d   1       2.638  -0.686  -0.950  0.00  0.00     0.055 C 
ATOM      8  C   UNL d   1       2.894  -2.083  -0.404  0.00  0.00     0.019 C 
ENDBRANCH   1   7
TORSDOF 1
ENDMDL
