MODEL 1
REMARK minimizedAffinity 10.5494194
REMARK minimizedRMSD -1
REMARK  1 active torsions:
REMARK  status: ('A' for Active; 'I' for Inactive)
REMARK    1  A    between atoms: C1_2  and  C2_3 
ROOT
ATOM      1  C2  UNL d   1       2.456  -3.142  -1.552  0.00  0.00    -0.077 A 
ATOM      2  C3  UNL d   1       1.106  -2.906  -1.848  0.00  0.00     0.002 A 
ATOM      3  C4  UNL d   1       0.188  -2.677  -0.821  0.00  0.00     0.002 A 
ATOM      4  C5  UNL d   1       0.610  -2.677   0.506  0.00  0.00    -0.004 A 
ATOM      5  C6  UNL d   1       1.950  -2.913   0.811  0.00  0.00     0.002 A 
ATOM      6  C7  UNL d   1       2.869  -3.144  -0.214  0.00  0.00     0.002 A 
ENDROOT
BRANCH   1   7
ATOM      7  C1  UNL d   1       3.457  -3.341  -2.661  0.00  0.00     0.055 C 
ATOM      8  C   UNL d   1       4.046  -2.014  -3.119  0.00  0.00     0.019 C 
ENDBRANCH   1   7
TORSDOF 1
ENDMDL
