MODEL 1
REMARK minimizedAffinity 2.90385723
REMARK minimizedRMSD -1
REMARK  1 active torsions:
REMARK  status: ('A' for Active; 'I' for Inactive)
REMARK    1  A    between atoms: C1_2  and  C2_3 
ROOT
ATOM      1  C2  UNL d   1      -4.078   1.875  -4.867  0.00  0.00    -0.077 A 
ATOM      2  C3  UNL d   1      -4.099   3.276  -4.866  0.00  0.00     0.002 A 
ATOM      3  C4  UNL d   1      -5.058   3.967  -4.123  0.00  0.00     0.002 A 
ATOM      4  C5  UNL d   1      -5.999   3.265  -3.373  0.00  0.00    -0.004 A 
ATOM      5  C6  UNL d   1      -5.988   1.871  -3.369  0.00  0.00     0.002 A 
ATOM      6  C7  UNL d   1      -5.030   1.179  -4.112  0.00  0.00     0.002 A 
ENDROOT
BRANCH   1   7
ATOM      7  C1  UNL d   1      -3.013   1.128  -5.628  0.00  0.00     0.055 C 
ATOM      8  C   UNL d   1      -2.034   0.445  -4.685  0.00  0.00     0.019 C 
ENDBRANCH   1   7
TORSDOF 1
ENDMDL
