MODEL 1
REMARK minimizedAffinity 5.73515844
REMARK minimizedRMSD -1
REMARK  1 active torsions:
REMARK  status: ('A' for Active; 'I' for Inactive)
REMARK    1  A    between atoms: C1_2  and  C2_3 
ROOT
ATOM      1  C2  UNL d   1       0.853  -3.269  -0.557  0.00  0.00    -0.077 A 
ATOM      2  C3  UNL d   1       1.575  -3.050   0.625  0.00  0.00     0.002 A 
ATOM      3  C4  UNL d   1       2.468  -1.981   0.720  0.00  0.00     0.002 A 
ATOM      4  C5  UNL d   1       2.644  -1.121  -0.361  0.00  0.00    -0.004 A 
ATOM      5  C6  UNL d   1       1.933  -1.331  -1.541  0.00  0.00     0.002 A 
ATOM      6  C7  UNL d   1       1.041  -2.399  -1.639  0.00  0.00     0.002 A 
ENDROOT
BRANCH   1   7
ATOM      7  C1  UNL d   1      -0.147  -4.392  -0.644  0.00  0.00     0.055 C 
ATOM      8  C   UNL d   1      -1.324  -4.017  -1.533  0.00  0.00     0.019 C 
ENDBRANCH   1   7
TORSDOF 1
ENDMDL
