MODEL 1
REMARK minimizedAffinity 4.16813803
REMARK minimizedRMSD -1
REMARK  1 active torsions:
REMARK  status: ('A' for Active; 'I' for Inactive)
REMARK    1  A    between atoms: C1_2  and  C2_3 
ROOT
ATOM      1  C2  UNL d   1       4.846   1.149  -0.836  0.00  0.00    -0.077 A 
ATOM      2  C3  UNL d   1       5.036   1.142   0.553  0.00  0.00     0.002 A 
ATOM      3  C4  UNL d   1       5.613   2.241   1.193  0.00  0.00     0.002 A 
ATOM      4  C5  UNL d   1       6.000   3.356   0.453  0.00  0.00    -0.004 A 
ATOM      5  C6  UNL d   1       5.817   3.372  -0.930  0.00  0.00     0.002 A 
ATOM      6  C7  UNL d   1       5.242   2.274  -1.571  0.00  0.00     0.002 A 
ENDROOT
BRANCH   1   7
ATOM      7  C1  UNL d   1       4.179  -0.015  -1.521  0.00  0.00     0.055 C 
ATOM      8  C   UNL d   1       3.143  -0.669  -0.619  0.00  0.00     0.019 C 
ENDBRANCH   1   7
TORSDOF 1
ENDMDL
