MODEL 1
REMARK minimizedAffinity 6.72221565
REMARK minimizedRMSD -1
REMARK  1 active torsions:
REMARK  status: ('A' for Active; 'I' for Inactive)
REMARK    1  A    between atoms: C1_2  and  C2_3 
ROOT
ATOM      1  C2  UNL d   1       1.483   0.619  -0.144  0.00  0.00    -0.077 A 
ATOM      2  C3  UNL d   1       0.339   0.911  -0.901  0.00  0.00     0.002 A 
ATOM      3  C4  UNL d   1      -0.667   1.723  -0.375  0.00  0.00     0.002 A 
ATOM      4  C5  UNL d   1      -0.538   2.254   0.907  0.00  0.00    -0.004 A 
ATOM      5  C6  UNL d   1       0.595   1.968   1.668  0.00  0.00     0.002 A 
ATOM      6  C7  UNL d   1       1.601   1.155   1.144  0.00  0.00     0.002 A 
ENDROOT
BRANCH   1   7
ATOM      7  C1  UNL d   1       2.591  -0.218  -0.728  0.00  0.00     0.055 C 
ATOM      8  C   UNL d   1       3.865   0.596  -0.903  0.00  0.00     0.019 C 
ENDBRANCH   1   7
TORSDOF 1
ENDMDL
