MODEL 1
REMARK minimizedAffinity 3.56499529
REMARK minimizedRMSD -1
REMARK  1 active torsions:
REMARK  status: ('A' for Active; 'I' for Inactive)
REMARK    1  A    between atoms: C1_2  and  C2_3 
ROOT
ATOM      1  C2  UNL d   1       4.771   1.291  -0.661  0.00  0.00    -0.077 A 
ATOM      2  C3  UNL d   1       5.173   1.197   0.679  0.00  0.00     0.002 A 
ATOM      3  C4  UNL d   1       5.786   2.281   1.310  0.00  0.00     0.002 A 
ATOM      4  C5  UNL d   1       5.999   3.467   0.612  0.00  0.00    -0.004 A 
ATOM      5  C6  UNL d   1       5.605   3.570  -0.722  0.00  0.00     0.002 A 
ATOM      6  C7  UNL d   1       4.993   2.488  -1.355  0.00  0.00     0.002 A 
ENDROOT
BRANCH   1   7
ATOM      7  C1  UNL d   1       4.066   0.141  -1.329  0.00  0.00     0.055 C 
ATOM      8  C   UNL d   1       2.943  -0.402  -0.457  0.00  0.00     0.019 C 
ENDBRANCH   1   7
TORSDOF 1
ENDMDL
