MODEL 1
REMARK minimizedAffinity -4.94685984
REMARK minimizedRMSD -1
REMARK  0 active torsions:
REMARK  status: ('A' for Active; 'I' for Inactive)
ROOT
ATOM      1  C   UNL d   1       0.774   0.167  -0.879  0.00  0.00     0.078 C 
ATOM      2  C1  UNL d   1       0.121   0.133   0.470  0.00  0.00    -0.077 A 
ATOM      3  C2  UNL d   1      -1.113  -0.503   0.658  0.00  0.00    -0.001 A 
ATOM      4  C3  UNL d   1      -1.714  -0.519   1.918  0.00  0.00     0.003 A 
ATOM      5  C4  UNL d   1      -1.090   0.101   2.999  0.00  0.00    -0.005 A 
ATOM      6  C5  UNL d   1       0.136   0.739   2.820  0.00  0.00     0.003 A 
ATOM      7  C6  UNL d   1       0.739   0.755   1.562  0.00  0.00    -0.001 A 
ENDROOT
TORSDOF 0
ENDMDL
