MODEL 1
REMARK minimizedAffinity -5.90452576
REMARK minimizedRMSD -1
REMARK  0 active torsions:
REMARK  status: ('A' for Active; 'I' for Inactive)
ROOT
ATOM      1  C   UNL d   1       1.411   0.073   0.819  0.00  0.00     0.078 C 
ATOM      2  C1  UNL d   1       0.074  -0.026   1.490  0.00  0.00    -0.077 A 
ATOM      3  C2  UNL d   1      -1.108  -0.074   0.740  0.00  0.00    -0.001 A 
ATOM      4  C3  UNL d   1      -2.346  -0.156   1.379  0.00  0.00     0.003 A 
ATOM      5  C4  UNL d   1      -2.415  -0.188   2.770  0.00  0.00    -0.005 A 
ATOM      6  C5  UNL d   1      -1.245  -0.138   3.525  0.00  0.00     0.003 A 
ATOM      7  C6  UNL d   1      -0.006  -0.056   2.888  0.00  0.00    -0.001 A 
ENDROOT
TORSDOF 0
ENDMDL
