MODEL 1
REMARK minimizedAffinity -3.30960155
REMARK minimizedRMSD -1
REMARK  0 active torsions:
REMARK  status: ('A' for Active; 'I' for Inactive)
ROOT
ATOM      1  C   UNL d   1       0.106   0.027  -1.865  0.00  0.00     0.078 C 
ATOM      2  C1  UNL d   1       0.279  -0.018  -0.376  0.00  0.00    -0.077 A 
ATOM      3  C2  UNL d   1      -0.757  -0.456   0.458  0.00  0.00    -0.001 A 
ATOM      4  C3  UNL d   1      -0.585  -0.483   1.843  0.00  0.00     0.003 A 
ATOM      5  C4  UNL d   1       0.621  -0.072   2.406  0.00  0.00    -0.005 A 
ATOM      6  C5  UNL d   1       1.657   0.368   1.585  0.00  0.00     0.003 A 
ATOM      7  C6  UNL d   1       1.487   0.396   0.200  0.00  0.00    -0.001 A 
ENDROOT
TORSDOF 0
ENDMDL
