MODEL 1
REMARK minimizedAffinity -5.22818327
REMARK minimizedRMSD -1
REMARK  0 active torsions:
REMARK  status: ('A' for Active; 'I' for Inactive)
ROOT
ATOM      1  C   UNL d   1      -0.061  -0.233  -1.050  0.00  0.00     0.078 C 
ATOM      2  C1  UNL d   1      -0.426  -0.281   0.403  0.00  0.00    -0.077 A 
ATOM      3  C2  UNL d   1      -1.741  -0.542   0.809  0.00  0.00    -0.001 A 
ATOM      4  C3  UNL d   1      -2.068  -0.574   2.165  0.00  0.00     0.003 A 
ATOM      5  C4  UNL d   1      -1.087  -0.344   3.127  0.00  0.00    -0.005 A 
ATOM      6  C5  UNL d   1       0.224  -0.082   2.734  0.00  0.00     0.003 A 
ATOM      7  C6  UNL d   1       0.553  -0.049   1.378  0.00  0.00    -0.001 A 
ENDROOT
TORSDOF 0
ENDMDL
