MODEL 1
REMARK minimizedAffinity -4.15074778
REMARK minimizedRMSD -1
REMARK  0 active torsions:
REMARK  status: ('A' for Active; 'I' for Inactive)
ROOT
ATOM      1  C   UNL d   1      -0.129   0.249  -0.815  0.00  0.00     0.078 C 
ATOM      2  C1  UNL d   1      -0.620   0.078   0.591  0.00  0.00    -0.077 A 
ATOM      3  C2  UNL d   1      -1.988   0.102   0.885  0.00  0.00    -0.001 A 
ATOM      4  C3  UNL d   1      -2.431  -0.048   2.201  0.00  0.00     0.003 A 
ATOM      5  C4  UNL d   1      -1.510  -0.222   3.233  0.00  0.00    -0.005 A 
ATOM      6  C5  UNL d   1      -0.146  -0.244   2.950  0.00  0.00     0.003 A 
ATOM      7  C6  UNL d   1       0.298  -0.094   1.635  0.00  0.00    -0.001 A 
ENDROOT
TORSDOF 0
ENDMDL
