MODEL 1
REMARK minimizedAffinity -5.65121841
REMARK minimizedRMSD -1
REMARK  0 active torsions:
REMARK  status: ('A' for Active; 'I' for Inactive)
ROOT
ATOM      1  C   UNL d   1       0.618  -0.012  -0.942  0.00  0.00     0.078 C 
ATOM      2  C1  UNL d   1      -0.200  -0.087   0.313  0.00  0.00    -0.077 A 
ATOM      3  C2  UNL d   1      -1.576   0.172   0.293  0.00  0.00    -0.001 A 
ATOM      4  C3  UNL d   1      -2.323   0.108   1.471  0.00  0.00     0.003 A 
ATOM      5  C4  UNL d   1      -1.703  -0.214   2.676  0.00  0.00    -0.005 A 
ATOM      6  C5  UNL d   1      -0.334  -0.472   2.706  0.00  0.00     0.003 A 
ATOM      7  C6  UNL d   1       0.415  -0.409   1.530  0.00  0.00    -0.001 A 
ENDROOT
TORSDOF 0
ENDMDL
