MODEL 1
REMARK minimizedAffinity -2.04047036
REMARK minimizedRMSD -1
REMARK  0 active torsions:
REMARK  status: ('A' for Active; 'I' for Inactive)
ROOT
ATOM      1  C   UNL d   1       0.932   0.942   0.372  0.00  0.00     0.078 C 
ATOM      2  C1  UNL d   1       0.626   0.077  -0.815  0.00  0.00    -0.077 A 
ATOM      3  C2  UNL d   1      -0.513  -0.737  -0.840  0.00  0.00    -0.001 A 
ATOM      4  C3  UNL d   1      -0.779  -1.544  -1.947  0.00  0.00     0.003 A 
ATOM      5  C4  UNL d   1       0.090  -1.547  -3.036  0.00  0.00    -0.005 A 
ATOM      6  C5  UNL d   1       1.227  -0.742  -3.019  0.00  0.00     0.003 A 
ATOM      7  C6  UNL d   1       1.495   0.066  -1.913  0.00  0.00    -0.001 A 
ENDROOT
TORSDOF 0
ENDMDL
