MODEL 1
REMARK minimizedAffinity -5.60583782
REMARK minimizedRMSD -1
REMARK  0 active torsions:
REMARK  status: ('A' for Active; 'I' for Inactive)
ROOT
ATOM      1  C   UNL d   1      -0.029   0.186  -0.591  0.00  0.00     0.078 C 
ATOM      2  C1  UNL d   1      -0.766  -0.066   0.690  0.00  0.00    -0.077 A 
ATOM      3  C2  UNL d   1      -2.162   0.027   0.750  0.00  0.00    -0.001 A 
ATOM      4  C3  UNL d   1      -2.833  -0.201   1.952  0.00  0.00     0.003 A 
ATOM      5  C4  UNL d   1      -2.118  -0.523   3.104  0.00  0.00    -0.005 A 
ATOM      6  C5  UNL d   1      -0.728  -0.615   3.054  0.00  0.00     0.003 A 
ATOM      7  C6  UNL d   1      -0.055  -0.388   1.853  0.00  0.00    -0.001 A 
ENDROOT
TORSDOF 0
ENDMDL
