MODEL 1
REMARK minimizedAffinity -1.63882828
REMARK minimizedRMSD -1
REMARK  0 active torsions:
REMARK  status: ('A' for Active; 'I' for Inactive)
ROOT
ATOM      1  C   UNL d   1       0.265   0.362  -1.377  0.00  0.00     0.078 C 
ATOM      2  C1  UNL d   1       0.530   0.251   0.094  0.00  0.00    -0.077 A 
ATOM      3  C2  UNL d   1      -0.398   0.721   1.032  0.00  0.00    -0.001 A 
ATOM      4  C3  UNL d   1      -0.133   0.620   2.399  0.00  0.00     0.003 A 
ATOM      5  C4  UNL d   1       1.061   0.052   2.840  0.00  0.00    -0.005 A 
ATOM      6  C5  UNL d   1       1.991  -0.416   1.915  0.00  0.00     0.003 A 
ATOM      7  C6  UNL d   1       1.728  -0.317   0.548  0.00  0.00    -0.001 A 
ENDROOT
TORSDOF 0
ENDMDL
