MODEL 1
REMARK minimizedAffinity -3.93816423
REMARK minimizedRMSD -1
REMARK  0 active torsions:
REMARK  status: ('A' for Active; 'I' for Inactive)
ROOT
ATOM      1  C   UNL d   1       1.123   0.377   0.369  0.00  0.00     0.078 C 
ATOM      2  C1  UNL d   1       0.612  -0.043  -0.977  0.00  0.00    -0.077 A 
ATOM      3  C2  UNL d   1      -0.404   0.675  -1.618  0.00  0.00    -0.001 A 
ATOM      4  C3  UNL d   1      -0.877   0.266  -2.867  0.00  0.00     0.003 A 
ATOM      5  C4  UNL d   1      -0.340  -0.862  -3.483  0.00  0.00    -0.005 A 
ATOM      6  C5  UNL d   1       0.670  -1.584  -2.851  0.00  0.00     0.003 A 
ATOM      7  C6  UNL d   1       1.144  -1.177  -1.603  0.00  0.00    -0.001 A 
ENDROOT
TORSDOF 0
ENDMDL
