MODEL 1
REMARK minimizedAffinity -5.83514214
REMARK minimizedRMSD -1
REMARK  0 active torsions:
REMARK  status: ('A' for Active; 'I' for Inactive)
ROOT
ATOM      1  C   UNL d   1       0.033  -0.427  -0.802  0.00  0.00     0.078 C 
ATOM      2  C1  UNL d   1      -0.666  -0.340   0.522  0.00  0.00    -0.077 A 
ATOM      3  C2  UNL d   1      -2.031  -0.036   0.598  0.00  0.00    -0.001 A 
ATOM      4  C3  UNL d   1      -2.666   0.051   1.838  0.00  0.00     0.003 A 
ATOM      5  C4  UNL d   1      -1.944  -0.163   3.011  0.00  0.00    -0.005 A 
ATOM      6  C5  UNL d   1      -0.585  -0.464   2.944  0.00  0.00     0.003 A 
ATOM      7  C6  UNL d   1       0.052  -0.552   1.705  0.00  0.00    -0.001 A 
ENDROOT
TORSDOF 0
ENDMDL
