MODEL 1
REMARK minimizedAffinity -6.19268322
REMARK minimizedRMSD -1
REMARK  0 active torsions:
REMARK  status: ('A' for Active; 'I' for Inactive)
ROOT
ATOM      1  C   UNL d   1      -0.005   0.236  -0.977  0.00  0.00     0.078 C 
ATOM      2  C1  UNL d   1      -0.597   0.043   0.388  0.00  0.00    -0.077 A 
ATOM      3  C2  UNL d   1      -1.982   0.098   0.587  0.00  0.00    -0.001 A 
ATOM      4  C3  UNL d   1      -2.519  -0.074   1.864  0.00  0.00     0.003 A 
ATOM      5  C4  UNL d   1      -1.678  -0.300   2.952  0.00  0.00    -0.005 A 
ATOM      6  C5  UNL d   1      -0.298  -0.353   2.764  0.00  0.00     0.003 A 
ATOM      7  C6  UNL d   1       0.240  -0.182   1.487  0.00  0.00    -0.001 A 
ENDROOT
TORSDOF 0
ENDMDL
