MODEL 1
REMARK minimizedAffinity 1.71336067
REMARK minimizedRMSD -1
REMARK  1 active torsions:
REMARK  status: ('A' for Active; 'I' for Inactive)
REMARK    1  A    between atoms: C3_4  and  O_7 
ROOT
ATOM      1  C   UNL d   1       0.053   0.799   1.011  0.00  0.00    -0.033 A 
ATOM      2  C1  UNL d   1       1.400   0.598   1.318  0.00  0.00     0.039 A 
ATOM      3  C2  UNL d   1       2.379   0.810   0.346  0.00  0.00    -0.080 A 
ATOM      4  C3  UNL d   1       1.999   1.223  -0.928  0.00  0.00     0.150 A 
ATOM      5  C4  UNL d   1       0.660   1.430  -1.240  0.00  0.00    -0.007 A 
ATOM      6  C5  UNL d   1      -0.317   1.217  -0.268  0.00  0.00     0.039 A 
ENDROOT
BRANCH   4   7
ATOM      7  O   UNL d   1       2.919   1.438  -1.911  0.00  0.00    -0.526 OA
ATOM      8  H5  UNL d   1       3.800   1.228  -1.560  0.00  0.00     0.418 HD
ENDBRANCH   4   7
TORSDOF 1
ENDMDL
