MODEL 1
REMARK minimizedAffinity -5.25600386
REMARK minimizedRMSD -1
REMARK  1 active torsions:
REMARK  status: ('A' for Active; 'I' for Inactive)
REMARK    1  A    between atoms: C3_4  and  O_7 
ROOT
ATOM      1  C   UNL d   1       2.161  -0.007  -2.935  0.00  0.00    -0.033 A 
ATOM      2  C1  UNL d   1       1.898  -1.321  -2.545  0.00  0.00     0.039 A 
ATOM      3  C2  UNL d   1       1.061  -1.574  -1.456  0.00  0.00    -0.080 A 
ATOM      4  C3  UNL d   1       0.493  -0.506  -0.768  0.00  0.00     0.150 A 
ATOM      5  C4  UNL d   1       0.748   0.806  -1.154  0.00  0.00    -0.007 A 
ATOM      6  C5  UNL d   1       1.584   1.057  -2.240  0.00  0.00     0.039 A 
ENDROOT
BRANCH   4   7
ATOM      7  O   UNL d   1      -0.326  -0.703   0.304  0.00  0.00    -0.526 OA
ATOM      8  H5  UNL d   1      -0.388  -1.658   0.473  0.00  0.00     0.418 HD
ENDBRANCH   4   7
TORSDOF 1
ENDMDL
