MODEL 1
REMARK minimizedAffinity -3.53693008
REMARK minimizedRMSD -1
REMARK  1 active torsions:
REMARK  status: ('A' for Active; 'I' for Inactive)
REMARK    1  A    between atoms: C3_4  and  O_7 
ROOT
ATOM      1  C   UNL d   1       0.549   1.060   0.028  0.00  0.00    -0.033 A 
ATOM      2  C1  UNL d   1       0.241   0.586   1.305  0.00  0.00     0.039 A 
ATOM      3  C2  UNL d   1      -1.032   0.081   1.576  0.00  0.00    -0.080 A 
ATOM      4  C3  UNL d   1      -1.987   0.055   0.564  0.00  0.00     0.150 A 
ATOM      5  C4  UNL d   1      -1.686   0.522  -0.712  0.00  0.00    -0.007 A 
ATOM      6  C5  UNL d   1      -0.415   1.026  -0.981  0.00  0.00     0.039 A 
ENDROOT
BRANCH   4   7
ATOM      7  O   UNL d   1      -3.244  -0.424   0.782  0.00  0.00    -0.526 OA
ATOM      8  H5  UNL d   1      -3.317  -0.684   1.715  0.00  0.00     0.418 HD
ENDBRANCH   4   7
TORSDOF 1
ENDMDL
