MODEL 1
REMARK minimizedAffinity -4.78257847
REMARK minimizedRMSD -1
REMARK  1 active torsions:
REMARK  status: ('A' for Active; 'I' for Inactive)
REMARK    1  A    between atoms: C3_4  and  O_7 
ROOT
ATOM      1  C   UNL d   1       1.875   0.464  -1.998  0.00  0.00    -0.033 A 
ATOM      2  C1  UNL d   1       1.430  -0.857  -1.920  0.00  0.00     0.039 A 
ATOM      3  C2  UNL d   1       0.591  -1.253  -0.876  0.00  0.00    -0.080 A 
ATOM      4  C3  UNL d   1       0.204  -0.318   0.081  0.00  0.00     0.150 A 
ATOM      5  C4  UNL d   1       0.641   1.000   0.006  0.00  0.00    -0.007 A 
ATOM      6  C5  UNL d   1       1.479   1.393  -1.036  0.00  0.00     0.039 A 
ENDROOT
BRANCH   4   7
ATOM      7  O   UNL d   1      -0.609  -0.658   1.120  0.00  0.00    -0.526 OA
ATOM      8  H5  UNL d   1      -0.808  -1.607   1.058  0.00  0.00     0.418 HD
ENDBRANCH   4   7
TORSDOF 1
ENDMDL
