MODEL 1
REMARK minimizedAffinity -4.77597427
REMARK minimizedRMSD -1
REMARK  1 active torsions:
REMARK  status: ('A' for Active; 'I' for Inactive)
REMARK    1  A    between atoms: C3_4  and  O_7 
ROOT
ATOM      1  C   UNL d   1       1.751  -1.288  -2.879  0.00  0.00    -0.033 A 
ATOM      2  C1  UNL d   1       1.195  -2.353  -2.167  0.00  0.00     0.039 A 
ATOM      3  C2  UNL d   1       0.500  -2.114  -0.980  0.00  0.00    -0.080 A 
ATOM      4  C3  UNL d   1       0.367  -0.808  -0.517  0.00  0.00     0.150 A 
ATOM      5  C4  UNL d   1       0.915   0.258  -1.223  0.00  0.00    -0.007 A 
ATOM      6  C5  UNL d   1       1.610   0.017  -2.408  0.00  0.00     0.039 A 
ENDROOT
BRANCH   4   7
ATOM      7  O   UNL d   1      -0.299  -0.526   0.639  0.00  0.00    -0.526 OA
ATOM      8  H5  UNL d   1      -0.598  -1.362   1.033  0.00  0.00     0.418 HD
ENDBRANCH   4   7
TORSDOF 1
ENDMDL
