MODEL 1
REMARK minimizedAffinity -2.97685957
REMARK minimizedRMSD -1
REMARK  1 active torsions:
REMARK  status: ('A' for Active; 'I' for Inactive)
REMARK    1  A    between atoms: C3_4  and  O_7 
ROOT
ATOM      1  C   UNL d   1      -1.349   0.038   1.746  0.00  0.00    -0.033 A 
ATOM      2  C1  UNL d   1      -1.383   0.060   0.350  0.00  0.00     0.039 A 
ATOM      3  C2  UNL d   1      -2.570   0.370  -0.317  0.00  0.00    -0.080 A 
ATOM      4  C3  UNL d   1      -3.715   0.655   0.423  0.00  0.00     0.150 A 
ATOM      5  C4  UNL d   1      -3.687   0.638   1.813  0.00  0.00    -0.007 A 
ATOM      6  C5  UNL d   1      -2.501   0.328   2.477  0.00  0.00     0.039 A 
ENDROOT
BRANCH   4   7
ATOM      7  O   UNL d   1      -4.897   0.958  -0.184  0.00  0.00    -0.526 OA
ATOM      8  H5  UNL d   1      -4.773   0.903  -1.146  0.00  0.00     0.418 HD
ENDBRANCH   4   7
TORSDOF 1
ENDMDL
