MODEL 1
REMARK minimizedAffinity -1.44109225
REMARK minimizedRMSD -1
REMARK  1 active torsions:
REMARK  status: ('A' for Active; 'I' for Inactive)
REMARK    1  A    between atoms: C3_4  and  O_7 
ROOT
ATOM      1  C   UNL d   1       0.099   1.467  -0.570  0.00  0.00    -0.033 A 
ATOM      2  C1  UNL d   1      -1.016   0.734  -0.158  0.00  0.00     0.039 A 
ATOM      3  C2  UNL d   1      -0.899  -0.633   0.103  0.00  0.00    -0.080 A 
ATOM      4  C3  UNL d   1       0.338  -1.253  -0.051  0.00  0.00     0.150 A 
ATOM      5  C4  UNL d   1       1.454  -0.529  -0.457  0.00  0.00    -0.007 A 
ATOM      6  C5  UNL d   1       1.334   0.835  -0.718  0.00  0.00     0.039 A 
ENDROOT
BRANCH   4   7
ATOM      7  O   UNL d   1       0.501  -2.586   0.188  0.00  0.00    -0.526 OA
ATOM      8  H5  UNL d   1      -0.361  -2.962   0.433  0.00  0.00     0.418 HD
ENDBRANCH   4   7
TORSDOF 1
ENDMDL
