MODEL 1
REMARK minimizedAffinity -4.68358803
REMARK minimizedRMSD -1
REMARK  1 active torsions:
REMARK  status: ('A' for Active; 'I' for Inactive)
REMARK    1  A    between atoms: C3_4  and  O_7 
ROOT
ATOM      1  C   UNL d   1       0.309  -0.167   1.378  0.00  0.00    -0.033 A 
ATOM      2  C1  UNL d   1       0.751   1.106   1.014  0.00  0.00     0.039 A 
ATOM      3  C2  UNL d   1       1.245   1.334  -0.272  0.00  0.00    -0.080 A 
ATOM      4  C3  UNL d   1       1.291   0.283  -1.183  0.00  0.00     0.150 A 
ATOM      5  C4  UNL d   1       0.849  -0.987  -0.829  0.00  0.00    -0.007 A 
ATOM      6  C5  UNL d   1       0.356  -1.214   0.456  0.00  0.00     0.039 A 
ENDROOT
BRANCH   4   7
ATOM      7  O   UNL d   1       1.769   0.456  -2.448  0.00  0.00    -0.526 OA
ATOM      8  H5  UNL d   1       2.066   1.377  -2.542  0.00  0.00     0.418 HD
ENDBRANCH   4   7
TORSDOF 1
ENDMDL
