MODEL 1
REMARK minimizedAffinity -4.69955921
REMARK minimizedRMSD -1
REMARK  1 active torsions:
REMARK  status: ('A' for Active; 'I' for Inactive)
REMARK    1  A    between atoms: C3_4  and  O_7 
ROOT
ATOM      1  C   UNL d   1       0.436  -0.026   0.294  0.00  0.00    -0.033 A 
ATOM      2  C1  UNL d   1       1.575   0.693  -0.071  0.00  0.00     0.039 A 
ATOM      3  C2  UNL d   1       2.146   0.507  -1.332  0.00  0.00    -0.080 A 
ATOM      4  C3  UNL d   1       1.568  -0.399  -2.217  0.00  0.00     0.150 A 
ATOM      5  C4  UNL d   1       0.431  -1.116  -1.861  0.00  0.00    -0.007 A 
ATOM      6  C5  UNL d   1      -0.137  -0.930  -0.601  0.00  0.00     0.039 A 
ENDROOT
BRANCH   4   7
ATOM      7  O   UNL d   1       2.092  -0.618  -3.456  0.00  0.00    -0.526 OA
ATOM      8  H5  UNL d   1       2.893  -0.075  -3.552  0.00  0.00     0.418 HD
ENDBRANCH   4   7
TORSDOF 1
ENDMDL
