MODEL 1
REMARK minimizedAffinity -0.423867702
REMARK minimizedRMSD -1
REMARK  1 active torsions:
REMARK  status: ('A' for Active; 'I' for Inactive)
REMARK    1  A    between atoms: C3_4  and  O_7 
ROOT
ATOM      1  C   UNL d   1       1.187   1.721  -0.911  0.00  0.00    -0.033 A 
ATOM      2  C1  UNL d   1      -0.005   1.487  -0.223  0.00  0.00     0.039 A 
ATOM      3  C2  UNL d   1      -0.235   0.248   0.378  0.00  0.00    -0.080 A 
ATOM      4  C3  UNL d   1       0.734  -0.747   0.284  0.00  0.00     0.150 A 
ATOM      5  C4  UNL d   1       1.925  -0.520  -0.396  0.00  0.00    -0.007 A 
ATOM      6  C5  UNL d   1       2.153   0.718  -0.997  0.00  0.00     0.039 A 
ENDROOT
BRANCH   4   7
ATOM      7  O   UNL d   1       0.552  -1.974   0.850  0.00  0.00    -0.526 OA
ATOM      8  H5  UNL d   1      -0.328  -1.996   1.262  0.00  0.00     0.418 HD
ENDBRANCH   4   7
TORSDOF 1
ENDMDL
