MODEL 1
REMARK minimizedAffinity -6.227808
REMARK minimizedRMSD -1
REMARK  3 active torsions:
REMARK  status: ('A' for Active; 'I' for Inactive)
REMARK    1  A    between atoms: C3'_2  and  C2'_3 
REMARK    2  A    between atoms: C2'_3  and  C1'_4 
REMARK    3  A    between atoms: C1'_4  and  C1_5 
ROOT
ATOM      1  C1  N4B d   1      -0.153   0.173   0.033  0.00  0.00    -0.075 A 
ATOM      2  C2  N4B d   1       1.157   0.299  -0.479  0.00  0.00     0.002 A 
ATOM      3  C3  N4B d   1       2.099  -0.660  -0.198  0.00  0.00     0.002 A 
ATOM      4  C4  N4B d   1       1.762  -1.739   0.605  0.00  0.00    -0.004 A 
ATOM      5  C5  N4B d   1       0.487  -1.866   1.075  0.00  0.00     0.002 A 
ATOM      6  C6  N4B d   1      -0.471  -0.913   0.797  0.00  0.00     0.002 A 
ENDROOT
BRANCH   1   7
ATOM      7  C1' N4B d   1      -1.193   1.239  -0.176  0.00  0.00     0.057 C 
BRANCH   7   8
ATOM      8  C2' N4B d   1      -0.821   2.068  -1.401  0.00  0.00     0.009 C 
BRANCH   8   9
ATOM      9  C3' N4B d   1      -1.585   1.629  -2.638  0.00  0.00     0.004 C 
ATOM     10  C4' N4B d   1      -2.794   0.804  -2.312  0.00  0.00     0.003 C 
ENDBRANCH   8   9
ENDBRANCH   7   8
ENDBRANCH   1   7
TORSDOF 3
ENDMDL
