MODEL 1
REMARK minimizedAffinity -5.78674507
REMARK minimizedRMSD -1
REMARK  3 active torsions:
REMARK  status: ('A' for Active; 'I' for Inactive)
REMARK    1  A    between atoms: C3'_2  and  C2'_3 
REMARK    2  A    between atoms: C2'_3  and  C1'_4 
REMARK    3  A    between atoms: C1'_4  and  C1_5 
ROOT
ATOM      1  C1  N4B d   1       0.205  -0.088  -0.109  0.00  0.00    -0.075 A 
ATOM      2  C2  N4B d   1      -0.646  -1.023   0.521  0.00  0.00     0.002 A 
ATOM      3  C3  N4B d   1      -0.117  -2.150   1.101  0.00  0.00     0.002 A 
ATOM      4  C4  N4B d   1       1.251  -2.373   1.046  0.00  0.00    -0.004 A 
ATOM      5  C5  N4B d   1       2.068  -1.452   0.458  0.00  0.00     0.002 A 
ATOM      6  C6  N4B d   1       1.551  -0.313  -0.125  0.00  0.00     0.002 A 
ENDROOT
BRANCH   1   7
ATOM      7  C1' N4B d   1      -0.335   1.116  -0.831  0.00  0.00     0.057 C 
BRANCH   7   8
ATOM      8  C2' N4B d   1      -1.834   1.229  -0.565  0.00  0.00     0.009 C 
BRANCH   8   9
ATOM      9  C3' N4B d   1      -2.648   1.113  -1.842  0.00  0.00     0.004 C 
ATOM     10  C4' N4B d   1      -1.903   1.593  -3.051  0.00  0.00     0.003 C 
ENDBRANCH   8   9
ENDBRANCH   7   8
ENDBRANCH   1   7
TORSDOF 3
ENDMDL
