MODEL 1
REMARK minimizedAffinity -1.41703773
REMARK minimizedRMSD -1
REMARK  3 active torsions:
REMARK  status: ('A' for Active; 'I' for Inactive)
REMARK    1  A    between atoms: C3'_2  and  C2'_3 
REMARK    2  A    between atoms: C2'_3  and  C1'_4 
REMARK    3  A    between atoms: C1'_4  and  C1_5 
ROOT
ATOM      1  C1  N4B d   1      -0.206   0.238  -0.048  0.00  0.00    -0.075 A 
ATOM      2  C2  N4B d   1       1.060   0.434  -0.643  0.00  0.00     0.002 A 
ATOM      3  C3  N4B d   1       2.085  -0.441  -0.378  0.00  0.00     0.002 A 
ATOM      4  C4  N4B d   1       1.874  -1.503   0.488  0.00  0.00    -0.004 A 
ATOM      5  C5  N4B d   1       0.641  -1.699   1.038  0.00  0.00     0.002 A 
ATOM      6  C6  N4B d   1      -0.400  -0.831   0.778  0.00  0.00     0.002 A 
ENDROOT
BRANCH   1   7
ATOM      7  C1' N4B d   1      -1.333   1.216  -0.240  0.00  0.00     0.057 C 
BRANCH   7   8
ATOM      8  C2' N4B d   1      -1.084   2.026  -1.509  0.00  0.00     0.009 C 
BRANCH   8   9
ATOM      9  C3' N4B d   1      -2.134   1.754  -2.572  0.00  0.00     0.004 C 
ATOM     10  C4' N4B d   1      -3.276   0.927  -2.062  0.00  0.00     0.003 C 
ENDBRANCH   8   9
ENDBRANCH   7   8
ENDBRANCH   1   7
TORSDOF 3
ENDMDL
