MODEL 1
REMARK minimizedAffinity -6.39359522
REMARK minimizedRMSD -1
REMARK  3 active torsions:
REMARK  status: ('A' for Active; 'I' for Inactive)
REMARK    1  A    between atoms: C3'_2  and  C2'_3 
REMARK    2  A    between atoms: C2'_3  and  C1'_4 
REMARK    3  A    between atoms: C1'_4  and  C1_5 
ROOT
ATOM      1  C1  N4B d   1       0.144   0.141  -0.278  0.00  0.00    -0.075 A 
ATOM      2  C2  N4B d   1       1.533   0.047  -0.516  0.00  0.00     0.002 A 
ATOM      3  C3  N4B d   1       2.241  -1.025  -0.030  0.00  0.00     0.002 A 
ATOM      4  C4  N4B d   1       1.589  -2.000   0.710  0.00  0.00    -0.004 A 
ATOM      5  C5  N4B d   1       0.243  -1.914   0.913  0.00  0.00     0.002 A 
ATOM      6  C6  N4B d   1      -0.483  -0.845   0.427  0.00  0.00     0.002 A 
ENDROOT
BRANCH   1   7
ATOM      7  C1' N4B d   1      -0.657   1.336  -0.717  0.00  0.00     0.057 C 
BRANCH   7   8
ATOM      8  C2' N4B d   1      -1.897   0.860  -1.468  0.00  0.00     0.009 C 
BRANCH   8   9
ATOM      9  C3' N4B d   1      -2.280   1.809  -2.591  0.00  0.00     0.004 C 
ATOM     10  C4' N4B d   1      -2.252   1.154  -3.940  0.00  0.00     0.003 C 
ENDBRANCH   8   9
ENDBRANCH   7   8
ENDBRANCH   1   7
TORSDOF 3
ENDMDL
