MODEL 1
REMARK minimizedAffinity -5.53911734
REMARK minimizedRMSD -1
REMARK  3 active torsions:
REMARK  status: ('A' for Active; 'I' for Inactive)
REMARK    1  A    between atoms: C3'_2  and  C2'_3 
REMARK    2  A    between atoms: C2'_3  and  C1'_4 
REMARK    3  A    between atoms: C1'_4  and  C1_5 
ROOT
ATOM      1  C1  N4B d   1      -0.190  -0.336   0.366  0.00  0.00    -0.075 A 
ATOM      2  C2  N4B d   1       1.025  -0.277  -0.350  0.00  0.00     0.002 A 
ATOM      3  C3  N4B d   1       2.001  -1.217  -0.125  0.00  0.00     0.002 A 
ATOM      4  C4  N4B d   1       1.793  -2.208   0.822  0.00  0.00    -0.004 A 
ATOM      5  C5  N4B d   1       0.606  -2.273   1.492  0.00  0.00     0.002 A 
ATOM      6  C6  N4B d   1      -0.385  -1.338   1.272  0.00  0.00     0.002 A 
ENDROOT
BRANCH   1   7
ATOM      7  C1' N4B d   1      -1.252   0.719   0.216  0.00  0.00     0.057 C 
BRANCH   7   8
ATOM      8  C2' N4B d   1      -1.142   1.347  -1.170  0.00  0.00     0.009 C 
BRANCH   8   9
ATOM      9  C3' N4B d   1      -2.414   1.163  -1.980  0.00  0.00     0.004 C 
ATOM     10  C4' N4B d   1      -2.145   0.864  -3.424  0.00  0.00     0.003 C 
ENDBRANCH   8   9
ENDBRANCH   7   8
ENDBRANCH   1   7
TORSDOF 3
ENDMDL
