MODEL 1
REMARK minimizedAffinity -6.46129608
REMARK minimizedRMSD -1
REMARK  3 active torsions:
REMARK  status: ('A' for Active; 'I' for Inactive)
REMARK    1  A    between atoms: C3'_2  and  C2'_3 
REMARK    2  A    between atoms: C2'_3  and  C1'_4 
REMARK    3  A    between atoms: C1'_4  and  C1_5 
ROOT
ATOM      1  C1  N4B d   1      -0.467   0.179   0.066  0.00  0.00    -0.075 A 
ATOM      2  C2  N4B d   1       0.781   0.396  -0.557  0.00  0.00     0.002 A 
ATOM      3  C3  N4B d   1       1.723  -0.603  -0.573  0.00  0.00     0.002 A 
ATOM      4  C4  N4B d   1       1.448  -1.816   0.041  0.00  0.00    -0.004 A 
ATOM      5  C5  N4B d   1       0.230  -2.027   0.618  0.00  0.00     0.002 A 
ATOM      6  C6  N4B d   1      -0.728  -1.033   0.638  0.00  0.00     0.002 A 
ENDROOT
BRANCH   1   7
ATOM      7  C1' N4B d   1      -1.496   1.270   0.184  0.00  0.00     0.057 C 
BRANCH   7   8
ATOM      8  C2' N4B d   1      -2.443   1.197  -1.010  0.00  0.00     0.009 C 
BRANCH   8   9
ATOM      9  C3' N4B d   1      -2.005   2.114  -2.139  0.00  0.00     0.004 C 
ATOM     10  C4' N4B d   1      -1.724   1.375  -3.413  0.00  0.00     0.003 C 
ENDBRANCH   8   9
ENDBRANCH   7   8
ENDBRANCH   1   7
TORSDOF 3
ENDMDL
