MODEL 1
REMARK minimizedAffinity -4.71404219
REMARK minimizedRMSD -1
REMARK  3 active torsions:
REMARK  status: ('A' for Active; 'I' for Inactive)
REMARK    1  A    between atoms: C3'_2  and  C2'_3 
REMARK    2  A    between atoms: C2'_3  and  C1'_4 
REMARK    3  A    between atoms: C1'_4  and  C1_5 
ROOT
ATOM      1  C1  N4B d   1       0.081   0.251  -0.175  0.00  0.00    -0.075 A 
ATOM      2  C2  N4B d   1      -0.450  -0.823   0.574  0.00  0.00     0.002 A 
ATOM      3  C3  N4B d   1       0.351  -1.886   0.913  0.00  0.00     0.002 A 
ATOM      4  C4  N4B d   1       1.675  -1.906   0.500  0.00  0.00    -0.004 A 
ATOM      5  C5  N4B d   1       2.187  -0.853  -0.200  0.00  0.00     0.002 A 
ATOM      6  C6  N4B d   1       1.395   0.224  -0.545  0.00  0.00     0.002 A 
ENDROOT
BRANCH   1   7
ATOM      7  C1' N4B d   1      -0.777   1.394  -0.642  0.00  0.00     0.057 C 
BRANCH   7   8
ATOM      8  C2' N4B d   1      -1.888   0.853  -1.537  0.00  0.00     0.009 C 
BRANCH   8   9
ATOM      9  C3' N4B d   1      -2.008   1.638  -2.832  0.00  0.00     0.004 C 
ATOM     10  C4' N4B d   1      -1.234   2.922  -2.806  0.00  0.00     0.003 C 
ENDBRANCH   8   9
ENDBRANCH   7   8
ENDBRANCH   1   7
TORSDOF 3
ENDMDL
