MODEL 1
REMARK minimizedAffinity -6.94488907
REMARK minimizedRMSD -1
REMARK  3 active torsions:
REMARK  status: ('A' for Active; 'I' for Inactive)
REMARK    1  A    between atoms: C3'_2  and  C2'_3 
REMARK    2  A    between atoms: C2'_3  and  C1'_4 
REMARK    3  A    between atoms: C1'_4  and  C1_5 
ROOT
ATOM      1  C1  N4B d   1       0.361  -1.586   0.758  0.00  0.00    -0.075 A 
ATOM      2  C2  N4B d   1      -0.639  -1.270   1.704  0.00  0.00     0.002 A 
ATOM      3  C3  N4B d   1      -0.809  -2.061   2.813  0.00  0.00     0.002 A 
ATOM      4  C4  N4B d   1      -0.008  -3.180   2.987  0.00  0.00    -0.004 A 
ATOM      5  C5  N4B d   1       0.973  -3.464   2.082  0.00  0.00     0.002 A 
ATOM      6  C6  N4B d   1       1.158  -2.675   0.964  0.00  0.00     0.002 A 
ENDROOT
BRANCH   1   7
ATOM      7  C1' N4B d   1       0.528  -0.800  -0.514  0.00  0.00     0.057 C 
BRANCH   7   8
ATOM      8  C2' N4B d   1      -0.378   0.427  -0.467  0.00  0.00     0.009 C 
BRANCH   8   9
ATOM      9  C3' N4B d   1      -0.967   0.752  -1.829  0.00  0.00     0.004 C 
ATOM     10  C4' N4B d   1      -1.668   2.077  -1.858  0.00  0.00     0.003 C 
ENDBRANCH   8   9
ENDBRANCH   7   8
ENDBRANCH   1   7
TORSDOF 3
ENDMDL
