MODEL 1
REMARK minimizedAffinity -2.01357818
REMARK minimizedRMSD -1
REMARK  0 active torsions:
REMARK  status: ('A' for Active; 'I' for Inactive)
ROOT
ATOM      1  N1  IND d   1       1.340  -0.488   0.678  0.00  0.00    -0.196 N 
ATOM      2  C2  IND d   1       2.421   0.336   0.530  0.00  0.00     0.054 A 
ATOM      3  C3  IND d   1       2.245   1.475   1.236  0.00  0.00    -0.031 A 
ATOM      4  C4  IND d   1       0.306   2.155   2.787  0.00  0.00     0.051 A 
ATOM      5  C5  IND d   1      -0.927   1.746   3.213  0.00  0.00    -0.031 A 
ATOM      6  C6  IND d   1      -1.477   0.547   2.810  0.00  0.00     0.015 A 
ATOM      7  C7  IND d   1      -0.807  -0.298   1.971  0.00  0.00    -0.016 A 
ATOM      8  C8  IND d   1       0.442   0.117   1.531  0.00  0.00    -0.047 A 
ATOM      9  C9  IND d   1       0.987   1.352   1.903  0.00  0.00    -0.096 A 
ATOM     10  HN1 IND d   1       1.238  -1.254   0.303  0.00  0.00     0.298 HD
ENDROOT
TORSDOF 0
ENDMDL
