MODEL 1
REMARK minimizedAffinity -0.448000401
REMARK minimizedRMSD -1
REMARK  0 active torsions:
REMARK  status: ('A' for Active; 'I' for Inactive)
ROOT
ATOM      1  N1  IND d   1       1.560   1.101   2.308  0.00  0.00    -0.196 N 
ATOM      2  C2  IND d   1       2.297   1.159   1.158  0.00  0.00     0.054 A 
ATOM      3  C3  IND d   1       1.531   0.835   0.092  0.00  0.00    -0.031 A 
ATOM      4  C4  IND d   1      -0.980   0.276  -0.008  0.00  0.00     0.051 A 
ATOM      5  C5  IND d   1      -2.069   0.063   0.790  0.00  0.00    -0.031 A 
ATOM      6  C6  IND d   1      -2.003   0.190   2.162  0.00  0.00     0.015 A 
ATOM      7  C7  IND d   1      -0.843   0.548   2.790  0.00  0.00    -0.016 A 
ATOM      8  C8  IND d   1       0.266   0.758   1.983  0.00  0.00    -0.047 A 
ATOM      9  C9  IND d   1       0.216   0.589   0.594  0.00  0.00    -0.096 A 
ATOM     10  HN1 IND d   1       1.855   1.253   3.102  0.00  0.00     0.298 HD
ENDROOT
TORSDOF 0
ENDMDL
