MODEL 1
REMARK minimizedAffinity -1.21579897
REMARK minimizedRMSD -1
REMARK  0 active torsions:
REMARK  status: ('A' for Active; 'I' for Inactive)
ROOT
ATOM      1  N1  IND d   1       1.770   1.458   2.436  0.00  0.00    -0.196 N 
ATOM      2  C2  IND d   1       2.682   1.581   1.425  0.00  0.00     0.054 A 
ATOM      3  C3  IND d   1       2.145   1.172   0.255  0.00  0.00    -0.031 A 
ATOM      4  C4  IND d   1      -0.245   0.358  -0.252  0.00  0.00     0.051 A 
ATOM      5  C5  IND d   1      -1.427   0.042   0.356  0.00  0.00    -0.031 A 
ATOM      6  C6  IND d   1      -1.608   0.187   1.717  0.00  0.00     0.015 A 
ATOM      7  C7  IND d   1      -0.613   0.666   2.521  0.00  0.00    -0.016 A 
ATOM      8  C8  IND d   1       0.591   0.982   1.907  0.00  0.00    -0.047 A 
ATOM      9  C9  IND d   1       0.795   0.797   0.534  0.00  0.00    -0.096 A 
ATOM     10  HN1 IND d   1       1.910   1.647   3.264  0.00  0.00     0.298 HD
ENDROOT
TORSDOF 0
ENDMDL
