MODEL 1
REMARK minimizedAffinity 2.67907739
REMARK minimizedRMSD -1
REMARK  0 active torsions:
REMARK  status: ('A' for Active; 'I' for Inactive)
ROOT
ATOM      1  N1  IND d   1      -0.807   0.313  -0.565  0.00  0.00    -0.196 N 
ATOM      2  C2  IND d   1      -1.843  -0.572  -0.458  0.00  0.00     0.054 A 
ATOM      3  C3  IND d   1      -2.229  -0.690   0.832  0.00  0.00    -0.031 A 
ATOM      4  C4  IND d   1      -1.368   0.551   2.917  0.00  0.00     0.051 A 
ATOM      5  C5  IND d   1      -0.405   1.430   3.326  0.00  0.00    -0.031 A 
ATOM      6  C6  IND d   1       0.489   1.996   2.441  0.00  0.00     0.015 A 
ATOM      7  C7  IND d   1       0.447   1.710   1.105  0.00  0.00    -0.016 A 
ATOM      8  C8  IND d   1      -0.525   0.812   0.687  0.00  0.00    -0.047 A 
ATOM      9  C9  IND d   1      -1.409   0.202   1.588  0.00  0.00    -0.096 A 
ATOM     10  HN1 IND d   1      -0.400   0.522  -1.293  0.00  0.00     0.298 HD
ENDROOT
TORSDOF 0
ENDMDL
