MODEL 1
REMARK minimizedAffinity -2.95239067
REMARK minimizedRMSD -1
REMARK  0 active torsions:
REMARK  status: ('A' for Active; 'I' for Inactive)
ROOT
ATOM      1  N1  IND d   1       1.571  -0.897   1.133  0.00  0.00    -0.196 N 
ATOM      2  C2  IND d   1       2.711  -0.159   0.975  0.00  0.00     0.054 A 
ATOM      3  C3  IND d   1       2.491   1.128   1.326  0.00  0.00    -0.031 A 
ATOM      4  C4  IND d   1       0.366   2.221   2.285  0.00  0.00     0.051 A 
ATOM      5  C5  IND d   1      -0.943   1.959   2.574  0.00  0.00    -0.031 A 
ATOM      6  C6  IND d   1      -1.492   0.705   2.398  0.00  0.00     0.015 A 
ATOM      7  C7  IND d   1      -0.745  -0.341   1.933  0.00  0.00    -0.016 A 
ATOM      8  C8  IND d   1       0.583  -0.076   1.631  0.00  0.00    -0.047 A 
ATOM      9  C9  IND d   1       1.134   1.204   1.768  0.00  0.00    -0.096 A 
ATOM     10  HN1 IND d   1       1.485  -1.733   0.952  0.00  0.00     0.298 HD
ENDROOT
TORSDOF 0
ENDMDL
