MODEL 1
REMARK minimizedAffinity 1.40376794
REMARK minimizedRMSD -1
REMARK  0 active torsions:
REMARK  status: ('A' for Active; 'I' for Inactive)
ROOT
ATOM      1  N1  IND d   1       1.425   1.592   2.742  0.00  0.00    -0.196 N 
ATOM      2  C2  IND d   1       2.215   1.667   1.628  0.00  0.00     0.054 A 
ATOM      3  C3  IND d   1       1.586   1.112   0.568  0.00  0.00    -0.031 A 
ATOM      4  C4  IND d   1      -0.782   0.115   0.408  0.00  0.00     0.051 A 
ATOM      5  C5  IND d   1      -1.869  -0.208   1.172  0.00  0.00    -0.031 A 
ATOM      6  C6  IND d   1      -1.915   0.060   2.525  0.00  0.00     0.015 A 
ATOM      7  C7  IND d   1      -0.876   0.675   3.165  0.00  0.00    -0.016 A 
ATOM      8  C8  IND d   1       0.232   0.998   2.394  0.00  0.00    -0.047 A 
ATOM      9  C9  IND d   1       0.302   0.689   1.029  0.00  0.00    -0.096 A 
ATOM     10  HN1 IND d   1       1.638   1.869   3.527  0.00  0.00     0.298 HD
ENDROOT
TORSDOF 0
ENDMDL
