MODEL 1
REMARK minimizedAffinity 1.14817166
REMARK minimizedRMSD -1
REMARK  0 active torsions:
REMARK  status: ('A' for Active; 'I' for Inactive)
ROOT
ATOM      1  N1  IND d   1      -2.491  -0.020   1.766  0.00  0.00    -0.196 N 
ATOM      2  C2  IND d   1      -2.549  -0.604   0.531  0.00  0.00     0.054 A 
ATOM      3  C3  IND d   1      -1.370  -0.459  -0.114  0.00  0.00    -0.031 A 
ATOM      4  C4  IND d   1       0.822   0.613   0.707  0.00  0.00     0.051 A 
ATOM      5  C5  IND d   1       1.353   1.313   1.753  0.00  0.00    -0.031 A 
ATOM      6  C6  IND d   1       0.615   1.608   2.882  0.00  0.00     0.015 A 
ATOM      7  C7  IND d   1      -0.683   1.203   3.010  0.00  0.00    -0.016 A 
ATOM      8  C8  IND d   1      -1.227   0.497   1.947  0.00  0.00    -0.047 A 
ATOM      9  C9  IND d   1      -0.497   0.231   0.781  0.00  0.00    -0.096 A 
ATOM     10  HN1 IND d   1      -3.136   0.018   2.333  0.00  0.00     0.298 HD
ENDROOT
TORSDOF 0
ENDMDL
