MODEL 1
REMARK minimizedAffinity 3.54631329
REMARK minimizedRMSD -1
REMARK  0 active torsions:
REMARK  status: ('A' for Active; 'I' for Inactive)
ROOT
ATOM      1  N1  IND d   1      -1.955   0.206  -5.977  0.00  0.00    -0.196 N 
ATOM      2  C2  IND d   1      -2.569  -1.015  -5.951  0.00  0.00     0.054 A 
ATOM      3  C3  IND d   1      -1.765  -1.934  -5.372  0.00  0.00    -0.031 A 
ATOM      4  C4  IND d   1       0.558  -1.634  -4.303  0.00  0.00     0.051 A 
ATOM      5  C5  IND d   1       1.546  -0.709  -4.116  0.00  0.00    -0.031 A 
ATOM      6  C6  IND d   1       1.414   0.596  -4.546  0.00  0.00     0.015 A 
ATOM      7  C7  IND d   1       0.279   1.029  -5.171  0.00  0.00    -0.016 A 
ATOM      8  C8  IND d   1      -0.724   0.090  -5.369  0.00  0.00    -0.047 A 
ATOM      9  C9  IND d   1      -0.578  -1.246  -4.973  0.00  0.00    -0.096 A 
ATOM     10  HN1 IND d   1      -2.282   0.926  -6.315  0.00  0.00     0.298 HD
ENDROOT
TORSDOF 0
ENDMDL
