MODEL 1
REMARK minimizedAffinity 5.353405
REMARK minimizedRMSD -1
REMARK  0 active torsions:
REMARK  status: ('A' for Active; 'I' for Inactive)
ROOT
ATOM      1  N1  IND d   1      -1.517  -1.370   3.472  0.00  0.00    -0.196 N 
ATOM      2  C2  IND d   1      -0.305  -1.243   4.093  0.00  0.00     0.054 A 
ATOM      3  C3  IND d   1       0.576  -0.617   3.280  0.00  0.00    -0.031 A 
ATOM      4  C4  IND d   1       0.216   0.373   0.931  0.00  0.00     0.051 A 
ATOM      5  C5  IND d   1      -0.713   0.470  -0.066  0.00  0.00    -0.031 A 
ATOM      6  C6  IND d   1      -1.985  -0.049   0.069  0.00  0.00     0.015 A 
ATOM      7  C7  IND d   1      -2.379  -0.678   1.216  0.00  0.00    -0.016 A 
ATOM      8  C8  IND d   1      -1.436  -0.784   2.228  0.00  0.00    -0.047 A 
ATOM      9  C9  IND d   1      -0.131  -0.297   2.081  0.00  0.00    -0.096 A 
ATOM     10  HN1 IND d   1      -2.212  -1.751   3.804  0.00  0.00     0.298 HD
ENDROOT
TORSDOF 0
ENDMDL
