MODEL 1
REMARK minimizedAffinity 10.3106174
REMARK minimizedRMSD -1
REMARK  0 active torsions:
REMARK  status: ('A' for Active; 'I' for Inactive)
ROOT
ATOM      1  C   UNL d   1      -5.994  -2.055  -1.837  0.00  0.00     0.023 A 
ATOM      2  C1  UNL d   1      -5.874  -1.337  -3.027  0.00  0.00     0.003 A 
ATOM      3  C2  UNL d   1      -5.602  -2.005  -4.222  0.00  0.00     0.048 A 
ATOM      4  C3  UNL d   1      -5.451  -3.392  -4.221  0.00  0.00     0.023 A 
ATOM      5  C4  UNL d   1      -5.570  -4.114  -3.032  0.00  0.00     0.048 A 
ATOM      6  C5  UNL d   1      -5.842  -3.442  -1.839  0.00  0.00     0.003 A 
ATOM      7  I   UNL d   1      -5.045  -4.389  -5.999  0.00  0.00    -0.146 I 
ENDROOT
TORSDOF 0
ENDMDL
