MODEL 1
REMARK minimizedAffinity 6.42195463
REMARK minimizedRMSD -1
REMARK  0 active torsions:
REMARK  status: ('A' for Active; 'I' for Inactive)
ROOT
ATOM      1  C   UNL d   1      -5.137  -1.156  -2.230  0.00  0.00     0.023 A 
ATOM      2  C1  UNL d   1      -4.726  -0.783  -3.510  0.00  0.00     0.003 A 
ATOM      3  C2  UNL d   1      -4.950  -1.636  -4.593  0.00  0.00     0.048 A 
ATOM      4  C3  UNL d   1      -5.586  -2.860  -4.388  0.00  0.00     0.023 A 
ATOM      5  C4  UNL d   1      -6.000  -3.237  -3.110  0.00  0.00     0.048 A 
ATOM      6  C5  UNL d   1      -5.773  -2.381  -2.030  0.00  0.00     0.003 A 
ATOM      7  I   UNL d   1      -5.921  -4.131  -5.998  0.00  0.00    -0.146 I 
ENDROOT
TORSDOF 0
ENDMDL
