MODEL 1
REMARK minimizedAffinity 12.9343023
REMARK minimizedRMSD -1
REMARK  0 active torsions:
REMARK  status: ('A' for Active; 'I' for Inactive)
ROOT
ATOM      1  C   UNL d   1      -2.962  -1.307  -6.000  0.00  0.00     0.023 A 
ATOM      2  C1  UNL d   1      -2.606   0.017  -5.741  0.00  0.00     0.003 A 
ATOM      3  C2  UNL d   1      -1.343   0.315  -5.227  0.00  0.00     0.048 A 
ATOM      4  C3  UNL d   1      -0.439  -0.717  -4.975  0.00  0.00     0.023 A 
ATOM      5  C4  UNL d   1      -0.789  -2.043  -5.233  0.00  0.00     0.048 A 
ATOM      6  C5  UNL d   1      -2.054  -2.336  -5.746  0.00  0.00     0.003 A 
ATOM      7  I   UNL d   1       1.443  -0.276  -4.210  0.00  0.00    -0.146 I 
ENDROOT
TORSDOF 0
ENDMDL
