MODEL 1
REMARK minimizedAffinity 7.54719448
REMARK minimizedRMSD -1
REMARK  0 active torsions:
REMARK  status: ('A' for Active; 'I' for Inactive)
ROOT
ATOM      1  C   UNL d   1      -4.873  -1.881  -6.000  0.00  0.00     0.023 A 
ATOM      2  C1  UNL d   1      -4.432  -0.976  -5.034  0.00  0.00     0.003 A 
ATOM      3  C2  UNL d   1      -4.755  -1.175  -3.690  0.00  0.00     0.048 A 
ATOM      4  C3  UNL d   1      -5.518  -2.282  -3.319  0.00  0.00     0.023 A 
ATOM      5  C4  UNL d   1      -5.960  -3.191  -4.281  0.00  0.00     0.048 A 
ATOM      6  C5  UNL d   1      -5.636  -2.987  -5.624  0.00  0.00     0.003 A 
ATOM      7  I   UNL d   1      -5.999  -2.580  -1.319  0.00  0.00    -0.146 I 
ENDROOT
TORSDOF 0
ENDMDL
