MODEL 1
REMARK minimizedAffinity 3.32695031
REMARK minimizedRMSD -1
REMARK  0 active torsions:
REMARK  status: ('A' for Active; 'I' for Inactive)
ROOT
ATOM      1  C   UNL d   1      -5.036   3.279   1.617  0.00  0.00     0.023 A 
ATOM      2  C1  UNL d   1      -3.812   3.700   2.139  0.00  0.00     0.003 A 
ATOM      3  C2  UNL d   1      -2.790   2.774   2.358  0.00  0.00     0.048 A 
ATOM      4  C3  UNL d   1      -2.998   1.430   2.052  0.00  0.00     0.023 A 
ATOM      5  C4  UNL d   1      -4.220   1.004   1.530  0.00  0.00     0.048 A 
ATOM      6  C5  UNL d   1      -5.240   1.933   1.313  0.00  0.00     0.003 A 
ATOM      7  I   UNL d   1      -1.478   0.050   2.377  0.00  0.00    -0.146 I 
ENDROOT
TORSDOF 0
ENDMDL
