MODEL 1
REMARK minimizedAffinity 8.94580841
REMARK minimizedRMSD -1
REMARK  0 active torsions:
REMARK  status: ('A' for Active; 'I' for Inactive)
ROOT
ATOM      1  C   UNL d   1      -2.047   1.826   1.906  0.00  0.00     0.023 A 
ATOM      2  C1  UNL d   1      -1.769   0.461   1.819  0.00  0.00     0.003 A 
ATOM      3  C2  UNL d   1      -2.797  -0.446   1.550  0.00  0.00     0.048 A 
ATOM      4  C3  UNL d   1      -4.099   0.019   1.368  0.00  0.00     0.023 A 
ATOM      5  C4  UNL d   1      -4.381   1.383   1.453  0.00  0.00     0.048 A 
ATOM      6  C5  UNL d   1      -3.351   2.286   1.723  0.00  0.00     0.003 A 
ATOM      7  I   UNL d   1      -5.629  -1.329   0.967  0.00  0.00    -0.146 I 
ENDROOT
TORSDOF 0
ENDMDL
