MODEL 1
REMARK minimizedAffinity 7.55477524
REMARK minimizedRMSD -1
REMARK  0 active torsions:
REMARK  status: ('A' for Active; 'I' for Inactive)
ROOT
ATOM      1  C   UNL d   1      -3.120  -1.877  -1.310  0.00  0.00     0.023 A 
ATOM      2  C1  UNL d   1      -3.042  -2.287   0.022  0.00  0.00     0.003 A 
ATOM      3  C2  UNL d   1      -2.485  -1.440   0.982  0.00  0.00     0.048 A 
ATOM      4  C3  UNL d   1      -2.009  -0.185   0.605  0.00  0.00     0.023 A 
ATOM      5  C4  UNL d   1      -2.086   0.230  -0.726  0.00  0.00     0.048 A 
ATOM      6  C5  UNL d   1      -2.643  -0.621  -1.683  0.00  0.00     0.003 A 
ATOM      7  I   UNL d   1      -1.180   1.078   2.032  0.00  0.00    -0.146 I 
ENDROOT
TORSDOF 0
ENDMDL
