MODEL 1
REMARK minimizedAffinity 4.24720287
REMARK minimizedRMSD -1
REMARK  0 active torsions:
REMARK  status: ('A' for Active; 'I' for Inactive)
ROOT
ATOM      1  C   UNL d   1      -5.640  -1.962  -1.489  0.00  0.00     0.023 A 
ATOM      2  C1  UNL d   1      -5.589  -1.104  -2.588  0.00  0.00     0.003 A 
ATOM      3  C2  UNL d   1      -5.652  -1.622  -3.884  0.00  0.00     0.048 A 
ATOM      4  C3  UNL d   1      -5.765  -2.999  -4.073  0.00  0.00     0.023 A 
ATOM      5  C4  UNL d   1      -5.817  -3.861  -2.976  0.00  0.00     0.048 A 
ATOM      6  C5  UNL d   1      -5.753  -3.339  -1.683  0.00  0.00     0.003 A 
ATOM      7  I   UNL d   1      -5.859  -3.773  -5.999  0.00  0.00    -0.146 I 
ENDROOT
TORSDOF 0
ENDMDL
