MODEL 1
REMARK minimizedAffinity 12.8167009
REMARK minimizedRMSD -1
REMARK  0 active torsions:
REMARK  status: ('A' for Active; 'I' for Inactive)
ROOT
ATOM      1  C   UNL d   1      -1.198   1.269   0.586  0.00  0.00     0.023 A 
ATOM      2  C1  UNL d   1      -0.358   1.273   1.700  0.00  0.00     0.003 A 
ATOM      3  C2  UNL d   1      -0.725   0.579   2.854  0.00  0.00     0.048 A 
ATOM      4  C3  UNL d   1      -1.932  -0.119   2.888  0.00  0.00     0.023 A 
ATOM      5  C4  UNL d   1      -2.775  -0.126   1.775  0.00  0.00     0.048 A 
ATOM      6  C5  UNL d   1      -2.405   0.571   0.623  0.00  0.00     0.003 A 
ATOM      7  I   UNL d   1      -2.480  -1.153   4.605  0.00  0.00    -0.146 I 
ENDROOT
TORSDOF 0
ENDMDL
