MODEL 1
REMARK minimizedAffinity 21.1701679
REMARK minimizedRMSD -1
REMARK  0 active torsions:
REMARK  status: ('A' for Active; 'I' for Inactive)
ROOT
ATOM      1  C   UNL d   1      -2.859  -0.112  -0.283  0.00  0.00     0.023 A 
ATOM      2  C1  UNL d   1      -1.753   0.598  -0.752  0.00  0.00     0.003 A 
ATOM      3  C2  UNL d   1      -0.759   1.011   0.138  0.00  0.00     0.048 A 
ATOM      4  C3  UNL d   1      -0.877   0.709   1.494  0.00  0.00     0.023 A 
ATOM      5  C4  UNL d   1      -1.981  -0.001   1.967  0.00  0.00     0.048 A 
ATOM      6  C5  UNL d   1      -2.973  -0.411   1.074  0.00  0.00     0.003 A 
ATOM      7  I   UNL d   1       0.602   1.322   2.820  0.00  0.00    -0.146 I 
ENDROOT
TORSDOF 0
ENDMDL
