MODEL 1
REMARK minimizedAffinity 6.16095495
REMARK minimizedRMSD -1
REMARK  0 active torsions:
REMARK  status: ('A' for Active; 'I' for Inactive)
ROOT
ATOM      1  C   UNL d   1      -0.684   2.000  -2.364  0.00  0.00     0.023 A 
ATOM      2  C1  UNL d   1      -1.119   0.949  -3.172  0.00  0.00     0.003 A 
ATOM      3  C2  UNL d   1      -0.204   0.008  -3.648  0.00  0.00     0.048 A 
ATOM      4  C3  UNL d   1       1.144   0.123  -3.312  0.00  0.00     0.023 A 
ATOM      5  C4  UNL d   1       1.584   1.172  -2.503  0.00  0.00     0.048 A 
ATOM      6  C5  UNL d   1       0.666   2.111  -2.030  0.00  0.00     0.003 A 
ATOM      7  I   UNL d   1       2.508  -1.277  -4.019  0.00  0.00    -0.146 I 
ENDROOT
TORSDOF 0
ENDMDL
