MODEL 1
REMARK minimizedAffinity 3.95800018
REMARK minimizedRMSD -1
REMARK  0 active torsions:
REMARK  status: ('A' for Active; 'I' for Inactive)
ROOT
ATOM      1  C   UNL d   1       5.405  -0.357   2.597  0.00  0.00     0.023 A 
ATOM      2  C1  UNL d   1       4.020  -0.346   2.758  0.00  0.00     0.003 A 
ATOM      3  C2  UNL d   1       3.225   0.441   1.922  0.00  0.00     0.048 A 
ATOM      4  C3  UNL d   1       3.823   1.214   0.927  0.00  0.00     0.023 A 
ATOM      5  C4  UNL d   1       5.209   1.205   0.762  0.00  0.00     0.048 A 
ATOM      6  C5  UNL d   1       5.999   0.417   1.601  0.00  0.00     0.003 A 
ATOM      7  I   UNL d   1       2.643   2.387  -0.319  0.00  0.00    -0.146 I 
ENDROOT
TORSDOF 0
ENDMDL
