MODEL 1
REMARK minimizedAffinity 6.80552673
REMARK minimizedRMSD -1
REMARK  0 active torsions:
REMARK  status: ('A' for Active; 'I' for Inactive)
ROOT
ATOM      1  C   UNL d   1      -0.925   0.441   1.734  0.00  0.00     0.023 A 
ATOM      2  C1  UNL d   1      -1.385  -0.462   2.692  0.00  0.00     0.003 A 
ATOM      3  C2  UNL d   1      -2.731  -0.462   3.065  0.00  0.00     0.048 A 
ATOM      4  C3  UNL d   1      -3.612   0.443   2.474  0.00  0.00     0.023 A 
ATOM      5  C4  UNL d   1      -3.156   1.349   1.514  0.00  0.00     0.048 A 
ATOM      6  C5  UNL d   1      -1.810   1.346   1.146  0.00  0.00     0.003 A 
ATOM      7  I   UNL d   1      -5.616   0.445   3.026  0.00  0.00    -0.146 I 
ENDROOT
TORSDOF 0
ENDMDL
