MODEL 1
REMARK minimizedAffinity -1.06410944
REMARK minimizedRMSD -1
REMARK  0 active torsions:
REMARK  status: ('A' for Active; 'I' for Inactive)
ROOT
ATOM      1  C   UNL d   1      -1.627   0.756   0.399  0.00  0.00     0.023 A 
ATOM      2  C1  UNL d   1      -2.058   1.460   1.524  0.00  0.00     0.003 A 
ATOM      3  C2  UNL d   1      -3.303   1.179   2.091  0.00  0.00     0.048 A 
ATOM      4  C3  UNL d   1      -4.112   0.192   1.528  0.00  0.00     0.023 A 
ATOM      5  C4  UNL d   1      -3.685  -0.515   0.403  0.00  0.00     0.048 A 
ATOM      6  C5  UNL d   1      -2.440  -0.230  -0.161  0.00  0.00     0.003 A 
ATOM      7  I   UNL d   1      -5.965  -0.228   2.370  0.00  0.00    -0.146 I 
ENDROOT
TORSDOF 0
ENDMDL
