MODEL 1
REMARK minimizedAffinity 12.2303982
REMARK minimizedRMSD -1
REMARK  0 active torsions:
REMARK  status: ('A' for Active; 'I' for Inactive)
ROOT
ATOM      1  C   UNL d   1       5.825   3.832  -4.968  0.00  0.00     0.023 A 
ATOM      2  C1  UNL d   1       5.021   3.344  -5.997  0.00  0.00     0.003 A 
ATOM      3  C2  UNL d   1       4.389   2.106  -5.865  0.00  0.00     0.048 A 
ATOM      4  C3  UNL d   1       4.566   1.361  -4.699  0.00  0.00     0.023 A 
ATOM      5  C4  UNL d   1       5.369   1.846  -3.666  0.00  0.00     0.048 A 
ATOM      6  C5  UNL d   1       5.999   3.084  -3.803  0.00  0.00     0.003 A 
ATOM      7  I   UNL d   1       3.627  -0.482  -4.499  0.00  0.00    -0.146 I 
ENDROOT
TORSDOF 0
ENDMDL
