MODEL 1
REMARK minimizedAffinity 8.61973286
REMARK minimizedRMSD -1
REMARK  0 active torsions:
REMARK  status: ('A' for Active; 'I' for Inactive)
ROOT
ATOM      1  C   UNL d   1      -6.000   0.258   3.325  0.00  0.00     0.023 A 
ATOM      2  C1  UNL d   1      -5.699   0.019   1.984  0.00  0.00     0.003 A 
ATOM      3  C2  UNL d   1      -4.410   0.259   1.504  0.00  0.00     0.048 A 
ATOM      4  C3  UNL d   1      -3.427   0.736   2.369  0.00  0.00     0.023 A 
ATOM      5  C4  UNL d   1      -3.723   0.976   3.712  0.00  0.00     0.048 A 
ATOM      6  C5  UNL d   1      -5.013   0.736   4.188  0.00  0.00     0.003 A 
ATOM      7  I   UNL d   1      -1.507   1.093   1.656  0.00  0.00    -0.146 I 
ENDROOT
TORSDOF 0
ENDMDL
