MODEL 1
REMARK minimizedAffinity 5.79454708
REMARK minimizedRMSD -1
REMARK  0 active torsions:
REMARK  status: ('A' for Active; 'I' for Inactive)
ROOT
ATOM      1  C   UNL d   1       2.486  -2.208  -4.326  0.00  0.00     0.023 A 
ATOM      2  C1  UNL d   1       3.257  -1.273  -3.637  0.00  0.00     0.003 A 
ATOM      3  C2  UNL d   1       3.253   0.066  -4.034  0.00  0.00     0.048 A 
ATOM      4  C3  UNL d   1       2.474   0.462  -5.121  0.00  0.00     0.023 A 
ATOM      5  C4  UNL d   1       1.700  -0.470  -5.813  0.00  0.00     0.048 A 
ATOM      6  C5  UNL d   1       1.708  -1.808  -5.413  0.00  0.00     0.003 A 
ATOM      7  I   UNL d   1       2.466   2.454  -5.714  0.00  0.00    -0.146 I 
ENDROOT
TORSDOF 0
ENDMDL
