MODEL 1
REMARK minimizedAffinity 5.78363371
REMARK minimizedRMSD -1
REMARK  1 active torsions:
REMARK  status: ('A' for Active; 'I' for Inactive)
REMARK    1  A    between atoms: C1_2  and  C2_3 
ROOT
ATOM      1  C2  UNL d   1      -1.251  -2.959   0.369  0.00  0.00    -0.081 A 
ATOM      2  C3  UNL d   1      -0.014  -3.288  -0.199  0.00  0.00     0.006 A 
ATOM      3  C4  UNL d   1       1.032  -2.362  -0.202  0.00  0.00     0.002 A 
ATOM      4  C5  UNL d   1       0.861  -1.096   0.368  0.00  0.00    -0.080 A 
ATOM      5  C6  UNL d   1       1.986  -0.104   0.398  0.00  0.00     0.076 C 
ATOM      6  C7  UNL d   1      -0.380  -0.761   0.920  0.00  0.00     0.002 A 
ATOM      7  C8  UNL d   1      -1.426  -1.687   0.923  0.00  0.00     0.006 A 
ENDROOT
BRANCH   1   8
ATOM      8  C1  UNL d   1      -2.360  -3.978   0.432  0.00  0.00     0.054 C 
ATOM      9  C   UNL d   1      -2.634  -4.410   1.866  0.00  0.00     0.018 C 
ENDBRANCH   1   8
TORSDOF 1
ENDMDL
