MODEL 1
REMARK minimizedAffinity 6.1678009
REMARK minimizedRMSD -1
REMARK  1 active torsions:
REMARK  status: ('A' for Active; 'I' for Inactive)
REMARK    1  A    between atoms: C1_2  and  C2_3 
ROOT
ATOM      1  C2  UNL d   1       1.874  -0.751   1.171  0.00  0.00    -0.081 A 
ATOM      2  C3  UNL d   1       2.833  -0.138   0.356  0.00  0.00     0.006 A 
ATOM      3  C4  UNL d   1       4.167  -0.067   0.764  0.00  0.00     0.002 A 
ATOM      4  C5  UNL d   1       4.565  -0.614   1.989  0.00  0.00    -0.080 A 
ATOM      5  C6  UNL d   1       6.000  -0.572   2.425  0.00  0.00     0.076 C 
ATOM      6  C7  UNL d   1       3.603  -1.212   2.810  0.00  0.00     0.002 A 
ATOM      7  C8  UNL d   1       2.269  -1.282   2.403  0.00  0.00     0.006 A 
ENDROOT
BRANCH   1   8
ATOM      8  C1  UNL d   1       0.446  -0.887   0.704  0.00  0.00     0.054 C 
ATOM      9  C   UNL d   1       0.139  -2.313   0.271  0.00  0.00     0.018 C 
ENDBRANCH   1   8
TORSDOF 1
ENDMDL
