MODEL 1
REMARK minimizedAffinity 1.52100778
REMARK minimizedRMSD -1
REMARK  1 active torsions:
REMARK  status: ('A' for Active; 'I' for Inactive)
REMARK    1  A    between atoms: C1_2  and  C2_3 
ROOT
ATOM      1  C2  UNL d   1       1.591  -0.886  -0.028  0.00  0.00    -0.081 A 
ATOM      2  C3  UNL d   1       0.668  -1.097   1.004  0.00  0.00     0.006 A 
ATOM      3  C4  UNL d   1       1.104  -1.449   2.283  0.00  0.00     0.002 A 
ATOM      4  C5  UNL d   1       2.469  -1.588   2.555  0.00  0.00    -0.080 A 
ATOM      5  C6  UNL d   1       2.952  -1.936   3.932  0.00  0.00     0.076 C 
ATOM      6  C7  UNL d   1       3.391  -1.394   1.520  0.00  0.00     0.002 A 
ATOM      7  C8  UNL d   1       2.955  -1.042   0.241  0.00  0.00     0.006 A 
ENDROOT
BRANCH   1   8
ATOM      8  C1  UNL d   1       1.128  -0.443  -1.392  0.00  0.00     0.054 C 
ATOM      9  C   UNL d   1       0.083   0.659  -1.291  0.00  0.00     0.018 C 
ENDBRANCH   1   8
TORSDOF 1
ENDMDL
