MODEL 1
REMARK minimizedAffinity 5.45529175
REMARK minimizedRMSD -1
REMARK  1 active torsions:
REMARK  status: ('A' for Active; 'I' for Inactive)
REMARK    1  A    between atoms: C1_2  and  C2_3 
ROOT
ATOM      1  C2  UNL d   1       0.374  -1.308   0.115  0.00  0.00    -0.081 A 
ATOM      2  C3  UNL d   1      -0.714  -0.590   0.625  0.00  0.00     0.006 A 
ATOM      3  C4  UNL d   1      -0.657   0.802   0.732  0.00  0.00     0.002 A 
ATOM      4  C5  UNL d   1       0.485   1.499   0.323  0.00  0.00    -0.080 A 
ATOM      5  C6  UNL d   1       0.547   2.995   0.404  0.00  0.00     0.076 C 
ATOM      6  C7  UNL d   1       1.579   0.780  -0.171  0.00  0.00     0.002 A 
ATOM      7  C8  UNL d   1       1.523  -0.611  -0.277  0.00  0.00     0.006 A 
ENDROOT
BRANCH   1   8
ATOM      8  C1  UNL d   1       0.292  -2.802  -0.061  0.00  0.00     0.054 C 
ATOM      9  C   UNL d   1      -1.146  -3.292   0.032  0.00  0.00     0.018 C 
ENDBRANCH   1   8
TORSDOF 1
ENDMDL
