MODEL 1
REMARK minimizedAffinity 10.2404461
REMARK minimizedRMSD -1
REMARK  1 active torsions:
REMARK  status: ('A' for Active; 'I' for Inactive)
REMARK    1  A    between atoms: C1_2  and  C2_3 
ROOT
ATOM      1  C2  UNL d   1      -1.405  -4.847  -5.228  0.00  0.00    -0.081 A 
ATOM      2  C3  UNL d   1      -0.586  -5.692  -5.986  0.00  0.00     0.006 A 
ATOM      3  C4  UNL d   1       0.732  -5.940  -5.594  0.00  0.00     0.002 A 
ATOM      4  C5  UNL d   1       1.250  -5.354  -4.434  0.00  0.00    -0.080 A 
ATOM      5  C6  UNL d   1       2.653  -5.636  -3.986  0.00  0.00     0.076 C 
ATOM      6  C7  UNL d   1       0.437  -4.496  -3.686  0.00  0.00     0.002 A 
ATOM      7  C8  UNL d   1      -0.880  -4.247  -4.078  0.00  0.00     0.006 A 
ENDROOT
BRANCH   1   8
ATOM      8  C1  UNL d   1      -2.846  -4.629  -5.612  0.00  0.00     0.054 C 
ATOM      9  C   UNL d   1      -3.581  -3.811  -4.560  0.00  0.00     0.018 C 
ENDBRANCH   1   8
TORSDOF 1
ENDMDL
