MODEL 1
REMARK minimizedAffinity 5.70437717
REMARK minimizedRMSD -1
REMARK  1 active torsions:
REMARK  status: ('A' for Active; 'I' for Inactive)
REMARK    1  A    between atoms: C1_2  and  C2_3 
ROOT
ATOM      1  C2  UNL d   1      -4.298   1.080  -2.609  0.00  0.00    -0.081 A 
ATOM      2  C3  UNL d   1      -5.517   0.393  -2.549  0.00  0.00     0.006 A 
ATOM      3  C4  UNL d   1      -5.991  -0.102  -1.332  0.00  0.00     0.002 A 
ATOM      4  C5  UNL d   1      -5.260   0.088  -0.155  0.00  0.00    -0.080 A 
ATOM      5  C6  UNL d   1      -5.773  -0.412   1.163  0.00  0.00     0.076 C 
ATOM      6  C7  UNL d   1      -4.034   0.759  -0.217  0.00  0.00     0.002 A 
ATOM      7  C8  UNL d   1      -3.559   1.254  -1.434  0.00  0.00     0.006 A 
ENDROOT
BRANCH   1   8
ATOM      8  C1  UNL d   1      -3.815   1.671  -3.908  0.00  0.00     0.054 C 
ATOM      9  C   UNL d   1      -2.359   2.106  -3.811  0.00  0.00     0.018 C 
ENDBRANCH   1   8
TORSDOF 1
ENDMDL
