MODEL 1
REMARK minimizedAffinity 7.05097866
REMARK minimizedRMSD -1
REMARK  0 active torsions:
REMARK  status: ('A' for Active; 'I' for Inactive)
ROOT
ATOM      1  C   UNL d   1      -5.178   3.379  -0.484  0.00  0.00     0.077 C 
ATOM      2  C1  UNL d   1      -4.975   2.679   0.827  0.00  0.00    -0.074 A 
ATOM      3  C2  UNL d   1      -6.000   2.621   1.777  0.00  0.00    -0.005 A 
ATOM      4  C3  UNL d   1      -5.799   1.958   2.988  0.00  0.00     0.006 A 
ATOM      5  C4  UNL d   1      -4.575   1.347   3.260  0.00  0.00    -0.005 A 
ATOM      6  C5  UNL d   1      -3.539   1.393   2.322  0.00  0.00    -0.074 A 
ATOM      7  C6  UNL d   1      -2.220   0.734   2.595  0.00  0.00     0.077 C 
ATOM      8  C7  UNL d   1      -3.750   2.056   1.105  0.00  0.00    -0.001 A 
ENDROOT
TORSDOF 0
ENDMDL
