MODEL 1
REMARK minimizedAffinity 4.44944048
REMARK minimizedRMSD -1
REMARK  0 active torsions:
REMARK  status: ('A' for Active; 'I' for Inactive)
ROOT
ATOM      1  C   UNL d   1      -0.378   6.000  -1.485  0.00  0.00     0.077 C 
ATOM      2  C1  UNL d   1      -0.859   4.851  -2.321  0.00  0.00    -0.074 A 
ATOM      3  C2  UNL d   1       0.043   4.042  -3.019  0.00  0.00    -0.005 A 
ATOM      4  C3  UNL d   1      -0.418   2.972  -3.785  0.00  0.00     0.006 A 
ATOM      5  C4  UNL d   1      -1.785   2.701  -3.861  0.00  0.00    -0.005 A 
ATOM      6  C5  UNL d   1      -2.702   3.499  -3.170  0.00  0.00    -0.074 A 
ATOM      7  C6  UNL d   1      -4.174   3.215  -3.234  0.00  0.00     0.077 C 
ATOM      8  C7  UNL d   1      -2.230   4.568  -2.397  0.00  0.00    -0.001 A 
ENDROOT
TORSDOF 0
ENDMDL
