MODEL 1
REMARK minimizedAffinity 4.48395681
REMARK minimizedRMSD -1
REMARK  0 active torsions:
REMARK  status: ('A' for Active; 'I' for Inactive)
ROOT
ATOM      1  C   UNL d   1       3.699   2.456  -1.495  0.00  0.00     0.077 C 
ATOM      2  C1  UNL d   1       4.085   1.032  -1.767  0.00  0.00    -0.074 A 
ATOM      3  C2  UNL d   1       5.217   0.727  -2.530  0.00  0.00    -0.005 A 
ATOM      4  C3  UNL d   1       5.568  -0.602  -2.767  0.00  0.00     0.006 A 
ATOM      5  C4  UNL d   1       4.792  -1.638  -2.244  0.00  0.00    -0.005 A 
ATOM      6  C5  UNL d   1       3.657  -1.352  -1.479  0.00  0.00    -0.074 A 
ATOM      7  C6  UNL d   1       2.818  -2.453  -0.902  0.00  0.00     0.077 C 
ATOM      8  C7  UNL d   1       3.315  -0.014  -1.239  0.00  0.00    -0.001 A 
ENDROOT
TORSDOF 0
ENDMDL
