MODEL 1
REMARK minimizedAffinity 6.41037607
REMARK minimizedRMSD -1
REMARK  0 active torsions:
REMARK  status: ('A' for Active; 'I' for Inactive)
ROOT
ATOM      1  C   UNL d   1      -3.687  -2.041   1.597  0.00  0.00     0.077 C 
ATOM      2  C1  UNL d   1      -3.611  -0.550   1.741  0.00  0.00    -0.074 A 
ATOM      3  C2  UNL d   1      -2.407   0.080   2.072  0.00  0.00    -0.005 A 
ATOM      4  C3  UNL d   1      -2.350   1.468   2.193  0.00  0.00     0.006 A 
ATOM      5  C4  UNL d   1      -3.495   2.239   1.986  0.00  0.00    -0.005 A 
ATOM      6  C5  UNL d   1      -4.707   1.627   1.654  0.00  0.00    -0.074 A 
ATOM      7  C6  UNL d   1      -5.944   2.441   1.419  0.00  0.00     0.077 C 
ATOM      8  C7  UNL d   1      -4.755   0.232   1.527  0.00  0.00    -0.001 A 
ENDROOT
TORSDOF 0
ENDMDL
