MODEL 1
REMARK minimizedAffinity 4.69259787
REMARK minimizedRMSD -1
REMARK  0 active torsions:
REMARK  status: ('A' for Active; 'I' for Inactive)
ROOT
ATOM      1  C   UNL d   1      -0.777   6.000   1.572  0.00  0.00     0.077 C 
ATOM      2  C1  UNL d   1      -1.241   5.682   0.181  0.00  0.00    -0.074 A 
ATOM      3  C2  UNL d   1      -2.538   6.000  -0.235  0.00  0.00    -0.005 A 
ATOM      4  C3  UNL d   1      -2.951   5.706  -1.534  0.00  0.00     0.006 A 
ATOM      5  C4  UNL d   1      -2.074   5.093  -2.429  0.00  0.00    -0.005 A 
ATOM      6  C5  UNL d   1      -0.773   4.768  -2.031  0.00  0.00    -0.074 A 
ATOM      7  C6  UNL d   1       0.186   4.118  -2.984  0.00  0.00     0.077 C 
ATOM      8  C7  UNL d   1      -0.363   5.073  -0.726  0.00  0.00    -0.001 A 
ENDROOT
TORSDOF 0
ENDMDL
