MODEL 1
REMARK minimizedAffinity -3.06414676
REMARK minimizedRMSD -1
REMARK  0 active torsions:
REMARK  status: ('A' for Active; 'I' for Inactive)
ROOT
ATOM      1  C   UNL d   1      -3.746   2.829   1.109  0.00  0.00     0.077 C 
ATOM      2  C1  UNL d   1      -2.702   3.861   0.804  0.00  0.00    -0.074 A 
ATOM      3  C2  UNL d   1      -2.635   5.053   1.531  0.00  0.00    -0.005 A 
ATOM      4  C3  UNL d   1      -1.652   5.999   1.241  0.00  0.00     0.006 A 
ATOM      5  C4  UNL d   1      -0.727   5.763   0.224  0.00  0.00    -0.005 A 
ATOM      6  C5  UNL d   1      -0.777   4.576  -0.513  0.00  0.00    -0.074 A 
ATOM      7  C6  UNL d   1       0.215   4.301  -1.604  0.00  0.00     0.077 C 
ATOM      8  C7  UNL d   1      -1.764   3.627  -0.212  0.00  0.00    -0.001 A 
ENDROOT
TORSDOF 0
ENDMDL
