MODEL 1
REMARK minimizedAffinity 8.02080727
REMARK minimizedRMSD -1
REMARK  0 active torsions:
REMARK  status: ('A' for Active; 'I' for Inactive)
ROOT
ATOM      1  C   UNL d   1      -4.130  -1.030   1.986  0.00  0.00     0.077 C 
ATOM      2  C1  UNL d   1      -3.818  -2.363   1.372  0.00  0.00    -0.074 A 
ATOM      3  C2  UNL d   1      -2.895  -2.475   0.327  0.00  0.00    -0.005 A 
ATOM      4  C3  UNL d   1      -2.608  -3.722  -0.227  0.00  0.00     0.006 A 
ATOM      5  C4  UNL d   1      -3.239  -4.868   0.258  0.00  0.00    -0.005 A 
ATOM      6  C5  UNL d   1      -4.164  -4.776   1.303  0.00  0.00    -0.074 A 
ATOM      7  C6  UNL d   1      -4.843  -6.000   1.842  0.00  0.00     0.077 C 
ATOM      8  C7  UNL d   1      -4.442  -3.520   1.859  0.00  0.00    -0.001 A 
ENDROOT
TORSDOF 0
ENDMDL
