MODEL 1
REMARK minimizedAffinity 6.00794172
REMARK minimizedRMSD -1
REMARK  0 active torsions:
REMARK  status: ('A' for Active; 'I' for Inactive)
ROOT
ATOM      1  C   UNL d   1      -3.225   2.311  -4.434  0.00  0.00     0.077 C 
ATOM      2  C1  UNL d   1      -1.919   2.902  -3.994  0.00  0.00    -0.074 A 
ATOM      3  C2  UNL d   1      -0.709   2.260  -4.277  0.00  0.00    -0.005 A 
ATOM      4  C3  UNL d   1       0.499   2.826  -3.869  0.00  0.00     0.006 A 
ATOM      5  C4  UNL d   1       0.510   4.037  -3.176  0.00  0.00    -0.005 A 
ATOM      6  C5  UNL d   1      -0.691   4.693  -2.884  0.00  0.00    -0.074 A 
ATOM      7  C6  UNL d   1      -0.697   6.000  -2.148  0.00  0.00     0.077 C 
ATOM      8  C7  UNL d   1      -1.900   4.122  -3.303  0.00  0.00    -0.001 A 
ENDROOT
TORSDOF 0
ENDMDL
