MODEL 1
REMARK minimizedAffinity 6.42570114
REMARK minimizedRMSD -1
REMARK  0 active torsions:
REMARK  status: ('A' for Active; 'I' for Inactive)
ROOT
ATOM      1  C   UNL d   1      -3.130   6.000   1.918  0.00  0.00     0.077 C 
ATOM      2  C1  UNL d   1      -2.068   5.470   1.002  0.00  0.00    -0.074 A 
ATOM      3  C2  UNL d   1      -1.174   4.484   1.432  0.00  0.00    -0.005 A 
ATOM      4  C3  UNL d   1      -0.197   3.994   0.566  0.00  0.00     0.006 A 
ATOM      5  C4  UNL d   1      -0.104   4.484  -0.738  0.00  0.00    -0.005 A 
ATOM      6  C5  UNL d   1      -0.989   5.469  -1.186  0.00  0.00    -0.074 A 
ATOM      7  C6  UNL d   1      -0.909   5.999  -2.586  0.00  0.00     0.077 C 
ATOM      8  C7  UNL d   1      -1.973   5.951  -0.312  0.00  0.00    -0.001 A 
ENDROOT
TORSDOF 0
ENDMDL
