MODEL 1
REMARK minimizedAffinity 5.43183517
REMARK minimizedRMSD -1
REMARK  0 active torsions:
REMARK  status: ('A' for Active; 'I' for Inactive)
ROOT
ATOM      1  C   UNL d   1      -1.504   2.045  -4.129  0.00  0.00     0.077 C 
ATOM      2  C1  UNL d   1      -1.265   3.411  -3.559  0.00  0.00    -0.074 A 
ATOM      3  C2  UNL d   1      -0.045   4.067  -3.752  0.00  0.00    -0.005 A 
ATOM      4  C3  UNL d   1       0.160   5.342  -3.224  0.00  0.00     0.006 A 
ATOM      5  C4  UNL d   1      -0.852   5.972  -2.498  0.00  0.00    -0.005 A 
ATOM      6  C5  UNL d   1      -2.078   5.332  -2.295  0.00  0.00    -0.074 A 
ATOM      7  C6  UNL d   1      -3.179   6.000  -1.526  0.00  0.00     0.077 C 
ATOM      8  C7  UNL d   1      -2.279   4.054  -2.835  0.00  0.00    -0.001 A 
ENDROOT
TORSDOF 0
ENDMDL
