MODEL 1
REMARK minimizedAffinity 13.7360144
REMARK minimizedRMSD -1
REMARK  0 active torsions:
REMARK  status: ('A' for Active; 'I' for Inactive)
ROOT
ATOM      1  C   UNL d   1       2.321   3.903  -4.433  0.00  0.00     0.077 C 
ATOM      2  C1  UNL d   1       1.086   3.200  -3.953  0.00  0.00    -0.074 A 
ATOM      3  C2  UNL d   1       0.036   3.912  -3.365  0.00  0.00    -0.005 A 
ATOM      4  C3  UNL d   1      -1.110   3.245  -2.933  0.00  0.00     0.006 A 
ATOM      5  C4  UNL d   1      -1.217   1.862  -3.083  0.00  0.00    -0.005 A 
ATOM      6  C5  UNL d   1      -0.177   1.133  -3.669  0.00  0.00    -0.074 A 
ATOM      7  C6  UNL d   1      -0.280  -0.353  -3.847  0.00  0.00     0.077 C 
ATOM      8  C7  UNL d   1       0.968   1.811  -4.108  0.00  0.00    -0.001 A 
ENDROOT
TORSDOF 0
ENDMDL
