MODEL 1
REMARK minimizedAffinity 11.8817244
REMARK minimizedRMSD -1
REMARK  0 active torsions:
REMARK  status: ('A' for Active; 'I' for Inactive)
ROOT
ATOM      1  C   UNL d   1       2.481   3.373  -4.690  0.00  0.00     0.077 C 
ATOM      2  C1  UNL d   1       1.130   2.969  -4.180  0.00  0.00    -0.074 A 
ATOM      3  C2  UNL d   1       0.438   1.896  -4.750  0.00  0.00    -0.005 A 
ATOM      4  C3  UNL d   1      -0.814   1.526  -4.259  0.00  0.00     0.006 A 
ATOM      5  C4  UNL d   1      -1.386   2.225  -3.195  0.00  0.00    -0.005 A 
ATOM      6  C5  UNL d   1      -0.709   3.301  -2.612  0.00  0.00    -0.074 A 
ATOM      7  C6  UNL d   1      -1.305   4.056  -1.461  0.00  0.00     0.077 C 
ATOM      8  C7  UNL d   1       0.552   3.662  -3.106  0.00  0.00    -0.001 A 
ENDROOT
TORSDOF 0
ENDMDL
