MODEL 1
REMARK minimizedAffinity 10.0069666
REMARK minimizedRMSD -1
REMARK  0 active torsions:
REMARK  status: ('A' for Active; 'I' for Inactive)
ROOT
ATOM      1  C   UNL d   1      -1.132   5.107  -1.342  0.00  0.00     0.077 C 
ATOM      2  C1  UNL d   1      -0.839   3.931  -2.226  0.00  0.00    -0.074 A 
ATOM      3  C2  UNL d   1      -1.773   2.903  -2.387  0.00  0.00    -0.005 A 
ATOM      4  C3  UNL d   1      -1.491   1.820  -3.219  0.00  0.00     0.006 A 
ATOM      5  C4  UNL d   1      -0.273   1.754  -3.898  0.00  0.00    -0.005 A 
ATOM      6  C5  UNL d   1       0.673   2.773  -3.749  0.00  0.00    -0.074 A 
ATOM      7  C6  UNL d   1       1.982   2.723  -4.479  0.00  0.00     0.077 C 
ATOM      8  C7  UNL d   1       0.379   3.862  -2.917  0.00  0.00    -0.001 A 
ENDROOT
TORSDOF 0
ENDMDL
