MODEL 1
REMARK minimizedAffinity 3.88370633
REMARK minimizedRMSD -1
REMARK  0 active torsions:
REMARK  status: ('A' for Active; 'I' for Inactive)
ROOT
ATOM      1  C   UNL d   1       6.000  -0.281  -3.008  0.00  0.00     0.077 C 
ATOM      2  C1  UNL d   1       4.787  -0.901  -2.381  0.00  0.00    -0.074 A 
ATOM      3  C2  UNL d   1       4.281  -0.424  -1.167  0.00  0.00    -0.005 A 
ATOM      4  C3  UNL d   1       3.146  -1.004  -0.601  0.00  0.00     0.006 A 
ATOM      5  C4  UNL d   1       2.506  -2.066  -1.241  0.00  0.00    -0.005 A 
ATOM      6  C5  UNL d   1       2.997  -2.556  -2.456  0.00  0.00    -0.074 A 
ATOM      7  C6  UNL d   1       2.315  -3.690  -3.162  0.00  0.00     0.077 C 
ATOM      8  C7  UNL d   1       4.133  -1.963  -3.022  0.00  0.00    -0.001 A 
ENDROOT
TORSDOF 0
ENDMDL
