MODEL 1
REMARK minimizedAffinity 1.41934204
REMARK minimizedRMSD -1
REMARK  0 active torsions:
REMARK  status: ('A' for Active; 'I' for Inactive)
ROOT
ATOM      1  C   UNL d   1       6.000  -0.580  -3.055  0.00  0.00     0.077 C 
ATOM      2  C1  UNL d   1       4.759  -0.274  -2.271  0.00  0.00    -0.074 A 
ATOM      3  C2  UNL d   1       4.197   1.007  -2.284  0.00  0.00    -0.005 A 
ATOM      4  C3  UNL d   1       3.037   1.274  -1.557  0.00  0.00     0.006 A 
ATOM      5  C4  UNL d   1       2.427   0.264  -0.811  0.00  0.00    -0.005 A 
ATOM      6  C5  UNL d   1       2.974  -1.023  -0.787  0.00  0.00    -0.074 A 
ATOM      7  C6  UNL d   1       2.326  -2.122   0.002  0.00  0.00     0.077 C 
ATOM      8  C7  UNL d   1       4.136  -1.285  -1.525  0.00  0.00    -0.001 A 
ENDROOT
TORSDOF 0
ENDMDL
