MODEL 1
REMARK minimizedAffinity 2.47467256
REMARK minimizedRMSD -1
REMARK  0 active torsions:
REMARK  status: ('A' for Active; 'I' for Inactive)
ROOT
ATOM      1  C   UNL d   1       2.494   0.393   2.219  0.00  0.00     0.077 C 
ATOM      2  C1  UNL d   1       2.825  -0.481   1.045  0.00  0.00    -0.074 A 
ATOM      3  C2  UNL d   1       2.427  -1.821   1.011  0.00  0.00    -0.005 A 
ATOM      4  C3  UNL d   1       2.734  -2.618  -0.091  0.00  0.00     0.006 A 
ATOM      5  C4  UNL d   1       3.442  -2.084  -1.169  0.00  0.00    -0.005 A 
ATOM      6  C5  UNL d   1       3.848  -0.746  -1.153  0.00  0.00    -0.074 A 
ATOM      7  C6  UNL d   1       4.601  -0.154  -2.307  0.00  0.00     0.077 C 
ATOM      8  C7  UNL d   1       3.529   0.051  -0.045  0.00  0.00    -0.001 A 
ENDROOT
TORSDOF 0
ENDMDL
