MODEL 1
REMARK minimizedAffinity 11.2535305
REMARK minimizedRMSD -1
REMARK  0 active torsions:
REMARK  status: ('A' for Active; 'I' for Inactive)
ROOT
ATOM      1  C   UNL d   1       6.000  -0.153  -3.242  0.00  0.00     0.077 C 
ATOM      2  C1  UNL d   1       4.972   0.269  -2.234  0.00  0.00    -0.074 A 
ATOM      3  C2  UNL d   1       4.612   1.613  -2.093  0.00  0.00    -0.005 A 
ATOM      4  C3  UNL d   1       3.648   1.988  -1.158  0.00  0.00     0.006 A 
ATOM      5  C4  UNL d   1       3.035   1.026  -0.355  0.00  0.00    -0.005 A 
ATOM      6  C5  UNL d   1       3.382  -0.323  -0.482  0.00  0.00    -0.074 A 
ATOM      7  C6  UNL d   1       2.725  -1.372   0.366  0.00  0.00     0.077 C 
ATOM      8  C7  UNL d   1       4.346  -0.694  -1.429  0.00  0.00    -0.001 A 
ENDROOT
TORSDOF 0
ENDMDL
