MODEL 1
REMARK minimizedAffinity 6.24175453
REMARK minimizedRMSD -1
REMARK  0 active torsions:
REMARK  status: ('A' for Active; 'I' for Inactive)
ROOT
ATOM      1  C   UNL d   1       2.403   2.241   0.110  0.00  0.00     0.077 C 
ATOM      2  C1  UNL d   1       1.324   2.745  -0.803  0.00  0.00    -0.074 A 
ATOM      3  C2  UNL d   1       0.451   3.758  -0.393  0.00  0.00    -0.005 A 
ATOM      4  C3  UNL d   1      -0.542   4.222  -1.256  0.00  0.00     0.006 A 
ATOM      5  C4  UNL d   1      -0.671   3.680  -2.535  0.00  0.00    -0.005 A 
ATOM      6  C5  UNL d   1       0.193   2.667  -2.962  0.00  0.00    -0.074 A 
ATOM      7  C6  UNL d   1       0.074   2.079  -4.337  0.00  0.00     0.077 C 
ATOM      8  C7  UNL d   1       1.193   2.210  -2.092  0.00  0.00    -0.001 A 
ENDROOT
TORSDOF 0
ENDMDL
