MODEL 1
REMARK minimizedAffinity 7.82326841
REMARK minimizedRMSD -1
REMARK  0 active torsions:
REMARK  status: ('A' for Active; 'I' for Inactive)
ROOT
ATOM      1  C   UNL d   1       3.137   1.191  -0.290  0.00  0.00     0.077 C 
ATOM      2  C1  UNL d   1       3.851   0.244  -1.208  0.00  0.00    -0.074 A 
ATOM      3  C2  UNL d   1       5.068   0.596  -1.800  0.00  0.00    -0.005 A 
ATOM      4  C3  UNL d   1       5.725  -0.299  -2.644  0.00  0.00     0.006 A 
ATOM      5  C4  UNL d   1       5.172  -1.553  -2.905  0.00  0.00    -0.005 A 
ATOM      6  C5  UNL d   1       3.957  -1.924  -2.321  0.00  0.00    -0.074 A 
ATOM      7  C6  UNL d   1       3.354  -3.272  -2.583  0.00  0.00     0.077 C 
ATOM      8  C7  UNL d   1       3.306  -1.021  -1.469  0.00  0.00    -0.001 A 
ENDROOT
TORSDOF 0
ENDMDL
