MODEL 1
REMARK minimizedAffinity -2.05387998
REMARK minimizedRMSD -1
REMARK  0 active torsions:
REMARK  status: ('A' for Active; 'I' for Inactive)
ROOT
ATOM      1  C   UNL d   1       0.784   0.456   0.513  0.00  0.00    -0.002 A 
ATOM      2  C1  UNL d   1       1.574   0.542  -0.625  0.00  0.00     0.010 A 
ATOM      3  C2  UNL d   1       0.996   0.496  -1.896  0.00  0.00     0.041 A 
ATOM      4  C3  UNL d   1      -0.402   0.362  -2.004  0.00  0.00    -0.075 A 
ATOM      5  S   UNL d   1      -1.329   0.284  -3.456  0.00  0.00     0.015 SA
ATOM      6  C4  UNL d   1      -2.795   0.136  -2.599  0.00  0.00     0.022 A 
ATOM      7  C5  UNL d   1      -2.601   0.144  -1.238  0.00  0.00     0.026 A 
ATOM      8  C6  UNL d   1      -1.218   0.275  -0.873  0.00  0.00    -0.082 A 
ATOM      9  C7  UNL d   1      -0.602   0.324   0.401  0.00  0.00     0.045 A 
ENDROOT
TORSDOF 0
ENDMDL
