MODEL 1
REMARK minimizedAffinity -3.76348686
REMARK minimizedRMSD -1
REMARK  0 active torsions:
REMARK  status: ('A' for Active; 'I' for Inactive)
ROOT
ATOM      1  C   UNL d   1       2.649   1.155   0.239  0.00  0.00    -0.002 A 
ATOM      2  C1  UNL d   1       2.689  -0.200   0.535  0.00  0.00     0.010 A 
ATOM      3  C2  UNL d   1       1.563  -1.002   0.344  0.00  0.00     0.041 A 
ATOM      4  C3  UNL d   1       0.384  -0.414  -0.156  0.00  0.00    -0.075 A 
ATOM      5  S   UNL d   1      -1.118  -1.201  -0.471  0.00  0.00     0.015 SA
ATOM      6  C4  UNL d   1      -1.847   0.244  -1.006  0.00  0.00     0.022 A 
ATOM      7  C5  UNL d   1      -0.981   1.310  -0.952  0.00  0.00     0.026 A 
ATOM      8  C6  UNL d   1       0.319   0.948  -0.462  0.00  0.00    -0.082 A 
ATOM      9  C7  UNL d   1       1.478   1.735  -0.256  0.00  0.00     0.045 A 
ENDROOT
TORSDOF 0
ENDMDL
