MODEL 1
REMARK minimizedAffinity 1.36832058
REMARK minimizedRMSD -1
REMARK  0 active torsions:
REMARK  status: ('A' for Active; 'I' for Inactive)
ROOT
ATOM      1  C   UNL d   1      -0.324  -2.617   2.169  0.00  0.00    -0.002 A 
ATOM      2  C1  UNL d   1       0.838  -2.419   2.902  0.00  0.00     0.010 A 
ATOM      3  C2  UNL d   1       1.603  -1.265   2.721  0.00  0.00     0.041 A 
ATOM      4  C3  UNL d   1       1.176  -0.304   1.783  0.00  0.00    -0.075 A 
ATOM      5  S   UNL d   1       1.953   1.185   1.394  0.00  0.00     0.015 SA
ATOM      6  C4  UNL d   1       0.761   1.593   0.247  0.00  0.00     0.022 A 
ATOM      7  C5  UNL d   1      -0.213   0.628   0.150  0.00  0.00     0.026 A 
ATOM      8  C6  UNL d   1       0.010  -0.481   1.034  0.00  0.00    -0.082 A 
ATOM      9  C7  UNL d   1      -0.744  -1.662   1.240  0.00  0.00     0.045 A 
ENDROOT
TORSDOF 0
ENDMDL
