MODEL 1
REMARK minimizedAffinity 0.0820143074
REMARK minimizedRMSD -1
REMARK  0 active torsions:
REMARK  status: ('A' for Active; 'I' for Inactive)
ROOT
ATOM      1  C   UNL d   1       2.044   0.093   1.456  0.00  0.00    -0.002 A 
ATOM      2  C1  UNL d   1       2.589  -0.013   0.184  0.00  0.00     0.010 A 
ATOM      3  C2  UNL d   1       1.763  -0.079  -0.939  0.00  0.00     0.041 A 
ATOM      4  C3  UNL d   1       0.366  -0.033  -0.762  0.00  0.00    -0.075 A 
ATOM      5  S   UNL d   1      -0.841  -0.098  -1.992  0.00  0.00     0.015 SA
ATOM      6  C4  UNL d   1      -2.108   0.016  -0.858  0.00  0.00     0.022 A 
ATOM      7  C5  UNL d   1      -1.640   0.101   0.432  0.00  0.00     0.026 A 
ATOM      8  C6  UNL d   1      -0.206   0.074   0.509  0.00  0.00    -0.082 A 
ATOM      9  C7  UNL d   1       0.658   0.138   1.628  0.00  0.00     0.045 A 
ENDROOT
TORSDOF 0
ENDMDL
