MODEL 1
REMARK minimizedAffinity -1.29082096
REMARK minimizedRMSD -1
REMARK  0 active torsions:
REMARK  status: ('A' for Active; 'I' for Inactive)
ROOT
ATOM      1  C   UNL d   1       2.358  -1.770   0.003  0.00  0.00    -0.002 A 
ATOM      2  C1  UNL d   1       1.576  -2.498   0.889  0.00  0.00     0.010 A 
ATOM      3  C2  UNL d   1       0.205  -2.257   0.988  0.00  0.00     0.041 A 
ATOM      4  C3  UNL d   1      -0.374  -1.264   0.173  0.00  0.00    -0.075 A 
ATOM      5  S   UNL d   1      -2.033  -0.797   0.122  0.00  0.00     0.015 SA
ATOM      6  C4  UNL d   1      -1.742   0.379  -1.077  0.00  0.00     0.022 A 
ATOM      7  C5  UNL d   1      -0.418   0.428  -1.441  0.00  0.00     0.026 A 
ATOM      8  C6  UNL d   1       0.393  -0.519  -0.727  0.00  0.00    -0.082 A 
ATOM      9  C7  UNL d   1       1.781  -0.786  -0.804  0.00  0.00     0.045 A 
ENDROOT
TORSDOF 0
ENDMDL
