MODEL 1
REMARK minimizedAffinity -3.38313437
REMARK minimizedRMSD -1
REMARK  0 active torsions:
REMARK  status: ('A' for Active; 'I' for Inactive)
ROOT
ATOM      1  C   UNL d   1      -0.237  -0.098  -0.865  0.00  0.00     0.020 A 
ATOM      2  C1  UNL d   1      -0.906  -0.109   0.358  0.00  0.00     0.020 A 
ATOM      3  C2  UNL d   1      -0.190  -0.292   1.543  0.00  0.00     0.034 A 
ATOM      4  C3  UNL d   1       1.198  -0.464   1.508  0.00  0.00     0.017 A 
ATOM      5  C4  UNL d   1       1.869  -0.452   0.280  0.00  0.00     0.017 A 
ATOM      6  C5  UNL d   1       1.147  -0.268  -0.904  0.00  0.00     0.034 A 
ATOM      7 Cl   UNL d   1       3.580  -0.657   0.156  0.00  0.00    -0.070 Cl
ATOM      8 Cl1  UNL d   1       2.019  -0.684   3.012  0.00  0.00    -0.070 Cl
ENDROOT
TORSDOF 0
ENDMDL
