MODEL 1
REMARK minimizedAffinity -1.45892596
REMARK minimizedRMSD -1
REMARK  0 active torsions:
REMARK  status: ('A' for Active; 'I' for Inactive)
ROOT
ATOM      1  C   UNL d   1       0.047  -4.703   3.579  0.00  0.00     0.020 A 
ATOM      2  C1  UNL d   1      -0.636  -3.519   3.856  0.00  0.00     0.020 A 
ATOM      3  C2  UNL d   1      -0.280  -2.338   3.201  0.00  0.00     0.034 A 
ATOM      4  C3  UNL d   1       0.761  -2.338   2.266  0.00  0.00     0.017 A 
ATOM      5  C4  UNL d   1       1.446  -3.526   1.989  0.00  0.00     0.017 A 
ATOM      6  C5  UNL d   1       1.086  -4.706   2.647  0.00  0.00     0.034 A 
ATOM      7 Cl   UNL d   1       2.742  -3.604   0.847  0.00  0.00    -0.070 Cl
ATOM      8 Cl1  UNL d   1       1.147  -0.841   1.494  0.00  0.00    -0.070 Cl
ENDROOT
TORSDOF 0
ENDMDL
