MODEL 1
REMARK minimizedAffinity -2.53761601
REMARK minimizedRMSD -1
REMARK  0 active torsions:
REMARK  status: ('A' for Active; 'I' for Inactive)
ROOT
ATOM      1  C   UNL d   1      -1.206  -0.489  -0.435  0.00  0.00     0.020 A 
ATOM      2  C1  UNL d   1      -1.764  -0.367   0.837  0.00  0.00     0.020 A 
ATOM      3  C2  UNL d   1      -0.937  -0.175   1.946  0.00  0.00     0.034 A 
ATOM      4  C3  UNL d   1       0.452  -0.106   1.785  0.00  0.00     0.017 A 
ATOM      5  C4  UNL d   1       1.010  -0.229   0.508  0.00  0.00     0.017 A 
ATOM      6  C5  UNL d   1       0.178  -0.420  -0.599  0.00  0.00     0.034 A 
ATOM      7 Cl   UNL d   1       2.715  -0.154   0.230  0.00  0.00    -0.070 Cl
ATOM      8 Cl1  UNL d   1       1.413   0.132   3.201  0.00  0.00    -0.070 Cl
ENDROOT
TORSDOF 0
ENDMDL
