MODEL 1
REMARK minimizedAffinity -0.978988171
REMARK minimizedRMSD -1
REMARK  0 active torsions:
REMARK  status: ('A' for Active; 'I' for Inactive)
ROOT
ATOM      1  C   UNL d   1      -0.054  -0.795   2.894  0.00  0.00     0.020 A 
ATOM      2  C1  UNL d   1       1.024  -1.645   2.648  0.00  0.00     0.020 A 
ATOM      3  C2  UNL d   1       1.473  -1.844   1.340  0.00  0.00     0.034 A 
ATOM      4  C3  UNL d   1       0.843  -1.192   0.274  0.00  0.00     0.017 A 
ATOM      5  C4  UNL d   1      -0.239  -0.340   0.521  0.00  0.00     0.017 A 
ATOM      6  C5  UNL d   1      -0.684  -0.144   1.833  0.00  0.00     0.034 A 
ATOM      7 Cl   UNL d   1      -1.067   0.499  -0.743  0.00  0.00    -0.070 Cl
ATOM      8 Cl1  UNL d   1       1.450  -1.484  -1.317  0.00  0.00    -0.070 Cl
ENDROOT
TORSDOF 0
ENDMDL
