MODEL 1
REMARK minimizedAffinity 0.253200352
REMARK minimizedRMSD -1
REMARK  0 active torsions:
REMARK  status: ('A' for Active; 'I' for Inactive)
ROOT
ATOM      1  C   UNL d   1      -1.410  -3.772   2.864  0.00  0.00     0.020 A 
ATOM      2  C1  UNL d   1      -0.378  -4.637   3.225  0.00  0.00     0.020 A 
ATOM      3  C2  UNL d   1       0.941  -4.332   2.883  0.00  0.00     0.034 A 
ATOM      4  C3  UNL d   1       1.231  -3.159   2.177  0.00  0.00     0.017 A 
ATOM      5  C4  UNL d   1       0.195  -2.291   1.815  0.00  0.00     0.017 A 
ATOM      6  C5  UNL d   1      -1.124  -2.602   2.160  0.00  0.00     0.034 A 
ATOM      7 Cl   UNL d   1       0.476  -0.825   0.943  0.00  0.00    -0.070 Cl
ATOM      8 Cl1  UNL d   1       2.885  -2.845   1.788  0.00  0.00    -0.070 Cl
ENDROOT
TORSDOF 0
ENDMDL
