MODEL 1
REMARK minimizedAffinity -1.96875334
REMARK minimizedRMSD -1
REMARK  0 active torsions:
REMARK  status: ('A' for Active; 'I' for Inactive)
ROOT
ATOM      1  C   UNL d   1      -1.332   0.082   0.731  0.00  0.00     0.020 A 
ATOM      2  C1  UNL d   1      -0.765   0.011  -0.541  0.00  0.00     0.020 A 
ATOM      3  C2  UNL d   1       0.581  -0.330  -0.687  0.00  0.00     0.034 A 
ATOM      4  C3  UNL d   1       1.365  -0.602   0.440  0.00  0.00     0.017 A 
ATOM      5  C4  UNL d   1       0.795  -0.530   1.716  0.00  0.00     0.017 A 
ATOM      6  C5  UNL d   1      -0.554  -0.189   1.857  0.00  0.00     0.034 A 
ATOM      7 Cl   UNL d   1       1.698  -0.852   3.154  0.00  0.00    -0.070 Cl
ATOM      8 Cl1  UNL d   1       3.022  -1.018   0.185  0.00  0.00    -0.070 Cl
ENDROOT
TORSDOF 0
ENDMDL
