MODEL 1
REMARK minimizedAffinity -3.7146318
REMARK minimizedRMSD -1
REMARK  0 active torsions:
REMARK  status: ('A' for Active; 'I' for Inactive)
ROOT
ATOM      1  C   UNL d   1       2.302  -1.017   0.753  0.00  0.00     0.020 A 
ATOM      2  C1  UNL d   1       2.121  -0.529   2.046  0.00  0.00     0.020 A 
ATOM      3  C2  UNL d   1       0.851  -0.135   2.472  0.00  0.00     0.034 A 
ATOM      4  C3  UNL d   1      -0.243  -0.229   1.604  0.00  0.00     0.017 A 
ATOM      5  C4  UNL d   1      -0.061  -0.720   0.306  0.00  0.00     0.017 A 
ATOM      6  C5  UNL d   1       1.214  -1.113  -0.115  0.00  0.00     0.034 A 
ATOM      7 Cl   UNL d   1      -1.362  -0.865  -0.822  0.00  0.00    -0.070 Cl
ATOM      8 Cl1  UNL d   1      -1.786   0.275   2.198  0.00  0.00    -0.070 Cl
ENDROOT
TORSDOF 0
ENDMDL
