MODEL 1
REMARK minimizedAffinity -3.06164241
REMARK minimizedRMSD -1
REMARK  0 active torsions:
REMARK  status: ('A' for Active; 'I' for Inactive)
ROOT
ATOM      1  C   UNL d   1       1.714  -0.357   2.574  0.00  0.00     0.020 A 
ATOM      2  C1  UNL d   1       0.405  -0.175   3.019  0.00  0.00     0.020 A 
ATOM      3  C2  UNL d   1      -0.664  -0.364   2.141  0.00  0.00     0.034 A 
ATOM      4  C3  UNL d   1      -0.426  -0.736   0.813  0.00  0.00     0.017 A 
ATOM      5  C4  UNL d   1       0.887  -0.918   0.367  0.00  0.00     0.017 A 
ATOM      6  C5  UNL d   1       1.954  -0.728   1.250  0.00  0.00     0.034 A 
ATOM      7 Cl   UNL d   1       1.259  -1.377  -1.258  0.00  0.00    -0.070 Cl
ATOM      8 Cl1  UNL d   1      -1.796  -0.952  -0.218  0.00  0.00    -0.070 Cl
ENDROOT
TORSDOF 0
ENDMDL
