MODEL 1
REMARK minimizedAffinity -3.48105454
REMARK minimizedRMSD -1
REMARK  0 active torsions:
REMARK  status: ('A' for Active; 'I' for Inactive)
ROOT
ATOM      1  C   UNL d   1       1.595  -0.949  -1.470  0.00  0.00     0.020 A 
ATOM      2  C1  UNL d   1       0.326  -0.613  -1.939  0.00  0.00     0.020 A 
ATOM      3  C2  UNL d   1      -0.699  -0.328  -1.035  0.00  0.00     0.034 A 
ATOM      4  C3  UNL d   1      -0.457  -0.379   0.343  0.00  0.00     0.017 A 
ATOM      5  C4  UNL d   1       0.817  -0.717   0.813  0.00  0.00     0.017 A 
ATOM      6  C5  UNL d   1       1.840  -1.001  -0.097  0.00  0.00     0.034 A 
ATOM      7 Cl   UNL d   1       1.192  -0.802   2.498  0.00  0.00    -0.070 Cl
ATOM      8 Cl1  UNL d   1      -1.772  -0.015   1.404  0.00  0.00    -0.070 Cl
ENDROOT
TORSDOF 0
ENDMDL
