MODEL 1
REMARK minimizedAffinity 1.97372842
REMARK minimizedRMSD -1
REMARK  0 active torsions:
REMARK  status: ('A' for Active; 'I' for Inactive)
ROOT
ATOM      1  C   UNL d   1       2.619  -0.880   0.500  0.00  0.00    -0.002 A 
ATOM      2  C1  UNL d   1       2.303  -1.306  -0.782  0.00  0.00     0.010 A 
ATOM      3  C2  UNL d   1       1.276  -0.691  -1.502  0.00  0.00     0.041 A 
ATOM      4  C3  UNL d   1       0.568   0.371  -0.907  0.00  0.00    -0.075 A 
ATOM      5  S   UNL d   1      -0.727   1.274  -1.599  0.00  0.00     0.015 SA
ATOM      6  C4  UNL d   1      -0.890   2.248  -0.210  0.00  0.00     0.022 A 
ATOM      7  C5  UNL d   1       0.013   1.906   0.768  0.00  0.00     0.026 A 
ATOM      8  C6  UNL d   1       0.869   0.819   0.383  0.00  0.00    -0.082 A 
ATOM      9  C7  UNL d   1       1.914   0.174   1.087  0.00  0.00     0.045 A 
ENDROOT
TORSDOF 0
ENDMDL
