MODEL 1
REMARK minimizedAffinity 1.21661603
REMARK minimizedRMSD -1
REMARK  0 active torsions:
REMARK  status: ('A' for Active; 'I' for Inactive)
ROOT
ATOM      1  C   UNL d   1      -0.144  -0.577   1.530  0.00  0.00    -0.002 A 
ATOM      2  C1  UNL d   1       0.203   0.002   0.318  0.00  0.00     0.010 A 
ATOM      3  C2  UNL d   1      -0.682  -0.024  -0.761  0.00  0.00     0.041 A 
ATOM      4  C3  UNL d   1      -1.936  -0.647  -0.599  0.00  0.00    -0.075 A 
ATOM      5  S   UNL d   1      -3.182  -0.799  -1.781  0.00  0.00     0.015 SA
ATOM      6  C4  UNL d   1      -4.204  -1.635  -0.704  0.00  0.00     0.022 A 
ATOM      7  C5  UNL d   1      -3.625  -1.803   0.531  0.00  0.00     0.026 A 
ATOM      8  C6  UNL d   1      -2.309  -1.236   0.612  0.00  0.00    -0.082 A 
ATOM      9  C7  UNL d   1      -1.388  -1.194   1.687  0.00  0.00     0.045 A 
ENDROOT
TORSDOF 0
ENDMDL
