MODEL 1
REMARK minimizedAffinity 4.58714199
REMARK minimizedRMSD -1
REMARK  0 active torsions:
REMARK  status: ('A' for Active; 'I' for Inactive)
ROOT
ATOM      1  C   UNL d   1      -3.515   3.375  -2.546  0.00  0.00    -0.002 A 
ATOM      2  C1  UNL d   1      -2.165   3.457  -2.238  0.00  0.00     0.010 A 
ATOM      3  C2  UNL d   1      -1.436   2.308  -1.923  0.00  0.00     0.041 A 
ATOM      4  C3  UNL d   1      -2.094   1.063  -1.925  0.00  0.00    -0.075 A 
ATOM      5  S   UNL d   1      -1.405  -0.478  -1.572  0.00  0.00     0.015 SA
ATOM      6  C4  UNL d   1      -2.887  -1.282  -1.823  0.00  0.00     0.022 A 
ATOM      7  C5  UNL d   1      -3.894  -0.411  -2.168  0.00  0.00     0.026 A 
ATOM      8  C6  UNL d   1      -3.454   0.954  -2.233  0.00  0.00    -0.082 A 
ATOM      9  C7  UNL d   1      -4.164   2.138  -2.547  0.00  0.00     0.045 A 
ENDROOT
TORSDOF 0
ENDMDL
