MODEL 1
REMARK minimizedAffinity 2.46505857
REMARK minimizedRMSD -1
REMARK  0 active torsions:
REMARK  status: ('A' for Active; 'I' for Inactive)
ROOT
ATOM      1  C   UNL d   1       0.958  -2.011   3.015  0.00  0.00    -0.002 A 
ATOM      2  C1  UNL d   1      -0.336  -2.478   2.834  0.00  0.00     0.010 A 
ATOM      3  C2  UNL d   1      -1.132  -1.982   1.799  0.00  0.00     0.041 A 
ATOM      4  C3  UNL d   1      -0.600  -1.001   0.940  0.00  0.00    -0.075 A 
ATOM      5  S   UNL d   1      -1.389  -0.249  -0.396  0.00  0.00     0.015 SA
ATOM      6  C4  UNL d   1      -0.027   0.709  -0.758  0.00  0.00     0.022 A 
ATOM      7  C5  UNL d   1       1.013   0.474   0.109  0.00  0.00     0.026 A 
ATOM      8  C6  UNL d   1       0.701  -0.515   1.101  0.00  0.00    -0.082 A 
ATOM      9  C7  UNL d   1       1.482  -1.037   2.160  0.00  0.00     0.045 A 
ENDROOT
TORSDOF 0
ENDMDL
