MODEL 1
REMARK minimizedAffinity 1.34409094
REMARK minimizedRMSD -1
REMARK  0 active torsions:
REMARK  status: ('A' for Active; 'I' for Inactive)
ROOT
ATOM      1  C   UNL d   1      -3.323  -0.710   0.285  0.00  0.00    -0.002 A 
ATOM      2  C1  UNL d   1      -3.159  -0.891  -1.081  0.00  0.00     0.010 A 
ATOM      3  C2  UNL d   1      -1.883  -0.922  -1.645  0.00  0.00     0.041 A 
ATOM      4  C3  UNL d   1      -0.762  -0.769  -0.805  0.00  0.00    -0.075 A 
ATOM      5  S   UNL d   1       0.897  -0.774  -1.274  0.00  0.00     0.015 SA
ATOM      6  C4  UNL d   1       1.428  -0.538   0.328  0.00  0.00     0.022 A 
ATOM      7  C5  UNL d   1       0.378  -0.454   1.212  0.00  0.00     0.026 A 
ATOM      8  C6  UNL d   1      -0.902  -0.586   0.573  0.00  0.00    -0.082 A 
ATOM      9  C7  UNL d   1      -2.209  -0.558   1.115  0.00  0.00     0.045 A 
ENDROOT
TORSDOF 0
ENDMDL
