MODEL 1
REMARK minimizedAffinity -5.23716354
REMARK minimizedRMSD -1
REMARK  0 active torsions:
REMARK  status: ('A' for Active; 'I' for Inactive)
ROOT
ATOM      1  C1  DEN d   1       0.390  -0.320  -0.830  0.00  0.00     0.130 A 
ATOM      2  C2  DEN d   1      -0.847   0.359  -0.455  0.00  0.00    -0.031 A 
ATOM      3  C3  DEN d   1      -1.006   0.243   1.009  0.00  0.00     0.027 A 
ATOM      4  C4  DEN d   1       0.538  -0.912   2.722  0.00  0.00     0.027 A 
ATOM      5  C5  DEN d   1       1.699  -1.635   2.877  0.00  0.00    -0.003 A 
ATOM      6  C6  DEN d   1       2.482  -1.997   1.813  0.00  0.00     0.001 A 
ATOM      7  C7  DEN d   1       2.136  -1.598   0.549  0.00  0.00     0.017 A 
ATOM      8  C8  DEN d   1       0.962  -0.874   0.384  0.00  0.00    -0.094 A 
ATOM      9  C9  DEN d   1       0.191  -0.508   1.474  0.00  0.00    -0.072 A 
ENDROOT
TORSDOF 0
ENDMDL
