MODEL 1
REMARK minimizedAffinity -4.64168072
REMARK minimizedRMSD -1
REMARK  0 active torsions:
REMARK  status: ('A' for Active; 'I' for Inactive)
ROOT
ATOM      1  C1  DEN d   1       0.373   0.006  -1.011  0.00  0.00     0.130 A 
ATOM      2  C2  DEN d   1      -1.080   0.022  -0.868  0.00  0.00    -0.031 A 
ATOM      3  C3  DEN d   1      -1.401  -0.199   0.557  0.00  0.00     0.027 A 
ATOM      4  C4  DEN d   1       0.203  -0.555   2.545  0.00  0.00     0.027 A 
ATOM      5  C5  DEN d   1       1.526  -0.661   2.916  0.00  0.00    -0.003 A 
ATOM      6  C6  DEN d   1       2.547  -0.586   2.006  0.00  0.00     0.001 A 
ATOM      7  C7  DEN d   1       2.264  -0.355   0.685  0.00  0.00     0.017 A 
ATOM      8  C8  DEN d   1       0.933  -0.255   0.303  0.00  0.00    -0.094 A 
ATOM      9  C9  DEN d   1      -0.085  -0.321   1.240  0.00  0.00    -0.072 A 
ENDROOT
TORSDOF 0
ENDMDL
