MODEL 1
REMARK minimizedAffinity -5.86118221
REMARK minimizedRMSD -1
REMARK  0 active torsions:
REMARK  status: ('A' for Active; 'I' for Inactive)
ROOT
ATOM      1  C1  DEN d   1      -0.810   0.668   1.120  0.00  0.00     0.130 A 
ATOM      2  C2  DEN d   1      -0.811   0.634  -0.340  0.00  0.00    -0.031 A 
ATOM      3  C3  DEN d   1       0.356  -0.156  -0.780  0.00  0.00     0.027 A 
ATOM      4  C4  DEN d   1       2.154  -1.328   0.651  0.00  0.00     0.027 A 
ATOM      5  C5  DEN d   1       2.583  -1.571   1.938  0.00  0.00    -0.003 A 
ATOM      6  C6  DEN d   1       1.935  -1.060   3.031  0.00  0.00     0.001 A 
ATOM      7  C7  DEN d   1       0.797  -0.318   2.861  0.00  0.00     0.017 A 
ATOM      8  C8  DEN d   1       0.363  -0.063   1.567  0.00  0.00    -0.094 A 
ATOM      9  C9  DEN d   1       1.024  -0.598   0.474  0.00  0.00    -0.072 A 
ENDROOT
TORSDOF 0
ENDMDL
