MODEL 1
REMARK minimizedAffinity -3.68580985
REMARK minimizedRMSD -1
REMARK  0 active torsions:
REMARK  status: ('A' for Active; 'I' for Inactive)
ROOT
ATOM      1  C1  DEN d   1       0.746  -0.377  -1.061  0.00  0.00     0.130 A 
ATOM      2  C2  DEN d   1      -0.511   0.344  -0.885  0.00  0.00    -0.031 A 
ATOM      3  C3  DEN d   1      -0.841   0.343   0.554  0.00  0.00     0.027 A 
ATOM      4  C4  DEN d   1       0.469  -0.696   2.518  0.00  0.00     0.027 A 
ATOM      5  C5  DEN d   1       1.589  -1.420   2.863  0.00  0.00    -0.003 A 
ATOM      6  C6  DEN d   1       2.481  -1.872   1.928  0.00  0.00     0.001 A 
ATOM      7  C7  DEN d   1       2.293  -1.567   0.606  0.00  0.00     0.017 A 
ATOM      8  C8  DEN d   1       1.162  -0.844   0.250  0.00  0.00    -0.094 A 
ATOM      9  C9  DEN d   1       0.278  -0.385   1.211  0.00  0.00    -0.072 A 
ENDROOT
TORSDOF 0
ENDMDL
