MODEL 1
REMARK minimizedAffinity -6.53728819
REMARK minimizedRMSD -1
REMARK  0 active torsions:
REMARK  status: ('A' for Active; 'I' for Inactive)
ROOT
ATOM      1  C1  DEN d   1      -1.171  -0.056   0.275  0.00  0.00     0.130 A 
ATOM      2  C2  DEN d   1      -0.965  -0.019  -1.170  0.00  0.00    -0.031 A 
ATOM      3  C3  DEN d   1       0.428  -0.425  -1.444  0.00  0.00     0.027 A 
ATOM      4  C4  DEN d   1       2.276  -1.108   0.221  0.00  0.00     0.027 A 
ATOM      5  C5  DEN d   1       2.578  -1.280   1.553  0.00  0.00    -0.003 A 
ATOM      6  C6  DEN d   1       1.670  -1.026   2.547  0.00  0.00     0.001 A 
ATOM      7  C7  DEN d   1       0.401  -0.628   2.221  0.00  0.00     0.017 A 
ATOM      8  C8  DEN d   1       0.090  -0.445   0.880  0.00  0.00    -0.094 A 
ATOM      9  C9  DEN d   1       1.018  -0.719  -0.111  0.00  0.00    -0.072 A 
ENDROOT
TORSDOF 0
ENDMDL
