MODEL 1
REMARK minimizedAffinity -3.73018289
REMARK minimizedRMSD -1
REMARK  0 active torsions:
REMARK  status: ('A' for Active; 'I' for Inactive)
ROOT
ATOM      1  C1  DEN d   1       0.432  -0.022  -0.964  0.00  0.00     0.130 A 
ATOM      2  C2  DEN d   1      -0.855   0.502  -0.514  0.00  0.00    -0.031 A 
ATOM      3  C3  DEN d   1      -0.958   0.273   0.941  0.00  0.00     0.027 A 
ATOM      4  C4  DEN d   1       0.743  -0.831   2.535  0.00  0.00     0.027 A 
ATOM      5  C5  DEN d   1       1.975  -1.442   2.613  0.00  0.00    -0.003 A 
ATOM      6  C6  DEN d   1       2.758  -1.651   1.509  0.00  0.00     0.001 A 
ATOM      7  C7  DEN d   1       2.337  -1.205   0.284  0.00  0.00     0.017 A 
ATOM      8  C8  DEN d   1       1.092  -0.595   0.195  0.00  0.00    -0.094 A 
ATOM      9  C9  DEN d   1       0.321  -0.382   1.325  0.00  0.00    -0.072 A 
ENDROOT
TORSDOF 0
ENDMDL
