MODEL 1
REMARK minimizedAffinity -3.41961908
REMARK minimizedRMSD -1
REMARK  1 active torsions:
REMARK  status: ('A' for Active; 'I' for Inactive)
REMARK    1  A    between atoms: C1_2  and  C2_3 
ROOT
ATOM      1  C2  UNL d   1      -0.181  -0.721  -0.741  0.00  0.00    -0.073 A 
ATOM      2  C3  UNL d   1       0.701  -1.216   0.227  0.00  0.00    -0.002 A 
ATOM      3  C4  UNL d   1       0.888  -0.529   1.427  0.00  0.00     0.004 A 
ATOM      4  C5  UNL d   1       0.193   0.654   1.674  0.00  0.00    -0.004 A 
ATOM      5  C6  UNL d   1      -0.701   1.159   0.725  0.00  0.00    -0.075 A 
ATOM      6  C7  UNL d   1      -1.455   2.432   0.975  0.00  0.00     0.076 C 
ATOM      7  C8  UNL d   1      -0.882   0.465  -0.479  0.00  0.00     0.001 A 
ENDROOT
BRANCH   1   8
ATOM      8  C1  UNL d   1      -0.392  -1.463  -2.036  0.00  0.00     0.053 C 
ATOM      9  C   UNL d   1      -0.386  -2.970  -1.837  0.00  0.00     0.018 C 
ENDBRANCH   1   8
TORSDOF 1
ENDMDL
