MODEL 1
REMARK minimizedAffinity -4.39225197
REMARK minimizedRMSD -1
REMARK  1 active torsions:
REMARK  status: ('A' for Active; 'I' for Inactive)
REMARK    1  A    between atoms: C1_2  and  C2_3 
ROOT
ATOM      1  C2  UNL d   1      -0.004  -0.054  -0.390  0.00  0.00    -0.073 A 
ATOM      2  C3  UNL d   1       0.851  -0.372   0.671  0.00  0.00    -0.002 A 
ATOM      3  C4  UNL d   1       0.808   0.364   1.856  0.00  0.00     0.004 A 
ATOM      4  C5  UNL d   1      -0.095   1.418   1.996  0.00  0.00    -0.004 A 
ATOM      5  C6  UNL d   1      -0.967   1.743   0.951  0.00  0.00    -0.075 A 
ATOM      6  C7  UNL d   1      -1.942   2.875   1.084  0.00  0.00     0.076 C 
ATOM      7  C8  UNL d   1      -0.915   1.001  -0.237  0.00  0.00     0.001 A 
ENDROOT
BRANCH   1   8
ATOM      8  C1  UNL d   1       0.035  -0.850  -1.669  0.00  0.00     0.053 C 
ATOM      9  C   UNL d   1      -0.554  -2.241  -1.494  0.00  0.00     0.018 C 
ENDBRANCH   1   8
TORSDOF 1
ENDMDL
