MODEL 1
REMARK minimizedAffinity -1.61804652
REMARK minimizedRMSD -1
REMARK  1 active torsions:
REMARK  status: ('A' for Active; 'I' for Inactive)
REMARK    1  A    between atoms: C1_2  and  C2_3 
ROOT
ATOM      1  C2  UNL d   1       0.225   1.175   1.136  0.00  0.00    -0.073 A 
ATOM      2  C3  UNL d   1       0.672  -0.137   1.328  0.00  0.00    -0.002 A 
ATOM      3  C4  UNL d   1       0.810  -1.001   0.241  0.00  0.00     0.004 A 
ATOM      4  C5  UNL d   1       0.510  -0.561  -1.048  0.00  0.00    -0.004 A 
ATOM      5  C6  UNL d   1       0.073   0.750  -1.262  0.00  0.00    -0.075 A 
ATOM      6  C7  UNL d   1      -0.257   1.238  -2.642  0.00  0.00     0.076 C 
ATOM      7  C8  UNL d   1      -0.066   1.611  -0.165  0.00  0.00     0.001 A 
ENDROOT
BRANCH   1   8
ATOM      8  C1  UNL d   1       0.081   2.114   2.305  0.00  0.00     0.053 C 
ATOM      9  C   UNL d   1      -0.794   3.312   1.971  0.00  0.00     0.018 C 
ENDBRANCH   1   8
TORSDOF 1
ENDMDL
