MODEL 1
REMARK minimizedAffinity -4.60592651
REMARK minimizedRMSD -1
REMARK  1 active torsions:
REMARK  status: ('A' for Active; 'I' for Inactive)
REMARK    1  A    between atoms: C1_2  and  C2_3 
ROOT
ATOM      1  C2  UNL d   1      -0.138   1.483   1.191  0.00  0.00    -0.073 A 
ATOM      2  C3  UNL d   1       0.043   0.127   1.484  0.00  0.00    -0.002 A 
ATOM      3  C4  UNL d   1       0.274  -0.791   0.459  0.00  0.00     0.004 A 
ATOM      4  C5  UNL d   1       0.335  -0.362  -0.867  0.00  0.00    -0.004 A 
ATOM      5  C6  UNL d   1       0.169   0.991  -1.179  0.00  0.00    -0.075 A 
ATOM      6  C7  UNL d   1       0.229   1.468  -2.600  0.00  0.00     0.076 C 
ATOM      7  C8  UNL d   1      -0.066   1.906  -0.144  0.00  0.00     0.001 A 
ENDROOT
BRANCH   1   8
ATOM      8  C1  UNL d   1      -0.382   2.479   2.296  0.00  0.00     0.053 C 
ATOM      9  C   UNL d   1      -1.339   3.580   1.869  0.00  0.00     0.018 C 
ENDBRANCH   1   8
TORSDOF 1
ENDMDL
