MODEL 1
REMARK minimizedAffinity -0.364060044
REMARK minimizedRMSD -1
REMARK  1 active torsions:
REMARK  status: ('A' for Active; 'I' for Inactive)
REMARK    1  A    between atoms: C1_2  and  C2_3 
ROOT
ATOM      1  C2  UNL d   1       0.286   0.277   0.115  0.00  0.00    -0.073 A 
ATOM      2  C3  UNL d   1      -0.038   0.435  -1.237  0.00  0.00    -0.002 A 
ATOM      3  C4  UNL d   1      -0.850   1.492  -1.648  0.00  0.00     0.004 A 
ATOM      4  C5  UNL d   1      -1.340   2.406  -0.715  0.00  0.00    -0.004 A 
ATOM      5  C6  UNL d   1      -1.018   2.272   0.639  0.00  0.00    -0.075 A 
ATOM      6  C7  UNL d   1      -1.538   3.245   1.656  0.00  0.00     0.076 C 
ATOM      7  C8  UNL d   1      -0.204   1.206   1.045  0.00  0.00     0.001 A 
ENDROOT
BRANCH   1   8
ATOM      8  C1  UNL d   1       1.167  -0.860   0.564  0.00  0.00     0.053 C 
ATOM      9  C   UNL d   1       1.135  -2.026  -0.412  0.00  0.00     0.018 C 
ENDBRANCH   1   8
TORSDOF 1
ENDMDL
