MODEL 1
REMARK minimizedAffinity -1.69286358
REMARK minimizedRMSD -1
REMARK  0 active torsions:
REMARK  status: ('A' for Active; 'I' for Inactive)
ROOT
ATOM      1  C   UNL d   1       5.822  -0.659   4.931  0.00  0.00     0.023 A 
ATOM      2  C1  UNL d   1       5.755   0.306   5.936  0.00  0.00     0.003 A 
ATOM      3  C2  UNL d   1       5.806   1.662   5.609  0.00  0.00     0.048 A 
ATOM      4  C3  UNL d   1       5.923   2.047   4.273  0.00  0.00     0.023 A 
ATOM      5  C4  UNL d   1       5.990   1.086   3.264  0.00  0.00     0.048 A 
ATOM      6  C5  UNL d   1       5.939  -0.269   3.596  0.00  0.00     0.003 A 
ATOM      7  I   UNL d   1       6.000   4.066   3.783  0.00  0.00    -0.146 I 
ENDROOT
TORSDOF 0
ENDMDL
