MODEL 1
REMARK minimizedAffinity -2.93211126
REMARK minimizedRMSD -1
REMARK  0 active torsions:
REMARK  status: ('A' for Active; 'I' for Inactive)
ROOT
ATOM      1  C   UNL d   1       5.984   3.348   4.297  0.00  0.00     0.023 A 
ATOM      2  C1  UNL d   1       5.977   2.845   5.598  0.00  0.00     0.003 A 
ATOM      3  C2  UNL d   1       5.980   1.465   5.814  0.00  0.00     0.048 A 
ATOM      4  C3  UNL d   1       5.991   0.595   4.725  0.00  0.00     0.023 A 
ATOM      5  C4  UNL d   1       5.999   1.094   3.421  0.00  0.00     0.048 A 
ATOM      6  C5  UNL d   1       5.996   2.474   3.210  0.00  0.00     0.003 A 
ATOM      7  I   UNL d   1       5.995  -1.459   5.043  0.00  0.00    -0.146 I 
ENDROOT
TORSDOF 0
ENDMDL
