MODEL 1
REMARK minimizedAffinity -3.34893966
REMARK minimizedRMSD -1
REMARK  0 active torsions:
REMARK  status: ('A' for Active; 'I' for Inactive)
ROOT
ATOM      1  C   UNL d   1       5.341  -1.469   4.000  0.00  0.00     0.023 A 
ATOM      2  C1  UNL d   1       5.619  -0.925   5.254  0.00  0.00     0.003 A 
ATOM      3  C2  UNL d   1       5.809   0.452   5.392  0.00  0.00     0.048 A 
ATOM      4  C3  UNL d   1       5.718   1.278   4.273  0.00  0.00     0.023 A 
ATOM      5  C4  UNL d   1       5.440   0.738   3.016  0.00  0.00     0.048 A 
ATOM      6  C5  UNL d   1       5.252  -0.639   2.883  0.00  0.00     0.003 A 
ATOM      7  I   UNL d   1       6.000   3.327   4.476  0.00  0.00    -0.146 I 
ENDROOT
TORSDOF 0
ENDMDL
