MODEL 1
REMARK minimizedAffinity -1.84158301
REMARK minimizedRMSD -1
REMARK  0 active torsions:
REMARK  status: ('A' for Active; 'I' for Inactive)
ROOT
ATOM      1  C   UNL d   1       5.196   0.022   4.233  0.00  0.00     0.023 A 
ATOM      2  C1  UNL d   1       5.761   0.742   5.286  0.00  0.00     0.003 A 
ATOM      3  C2  UNL d   1       5.993   2.112   5.151  0.00  0.00     0.048 A 
ATOM      4  C3  UNL d   1       5.656   2.757   3.961  0.00  0.00     0.023 A 
ATOM      5  C4  UNL d   1       5.089   2.040   2.905  0.00  0.00     0.048 A 
ATOM      6  C5  UNL d   1       4.860   0.670   3.045  0.00  0.00     0.003 A 
ATOM      7  I   UNL d   1       6.000   4.796   3.758  0.00  0.00    -0.146 I 
ENDROOT
TORSDOF 0
ENDMDL
