MODEL 1
REMARK minimizedAffinity -2.48954153
REMARK minimizedRMSD -1
REMARK  0 active torsions:
REMARK  status: ('A' for Active; 'I' for Inactive)
ROOT
ATOM      1  C   UNL d   1       5.742  -1.007   5.019  0.00  0.00     0.023 A 
ATOM      2  C1  UNL d   1       5.634  -0.020   5.999  0.00  0.00     0.003 A 
ATOM      3  C2  UNL d   1       5.707   1.329   5.644  0.00  0.00     0.048 A 
ATOM      4  C3  UNL d   1       5.886   1.683   4.307  0.00  0.00     0.023 A 
ATOM      5  C4  UNL d   1       5.993   0.699   3.323  0.00  0.00     0.048 A 
ATOM      6  C5  UNL d   1       5.921  -0.648   3.683  0.00  0.00     0.003 A 
ATOM      7  I   UNL d   1       5.994   3.690   3.776  0.00  0.00    -0.146 I 
ENDROOT
TORSDOF 0
ENDMDL
