MODEL 1
REMARK minimizedAffinity -0.729635715
REMARK minimizedRMSD -1
REMARK  0 active torsions:
REMARK  status: ('A' for Active; 'I' for Inactive)
ROOT
ATOM      1  C   UNL d   1       5.998   3.429   3.054  0.00  0.00     0.023 A 
ATOM      2  C1  UNL d   1       5.994   3.348   4.446  0.00  0.00     0.003 A 
ATOM      3  C2  UNL d   1       5.992   2.102   5.075  0.00  0.00     0.048 A 
ATOM      4  C3  UNL d   1       5.994   0.939   4.305  0.00  0.00     0.023 A 
ATOM      5  C4  UNL d   1       5.998   1.014   2.911  0.00  0.00     0.048 A 
ATOM      6  C5  UNL d   1       5.999   2.263   2.287  0.00  0.00     0.003 A 
ATOM      7  I   UNL d   1       5.990  -0.918   5.239  0.00  0.00    -0.146 I 
ENDROOT
TORSDOF 0
ENDMDL
