MODEL 1
REMARK minimizedAffinity -2.79688621
REMARK minimizedRMSD -1
REMARK  0 active torsions:
REMARK  status: ('A' for Active; 'I' for Inactive)
ROOT
ATOM      1  C   UNL d   1       5.364   3.069   4.234  0.00  0.00     0.023 A 
ATOM      2  C1  UNL d   1       5.921   2.843   5.493  0.00  0.00     0.003 A 
ATOM      3  C2  UNL d   1       5.999   1.544   6.000  0.00  0.00     0.048 A 
ATOM      4  C3  UNL d   1       5.521   0.476   5.242  0.00  0.00     0.023 A 
ATOM      5  C4  UNL d   1       4.964   0.697   3.981  0.00  0.00     0.048 A 
ATOM      6  C5  UNL d   1       4.887   1.997   3.479  0.00  0.00     0.003 A 
ATOM      7  I   UNL d   1       5.638  -1.458   5.994  0.00  0.00    -0.146 I 
ENDROOT
TORSDOF 0
ENDMDL
