MODEL 1
REMARK minimizedAffinity -1.54033995
REMARK minimizedRMSD -1
REMARK  0 active torsions:
REMARK  status: ('A' for Active; 'I' for Inactive)
ROOT
ATOM      1  C   UNL d   1       5.994   3.305   3.229  0.00  0.00     0.023 A 
ATOM      2  C1  UNL d   1       5.997   2.986   4.587  0.00  0.00     0.003 A 
ATOM      3  C2  UNL d   1       5.990   1.650   4.992  0.00  0.00     0.048 A 
ATOM      4  C3  UNL d   1       5.981   0.637   4.033  0.00  0.00     0.023 A 
ATOM      5  C4  UNL d   1       5.978   0.951   2.673  0.00  0.00     0.048 A 
ATOM      6  C5  UNL d   1       5.985   2.288   2.273  0.00  0.00     0.003 A 
ATOM      7  I   UNL d   1       5.970  -1.353   4.634  0.00  0.00    -0.146 I 
ENDROOT
TORSDOF 0
ENDMDL
