MODEL 1
REMARK minimizedAffinity -0.215468854
REMARK minimizedRMSD -1
REMARK  0 active torsions:
REMARK  status: ('A' for Active; 'I' for Inactive)
ROOT
ATOM      1  C   UNL d   1       5.997  -1.468   4.003  0.00  0.00     0.023 A 
ATOM      2  C1  UNL d   1       5.999  -0.339   3.183  0.00  0.00     0.003 A 
ATOM      3  C2  UNL d   1       5.997   0.937   3.750  0.00  0.00     0.048 A 
ATOM      4  C3  UNL d   1       5.996   1.077   5.138  0.00  0.00     0.023 A 
ATOM      5  C4  UNL d   1       5.995  -0.049   5.962  0.00  0.00     0.048 A 
ATOM      6  C5  UNL d   1       5.995  -1.323   5.390  0.00  0.00     0.003 A 
ATOM      7  I   UNL d   1       5.994   2.975   5.984  0.00  0.00    -0.146 I 
ENDROOT
TORSDOF 0
ENDMDL
