MODEL 1
REMARK minimizedAffinity -3.28605413
REMARK minimizedRMSD -1
REMARK  0 active torsions:
REMARK  status: ('A' for Active; 'I' for Inactive)
ROOT
ATOM      1  C   UNL d   1       5.590  -1.252   4.903  0.00  0.00     0.023 A 
ATOM      2  C1  UNL d   1       5.685  -0.738   3.609  0.00  0.00     0.003 A 
ATOM      3  C2  UNL d   1       5.800   0.639   3.411  0.00  0.00     0.048 A 
ATOM      4  C3  UNL d   1       5.820   1.497   4.510  0.00  0.00     0.023 A 
ATOM      5  C4  UNL d   1       5.727   0.987   5.806  0.00  0.00     0.048 A 
ATOM      6  C5  UNL d   1       5.611  -0.391   6.000  0.00  0.00     0.003 A 
ATOM      7  I   UNL d   1       5.991   3.548   4.217  0.00  0.00    -0.146 I 
ENDROOT
TORSDOF 0
ENDMDL
