MODEL 1
REMARK minimizedAffinity -2.3018198
REMARK minimizedRMSD -1
REMARK  0 active torsions:
REMARK  status: ('A' for Active; 'I' for Inactive)
ROOT
ATOM      1  C   UNL d   1       5.977  -0.740   5.007  0.00  0.00     0.023 A 
ATOM      2  C1  UNL d   1       5.987   0.240   6.000  0.00  0.00     0.003 A 
ATOM      3  C2  UNL d   1       5.993   1.591   5.650  0.00  0.00     0.048 A 
ATOM      4  C3  UNL d   1       5.989   1.957   4.304  0.00  0.00     0.023 A 
ATOM      5  C4  UNL d   1       5.978   0.980   3.306  0.00  0.00     0.048 A 
ATOM      6  C5  UNL d   1       5.972  -0.370   3.662  0.00  0.00     0.003 A 
ATOM      7  I   UNL d   1       5.998   3.968   3.780  0.00  0.00    -0.146 I 
ENDROOT
TORSDOF 0
ENDMDL
