MODEL 1
REMARK minimizedAffinity 1.18316174
REMARK minimizedRMSD -1
REMARK  0 active torsions:
REMARK  status: ('A' for Active; 'I' for Inactive)
ROOT
ATOM      1  C   UNL d   1       5.969  -0.707   5.100  0.00  0.00     0.023 A 
ATOM      2  C1  UNL d   1       5.990   0.368   5.988  0.00  0.00     0.003 A 
ATOM      3  C2  UNL d   1       5.999   1.677   5.502  0.00  0.00     0.048 A 
ATOM      4  C3  UNL d   1       5.986   1.903   4.126  0.00  0.00     0.023 A 
ATOM      5  C4  UNL d   1       5.964   0.830   3.233  0.00  0.00     0.048 A 
ATOM      6  C5  UNL d   1       5.956  -0.477   3.725  0.00  0.00     0.003 A 
ATOM      7  I   UNL d   1       5.999   3.850   3.399  0.00  0.00    -0.146 I 
ENDROOT
TORSDOF 0
ENDMDL
