MODEL 1
REMARK minimizedAffinity -4.19534922
REMARK minimizedRMSD -1
REMARK  2 active torsions:
REMARK  status: ('A' for Active; 'I' for Inactive)
REMARK    1  A    between atoms: C2'_3  and  C1'_4 
REMARK    2  A    between atoms: C1'_4  and  C1_5 
ROOT
ATOM      1  C1  I4B d   1      -0.063  -0.115  -0.044  0.00  0.00    -0.075 A 
ATOM      2  C2  I4B d   1       0.905   0.841  -0.229  0.00  0.00     0.003 A 
ATOM      3  C3  I4B d   1       0.580   2.214  -0.119  0.00  0.00     0.002 A 
ATOM      4  C4  I4B d   1      -0.726   2.587   0.125  0.00  0.00    -0.004 A 
ATOM      5  C5  I4B d   1      -1.701   1.616   0.335  0.00  0.00     0.002 A 
ATOM      6  C6  I4B d   1      -1.366   0.257   0.262  0.00  0.00     0.003 A 
ENDROOT
BRANCH   1   7
ATOM      7  C1' I4B d   1       0.307  -1.556  -0.200  0.00  0.00     0.060 C 
BRANCH   7   8
ATOM      8  C2' I4B d   1      -0.701  -2.199  -1.130  0.00  0.00    -0.013 C 
ATOM      9  C4' I4B d   1      -0.112  -2.428  -2.498  0.00  0.00     0.013 C 
ATOM     10  C3' I4B d   1      -1.146  -3.489  -0.510  0.00  0.00     0.013 C 
ENDBRANCH   7   8
ENDBRANCH   1   7
TORSDOF 2
ENDMDL
