MODEL 1
REMARK minimizedAffinity -0.940469503
REMARK minimizedRMSD -1
REMARK  2 active torsions:
REMARK  status: ('A' for Active; 'I' for Inactive)
REMARK    1  A    between atoms: C2'_3  and  C1'_4 
REMARK    2  A    between atoms: C1'_4  and  C1_5 
ROOT
ATOM      1  C1  I4B d   1       0.181   1.642   0.284  0.00  0.00    -0.075 A 
ATOM      2  C2  I4B d   1      -1.007   1.123  -0.166  0.00  0.00     0.003 A 
ATOM      3  C3  I4B d   1      -1.041  -0.153  -0.780  0.00  0.00     0.002 A 
ATOM      4  C4  I4B d   1       0.137  -0.848  -0.968  0.00  0.00    -0.004 A 
ATOM      5  C5  I4B d   1       1.337  -0.330  -0.491  0.00  0.00     0.002 A 
ATOM      6  C6  I4B d   1       1.359   0.917   0.151  0.00  0.00     0.003 A 
ENDROOT
BRANCH   1   7
ATOM      7  C1' I4B d   1       0.185   3.006   0.898  0.00  0.00     0.060 C 
BRANCH   7   8
ATOM      8  C2' I4B d   1       1.618   3.497   0.936  0.00  0.00    -0.013 C 
ATOM      9  C4' I4B d   1       1.707   4.950   0.551  0.00  0.00     0.013 C 
ATOM     10  C3' I4B d   1       2.149   3.270   2.320  0.00  0.00     0.013 C 
ENDBRANCH   7   8
ENDBRANCH   1   7
TORSDOF 2
ENDMDL
