MODEL 1
REMARK minimizedAffinity 0.549619079
REMARK minimizedRMSD -1
REMARK  2 active torsions:
REMARK  status: ('A' for Active; 'I' for Inactive)
REMARK    1  A    between atoms: C2'_3  and  C1'_4 
REMARK    2  A    between atoms: C1'_4  and  C1_5 
ROOT
ATOM      1  C1  I4B d   1      -0.243  -2.190  -1.237  0.00  0.00    -0.075 A 
ATOM      2  C2  I4B d   1      -0.014  -3.057  -2.276  0.00  0.00     0.003 A 
ATOM      3  C3  I4B d   1      -0.715  -4.285  -2.348  0.00  0.00     0.002 A 
ATOM      4  C4  I4B d   1      -1.593  -4.626  -1.339  0.00  0.00    -0.004 A 
ATOM      5  C5  I4B d   1      -1.841  -3.735  -0.299  0.00  0.00     0.002 A 
ATOM      6  C6  I4B d   1      -1.171  -2.504  -0.253  0.00  0.00     0.003 A 
ENDROOT
BRANCH   1   7
ATOM      7  C1' I4B d   1       0.539  -0.916  -1.175  0.00  0.00     0.060 C 
BRANCH   7   8
ATOM      8  C2' I4B d   1       0.872  -0.643   0.278  0.00  0.00    -0.013 C 
ATOM      9  C4' I4B d   1       2.306  -0.210   0.436  0.00  0.00     0.013 C 
ATOM     10  C3' I4B d   1      -0.071   0.411   0.778  0.00  0.00     0.013 C 
ENDBRANCH   7   8
ENDBRANCH   1   7
TORSDOF 2
ENDMDL
