MODEL 1
REMARK minimizedAffinity -4.23664904
REMARK minimizedRMSD -1
REMARK  2 active torsions:
REMARK  status: ('A' for Active; 'I' for Inactive)
REMARK    1  A    between atoms: C2'_3  and  C1'_4 
REMARK    2  A    between atoms: C1'_4  and  C1_5 
ROOT
ATOM      1  C1  I4B d   1       0.528  -0.037   0.293  0.00  0.00    -0.075 A 
ATOM      2  C2  I4B d   1      -0.672   0.630   0.280  0.00  0.00     0.003 A 
ATOM      3  C3  I4B d   1      -0.699   2.046   0.255  0.00  0.00     0.002 A 
ATOM      4  C4  I4B d   1       0.488   2.749   0.295  0.00  0.00    -0.004 A 
ATOM      5  C5  I4B d   1       1.703   2.070   0.286  0.00  0.00     0.002 A 
ATOM      6  C6  I4B d   1       1.724   0.668   0.272  0.00  0.00     0.003 A 
ENDROOT
BRANCH   1   7
ATOM      7  C1' I4B d   1       0.519  -1.532   0.353  0.00  0.00     0.060 C 
BRANCH   7   8
ATOM      8  C2' I4B d   1      -0.616  -2.028  -0.520  0.00  0.00    -0.013 C 
ATOM      9  C4' I4B d   1      -0.124  -2.401  -1.893  0.00  0.00     0.013 C 
ATOM     10  C3' I4B d   1      -1.249  -3.201   0.166  0.00  0.00     0.013 C 
ENDBRANCH   7   8
ENDBRANCH   1   7
TORSDOF 2
ENDMDL
