MODEL 1
REMARK minimizedAffinity -3.38379502
REMARK minimizedRMSD -1
REMARK  2 active torsions:
REMARK  status: ('A' for Active; 'I' for Inactive)
REMARK    1  A    between atoms: C2'_3  and  C1'_4 
REMARK    2  A    between atoms: C1'_4  and  C1_5 
ROOT
ATOM      1  C1  I4B d   1      -0.543  -2.058  -1.224  0.00  0.00    -0.075 A 
ATOM      2  C2  I4B d   1       0.370  -2.998  -1.634  0.00  0.00     0.003 A 
ATOM      3  C3  I4B d   1      -0.061  -4.154  -2.329  0.00  0.00     0.002 A 
ATOM      4  C4  I4B d   1      -1.409  -4.353  -2.546  0.00  0.00    -0.004 A 
ATOM      5  C5  I4B d   1      -2.330  -3.388  -2.150  0.00  0.00     0.002 A 
ATOM      6  C6  I4B d   1      -1.894  -2.227  -1.496  0.00  0.00     0.003 A 
ENDROOT
BRANCH   1   7
ATOM      7  C1' I4B d   1      -0.057  -0.865  -0.463  0.00  0.00     0.060 C 
BRANCH   7   8
ATOM      8  C2' I4B d   1      -1.264  -0.039  -0.070  0.00  0.00    -0.013 C 
ATOM      9  C4' I4B d   1      -1.480  -0.064   1.421  0.00  0.00     0.013 C 
ATOM     10  C3' I4B d   1      -1.048   1.361  -0.562  0.00  0.00     0.013 C 
ENDBRANCH   7   8
ENDBRANCH   1   7
TORSDOF 2
ENDMDL
