MODEL 1
REMARK minimizedAffinity -3.43273926
REMARK minimizedRMSD -1
REMARK  2 active torsions:
REMARK  status: ('A' for Active; 'I' for Inactive)
REMARK    1  A    between atoms: C2'_3  and  C1'_4 
REMARK    2  A    between atoms: C1'_4  and  C1_5 
ROOT
ATOM      1  C1  I4B d   1      -0.699   0.173  -0.119  0.00  0.00    -0.075 A 
ATOM      2  C2  I4B d   1      -1.088   0.856   1.007  0.00  0.00     0.003 A 
ATOM      3  C3  I4B d   1      -0.744   2.219   1.169  0.00  0.00     0.002 A 
ATOM      4  C4  I4B d   1       0.029   2.843   0.211  0.00  0.00    -0.004 A 
ATOM      5  C5  I4B d   1       0.403   2.157  -0.941  0.00  0.00     0.002 A 
ATOM      6  C6  I4B d   1       0.027   0.817  -1.113  0.00  0.00     0.003 A 
ENDROOT
BRANCH   1   7
ATOM      7  C1' I4B d   1      -1.052  -1.275  -0.242  0.00  0.00     0.060 C 
BRANCH   7   8
ATOM      8  C2' I4B d   1       0.213  -2.036  -0.583  0.00  0.00    -0.013 C 
ATOM      9  C4' I4B d   1       1.107  -2.175   0.621  0.00  0.00     0.013 C 
ATOM     10  C3' I4B d   1      -0.186  -3.379  -1.120  0.00  0.00     0.013 C 
ENDBRANCH   7   8
ENDBRANCH   1   7
TORSDOF 2
ENDMDL
