MODEL 1
REMARK minimizedAffinity -2.70221806
REMARK minimizedRMSD -1
REMARK  2 active torsions:
REMARK  status: ('A' for Active; 'I' for Inactive)
REMARK    1  A    between atoms: C2'_3  and  C1'_4 
REMARK    2  A    between atoms: C1'_4  and  C1_5 
ROOT
ATOM      1  C1  I4B d   1       0.026  -0.563   0.721  0.00  0.00    -0.075 A 
ATOM      2  C2  I4B d   1      -1.072   0.260   0.694  0.00  0.00     0.003 A 
ATOM      3  C3  I4B d   1      -0.908   1.667   0.708  0.00  0.00     0.002 A 
ATOM      4  C4  I4B d   1       0.360   2.203   0.800  0.00  0.00    -0.004 A 
ATOM      5  C5  I4B d   1       1.473   1.367   0.805  0.00  0.00     0.002 A 
ATOM      6  C6  I4B d   1       1.306  -0.025   0.753  0.00  0.00     0.003 A 
ENDROOT
BRANCH   1   7
ATOM      7  C1' I4B d   1      -0.184  -2.044   0.738  0.00  0.00     0.060 C 
BRANCH   7   8
ATOM      8  C2' I4B d   1      -1.027  -2.410  -0.467  0.00  0.00    -0.013 C 
ATOM      9  C4' I4B d   1      -0.187  -2.494  -1.714  0.00  0.00     0.013 C 
ATOM     10  C3' I4B d   1      -1.702  -3.718  -0.180  0.00  0.00     0.013 C 
ENDBRANCH   7   8
ENDBRANCH   1   7
TORSDOF 2
ENDMDL
