MODEL 1
REMARK minimizedAffinity -5.23556995
REMARK minimizedRMSD -1
REMARK  2 active torsions:
REMARK  status: ('A' for Active; 'I' for Inactive)
REMARK    1  A    between atoms: C2'_3  and  C1'_4 
REMARK    2  A    between atoms: C1'_4  and  C1_5 
ROOT
ATOM      1  C1  I4B d   1       1.099   1.107   0.419  0.00  0.00    -0.075 A 
ATOM      2  C2  I4B d   1       0.021   1.922   0.181  0.00  0.00     0.003 A 
ATOM      3  C3  I4B d   1       0.203   3.318   0.026  0.00  0.00     0.002 A 
ATOM      4  C4  I4B d   1       1.465   3.858   0.166  0.00  0.00    -0.004 A 
ATOM      5  C5  I4B d   1       2.560   3.027   0.385  0.00  0.00     0.002 A 
ATOM      6  C6  I4B d   1       2.378   1.642   0.500  0.00  0.00     0.003 A 
ENDROOT
BRANCH   1   7
ATOM      7  C1' I4B d   1       0.866  -0.358   0.610  0.00  0.00     0.060 C 
BRANCH   7   8
ATOM      8  C2' I4B d   1      -0.476  -0.701  -0.003  0.00  0.00    -0.013 C 
ATOM      9  C4' I4B d   1      -0.549  -2.159  -0.376  0.00  0.00     0.013 C 
ATOM     10  C3' I4B d   1      -1.543  -0.342   0.988  0.00  0.00     0.013 C 
ENDBRANCH   7   8
ENDBRANCH   1   7
TORSDOF 2
ENDMDL
