MODEL 1
REMARK minimizedAffinity 0.117241308
REMARK minimizedRMSD -1
REMARK  2 active torsions:
REMARK  status: ('A' for Active; 'I' for Inactive)
REMARK    1  A    between atoms: C2'_3  and  C1'_4 
REMARK    2  A    between atoms: C1'_4  and  C1_5 
ROOT
ATOM      1  C1  I4B d   1      -1.014  -0.588  -0.109  0.00  0.00    -0.075 A 
ATOM      2  C2  I4B d   1      -2.139  -0.172  -0.777  0.00  0.00     0.003 A 
ATOM      3  C3  I4B d   1      -2.768   1.047  -0.425  0.00  0.00     0.002 A 
ATOM      4  C4  I4B d   1      -2.270   1.789   0.626  0.00  0.00    -0.004 A 
ATOM      5  C5  I4B d   1      -1.116   1.378   1.287  0.00  0.00     0.002 A 
ATOM      6  C6  I4B d   1      -0.477   0.188   0.909  0.00  0.00     0.003 A 
ENDROOT
BRANCH   1   7
ATOM      7  C1' I4B d   1      -0.395  -1.897  -0.485  0.00  0.00     0.060 C 
BRANCH   7   8
ATOM      8  C2' I4B d   1      -1.473  -2.762  -1.106  0.00  0.00    -0.013 C 
ATOM      9  C4' I4B d   1      -0.981  -3.427  -2.364  0.00  0.00     0.013 C 
ATOM     10  C3' I4B d   1      -1.897  -3.777  -0.087  0.00  0.00     0.013 C 
ENDBRANCH   7   8
ENDBRANCH   1   7
TORSDOF 2
ENDMDL
