MODEL 1
REMARK minimizedAffinity -2.05874777
REMARK minimizedRMSD -1
REMARK  0 active torsions:
REMARK  status: ('A' for Active; 'I' for Inactive)
ROOT
ATOM      1  C1  DEN d   1       1.059  -1.080   0.564  0.00  0.00     0.130 A 
ATOM      2  C2  DEN d   1       0.308  -1.492  -0.619  0.00  0.00    -0.031 A 
ATOM      3  C3  DEN d   1      -0.773  -0.511  -0.838  0.00  0.00     0.027 A 
ATOM      4  C4  DEN d   1      -1.351   1.599   0.527  0.00  0.00     0.027 A 
ATOM      5  C5  DEN d   1      -1.004   2.356   1.625  0.00  0.00    -0.003 A 
ATOM      6  C6  DEN d   1       0.025   2.005   2.458  0.00  0.00     0.001 A 
ATOM      7  C7  DEN d   1       0.772   0.891   2.182  0.00  0.00     0.017 A 
ATOM      8  C8  DEN d   1       0.424   0.119   1.081  0.00  0.00    -0.094 A 
ATOM      9  C9  DEN d   1      -0.611   0.497   0.244  0.00  0.00    -0.072 A 
ENDROOT
TORSDOF 0
ENDMDL
