MODEL 1
REMARK minimizedAffinity -3.05218577
REMARK minimizedRMSD -1
REMARK  0 active torsions:
REMARK  status: ('A' for Active; 'I' for Inactive)
ROOT
ATOM      1  C1  DEN d   1      -0.354   2.422  -1.508  0.00  0.00     0.130 A 
ATOM      2  C2  DEN d   1      -0.444   3.820  -1.093  0.00  0.00    -0.031 A 
ATOM      3  C3  DEN d   1      -0.321   3.868   0.378  0.00  0.00     0.027 A 
ATOM      4  C4  DEN d   1       0.004   1.926   2.043  0.00  0.00     0.027 A 
ATOM      5  C5  DEN d   1       0.127   0.560   2.164  0.00  0.00    -0.003 A 
ATOM      6  C6  DEN d   1       0.065  -0.278   1.082  0.00  0.00     0.001 A 
ATOM      7  C7  DEN d   1      -0.080   0.247  -0.175  0.00  0.00     0.017 A 
ATOM      8  C8  DEN d   1      -0.212   1.624  -0.304  0.00  0.00    -0.094 A 
ATOM      9  C9  DEN d   1      -0.135   2.454   0.801  0.00  0.00    -0.072 A 
ENDROOT
TORSDOF 0
ENDMDL
