MODEL 1
REMARK minimizedAffinity -5.97580242
REMARK minimizedRMSD -1
REMARK  0 active torsions:
REMARK  status: ('A' for Active; 'I' for Inactive)
ROOT
ATOM      1  C1  DEN d   1       0.200   0.057  -0.988  0.00  0.00     0.130 A 
ATOM      2  C2  DEN d   1       0.547  -0.911   0.050  0.00  0.00    -0.031 A 
ATOM      3  C3  DEN d   1       0.298  -0.282   1.362  0.00  0.00     0.027 A 
ATOM      4  C4  DEN d   1      -0.592   2.082   1.886  0.00  0.00     0.027 A 
ATOM      5  C5  DEN d   1      -1.014   3.270   1.333  0.00  0.00    -0.003 A 
ATOM      6  C6  DEN d   1      -1.030   3.481  -0.020  0.00  0.00     0.001 A 
ATOM      7  C7  DEN d   1      -0.657   2.472  -0.868  0.00  0.00     0.017 A 
ATOM      8  C8  DEN d   1      -0.223   1.274  -0.318  0.00  0.00    -0.094 A 
ATOM      9  C9  DEN d   1      -0.226   1.076   1.052  0.00  0.00    -0.072 A 
ENDROOT
TORSDOF 0
ENDMDL
