MODEL 1
REMARK minimizedAffinity -0.884919584
REMARK minimizedRMSD -1
REMARK  0 active torsions:
REMARK  status: ('A' for Active; 'I' for Inactive)
ROOT
ATOM      1  O1  BZF d   1       2.022  -0.884   0.486  0.00  0.00    -0.204 OA
ATOM      2  C2  BZF d   1       2.311   0.077  -0.464  0.00  0.00     0.174 A 
ATOM      3  C3  BZF d   1       1.179   0.619  -0.956  0.00  0.00    -0.012 A 
ATOM      4  C3A BZF d   1       0.118   0.021  -0.204  0.00  0.00    -0.107 A 
ATOM      5  C4  BZF d   1      -1.240   0.166  -0.218  0.00  0.00     0.055 A 
ATOM      6  C5  BZF d   1      -1.996  -0.619   0.593  0.00  0.00    -0.016 A 
ATOM      7  C6  BZF d   1      -1.429  -1.561   1.426  0.00  0.00     0.022 A 
ATOM      8  C7  BZF d   1      -0.086  -1.738   1.478  0.00  0.00     0.029 A 
ATOM      9  C7A BZF d   1       0.683  -0.923   0.684  0.00  0.00     0.058 A 
ENDROOT
TORSDOF 0
ENDMDL
