MODEL 1
REMARK minimizedAffinity -2.78192163
REMARK minimizedRMSD -1
REMARK  0 active torsions:
REMARK  status: ('A' for Active; 'I' for Inactive)
ROOT
ATOM      1  O1  BZF d   1       1.417   0.171   1.794  0.00  0.00    -0.204 OA
ATOM      2  C2  BZF d   1       1.139  -0.645   0.715  0.00  0.00     0.174 A 
ATOM      3  C3  BZF d   1       1.485  -0.045  -0.441  0.00  0.00    -0.012 A 
ATOM      4  C3A BZF d   1       2.099   1.189  -0.056  0.00  0.00    -0.107 A 
ATOM      5  C4  BZF d   1       2.663   2.216  -0.756  0.00  0.00     0.055 A 
ATOM      6  C5  BZF d   1       3.106   3.310  -0.083  0.00  0.00    -0.016 A 
ATOM      7  C6  BZF d   1       2.996   3.413   1.288  0.00  0.00     0.022 A 
ATOM      8  C7  BZF d   1       2.448   2.417   2.027  0.00  0.00     0.029 A 
ATOM      9  C7A BZF d   1       2.030   1.296   1.353  0.00  0.00     0.058 A 
ENDROOT
TORSDOF 0
ENDMDL
