MODEL 1
REMARK minimizedAffinity -4.61416864
REMARK minimizedRMSD -1
REMARK  0 active torsions:
REMARK  status: ('A' for Active; 'I' for Inactive)
ROOT
ATOM      1  O1  BZF d   1       3.231  -0.934  -1.314  0.00  0.00    -0.204 OA
ATOM      2  C2  BZF d   1       3.094  -0.810  -2.683  0.00  0.00     0.174 A 
ATOM      3  C3  BZF d   1       1.805  -0.601  -3.018  0.00  0.00    -0.012 A 
ATOM      4  C3A BZF d   1       1.104  -0.503  -1.774  0.00  0.00    -0.107 A 
ATOM      5  C4  BZF d   1      -0.204  -0.283  -1.448  0.00  0.00     0.055 A 
ATOM      6  C5  BZF d   1      -0.573  -0.318  -0.141  0.00  0.00    -0.016 A 
ATOM      7  C6  BZF d   1       0.336  -0.574   0.864  0.00  0.00     0.022 A 
ATOM      8  C7  BZF d   1       1.645  -0.793   0.590  0.00  0.00     0.029 A 
ATOM      9  C7A BZF d   1       2.028  -0.726  -0.727  0.00  0.00     0.058 A 
ENDROOT
TORSDOF 0
ENDMDL
