MODEL 1
REMARK minimizedAffinity -0.803993165
REMARK minimizedRMSD -1
REMARK  0 active torsions:
REMARK  status: ('A' for Active; 'I' for Inactive)
ROOT
ATOM      1  O1  BZF d   1       4.214   4.748  -0.102  0.00  0.00    -0.204 OA
ATOM      2  C2  BZF d   1       4.630   3.968  -1.163  0.00  0.00     0.174 A 
ATOM      3  C3  BZF d   1       4.352   2.667  -0.938  0.00  0.00    -0.012 A 
ATOM      4  C3A BZF d   1       3.641   2.644   0.303  0.00  0.00    -0.107 A 
ATOM      5  C4  BZF d   1       3.084   1.643   1.047  0.00  0.00     0.055 A 
ATOM      6  C5  BZF d   1       2.524   1.945   2.247  0.00  0.00    -0.016 A 
ATOM      7  C6  BZF d   1       2.509   3.235   2.737  0.00  0.00     0.022 A 
ATOM      8  C7  BZF d   1       3.044   4.262   2.033  0.00  0.00     0.029 A 
ATOM      9  C7A BZF d   1       3.581   3.964   0.804  0.00  0.00     0.058 A 
ENDROOT
TORSDOF 0
ENDMDL
