MODEL 1
REMARK minimizedAffinity -2.8302536
REMARK minimizedRMSD -1
REMARK  0 active torsions:
REMARK  status: ('A' for Active; 'I' for Inactive)
ROOT
ATOM      1  O1  BZF d   1       1.455   0.385   1.490  0.00  0.00    -0.204 OA
ATOM      2  C2  BZF d   1       1.324  -0.370   0.341  0.00  0.00     0.174 A 
ATOM      3  C3  BZF d   1       1.906   0.248  -0.707  0.00  0.00    -0.012 A 
ATOM      4  C3A BZF d   1       2.514   1.422  -0.161  0.00  0.00    -0.107 A 
ATOM      5  C4  BZF d   1       3.254   2.435  -0.701  0.00  0.00     0.055 A 
ATOM      6  C5  BZF d   1       3.635   3.471   0.091  0.00  0.00    -0.016 A 
ATOM      7  C6  BZF d   1       3.289   3.529   1.425  0.00  0.00     0.022 A 
ATOM      8  C7  BZF d   1       2.560   2.546   2.008  0.00  0.00     0.029 A 
ATOM      9  C7A BZF d   1       2.202   1.482   1.217  0.00  0.00     0.058 A 
ENDROOT
TORSDOF 0
ENDMDL
