MODEL 1
REMARK minimizedAffinity -3.86206102
REMARK minimizedRMSD -1
REMARK  0 active torsions:
REMARK  status: ('A' for Active; 'I' for Inactive)
ROOT
ATOM      1  O1  BZF d   1       3.137  -0.052   3.178  0.00  0.00    -0.204 OA
ATOM      2  C2  BZF d   1       4.021   0.583   4.028  0.00  0.00     0.174 A 
ATOM      3  C3  BZF d   1       4.162   1.881   3.691  0.00  0.00    -0.012 A 
ATOM      4  C3A BZF d   1       3.242   2.092   2.615  0.00  0.00    -0.107 A 
ATOM      5  C4  BZF d   1       2.909   3.183   1.865  0.00  0.00     0.055 A 
ATOM      6  C5  BZF d   1       2.026   3.038   0.843  0.00  0.00    -0.016 A 
ATOM      7  C6  BZF d   1       1.461   1.816   0.540  0.00  0.00     0.022 A 
ATOM      8  C7  BZF d   1       1.757   0.706   1.259  0.00  0.00     0.029 A 
ATOM      9  C7A BZF d   1       2.624   0.857   2.313  0.00  0.00     0.058 A 
ENDROOT
TORSDOF 0
ENDMDL
