MODEL 1
REMARK minimizedAffinity -4.65483332
REMARK minimizedRMSD -1
REMARK  0 active torsions:
REMARK  status: ('A' for Active; 'I' for Inactive)
ROOT
ATOM      1  O1  BZF d   1       0.032  -0.121  -1.749  0.00  0.00    -0.204 OA
ATOM      2  C2  BZF d   1       1.102   0.193  -0.933  0.00  0.00     0.174 A 
ATOM      3  C3  BZF d   1       0.723   0.227   0.361  0.00  0.00    -0.012 A 
ATOM      4  C3A BZF d   1      -0.650  -0.177   0.361  0.00  0.00    -0.107 A 
ATOM      5  C4  BZF d   1      -1.576  -0.354   1.349  0.00  0.00     0.055 A 
ATOM      6  C5  BZF d   1      -2.850  -0.683   1.009  0.00  0.00    -0.016 A 
ATOM      7  C6  BZF d   1      -3.233  -0.838  -0.307  0.00  0.00     0.022 A 
ATOM      8  C7  BZF d   1      -2.349  -0.678  -1.321  0.00  0.00     0.029 A 
ATOM      9  C7A BZF d   1      -1.053  -0.377  -0.979  0.00  0.00     0.058 A 
ENDROOT
TORSDOF 0
ENDMDL
