MODEL 1
REMARK minimizedAffinity -3.79047012
REMARK minimizedRMSD -1
REMARK  0 active torsions:
REMARK  status: ('A' for Active; 'I' for Inactive)
ROOT
ATOM      1  O1  BZF d   1       1.566   0.715   1.559  0.00  0.00    -0.204 OA
ATOM      2  C2  BZF d   1       1.634  -0.239   0.562  0.00  0.00     0.174 A 
ATOM      3  C3  BZF d   1       2.344   0.217  -0.490  0.00  0.00    -0.012 A 
ATOM      4  C3A BZF d   1       2.824   1.505  -0.090  0.00  0.00    -0.107 A 
ATOM      5  C4  BZF d   1       3.602   2.447  -0.699  0.00  0.00     0.055 A 
ATOM      6  C5  BZF d   1       3.825   3.629  -0.065  0.00  0.00    -0.016 A 
ATOM      7  C6  BZF d   1       3.282   3.903   1.173  0.00  0.00     0.022 A 
ATOM      8  C7  BZF d   1       2.509   2.996   1.819  0.00  0.00     0.029 A 
ATOM      9  C7A BZF d   1       2.308   1.789   1.196  0.00  0.00     0.058 A 
ENDROOT
TORSDOF 0
ENDMDL
