MODEL 1
REMARK minimizedAffinity -1.38161337
REMARK minimizedRMSD -1
REMARK  0 active torsions:
REMARK  status: ('A' for Active; 'I' for Inactive)
ROOT
ATOM      1  O1  BZF d   1       0.812   0.150  -0.470  0.00  0.00    -0.204 OA
ATOM      2  C2  BZF d   1       1.188   0.080   0.858  0.00  0.00     0.174 A 
ATOM      3  C3  BZF d   1       0.142  -0.270   1.633  0.00  0.00    -0.012 A 
ATOM      4  C3A BZF d   1      -0.934  -0.520   0.723  0.00  0.00    -0.107 A 
ATOM      5  C4  BZF d   1      -2.230  -0.918   0.888  0.00  0.00     0.055 A 
ATOM      6  C5  BZF d   1      -3.040  -0.998  -0.200  0.00  0.00    -0.016 A 
ATOM      7  C6  BZF d   1      -2.589  -0.681  -1.465  0.00  0.00     0.022 A 
ATOM      8  C7  BZF d   1      -1.311  -0.287  -1.679  0.00  0.00     0.029 A 
ATOM      9  C7A BZF d   1      -0.481  -0.237  -0.586  0.00  0.00     0.058 A 
ENDROOT
TORSDOF 0
ENDMDL
