MODEL 1
REMARK minimizedAffinity -4.94058609
REMARK minimizedRMSD -1
REMARK  0 active torsions:
REMARK  status: ('A' for Active; 'I' for Inactive)
ROOT
ATOM      1  O1  BZF d   1      -2.263  -0.326  -0.447  0.00  0.00    -0.204 OA
ATOM      2  C2  BZF d   1      -2.489  -0.626   0.882  0.00  0.00     0.174 A 
ATOM      3  C3  BZF d   1      -1.323  -0.779   1.543  0.00  0.00    -0.012 A 
ATOM      4  C3A BZF d   1      -0.305  -0.470   0.586  0.00  0.00    -0.107 A 
ATOM      5  C4  BZF d   1       1.058  -0.428   0.647  0.00  0.00     0.055 A 
ATOM      6  C5  BZF d   1       1.762  -0.162  -0.485  0.00  0.00    -0.016 A 
ATOM      7  C6  BZF d   1       1.135   0.061  -1.694  0.00  0.00     0.022 A 
ATOM      8  C7  BZF d   1      -0.215   0.035  -1.802  0.00  0.00     0.029 A 
ATOM      9  C7A BZF d   1      -0.930  -0.201  -0.654  0.00  0.00     0.058 A 
ENDROOT
TORSDOF 0
ENDMDL
