MODEL 1
REMARK minimizedAffinity 1.04243731
REMARK minimizedRMSD -1
REMARK  0 active torsions:
REMARK  status: ('A' for Active; 'I' for Inactive)
ROOT
ATOM      1  O1  BZF d   1       1.388  -0.235  -0.161  0.00  0.00    -0.204 OA
ATOM      2  C2  BZF d   1       0.555  -0.668   0.853  0.00  0.00     0.174 A 
ATOM      3  C3  BZF d   1       0.722   0.081   1.962  0.00  0.00    -0.012 A 
ATOM      4  C3A BZF d   1       1.655   1.100   1.591  0.00  0.00    -0.107 A 
ATOM      5  C4  BZF d   1       2.207   2.156   2.258  0.00  0.00     0.055 A 
ATOM      6  C5  BZF d   1       3.141   2.918   1.631  0.00  0.00    -0.016 A 
ATOM      7  C6  BZF d   1       3.550   2.650   0.341  0.00  0.00     0.022 A 
ATOM      8  C7  BZF d   1       3.028   1.617  -0.363  0.00  0.00     0.029 A 
ATOM      9  C7A BZF d   1       2.059   0.865   0.256  0.00  0.00     0.058 A 
ENDROOT
TORSDOF 0
ENDMDL
