MODEL 1
REMARK minimizedAffinity 1.83067524
REMARK minimizedRMSD -1
REMARK  0 active torsions:
REMARK  status: ('A' for Active; 'I' for Inactive)
ROOT
ATOM      1  O1  BZF d   1      -0.238  -0.074  -1.374  0.00  0.00    -0.204 OA
ATOM      2  C2  BZF d   1      -0.123   0.161  -0.018  0.00  0.00     0.174 A 
ATOM      3  C3  BZF d   1       1.159   0.035   0.383  0.00  0.00    -0.012 A 
ATOM      4  C3A BZF d   1       1.904  -0.210  -0.814  0.00  0.00    -0.107 A 
ATOM      5  C4  BZF d   1       3.231  -0.406  -1.069  0.00  0.00     0.055 A 
ATOM      6  C5  BZF d   1       3.624  -0.693  -2.338  0.00  0.00    -0.016 A 
ATOM      7  C6  BZF d   1       2.718  -0.796  -3.373  0.00  0.00     0.022 A 
ATOM      8  C7  BZF d   1       1.392  -0.604  -3.169  0.00  0.00     0.029 A 
ATOM      9  C7A BZF d   1       0.995  -0.282  -1.894  0.00  0.00     0.058 A 
ENDROOT
TORSDOF 0
ENDMDL
