MODEL 1
REMARK minimizedAffinity -4.70773506
REMARK minimizedRMSD -1
REMARK  0 active torsions:
REMARK  status: ('A' for Active; 'I' for Inactive)
ROOT
ATOM      1  O1  BZF d   1       1.892   1.242   1.298  0.00  0.00    -0.204 OA
ATOM      2  C2  BZF d   1       1.816   2.330   2.145  0.00  0.00     0.174 A 
ATOM      3  C3  BZF d   1       2.340   3.428   1.562  0.00  0.00    -0.012 A 
ATOM      4  C3A BZF d   1       2.687   3.019   0.235  0.00  0.00    -0.107 A 
ATOM      5  C4  BZF d   1       3.236   3.668  -0.834  0.00  0.00     0.055 A 
ATOM      6  C5  BZF d   1       3.515   2.964  -1.962  0.00  0.00    -0.016 A 
ATOM      7  C6  BZF d   1       3.264   1.611  -2.054  0.00  0.00     0.022 A 
ATOM      8  C7  BZF d   1       2.715   0.924  -1.022  0.00  0.00     0.029 A 
ATOM      9  C7A BZF d   1       2.402   1.640   0.108  0.00  0.00     0.058 A 
ENDROOT
TORSDOF 0
ENDMDL
