MODEL 1
REMARK minimizedAffinity -1.6107924
REMARK minimizedRMSD -1
REMARK  0 active torsions:
REMARK  status: ('A' for Active; 'I' for Inactive)
ROOT
ATOM      1  O1  BZF d   1       2.774   4.412   1.591  0.00  0.00    -0.204 OA
ATOM      2  C2  BZF d   1       2.399   3.286   2.297  0.00  0.00     0.174 A 
ATOM      3  C3  BZF d   1       2.730   2.165   1.623  0.00  0.00    -0.012 A 
ATOM      4  C3A BZF d   1       3.434   2.619   0.463  0.00  0.00    -0.107 A 
ATOM      5  C4  BZF d   1       4.028   1.976  -0.585  0.00  0.00     0.055 A 
ATOM      6  C5  BZF d   1       4.565   2.713  -1.593  0.00  0.00    -0.016 A 
ATOM      7  C6  BZF d   1       4.523   4.092  -1.587  0.00  0.00     0.022 A 
ATOM      8  C7  BZF d   1       3.949   4.774  -0.566  0.00  0.00     0.029 A 
ATOM      9  C7A BZF d   1       3.434   4.033   0.470  0.00  0.00     0.058 A 
ENDROOT
TORSDOF 0
ENDMDL
