MODEL 1
REMARK minimizedAffinity -3.20357728
REMARK minimizedRMSD -1
REMARK  0 active torsions:
REMARK  status: ('A' for Active; 'I' for Inactive)
ROOT
ATOM      1  O1  BZF d   1       1.104  -0.147   0.563  0.00  0.00    -0.204 OA
ATOM      2  C2  BZF d   1       1.836   0.082  -0.586  0.00  0.00     0.174 A 
ATOM      3  C3  BZF d   1       1.090  -0.160  -1.684  0.00  0.00    -0.012 A 
ATOM      4  C3A BZF d   1      -0.215  -0.476  -1.191  0.00  0.00    -0.107 A 
ATOM      5  C4  BZF d   1      -1.396  -0.793  -1.797  0.00  0.00     0.055 A 
ATOM      6  C5  BZF d   1      -2.468  -1.119  -1.027  0.00  0.00    -0.016 A 
ATOM      7  C6  BZF d   1      -2.392  -1.142   0.350  0.00  0.00     0.022 A 
ATOM      8  C7  BZF d   1      -1.243  -0.830   0.997  0.00  0.00     0.029 A 
ATOM      9  C7A BZF d   1      -0.167  -0.468   0.223  0.00  0.00     0.058 A 
ENDROOT
TORSDOF 0
ENDMDL
