MODEL 1
REMARK minimizedAffinity -4.07475996
REMARK minimizedRMSD -1
REMARK  0 active torsions:
REMARK  status: ('A' for Active; 'I' for Inactive)
ROOT
ATOM      1  O1  BZF d   1       0.037  -0.498   1.418  0.00  0.00    -0.204 OA
ATOM      2  C2  BZF d   1       1.222  -0.159   0.794  0.00  0.00     0.174 A 
ATOM      3  C3  BZF d   1       1.048  -0.056  -0.539  0.00  0.00    -0.012 A 
ATOM      4  C3A BZF d   1      -0.353  -0.257  -0.753  0.00  0.00    -0.107 A 
ATOM      5  C4  BZF d   1      -1.142  -0.257  -1.867  0.00  0.00     0.055 A 
ATOM      6  C5  BZF d   1      -2.461  -0.560  -1.742  0.00  0.00    -0.016 A 
ATOM      7  C6  BZF d   1      -3.022  -0.871  -0.520  0.00  0.00     0.022 A 
ATOM      8  C7  BZF d   1      -2.280  -0.879   0.614  0.00  0.00     0.029 A 
ATOM      9  C7A BZF d   1      -0.954  -0.541   0.495  0.00  0.00     0.058 A 
ENDROOT
TORSDOF 0
ENDMDL
