MODEL 1
REMARK minimizedAffinity -4.95132828
REMARK minimizedRMSD -1
REMARK  0 active torsions:
REMARK  status: ('A' for Active; 'I' for Inactive)
ROOT
ATOM      1  O1  BZF d   1       0.623  -0.263  -2.004  0.00  0.00    -0.204 OA
ATOM      2  C2  BZF d   1       1.592   0.133  -1.103  0.00  0.00     0.174 A 
ATOM      3  C3  BZF d   1       1.074   0.248   0.137  0.00  0.00    -0.012 A 
ATOM      4  C3A BZF d   1      -0.284  -0.186   0.019  0.00  0.00    -0.107 A 
ATOM      5  C4  BZF d   1      -1.310  -0.315   0.912  0.00  0.00     0.055 A 
ATOM      6  C5  BZF d   1      -2.534  -0.696   0.461  0.00  0.00    -0.016 A 
ATOM      7  C6  BZF d   1      -2.769  -0.952  -0.874  0.00  0.00     0.022 A 
ATOM      8  C7  BZF d   1      -1.781  -0.843  -1.796  0.00  0.00     0.029 A 
ATOM      9  C7A BZF d   1      -0.535  -0.489  -1.339  0.00  0.00     0.058 A 
ENDROOT
TORSDOF 0
ENDMDL
