MODEL 1
REMARK minimizedAffinity -0.682674348
REMARK minimizedRMSD -1
REMARK  0 active torsions:
REMARK  status: ('A' for Active; 'I' for Inactive)
ROOT
ATOM      1  O1  BZF d   1       3.145  -0.521  -1.775  0.00  0.00    -0.204 OA
ATOM      2  C2  BZF d   1       3.034  -0.733  -3.135  0.00  0.00     0.174 A 
ATOM      3  C3  BZF d   1       1.748  -0.631  -3.531  0.00  0.00    -0.012 A 
ATOM      4  C3A BZF d   1       1.023  -0.246  -2.360  0.00  0.00    -0.107 A 
ATOM      5  C4  BZF d   1      -0.293   0.027  -2.117  0.00  0.00     0.055 A 
ATOM      6  C5  BZF d   1      -0.687   0.303  -0.847  0.00  0.00    -0.016 A 
ATOM      7  C6  BZF d   1       0.205   0.310   0.205  0.00  0.00     0.022 A 
ATOM      8  C7  BZF d   1       1.522   0.051   0.013  0.00  0.00     0.029 A 
ATOM      9  C7A BZF d   1       1.929  -0.196  -1.275  0.00  0.00     0.058 A 
ENDROOT
TORSDOF 0
ENDMDL
