MODEL 1
REMARK minimizedAffinity 3.8305614
REMARK minimizedRMSD -1
REMARK  1 active torsions:
REMARK  status: ('A' for Active; 'I' for Inactive)
REMARK    1  A    between atoms: C1_2  and  C2_3 
ROOT
ATOM      1  C2  UNL d   1       0.395  -3.862   0.910  0.00  0.00    -0.077 A 
ATOM      2  C3  UNL d   1       1.639  -3.225   1.025  0.00  0.00     0.002 A 
ATOM      3  C4  UNL d   1       1.869  -2.003   0.390  0.00  0.00     0.002 A 
ATOM      4  C5  UNL d   1       0.858  -1.406  -0.360  0.00  0.00    -0.004 A 
ATOM      5  C6  UNL d   1      -0.381  -2.032  -0.483  0.00  0.00     0.002 A 
ATOM      6  C7  UNL d   1      -0.612  -3.254   0.151  0.00  0.00     0.002 A 
ENDROOT
BRANCH   1   7
ATOM      7  C1  UNL d   1       0.130  -5.156   1.635  0.00  0.00     0.055 C 
ATOM      8  C   UNL d   1       1.391  -6.000   1.741  0.00  0.00     0.019 C 
ENDBRANCH   1   7
TORSDOF 1
ENDMDL
