MODEL 1
REMARK minimizedAffinity 3.84841967
REMARK minimizedRMSD -1
REMARK  1 active torsions:
REMARK  status: ('A' for Active; 'I' for Inactive)
REMARK    1  A    between atoms: C1_2  and  C2_3 
ROOT
ATOM      1  C2  UNL d   1       1.099   0.306  -2.604  0.00  0.00    -0.077 A 
ATOM      2  C3  UNL d   1       0.879  -0.785  -1.751  0.00  0.00     0.002 A 
ATOM      3  C4  UNL d   1       1.074  -2.090  -2.207  0.00  0.00     0.002 A 
ATOM      4  C5  UNL d   1       1.493  -2.316  -3.517  0.00  0.00    -0.004 A 
ATOM      5  C6  UNL d   1       1.712  -1.238  -4.374  0.00  0.00     0.002 A 
ATOM      6  C7  UNL d   1       1.517   0.067  -3.920  0.00  0.00     0.002 A 
ENDROOT
BRANCH   1   7
ATOM      7  C1  UNL d   1       0.937   1.716  -2.099  0.00  0.00     0.055 C 
ATOM      8  C   UNL d   1       1.166   1.795  -0.597  0.00  0.00     0.019 C 
ENDBRANCH   1   7
TORSDOF 1
ENDMDL
