MODEL 1
REMARK minimizedAffinity 4.9120636
REMARK minimizedRMSD -1
REMARK  1 active torsions:
REMARK  status: ('A' for Active; 'I' for Inactive)
REMARK    1  A    between atoms: C1_2  and  C2_3 
ROOT
ATOM      1  C2  UNL d   1      -4.023   1.133   5.099  0.00  0.00    -0.077 A 
ATOM      2  C3  UNL d   1      -2.658   0.821   5.016  0.00  0.00     0.002 A 
ATOM      3  C4  UNL d   1      -2.213  -0.177   4.148  0.00  0.00     0.002 A 
ATOM      4  C5  UNL d   1      -3.125  -0.869   3.353  0.00  0.00    -0.004 A 
ATOM      5  C6  UNL d   1      -4.484  -0.568   3.429  0.00  0.00     0.002 A 
ATOM      6  C7  UNL d   1      -4.931   0.429   4.298  0.00  0.00     0.002 A 
ENDROOT
BRANCH   1   7
ATOM      7  C1  UNL d   1      -4.499   2.243   5.998  0.00  0.00     0.055 C 
ATOM      8  C   UNL d   1      -4.094   3.606   5.457  0.00  0.00     0.019 C 
ENDBRANCH   1   7
TORSDOF 1
ENDMDL
