MODEL 1
REMARK minimizedAffinity 0.171477273
REMARK minimizedRMSD -1
REMARK  1 active torsions:
REMARK  status: ('A' for Active; 'I' for Inactive)
REMARK    1  A    between atoms: C1_2  and  C2_3 
ROOT
ATOM      1  C2  UNL d   1       1.196  -0.656  -2.637  0.00  0.00    -0.077 A 
ATOM      2  C3  UNL d   1       1.481  -0.017  -3.852  0.00  0.00     0.002 A 
ATOM      3  C4  UNL d   1       1.213   1.344  -4.013  0.00  0.00     0.002 A 
ATOM      4  C5  UNL d   1       0.663   2.077  -2.964  0.00  0.00    -0.004 A 
ATOM      5  C6  UNL d   1       0.374   1.450  -1.753  0.00  0.00     0.002 A 
ATOM      6  C7  UNL d   1       0.640   0.090  -1.590  0.00  0.00     0.002 A 
ENDROOT
BRANCH   1   7
ATOM      7  C1  UNL d   1       1.530  -2.112  -2.444  0.00  0.00     0.055 C 
ATOM      8  C   UNL d   1       0.791  -2.987  -3.446  0.00  0.00     0.019 C 
ENDBRANCH   1   7
TORSDOF 1
ENDMDL
