MODEL 1
REMARK minimizedAffinity 0.0503214337
REMARK minimizedRMSD -1
REMARK  1 active torsions:
REMARK  status: ('A' for Active; 'I' for Inactive)
REMARK    1  A    between atoms: C1_2  and  C2_3 
ROOT
ATOM      1  C2  UNL d   1       1.047  -0.402  -1.461  0.00  0.00    -0.077 A 
ATOM      2  C3  UNL d   1       1.492  -0.720  -2.752  0.00  0.00     0.002 A 
ATOM      3  C4  UNL d   1       1.451   0.236  -3.769  0.00  0.00     0.002 A 
ATOM      4  C5  UNL d   1       0.969   1.517  -3.504  0.00  0.00    -0.004 A 
ATOM      5  C6  UNL d   1       0.522   1.842  -2.224  0.00  0.00     0.002 A 
ATOM      6  C7  UNL d   1       0.562   0.887  -1.207  0.00  0.00     0.002 A 
ENDROOT
BRANCH   1   7
ATOM      7  C1  UNL d   1       1.137  -1.417  -0.351  0.00  0.00     0.055 C 
ATOM      8  C   UNL d   1      -0.179  -1.529   0.404  0.00  0.00     0.019 C 
ENDBRANCH   1   7
TORSDOF 1
ENDMDL
