MODEL 1
REMARK minimizedAffinity -0.634588182
REMARK minimizedRMSD -1
REMARK  1 active torsions:
REMARK  status: ('A' for Active; 'I' for Inactive)
REMARK    1  A    between atoms: C1_2  and  C2_3 
ROOT
ATOM      1  C2  UNL d   1       0.486  -1.329  -1.206  0.00  0.00    -0.077 A 
ATOM      2  C3  UNL d   1       0.101  -0.069  -0.727  0.00  0.00     0.002 A 
ATOM      3  C4  UNL d   1       0.517   1.093  -1.380  0.00  0.00     0.002 A 
ATOM      4  C5  UNL d   1       1.318   1.006  -2.517  0.00  0.00    -0.004 A 
ATOM      5  C6  UNL d   1       1.709  -0.242  -3.000  0.00  0.00     0.002 A 
ATOM      6  C7  UNL d   1       1.294  -1.405  -2.348  0.00  0.00     0.002 A 
ENDROOT
BRANCH   1   7
ATOM      7  C1  UNL d   1      -0.002  -2.584  -0.532  0.00  0.00     0.055 C 
ATOM      8  C   UNL d   1      -1.178  -2.295   0.391  0.00  0.00     0.019 C 
ENDBRANCH   1   7
TORSDOF 1
ENDMDL
