MODEL 1
REMARK minimizedAffinity 3.78251433
REMARK minimizedRMSD -1
REMARK  1 active torsions:
REMARK  status: ('A' for Active; 'I' for Inactive)
REMARK    1  A    between atoms: C1_2  and  C2_3 
ROOT
ATOM      1  C2  UNL d   1       5.389   2.794  -4.612  0.00  0.00    -0.077 A 
ATOM      2  C3  UNL d   1       5.340   2.177  -5.870  0.00  0.00     0.002 A 
ATOM      3  C4  UNL d   1       5.621   0.816  -6.000  0.00  0.00     0.002 A 
ATOM      4  C5  UNL d   1       5.947   0.059  -4.876  0.00  0.00    -0.004 A 
ATOM      5  C6  UNL d   1       6.000   0.664  -3.621  0.00  0.00     0.002 A 
ATOM      6  C7  UNL d   1       5.721   2.025  -3.489  0.00  0.00     0.002 A 
ENDROOT
BRANCH   1   7
ATOM      7  C1  UNL d   1       5.039   4.252  -4.462  0.00  0.00     0.055 C 
ATOM      8  C   UNL d   1       3.535   4.470  -4.529  0.00  0.00     0.019 C 
ENDBRANCH   1   7
TORSDOF 1
ENDMDL
