MODEL 1
REMARK minimizedAffinity 0.881343603
REMARK minimizedRMSD -1
REMARK  1 active torsions:
REMARK  status: ('A' for Active; 'I' for Inactive)
REMARK    1  A    between atoms: C1_2  and  C2_3 
ROOT
ATOM      1  C2  UNL d   1       1.074  -0.622  -2.155  0.00  0.00    -0.077 A 
ATOM      2  C3  UNL d   1       1.345  -0.216  -3.469  0.00  0.00     0.002 A 
ATOM      3  C4  UNL d   1       1.601  -1.163  -4.463  0.00  0.00     0.002 A 
ATOM      4  C5  UNL d   1       1.585  -2.521  -4.154  0.00  0.00    -0.004 A 
ATOM      5  C6  UNL d   1       1.318  -2.935  -2.849  0.00  0.00     0.002 A 
ATOM      6  C7  UNL d   1       1.063  -1.990  -1.855  0.00  0.00     0.002 A 
ENDROOT
BRANCH   1   7
ATOM      7  C1  UNL d   1       0.749   0.395  -1.093  0.00  0.00     0.055 C 
ATOM      8  C   UNL d   1       0.349   1.729  -1.707  0.00  0.00     0.019 C 
ENDBRANCH   1   7
TORSDOF 1
ENDMDL
