MODEL 1
REMARK minimizedAffinity 3.82563925
REMARK minimizedRMSD -1
REMARK  1 active torsions:
REMARK  status: ('A' for Active; 'I' for Inactive)
REMARK    1  A    between atoms: C1_2  and  C2_3 
ROOT
ATOM      1  C2  UNL d   1      -3.596   1.307   5.578  0.00  0.00    -0.077 A 
ATOM      2  C3  UNL d   1      -4.515   0.333   5.994  0.00  0.00     0.002 A 
ATOM      3  C4  UNL d   1      -4.333  -1.005   5.640  0.00  0.00     0.002 A 
ATOM      4  C5  UNL d   1      -3.232  -1.382   4.873  0.00  0.00    -0.004 A 
ATOM      5  C6  UNL d   1      -2.314  -0.420   4.453  0.00  0.00     0.002 A 
ATOM      6  C7  UNL d   1      -2.495   0.918   4.805  0.00  0.00     0.002 A 
ENDROOT
BRANCH   1   7
ATOM      7  C1  UNL d   1      -3.764   2.744   6.000  0.00  0.00     0.055 C 
ATOM      8  C   UNL d   1      -3.424   3.697   4.864  0.00  0.00     0.019 C 
ENDBRANCH   1   7
TORSDOF 1
ENDMDL
