MODEL 1
REMARK minimizedAffinity 2.9077611
REMARK minimizedRMSD -1
REMARK  1 active torsions:
REMARK  status: ('A' for Active; 'I' for Inactive)
REMARK    1  A    between atoms: C1_2  and  C2_3 
ROOT
ATOM      1  C2  UNL d   1       1.171  -0.648  -1.955  0.00  0.00    -0.077 A 
ATOM      2  C3  UNL d   1       1.734  -0.251  -3.177  0.00  0.00     0.002 A 
ATOM      3  C4  UNL d   1       1.877  -1.168  -4.219  0.00  0.00     0.002 A 
ATOM      4  C5  UNL d   1       1.458  -2.486  -4.053  0.00  0.00    -0.004 A 
ATOM      5  C6  UNL d   1       0.899  -2.892  -2.841  0.00  0.00     0.002 A 
ATOM      6  C7  UNL d   1       0.756  -1.976  -1.797  0.00  0.00     0.002 A 
ENDROOT
BRANCH   1   7
ATOM      7  C1  UNL d   1       0.970   0.352  -0.846  0.00  0.00     0.055 C 
ATOM      8  C   UNL d   1       0.228   1.585  -1.341  0.00  0.00     0.019 C 
ENDBRANCH   1   7
TORSDOF 1
ENDMDL
