MODEL 1
REMARK minimizedAffinity -1.61177337
REMARK minimizedRMSD -1
REMARK  1 active torsions:
REMARK  status: ('A' for Active; 'I' for Inactive)
REMARK    1  A    between atoms: C1_2  and  C2_3 
ROOT
ATOM      1  C2  UNL d   1       2.242   0.665  -3.513  0.00  0.00    -0.077 A 
ATOM      2  C3  UNL d   1       1.293   1.644  -3.188  0.00  0.00     0.002 A 
ATOM      3  C4  UNL d   1       0.438   1.464  -2.099  0.00  0.00     0.002 A 
ATOM      4  C5  UNL d   1       0.527   0.310  -1.324  0.00  0.00    -0.004 A 
ATOM      5  C6  UNL d   1       1.467  -0.670  -1.640  0.00  0.00     0.002 A 
ATOM      6  C7  UNL d   1       2.321  -0.493  -2.729  0.00  0.00     0.002 A 
ENDROOT
BRANCH   1   7
ATOM      7  C1  UNL d   1       3.198   0.879  -4.658  0.00  0.00     0.055 C 
ATOM      8  C   UNL d   1       4.644   0.865  -4.182  0.00  0.00     0.019 C 
ENDBRANCH   1   7
TORSDOF 1
ENDMDL
