MODEL 1
REMARK minimizedAffinity 15.1566076
REMARK minimizedRMSD -1
REMARK  0 active torsions:
REMARK  status: ('A' for Active; 'I' for Inactive)
ROOT
ATOM      1  C   UNL d   1       0.923   6.000  -0.485  0.00  0.00    -0.002 A 
ATOM      2  C1  UNL d   1       0.244   5.338  -1.499  0.00  0.00     0.010 A 
ATOM      3  C2  UNL d   1      -0.343   4.093  -1.266  0.00  0.00     0.041 A 
ATOM      4  C3  UNL d   1      -0.237   3.519   0.016  0.00  0.00    -0.075 A 
ATOM      5  S   UNL d   1      -0.877   2.004   0.533  0.00  0.00     0.015 SA
ATOM      6  C4  UNL d   1      -0.266   2.200   2.112  0.00  0.00     0.022 A 
ATOM      7  C5  UNL d   1       0.413   3.386   2.259  0.00  0.00     0.026 A 
ATOM      8  C6  UNL d   1       0.441   4.166   1.054  0.00  0.00    -0.082 A 
ATOM      9  C7  UNL d   1       1.026   5.427   0.785  0.00  0.00     0.045 A 
ENDROOT
TORSDOF 0
ENDMDL
