MODEL 1
REMARK minimizedAffinity 16.373024
REMARK minimizedRMSD -1
REMARK  0 active torsions:
REMARK  status: ('A' for Active; 'I' for Inactive)
ROOT
ATOM      1  C   UNL d   1       1.553  -1.322   4.238  0.00  0.00    -0.002 A 
ATOM      2  C1  UNL d   1       2.556  -0.971   3.346  0.00  0.00     0.010 A 
ATOM      3  C2  UNL d   1       2.470   0.213   2.610  0.00  0.00     0.041 A 
ATOM      4  C3  UNL d   1       1.349   1.048   2.791  0.00  0.00    -0.075 A 
ATOM      5  S   UNL d   1       1.031   2.546   1.999  0.00  0.00     0.015 SA
ATOM      6  C4  UNL d   1      -0.443   2.756   2.829  0.00  0.00     0.022 A 
ATOM      7  C5  UNL d   1      -0.702   1.718   3.692  0.00  0.00     0.026 A 
ATOM      8  C6  UNL d   1       0.327   0.716   3.684  0.00  0.00    -0.082 A 
ATOM      9  C7  UNL d   1       0.443  -0.491   4.414  0.00  0.00     0.045 A 
ENDROOT
TORSDOF 0
ENDMDL
