MODEL 1
REMARK minimizedAffinity 8.76145935
REMARK minimizedRMSD -1
REMARK  0 active torsions:
REMARK  status: ('A' for Active; 'I' for Inactive)
ROOT
ATOM      1  C   UNL d   1       2.839   3.530   2.994  0.00  0.00    -0.002 A 
ATOM      2  C1  UNL d   1       1.858   2.614   3.344  0.00  0.00     0.010 A 
ATOM      3  C2  UNL d   1       0.682   2.511   2.598  0.00  0.00     0.041 A 
ATOM      4  C3  UNL d   1       0.508   3.353   1.481  0.00  0.00    -0.075 A 
ATOM      5  S   UNL d   1      -0.849   3.404   0.420  0.00  0.00     0.015 SA
ATOM      6  C4  UNL d   1      -0.158   4.643  -0.525  0.00  0.00     0.022 A 
ATOM      7  C5  UNL d   1       1.078   5.021  -0.056  0.00  0.00     0.026 A 
ATOM      8  C6  UNL d   1       1.483   4.283   1.108  0.00  0.00    -0.082 A 
ATOM      9  C7  UNL d   1       2.663   4.363   1.885  0.00  0.00     0.045 A 
ENDROOT
TORSDOF 0
ENDMDL
