MODEL 1
REMARK minimizedAffinity 14.8875885
REMARK minimizedRMSD -1
REMARK  0 active torsions:
REMARK  status: ('A' for Active; 'I' for Inactive)
ROOT
ATOM      1  C   UNL d   1      -0.452   5.709  -1.322  0.00  0.00    -0.002 A 
ATOM      2  C1  UNL d   1       0.928   5.834  -1.254  0.00  0.00     0.010 A 
ATOM      3  C2  UNL d   1       1.670   5.043  -0.374  0.00  0.00     0.041 A 
ATOM      4  C3  UNL d   1       0.996   4.114   0.441  0.00  0.00    -0.075 A 
ATOM      5  S   UNL d   1       1.698   3.039   1.592  0.00  0.00     0.015 SA
ATOM      6  C4  UNL d   1       0.182   2.387   2.019  0.00  0.00     0.022 A 
ATOM      7  C5  UNL d   1      -0.845   2.964   1.311  0.00  0.00     0.026 A 
ATOM      8  C6  UNL d   1      -0.393   3.968   0.390  0.00  0.00    -0.082 A 
ATOM      9  C7  UNL d   1      -1.118   4.785  -0.511  0.00  0.00     0.045 A 
ENDROOT
TORSDOF 0
ENDMDL
