MODEL 1
REMARK minimizedAffinity 2.52830625
REMARK minimizedRMSD -1
REMARK  2 active torsions:
REMARK  status: ('A' for Active; 'I' for Inactive)
REMARK    1  A    between atoms: C2'_3  and  C1'_4 
REMARK    2  A    between atoms: C1'_4  and  C1_5 
ROOT
ATOM      1  C1  I4B d   1      -2.461  -0.229   4.380  0.00  0.00    -0.075 A 
ATOM      2  C2  I4B d   1      -2.497  -1.240   5.308  0.00  0.00     0.003 A 
ATOM      3  C3  I4B d   1      -3.700  -1.532   5.997  0.00  0.00     0.002 A 
ATOM      4  C4  I4B d   1      -4.820  -0.761   5.765  0.00  0.00    -0.004 A 
ATOM      5  C5  I4B d   1      -4.788   0.248   4.807  0.00  0.00     0.002 A 
ATOM      6  C6  I4B d   1      -3.604   0.508   4.101  0.00  0.00     0.003 A 
ENDROOT
BRANCH   1   7
ATOM      7  C1' I4B d   1      -1.166   0.074   3.695  0.00  0.00     0.060 C 
BRANCH   7   8
ATOM      8  C2' I4B d   1      -1.343   1.357   2.909  0.00  0.00    -0.013 C 
ATOM      9  C4' I4B d   1      -0.310   2.382   3.299  0.00  0.00     0.013 C 
ATOM     10  C3' I4B d   1      -1.250   1.022   1.450  0.00  0.00     0.013 C 
ENDBRANCH   7   8
ENDBRANCH   1   7
TORSDOF 2
ENDMDL
