MODEL 1
REMARK minimizedAffinity 3.91120481
REMARK minimizedRMSD -1
REMARK  2 active torsions:
REMARK  status: ('A' for Active; 'I' for Inactive)
REMARK    1  A    between atoms: C2'_3  and  C1'_4 
REMARK    2  A    between atoms: C1'_4  and  C1_5 
ROOT
ATOM      1  C1  I4B d   1      -4.138   4.863   3.632  0.00  0.00    -0.075 A 
ATOM      2  C2  I4B d   1      -5.254   4.102   3.877  0.00  0.00     0.003 A 
ATOM      3  C3  I4B d   1      -5.999   4.293   5.066  0.00  0.00     0.002 A 
ATOM      4  C4  I4B d   1      -5.567   5.214   5.999  0.00  0.00    -0.004 A 
ATOM      5  C5  I4B d   1      -4.448   6.000   5.738  0.00  0.00     0.002 A 
ATOM      6  C6  I4B d   1      -3.736   5.832   4.541  0.00  0.00     0.003 A 
ENDROOT
BRANCH   1   7
ATOM      7  C1' I4B d   1      -3.356   4.612   2.381  0.00  0.00     0.060 C 
BRANCH   7   8
ATOM      8  C2' I4B d   1      -2.606   3.307   2.554  0.00  0.00    -0.013 C 
ATOM      9  C4' I4B d   1      -2.951   2.332   1.459  0.00  0.00     0.013 C 
ATOM     10  C3' I4B d   1      -1.139   3.613   2.563  0.00  0.00     0.013 C 
ENDBRANCH   7   8
ENDBRANCH   1   7
TORSDOF 2
ENDMDL
