MODEL 1
REMARK minimizedAffinity 6.50688076
REMARK minimizedRMSD -1
REMARK  2 active torsions:
REMARK  status: ('A' for Active; 'I' for Inactive)
REMARK    1  A    between atoms: C2'_3  and  C1'_4 
REMARK    2  A    between atoms: C1'_4  and  C1_5 
ROOT
ATOM      1  C1  I4B d   1      -5.717   2.529   4.601  0.00  0.00    -0.075 A 
ATOM      2  C2  I4B d   1      -5.973   1.940   5.814  0.00  0.00     0.003 A 
ATOM      3  C3  I4B d   1      -5.746   0.555   5.996  0.00  0.00     0.002 A 
ATOM      4  C4  I4B d   1      -5.313  -0.209   4.931  0.00  0.00    -0.004 A 
ATOM      5  C5  I4B d   1      -5.033   0.394   3.708  0.00  0.00     0.002 A 
ATOM      6  C6  I4B d   1      -5.224   1.774   3.545  0.00  0.00     0.003 A 
ENDROOT
BRANCH   1   7
ATOM      7  C1' I4B d   1      -5.999   3.989   4.434  0.00  0.00     0.060 C 
BRANCH   7   8
ATOM      8  C2' I4B d   1      -4.897   4.760   5.132  0.00  0.00    -0.013 C 
ATOM      9  C4' I4B d   1      -3.953   5.382   4.138  0.00  0.00     0.013 C 
ATOM     10  C3' I4B d   1      -5.539   5.805   5.996  0.00  0.00     0.013 C 
ENDBRANCH   7   8
ENDBRANCH   1   7
TORSDOF 2
ENDMDL
