MODEL 1
REMARK minimizedAffinity 11.6640329
REMARK minimizedRMSD -1
REMARK  2 active torsions:
REMARK  status: ('A' for Active; 'I' for Inactive)
REMARK    1  A    between atoms: C2'_3  and  C1'_4 
REMARK    2  A    between atoms: C1'_4  and  C1_5 
ROOT
ATOM      1  C1  I4B d   1      -5.424   3.336   5.052  0.00  0.00    -0.075 A 
ATOM      2  C2  I4B d   1      -4.438   3.687   4.164  0.00  0.00     0.003 A 
ATOM      3  C3  I4B d   1      -3.901   4.997   4.177  0.00  0.00     0.002 A 
ATOM      4  C4  I4B d   1      -4.410   5.932   5.054  0.00  0.00    -0.004 A 
ATOM      5  C5  I4B d   1      -5.394   5.568   5.969  0.00  0.00     0.002 A 
ATOM      6  C6  I4B d   1      -5.896   4.258   5.977  0.00  0.00     0.003 A 
ENDROOT
BRANCH   1   7
ATOM      7  C1' I4B d   1      -5.992   1.953   4.989  0.00  0.00     0.060 C 
BRANCH   7   8
ATOM      8  C2' I4B d   1      -4.896   1.020   4.516  0.00  0.00    -0.013 C 
ATOM      9  C4' I4B d   1      -4.704  -0.126   5.475  0.00  0.00     0.013 C 
ATOM     10  C3' I4B d   1      -5.267   0.525   3.150  0.00  0.00     0.013 C 
ENDBRANCH   7   8
ENDBRANCH   1   7
TORSDOF 2
ENDMDL
