MODEL 1
REMARK minimizedAffinity 4.12599659
REMARK minimizedRMSD -1
REMARK  2 active torsions:
REMARK  status: ('A' for Active; 'I' for Inactive)
REMARK    1  A    between atoms: C2'_3  and  C1'_4 
REMARK    2  A    between atoms: C1'_4  and  C1_5 
ROOT
ATOM      1  C1  I4B d   1       3.365  -4.821   1.725  0.00  0.00    -0.075 A 
ATOM      2  C2  I4B d   1       3.970  -6.000   2.081  0.00  0.00     0.003 A 
ATOM      3  C3  I4B d   1       5.300  -6.000   2.566  0.00  0.00     0.002 A 
ATOM      4  C4  I4B d   1       6.000  -4.812   2.632  0.00  0.00    -0.004 A 
ATOM      5  C5  I4B d   1       5.376  -3.615   2.292  0.00  0.00     0.002 A 
ATOM      6  C6  I4B d   1       4.046  -3.617   1.848  0.00  0.00     0.003 A 
ENDROOT
BRANCH   1   7
ATOM      7  C1' I4B d   1       1.970  -4.861   1.185  0.00  0.00     0.060 C 
BRANCH   7   8
ATOM      8  C2' I4B d   1       1.016  -4.917   2.360  0.00  0.00    -0.013 C 
ATOM      9  C4' I4B d   1       1.408  -5.999   3.330  0.00  0.00     0.013 C 
ATOM     10  C3' I4B d   1       1.017  -3.571   3.021  0.00  0.00     0.013 C 
ENDBRANCH   7   8
ENDBRANCH   1   7
TORSDOF 2
ENDMDL
