MODEL 1
REMARK minimizedAffinity 13.3742781
REMARK minimizedRMSD -1
REMARK  2 active torsions:
REMARK  status: ('A' for Active; 'I' for Inactive)
REMARK    1  A    between atoms: C2'_3  and  C1'_4 
REMARK    2  A    between atoms: C1'_4  and  C1_5 
ROOT
ATOM      1  C1  I4B d   1      -2.451  -0.443   1.242  0.00  0.00    -0.075 A 
ATOM      2  C2  I4B d   1      -1.584  -1.491   1.060  0.00  0.00     0.003 A 
ATOM      3  C3  I4B d   1      -2.046  -2.712   0.512  0.00  0.00     0.002 A 
ATOM      4  C4  I4B d   1      -3.385  -2.857   0.209  0.00  0.00    -0.004 A 
ATOM      5  C5  I4B d   1      -4.258  -1.786   0.372  0.00  0.00     0.002 A 
ATOM      6  C6  I4B d   1      -3.787  -0.566   0.880  0.00  0.00     0.003 A 
ENDROOT
BRANCH   1   7
ATOM      7  C1' I4B d   1      -1.936   0.821   1.854  0.00  0.00     0.060 C 
BRANCH   7   8
ATOM      8  C2' I4B d   1      -0.446   0.660   2.074  0.00  0.00    -0.013 C 
ATOM      9  C4' I4B d   1       0.177   1.945   2.554  0.00  0.00     0.013 C 
ATOM     10  C3' I4B d   1      -0.242  -0.445   3.068  0.00  0.00     0.013 C 
ENDBRANCH   7   8
ENDBRANCH   1   7
TORSDOF 2
ENDMDL
