MODEL 1
REMARK minimizedAffinity 11.8424196
REMARK minimizedRMSD -1
REMARK  2 active torsions:
REMARK  status: ('A' for Active; 'I' for Inactive)
REMARK    1  A    between atoms: C2'_3  and  C1'_4 
REMARK    2  A    between atoms: C1'_4  and  C1_5 
ROOT
ATOM      1  C1  I4B d   1      -0.281  -0.590  -5.233  0.00  0.00    -0.075 A 
ATOM      2  C2  I4B d   1      -1.533  -0.028  -5.210  0.00  0.00     0.003 A 
ATOM      3  C3  I4B d   1      -2.666  -0.797  -5.572  0.00  0.00     0.002 A 
ATOM      4  C4  I4B d   1      -2.496  -2.099  -5.998  0.00  0.00    -0.004 A 
ATOM      5  C5  I4B d   1      -1.228  -2.673  -5.999  0.00  0.00     0.002 A 
ATOM      6  C6  I4B d   1      -0.115  -1.918  -5.603  0.00  0.00     0.003 A 
ENDROOT
BRANCH   1   7
ATOM      7  C1' I4B d   1       0.897   0.260  -4.876  0.00  0.00     0.060 C 
BRANCH   7   8
ATOM      8  C2' I4B d   1       1.879  -0.602  -4.110  0.00  0.00    -0.013 C 
ATOM      9  C4' I4B d   1       3.221  -0.637  -4.792  0.00  0.00     0.013 C 
ATOM     10  C3' I4B d   1       1.993  -0.050  -2.720  0.00  0.00     0.013 C 
ENDBRANCH   7   8
ENDBRANCH   1   7
TORSDOF 2
ENDMDL
