MODEL 1
REMARK minimizedAffinity 10.4797859
REMARK minimizedRMSD -1
REMARK  2 active torsions:
REMARK  status: ('A' for Active; 'I' for Inactive)
REMARK    1  A    between atoms: C2'_3  and  C1'_4 
REMARK    2  A    between atoms: C1'_4  and  C1_5 
ROOT
ATOM      1  C1  I4B d   1      -3.321   0.142   1.365  0.00  0.00    -0.075 A 
ATOM      2  C2  I4B d   1      -3.341  -1.228   1.288  0.00  0.00     0.003 A 
ATOM      3  C3  I4B d   1      -4.318  -1.884   0.500  0.00  0.00     0.002 A 
ATOM      4  C4  I4B d   1      -5.282  -1.137  -0.147  0.00  0.00    -0.004 A 
ATOM      5  C5  I4B d   1      -5.247   0.253  -0.085  0.00  0.00     0.002 A 
ATOM      6  C6  I4B d   1      -4.253   0.897   0.665  0.00  0.00     0.003 A 
ENDROOT
BRANCH   1   7
ATOM      7  C1' I4B d   1      -2.295   0.800   2.232  0.00  0.00     0.060 C 
BRANCH   7   8
ATOM      8  C2' I4B d   1      -0.993   0.043   2.071  0.00  0.00    -0.013 C 
ATOM      9  C4' I4B d   1      -0.412   0.245   0.696  0.00  0.00     0.013 C 
ATOM     10  C3' I4B d   1      -0.047   0.517   3.133  0.00  0.00     0.013 C 
ENDBRANCH   7   8
ENDBRANCH   1   7
TORSDOF 2
ENDMDL
