MODEL 1
REMARK minimizedAffinity 6.82482767
REMARK minimizedRMSD -1
REMARK  2 active torsions:
REMARK  status: ('A' for Active; 'I' for Inactive)
REMARK    1  A    between atoms: C2'_3  and  C1'_4 
REMARK    2  A    between atoms: C1'_4  and  C1_5 
ROOT
ATOM      1  C1  I4B d   1      -2.261   0.571   2.300  0.00  0.00    -0.075 A 
ATOM      2  C2  I4B d   1      -3.072   0.380   1.209  0.00  0.00     0.003 A 
ATOM      3  C3  I4B d   1      -4.461   0.165   1.382  0.00  0.00     0.002 A 
ATOM      4  C4  I4B d   1      -4.985   0.100   2.657  0.00  0.00    -0.004 A 
ATOM      5  C5  I4B d   1      -4.165   0.317   3.761  0.00  0.00     0.002 A 
ATOM      6  C6  I4B d   1      -2.797   0.567   3.581  0.00  0.00     0.003 A 
ENDROOT
BRANCH   1   7
ATOM      7  C1' I4B d   1      -0.794   0.761   2.083  0.00  0.00     0.060 C 
BRANCH   7   8
ATOM      8  C2' I4B d   1      -0.067   0.207   3.291  0.00  0.00    -0.013 C 
ATOM      9  C4' I4B d   1       0.018  -1.296   3.234  0.00  0.00     0.013 C 
ATOM     10  C3' I4B d   1       1.299   0.825   3.334  0.00  0.00     0.013 C 
ENDBRANCH   7   8
ENDBRANCH   1   7
TORSDOF 2
ENDMDL
