MODEL 1
REMARK minimizedAffinity 14.7686176
REMARK minimizedRMSD -1
REMARK  2 active torsions:
REMARK  status: ('A' for Active; 'I' for Inactive)
REMARK    1  A    between atoms: C2'_3  and  C1'_4 
REMARK    2  A    between atoms: C1'_4  and  C1_5 
ROOT
ATOM      1  C1  I4B d   1      -4.426   0.207   3.366  0.00  0.00    -0.075 A 
ATOM      2  C2  I4B d   1      -5.166  -0.575   2.514  0.00  0.00     0.003 A 
ATOM      3  C3  I4B d   1      -4.794  -0.695   1.153  0.00  0.00     0.002 A 
ATOM      4  C4  I4B d   1      -3.713   0.020   0.678  0.00  0.00    -0.004 A 
ATOM      5  C5  I4B d   1      -2.951   0.794   1.548  0.00  0.00     0.002 A 
ATOM      6  C6  I4B d   1      -3.302   0.879   2.904  0.00  0.00     0.003 A 
ENDROOT
BRANCH   1   7
ATOM      7  C1' I4B d   1      -4.866   0.337   4.790  0.00  0.00     0.060 C 
BRANCH   7   8
ATOM      8  C2' I4B d   1      -5.982   1.361   4.842  0.00  0.00    -0.013 C 
ATOM      9  C4' I4B d   1      -5.796   2.311   5.995  0.00  0.00     0.013 C 
ATOM     10  C3' I4B d   1      -5.999   2.094   3.533  0.00  0.00     0.013 C 
ENDBRANCH   7   8
ENDBRANCH   1   7
TORSDOF 2
ENDMDL
