MODEL 1
REMARK minimizedAffinity 12.5692387
REMARK minimizedRMSD -1
REMARK  2 active torsions:
REMARK  status: ('A' for Active; 'I' for Inactive)
REMARK    1  A    between atoms: C2'_3  and  C1'_4 
REMARK    2  A    between atoms: C1'_4  and  C1_5 
ROOT
ATOM      1  C1  I4B d   1      -1.498   1.004   2.070  0.00  0.00    -0.075 A 
ATOM      2  C2  I4B d   1      -0.521   1.932   1.811  0.00  0.00     0.003 A 
ATOM      3  C3  I4B d   1       0.821   1.677   2.184  0.00  0.00     0.002 A 
ATOM      4  C4  I4B d   1       1.131   0.511   2.853  0.00  0.00    -0.004 A 
ATOM      5  C5  I4B d   1       0.142  -0.439   3.094  0.00  0.00     0.002 A 
ATOM      6  C6  I4B d   1      -1.178  -0.197   2.689  0.00  0.00     0.003 A 
ENDROOT
BRANCH   1   7
ATOM      7  C1' I4B d   1      -2.911   1.321   1.693  0.00  0.00     0.060 C 
BRANCH   7   8
ATOM      8  C2' I4B d   1      -3.816   0.337   2.407  0.00  0.00    -0.013 C 
ATOM      9  C4' I4B d   1      -4.345   0.916   3.693  0.00  0.00     0.013 C 
ATOM     10  C3' I4B d   1      -4.935  -0.023   1.475  0.00  0.00     0.013 C 
ENDBRANCH   7   8
ENDBRANCH   1   7
TORSDOF 2
ENDMDL
