MODEL 1
REMARK minimizedAffinity 1.21589088
REMARK minimizedRMSD -1
REMARK  0 active torsions:
REMARK  status: ('A' for Active; 'I' for Inactive)
ROOT
ATOM      1  N1  IND d   1       1.229  -4.001   0.167  0.00  0.00    -0.196 N 
ATOM      2  C2  IND d   1       2.542  -3.844  -0.179  0.00  0.00     0.054 A 
ATOM      3  C3  IND d   1       2.964  -2.597   0.130  0.00  0.00    -0.031 A 
ATOM      4  C4  IND d   1       1.698  -0.685   1.301  0.00  0.00     0.051 A 
ATOM      5  C5  IND d   1       0.463  -0.342   1.773  0.00  0.00    -0.031 A 
ATOM      6  C6  IND d   1      -0.602  -1.220   1.737  0.00  0.00     0.015 A 
ATOM      7  C7  IND d   1      -0.466  -2.483   1.234  0.00  0.00    -0.016 A 
ATOM      8  C8  IND d   1       0.785  -2.832   0.746  0.00  0.00    -0.047 A 
ATOM      9  C9  IND d   1       1.858  -1.931   0.742  0.00  0.00    -0.096 A 
ATOM     10  HN1 IND d   1       0.758  -4.710   0.043  0.00  0.00     0.298 HD
ENDROOT
TORSDOF 0
ENDMDL
