MODEL 1
REMARK minimizedAffinity 2.0281415
REMARK minimizedRMSD -1
REMARK  0 active torsions:
REMARK  status: ('A' for Active; 'I' for Inactive)
ROOT
ATOM      1  N1  IND d   1      -1.159   4.599  -4.149  0.00  0.00    -0.196 N 
ATOM      2  C2  IND d   1      -0.820   3.863  -5.250  0.00  0.00     0.054 A 
ATOM      3  C3  IND d   1      -1.658   2.812  -5.390  0.00  0.00    -0.031 A 
ATOM      4  C4  IND d   1      -3.717   2.164  -3.987  0.00  0.00     0.051 A 
ATOM      5  C5  IND d   1      -4.404   2.511  -2.858  0.00  0.00    -0.031 A 
ATOM      6  C6  IND d   1      -4.039   3.596  -2.087  0.00  0.00     0.015 A 
ATOM      7  C7  IND d   1      -2.975   4.384  -2.425  0.00  0.00    -0.016 A 
ATOM      8  C8  IND d   1      -2.271   4.030  -3.567  0.00  0.00    -0.047 A 
ATOM      9  C9  IND d   1      -2.611   2.905  -4.330  0.00  0.00    -0.096 A 
ATOM     10  HN1 IND d   1      -0.748   5.300  -3.867  0.00  0.00     0.298 HD
ENDROOT
TORSDOF 0
ENDMDL
