MODEL 1
REMARK minimizedAffinity -3.11113644
REMARK minimizedRMSD -1
REMARK  0 active torsions:
REMARK  status: ('A' for Active; 'I' for Inactive)
ROOT
ATOM      1  N1  IND d   1       3.205  -3.244  -0.659  0.00  0.00    -0.196 N 
ATOM      2  C2  IND d   1       3.246  -4.430   0.020  0.00  0.00     0.054 A 
ATOM      3  C3  IND d   1       2.373  -4.411   1.052  0.00  0.00    -0.031 A 
ATOM      4  C4  IND d   1       0.704  -2.579   1.749  0.00  0.00     0.051 A 
ATOM      5  C5  IND d   1       0.324  -1.300   1.455  0.00  0.00    -0.031 A 
ATOM      6  C6  IND d   1       0.894  -0.590   0.418  0.00  0.00     0.015 A 
ATOM      7  C7  IND d   1       1.862  -1.140  -0.373  0.00  0.00    -0.016 A 
ATOM      8  C8  IND d   1       2.256  -2.436  -0.073  0.00  0.00    -0.047 A 
ATOM      9  C9  IND d   1       1.711  -3.146   1.004  0.00  0.00    -0.096 A 
ATOM     10  HN1 IND d   1       3.690  -3.038  -1.338  0.00  0.00     0.298 HD
ENDROOT
TORSDOF 0
ENDMDL
