MODEL 1
REMARK minimizedAffinity 4.1824851
REMARK minimizedRMSD -1
REMARK  0 active torsions:
REMARK  status: ('A' for Active; 'I' for Inactive)
ROOT
ATOM      1  N1  IND d   1       0.133   5.215  -5.960  0.00  0.00    -0.196 N 
ATOM      2  C2  IND d   1       0.755   3.998  -5.998  0.00  0.00     0.054 A 
ATOM      3  C3  IND d   1      -0.091   3.024  -5.594  0.00  0.00    -0.031 A 
ATOM      4  C4  IND d   1      -2.571   3.187  -4.922  0.00  0.00     0.051 A 
ATOM      5  C5  IND d   1      -3.568   4.094  -4.697  0.00  0.00    -0.031 A 
ATOM      6  C6  IND d   1      -3.380   5.448  -4.888  0.00  0.00     0.015 A 
ATOM      7  C7  IND d   1      -2.185   5.946  -5.324  0.00  0.00    -0.016 A 
ATOM      8  C8  IND d   1      -1.168   5.029  -5.547  0.00  0.00    -0.047 A 
ATOM      9  C9  IND d   1      -1.340   3.659  -5.314  0.00  0.00    -0.096 A 
ATOM     10  HN1 IND d   1       0.494   5.969  -6.160  0.00  0.00     0.298 HD
ENDROOT
TORSDOF 0
ENDMDL
