MODEL 1
REMARK minimizedAffinity 0.00845129974
REMARK minimizedRMSD -1
REMARK  0 active torsions:
REMARK  status: ('A' for Active; 'I' for Inactive)
ROOT
ATOM      1  N1  IND d   1      -5.082   0.429  -5.786  0.00  0.00    -0.196 N 
ATOM      2  C2  IND d   1      -4.803   1.427  -4.894  0.00  0.00     0.054 A 
ATOM      3  C3  IND d   1      -3.944   0.985  -3.948  0.00  0.00    -0.031 A 
ATOM      4  C4  IND d   1      -2.789  -1.305  -3.728  0.00  0.00     0.051 A 
ATOM      5  C5  IND d   1      -2.757  -2.553  -4.285  0.00  0.00    -0.031 A 
ATOM      6  C6  IND d   1      -3.511  -2.876  -5.394  0.00  0.00     0.015 A 
ATOM      7  C7  IND d   1      -4.321  -1.956  -5.998  0.00  0.00    -0.016 A 
ATOM      8  C8  IND d   1      -4.361  -0.690  -5.431  0.00  0.00    -0.047 A 
ATOM      9  C9  IND d   1      -3.631  -0.368  -4.280  0.00  0.00    -0.096 A 
ATOM     10  HN1 IND d   1      -5.617   0.491  -6.456  0.00  0.00     0.298 HD
ENDROOT
TORSDOF 0
ENDMDL
