MODEL 1
REMARK minimizedAffinity 5.61339855
REMARK minimizedRMSD -1
REMARK  0 active torsions:
REMARK  status: ('A' for Active; 'I' for Inactive)
ROOT
ATOM      1  N1  IND d   1       3.073  -6.000   1.346  0.00  0.00    -0.196 N 
ATOM      2  C2  IND d   1       4.281  -5.943   0.710  0.00  0.00     0.054 A 
ATOM      3  C3  IND d   1       4.446  -4.738   0.119  0.00  0.00    -0.031 A 
ATOM      4  C4  IND d   1       2.906  -2.676   0.154  0.00  0.00     0.051 A 
ATOM      5  C5  IND d   1       1.675  -2.258   0.575  0.00  0.00    -0.031 A 
ATOM      6  C6  IND d   1       0.831  -3.081   1.292  0.00  0.00     0.015 A 
ATOM      7  C7  IND d   1       1.193  -4.356   1.625  0.00  0.00    -0.016 A 
ATOM      8  C8  IND d   1       2.439  -4.786   1.193  0.00  0.00    -0.047 A 
ATOM      9  C9  IND d   1       3.283  -3.969   0.429  0.00  0.00    -0.096 A 
ATOM     10  HN1 IND d   1       2.761  -6.679   1.770  0.00  0.00     0.298 HD
ENDROOT
TORSDOF 0
ENDMDL
