MODEL 1
REMARK minimizedAffinity 3.91493535
REMARK minimizedRMSD -1
REMARK  0 active torsions:
REMARK  status: ('A' for Active; 'I' for Inactive)
ROOT
ATOM      1  N1  IND d   1      -4.118   1.733   4.361  0.00  0.00    -0.196 N 
ATOM      2  C2  IND d   1      -5.433   1.462   4.622  0.00  0.00     0.054 A 
ATOM      3  C3  IND d   1      -5.999   2.487   5.296  0.00  0.00    -0.031 A 
ATOM      4  C4  IND d   1      -4.985   4.750   5.987  0.00  0.00     0.051 A 
ATOM      5  C5  IND d   1      -3.807   5.443   6.000  0.00  0.00    -0.031 A 
ATOM      6  C6  IND d   1      -2.650   4.926   5.454  0.00  0.00     0.015 A 
ATOM      7  C7  IND d   1      -2.631   3.695   4.862  0.00  0.00    -0.016 A 
ATOM      8  C8  IND d   1      -3.823   2.985   4.853  0.00  0.00    -0.047 A 
ATOM      9  C9  IND d   1      -4.990   3.487   5.443  0.00  0.00    -0.096 A 
ATOM     10  HN1 IND d   1      -3.569   1.209   3.958  0.00  0.00     0.298 HD
ENDROOT
TORSDOF 0
ENDMDL
