MODEL 1
REMARK minimizedAffinity 2.1774807
REMARK minimizedRMSD -1
REMARK  0 active torsions:
REMARK  status: ('A' for Active; 'I' for Inactive)
ROOT
ATOM      1  N1  IND d   1       3.378  -3.791  -0.930  0.00  0.00    -0.196 N 
ATOM      2  C2  IND d   1       3.725  -5.007  -0.409  0.00  0.00     0.054 A 
ATOM      3  C3  IND d   1       3.111  -5.201   0.780  0.00  0.00    -0.031 A 
ATOM      4  C4  IND d   1       1.417  -3.704   2.010  0.00  0.00     0.051 A 
ATOM      5  C5  IND d   1       0.816  -2.478   1.945  0.00  0.00    -0.031 A 
ATOM      6  C6  IND d   1       1.041  -1.611   0.896  0.00  0.00     0.015 A 
ATOM      7  C7  IND d   1       1.870  -1.944  -0.138  0.00  0.00    -0.016 A 
ATOM      8  C8  IND d   1       2.487  -3.185  -0.072  0.00  0.00    -0.047 A 
ATOM      9  C9  IND d   1       2.296  -4.051   1.012  0.00  0.00    -0.096 A 
ATOM     10  HN1 IND d   1       3.667  -3.461  -1.670  0.00  0.00     0.298 HD
ENDROOT
TORSDOF 0
ENDMDL
