MODEL 1
REMARK minimizedAffinity -2.06232643
REMARK minimizedRMSD -1
REMARK  2 active torsions:
REMARK  status: ('A' for Active; 'I' for Inactive)
REMARK    1  A    between atoms: C2'_3  and  C1'_4 
REMARK    2  A    between atoms: C1'_4  and  C1_5 
ROOT
ATOM      1  C1  I4B d   1      -1.208  -1.346  -4.164  0.00  0.00    -0.075 A 
ATOM      2  C2  I4B d   1      -0.417  -2.370  -4.623  0.00  0.00     0.003 A 
ATOM      3  C3  I4B d   1       0.215  -3.247  -3.708  0.00  0.00     0.002 A 
ATOM      4  C4  I4B d   1       0.071  -3.034  -2.352  0.00  0.00    -0.004 A 
ATOM      5  C5  I4B d   1      -0.749  -2.009  -1.889  0.00  0.00     0.002 A 
ATOM      6  C6  I4B d   1      -1.403  -1.167  -2.801  0.00  0.00     0.003 A 
ENDROOT
BRANCH   1   7
ATOM      7  C1' I4B d   1      -1.833  -0.418  -5.157  0.00  0.00     0.060 C 
BRANCH   7   8
ATOM      8  C2' I4B d   1      -1.064   0.887  -5.126  0.00  0.00    -0.013 C 
ATOM      9  C4' I4B d   1      -0.688   1.264  -3.718  0.00  0.00     0.013 C 
ATOM     10  C3' I4B d   1       0.152   0.728  -5.988  0.00  0.00     0.013 C 
ENDBRANCH   7   8
ENDBRANCH   1   7
TORSDOF 2
ENDMDL
