MODEL 1
REMARK minimizedAffinity 4.75051212
REMARK minimizedRMSD -1
REMARK  2 active torsions:
REMARK  status: ('A' for Active; 'I' for Inactive)
REMARK    1  A    between atoms: C2'_3  and  C1'_4 
REMARK    2  A    between atoms: C1'_4  and  C1_5 
ROOT
ATOM      1  C1  I4B d   1       1.354  -0.117  -4.923  0.00  0.00    -0.075 A 
ATOM      2  C2  I4B d   1       0.382   0.404  -5.740  0.00  0.00     0.003 A 
ATOM      3  C3  I4B d   1      -0.845  -0.281  -5.913  0.00  0.00     0.002 A 
ATOM      4  C4  I4B d   1      -1.036  -1.500  -5.296  0.00  0.00    -0.004 A 
ATOM      5  C5  I4B d   1      -0.058  -2.016  -4.450  0.00  0.00     0.002 A 
ATOM      6  C6  I4B d   1       1.140  -1.314  -4.252  0.00  0.00     0.003 A 
ENDROOT
BRANCH   1   7
ATOM      7  C1' I4B d   1       2.651   0.616  -4.788  0.00  0.00     0.060 C 
BRANCH   7   8
ATOM      8  C2' I4B d   1       3.500   0.289  -6.000  0.00  0.00    -0.013 C 
ATOM      9  C4' I4B d   1       4.780   1.083  -5.999  0.00  0.00     0.013 C 
ATOM     10  C3' I4B d   1       3.778  -1.185  -5.987  0.00  0.00     0.013 C 
ENDBRANCH   7   8
ENDBRANCH   1   7
TORSDOF 2
ENDMDL
