MODEL 1
REMARK minimizedAffinity 0.371126682
REMARK minimizedRMSD -1
REMARK  2 active torsions:
REMARK  status: ('A' for Active; 'I' for Inactive)
REMARK    1  A    between atoms: C2'_3  and  C1'_4 
REMARK    2  A    between atoms: C1'_4  and  C1_5 
ROOT
ATOM      1  C1  I4B d   1      -0.396  -1.912  -2.089  0.00  0.00    -0.075 A 
ATOM      2  C2  I4B d   1       0.233  -2.796  -2.931  0.00  0.00     0.003 A 
ATOM      3  C3  I4B d   1       0.391  -2.484  -4.303  0.00  0.00     0.002 A 
ATOM      4  C4  I4B d   1      -0.136  -1.309  -4.798  0.00  0.00    -0.004 A 
ATOM      5  C5  I4B d   1      -0.753  -0.404  -3.939  0.00  0.00     0.002 A 
ATOM      6  C6  I4B d   1      -0.873  -0.701  -2.574  0.00  0.00     0.003 A 
ENDROOT
BRANCH   1   7
ATOM      7  C1' I4B d   1      -0.575  -2.288  -0.653  0.00  0.00     0.060 C 
BRANCH   7   8
ATOM      8  C2' I4B d   1      -1.848  -1.634  -0.154  0.00  0.00    -0.013 C 
ATOM      9  C4' I4B d   1      -2.922  -2.658   0.102  0.00  0.00     0.013 C 
ATOM     10  C3' I4B d   1      -1.518  -0.871   1.094  0.00  0.00     0.013 C 
ENDBRANCH   7   8
ENDBRANCH   1   7
TORSDOF 2
ENDMDL
