MODEL 1
REMARK minimizedAffinity -2.20673847
REMARK minimizedRMSD -1
REMARK  2 active torsions:
REMARK  status: ('A' for Active; 'I' for Inactive)
REMARK    1  A    between atoms: C2'_3  and  C1'_4 
REMARK    2  A    between atoms: C1'_4  and  C1_5 
ROOT
ATOM      1  C1  I4B d   1      -0.361   0.408  -3.222  0.00  0.00    -0.075 A 
ATOM      2  C2  I4B d   1      -1.539   0.538  -3.916  0.00  0.00     0.003 A 
ATOM      3  C3  I4B d   1      -1.555   0.399  -5.325  0.00  0.00     0.002 A 
ATOM      4  C4  I4B d   1      -0.371   0.181  -6.000  0.00  0.00    -0.004 A 
ATOM      5  C5  I4B d   1       0.818   0.027  -5.293  0.00  0.00     0.002 A 
ATOM      6  C6  I4B d   1       0.821   0.129  -3.894  0.00  0.00     0.003 A 
ENDROOT
BRANCH   1   7
ATOM      7  C1' I4B d   1      -0.375   0.594  -1.738  0.00  0.00     0.060 C 
BRANCH   7   8
ATOM      8  C2' I4B d   1      -0.497  -0.773  -1.097  0.00  0.00    -0.013 C 
ATOM      9  C4' I4B d   1       0.747  -1.593  -1.320  0.00  0.00     0.013 C 
ATOM     10  C3' I4B d   1      -0.761  -0.577   0.366  0.00  0.00     0.013 C 
ENDBRANCH   7   8
ENDBRANCH   1   7
TORSDOF 2
ENDMDL
