MODEL 1
REMARK minimizedAffinity 2.96618176
REMARK minimizedRMSD -1
REMARK  2 active torsions:
REMARK  status: ('A' for Active; 'I' for Inactive)
REMARK    1  A    between atoms: C2'_3  and  C1'_4 
REMARK    2  A    between atoms: C1'_4  and  C1_5 
ROOT
ATOM      1  C1  I4B d   1      -0.392  -1.409  -4.269  0.00  0.00    -0.075 A 
ATOM      2  C2  I4B d   1       0.597  -1.015  -5.135  0.00  0.00     0.003 A 
ATOM      3  C3  I4B d   1       0.390   0.087  -5.999  0.00  0.00     0.002 A 
ATOM      4  C4  I4B d   1      -0.830   0.731  -6.000  0.00  0.00    -0.004 A 
ATOM      5  C5  I4B d   1      -1.824   0.345  -5.105  0.00  0.00     0.002 A 
ATOM      6  C6  I4B d   1      -1.600  -0.723  -4.225  0.00  0.00     0.003 A 
ENDROOT
BRANCH   1   7
ATOM      7  C1' I4B d   1      -0.153  -2.597  -3.393  0.00  0.00     0.060 C 
BRANCH   7   8
ATOM      8  C2' I4B d   1      -0.017  -2.106  -1.966  0.00  0.00    -0.013 C 
ATOM      9  C4' I4B d   1      -1.156  -2.594  -1.111  0.00  0.00     0.013 C 
ATOM     10  C3' I4B d   1       1.302  -2.584  -1.435  0.00  0.00     0.013 C 
ENDBRANCH   7   8
ENDBRANCH   1   7
TORSDOF 2
ENDMDL
