MODEL 1
REMARK minimizedAffinity 2.51514292
REMARK minimizedRMSD -1
REMARK  2 active torsions:
REMARK  status: ('A' for Active; 'I' for Inactive)
REMARK    1  A    between atoms: C2'_3  and  C1'_4 
REMARK    2  A    between atoms: C1'_4  and  C1_5 
ROOT
ATOM      1  C1  I4B d   1      -3.406  -0.037   0.384  0.00  0.00    -0.075 A 
ATOM      2  C2  I4B d   1      -4.254  -0.480  -0.600  0.00  0.00     0.003 A 
ATOM      3  C3  I4B d   1      -5.565   0.046  -0.702  0.00  0.00     0.002 A 
ATOM      4  C4  I4B d   1      -6.000   0.970   0.226  0.00  0.00    -0.004 A 
ATOM      5  C5  I4B d   1      -5.131   1.435   1.210  0.00  0.00     0.002 A 
ATOM      6  C6  I4B d   1      -3.822   0.937   1.282  0.00  0.00     0.003 A 
ENDROOT
BRANCH   1   7
ATOM      7  C1' I4B d   1      -2.040  -0.638   0.483  0.00  0.00     0.060 C 
BRANCH   7   8
ATOM      8  C2' I4B d   1      -1.539  -0.429   1.897  0.00  0.00    -0.013 C 
ATOM      9  C4' I4B d   1      -1.352  -1.743   2.609  0.00  0.00     0.013 C 
ATOM     10  C3' I4B d   1      -0.250   0.334   1.824  0.00  0.00     0.013 C 
ENDBRANCH   7   8
ENDBRANCH   1   7
TORSDOF 2
ENDMDL
