MODEL 1
REMARK minimizedAffinity 4.66731405
REMARK minimizedRMSD -1
REMARK  2 active torsions:
REMARK  status: ('A' for Active; 'I' for Inactive)
REMARK    1  A    between atoms: C2'_3  and  C1'_4 
REMARK    2  A    between atoms: C1'_4  and  C1_5 
ROOT
ATOM      1  C1  I4B d   1      -3.441   0.658   1.896  0.00  0.00    -0.075 A 
ATOM      2  C2  I4B d   1      -2.629   1.194   2.864  0.00  0.00     0.003 A 
ATOM      3  C3  I4B d   1      -1.289   0.754   2.994  0.00  0.00     0.002 A 
ATOM      4  C4  I4B d   1      -0.822  -0.253   2.175  0.00  0.00    -0.004 A 
ATOM      5  C5  I4B d   1      -1.639  -0.779   1.179  0.00  0.00     0.002 A 
ATOM      6  C6  I4B d   1      -2.953  -0.313   1.030  0.00  0.00     0.003 A 
ENDROOT
BRANCH   1   7
ATOM      7  C1' I4B d   1      -4.860   1.122   1.807  0.00  0.00     0.060 C 
BRANCH   7   8
ATOM      8  C2' I4B d   1      -5.146   1.475   0.362  0.00  0.00    -0.013 C 
ATOM      9  C4' I4B d   1      -5.824   0.337  -0.354  0.00  0.00     0.013 C 
ATOM     10  C3' I4B d   1      -6.000   2.708   0.347  0.00  0.00     0.013 C 
ENDBRANCH   7   8
ENDBRANCH   1   7
TORSDOF 2
ENDMDL
