MODEL 1
REMARK minimizedAffinity 0.754667044
REMARK minimizedRMSD -1
REMARK  2 active torsions:
REMARK  status: ('A' for Active; 'I' for Inactive)
REMARK    1  A    between atoms: C2'_3  and  C1'_4 
REMARK    2  A    between atoms: C1'_4  and  C1_5 
ROOT
ATOM      1  C1  I4B d   1       0.915  -0.107  -4.952  0.00  0.00    -0.075 A 
ATOM      2  C2  I4B d   1       1.043  -0.548  -3.659  0.00  0.00     0.003 A 
ATOM      3  C3  I4B d   1       0.148  -0.095  -2.659  0.00  0.00     0.002 A 
ATOM      4  C4  I4B d   1      -0.821   0.832  -2.985  0.00  0.00    -0.004 A 
ATOM      5  C5  I4B d   1      -0.964   1.260  -4.301  0.00  0.00     0.002 A 
ATOM      6  C6  I4B d   1      -0.098   0.779  -5.294  0.00  0.00     0.003 A 
ENDROOT
BRANCH   1   7
ATOM      7  C1' I4B d   1       1.897  -0.581  -5.976  0.00  0.00     0.060 C 
BRANCH   7   8
ATOM      8  C2' I4B d   1       3.059   0.391  -5.993  0.00  0.00    -0.013 C 
ATOM      9  C4' I4B d   1       3.008   1.323  -4.812  0.00  0.00     0.013 C 
ATOM     10  C3' I4B d   1       4.330  -0.406  -6.000  0.00  0.00     0.013 C 
ENDBRANCH   7   8
ENDBRANCH   1   7
TORSDOF 2
ENDMDL
