MODEL 1
REMARK minimizedAffinity -3.95761085
REMARK minimizedRMSD -1
REMARK  0 active torsions:
REMARK  status: ('A' for Active; 'I' for Inactive)
ROOT
ATOM      1  C   UNL d   1       1.435  -0.580  -0.635  0.00  0.00     0.023 A 
ATOM      2  C1  UNL d   1       0.884  -1.055   0.556  0.00  0.00     0.003 A 
ATOM      3  C2  UNL d   1      -0.229  -0.422   1.113  0.00  0.00     0.048 A 
ATOM      4  C3  UNL d   1      -0.786   0.686   0.474  0.00  0.00     0.023 A 
ATOM      5  C4  UNL d   1      -0.238   1.164  -0.717  0.00  0.00     0.048 A 
ATOM      6  C5  UNL d   1       0.875   0.528  -1.270  0.00  0.00     0.003 A 
ATOM      7  I   UNL d   1      -2.442   1.630   1.302  0.00  0.00    -0.146 I 
ENDROOT
TORSDOF 0
ENDMDL
