MODEL 1
REMARK minimizedAffinity 0.530748129
REMARK minimizedRMSD -1
REMARK  0 active torsions:
REMARK  status: ('A' for Active; 'I' for Inactive)
ROOT
ATOM      1  C   UNL d   1      -1.060   1.196   2.147  0.00  0.00     0.023 A 
ATOM      2  C1  UNL d   1      -0.752  -0.152   2.334  0.00  0.00     0.003 A 
ATOM      3  C2  UNL d   1      -0.237  -0.904   1.276  0.00  0.00     0.048 A 
ATOM      4  C3  UNL d   1      -0.031  -0.303   0.035  0.00  0.00     0.023 A 
ATOM      5  C4  UNL d   1      -0.337   1.046  -0.156  0.00  0.00     0.048 A 
ATOM      6  C5  UNL d   1      -0.853   1.794   0.904  0.00  0.00     0.003 A 
ATOM      7  I   UNL d   1       0.736  -1.420  -1.540  0.00  0.00    -0.146 I 
ENDROOT
TORSDOF 0
ENDMDL
