MODEL 1
REMARK minimizedAffinity -4.33393431
REMARK minimizedRMSD -1
REMARK  0 active torsions:
REMARK  status: ('A' for Active; 'I' for Inactive)
ROOT
ATOM      1  C   UNL d   1      -1.552   1.441   1.331  0.00  0.00     0.023 A 
ATOM      2  C1  UNL d   1      -1.562   1.597  -0.056  0.00  0.00     0.003 A 
ATOM      3  C2  UNL d   1      -0.926   0.658  -0.870  0.00  0.00     0.048 A 
ATOM      4  C3  UNL d   1      -0.282  -0.435  -0.292  0.00  0.00     0.023 A 
ATOM      5  C4  UNL d   1      -0.269  -0.596   1.094  0.00  0.00     0.048 A 
ATOM      6  C5  UNL d   1      -0.906   0.346   1.905  0.00  0.00     0.003 A 
ATOM      7  I   UNL d   1       0.666  -1.834  -1.502  0.00  0.00    -0.146 I 
ENDROOT
TORSDOF 0
ENDMDL
