MODEL 1
REMARK minimizedAffinity -1.11841857
REMARK minimizedRMSD -1
REMARK  0 active torsions:
REMARK  status: ('A' for Active; 'I' for Inactive)
ROOT
ATOM      1  C   UNL d   1      -2.272   2.248  -0.201  0.00  0.00     0.023 A 
ATOM      2  C1  UNL d   1      -2.058   2.402   1.168  0.00  0.00     0.003 A 
ATOM      3  C2  UNL d   1      -1.261   1.487   1.859  0.00  0.00     0.048 A 
ATOM      4  C3  UNL d   1      -0.681   0.421   1.174  0.00  0.00     0.023 A 
ATOM      5  C4  UNL d   1      -0.891   0.263  -0.197  0.00  0.00     0.048 A 
ATOM      6  C5  UNL d   1      -1.690   1.180  -0.883  0.00  0.00     0.003 A 
ATOM      7  I   UNL d   1       0.506  -0.943   2.200  0.00  0.00    -0.146 I 
ENDROOT
TORSDOF 0
ENDMDL
