MODEL 1
REMARK minimizedAffinity -3.73044562
REMARK minimizedRMSD -1
REMARK  0 active torsions:
REMARK  status: ('A' for Active; 'I' for Inactive)
ROOT
ATOM      1  C   UNL d   1      -1.366   1.017   1.774  0.00  0.00     0.023 A 
ATOM      2  C1  UNL d   1      -0.790  -0.173   2.221  0.00  0.00     0.003 A 
ATOM      3  C2  UNL d   1      -0.063  -0.973   1.338  0.00  0.00     0.048 A 
ATOM      4  C3  UNL d   1       0.084  -0.579   0.009  0.00  0.00     0.023 A 
ATOM      5  C4  UNL d   1      -0.490   0.611  -0.443  0.00  0.00     0.048 A 
ATOM      6  C5  UNL d   1      -1.216   1.408   0.444  0.00  0.00     0.003 A 
ATOM      7  I   UNL d   1       1.165  -1.769  -1.309  0.00  0.00    -0.146 I 
ENDROOT
TORSDOF 0
ENDMDL
