MODEL 1
REMARK minimizedAffinity -4.09058666
REMARK minimizedRMSD -1
REMARK  0 active torsions:
REMARK  status: ('A' for Active; 'I' for Inactive)
ROOT
ATOM      1  C   UNL d   1      -2.092   2.329   1.338  0.00  0.00     0.023 A 
ATOM      2  C1  UNL d   1      -0.701   2.410   1.267  0.00  0.00     0.003 A 
ATOM      3  C2  UNL d   1       0.029   1.389   0.657  0.00  0.00     0.048 A 
ATOM      4  C3  UNL d   1      -0.637   0.288   0.120  0.00  0.00     0.023 A 
ATOM      5  C4  UNL d   1      -2.029   0.202   0.187  0.00  0.00     0.048 A 
ATOM      6  C5  UNL d   1      -2.755   1.226   0.799  0.00  0.00     0.003 A 
ATOM      7  I   UNL d   1       0.448  -1.234  -0.789  0.00  0.00    -0.146 I 
ENDROOT
TORSDOF 0
ENDMDL
