MODEL 1
REMARK minimizedAffinity -5.3713479
REMARK minimizedRMSD -1
REMARK  0 active torsions:
REMARK  status: ('A' for Active; 'I' for Inactive)
ROOT
ATOM      1  C   UNL d   1      -1.161   2.975   0.645  0.00  0.00     0.023 A 
ATOM      2  C1  UNL d   1      -1.752   1.799   1.106  0.00  0.00     0.003 A 
ATOM      3  C2  UNL d   1      -1.375   0.568   0.567  0.00  0.00     0.048 A 
ATOM      4  C3  UNL d   1      -0.405   0.519  -0.434  0.00  0.00     0.023 A 
ATOM      5  C4  UNL d   1       0.190   1.694  -0.899  0.00  0.00     0.048 A 
ATOM      6  C5  UNL d   1      -0.191   2.922  -0.357  0.00  0.00     0.003 A 
ATOM      7  I   UNL d   1       0.158  -1.312  -1.239  0.00  0.00    -0.146 I 
ENDROOT
TORSDOF 0
ENDMDL
