MODEL 1
REMARK minimizedAffinity -3.88157463
REMARK minimizedRMSD -1
REMARK  0 active torsions:
REMARK  status: ('A' for Active; 'I' for Inactive)
ROOT
ATOM      1  C   UNL d   1      -0.862   3.014   1.414  0.00  0.00     0.023 A 
ATOM      2  C1  UNL d   1      -0.238   3.126   0.171  0.00  0.00     0.003 A 
ATOM      3  C2  UNL d   1       0.203   1.980  -0.495  0.00  0.00     0.048 A 
ATOM      4  C3  UNL d   1       0.015   0.727   0.086  0.00  0.00     0.023 A 
ATOM      5  C4  UNL d   1      -0.609   0.611   1.329  0.00  0.00     0.048 A 
ATOM      6  C5  UNL d   1      -1.047   1.759   1.992  0.00  0.00     0.003 A 
ATOM      7  I   UNL d   1       0.670  -0.979  -0.904  0.00  0.00    -0.146 I 
ENDROOT
TORSDOF 0
ENDMDL
