MODEL 1
REMARK minimizedAffinity -4.67545128
REMARK minimizedRMSD -1
REMARK  0 active torsions:
REMARK  status: ('A' for Active; 'I' for Inactive)
ROOT
ATOM      1  C   UNL d   1      -0.942   3.831   0.262  0.00  0.00     0.023 A 
ATOM      2  C1  UNL d   1      -1.578   2.894   1.077  0.00  0.00     0.003 A 
ATOM      3  C2  UNL d   1      -1.295   1.535   0.933  0.00  0.00     0.048 A 
ATOM      4  C3  UNL d   1      -0.374   1.118  -0.028  0.00  0.00     0.023 A 
ATOM      5  C4  UNL d   1       0.265   2.052  -0.845  0.00  0.00     0.048 A 
ATOM      6  C5  UNL d   1      -0.022   3.410  -0.698  0.00  0.00     0.003 A 
ATOM      7  I   UNL d   1       0.049  -0.905  -0.244  0.00  0.00    -0.146 I 
ENDROOT
TORSDOF 0
ENDMDL
