MODEL 1
REMARK minimizedAffinity -2.98528242
REMARK minimizedRMSD -1
REMARK  0 active torsions:
REMARK  status: ('A' for Active; 'I' for Inactive)
ROOT
ATOM      1  C   UNL d   1      -0.312   0.222   1.968  0.00  0.00     0.023 A 
ATOM      2  C1  UNL d   1      -0.728   1.549   2.078  0.00  0.00     0.003 A 
ATOM      3  C2  UNL d   1      -0.459   2.454   1.049  0.00  0.00     0.048 A 
ATOM      4  C3  UNL d   1       0.225   2.025  -0.088  0.00  0.00     0.023 A 
ATOM      5  C4  UNL d   1       0.642   0.698  -0.203  0.00  0.00     0.048 A 
ATOM      6  C5  UNL d   1       0.371  -0.203   0.828  0.00  0.00     0.003 A 
ATOM      7  I   UNL d   1       0.626   3.370  -1.620  0.00  0.00    -0.146 I 
ENDROOT
TORSDOF 0
ENDMDL
