MODEL 1
REMARK minimizedAffinity -3.85229039
REMARK minimizedRMSD -1
REMARK  0 active torsions:
REMARK  status: ('A' for Active; 'I' for Inactive)
ROOT
ATOM      1  C   UNL d   1      -1.074   1.716   1.359  0.00  0.00     0.023 A 
ATOM      2  C1  UNL d   1      -1.143   0.462   1.967  0.00  0.00     0.003 A 
ATOM      3  C2  UNL d   1      -0.679  -0.669   1.293  0.00  0.00     0.048 A 
ATOM      4  C3  UNL d   1      -0.146  -0.540   0.011  0.00  0.00     0.023 A 
ATOM      5  C4  UNL d   1      -0.074   0.712  -0.601  0.00  0.00     0.048 A 
ATOM      6  C5  UNL d   1      -0.540   1.840   0.076  0.00  0.00     0.003 A 
ATOM      7  I   UNL d   1       0.545  -2.223  -0.995  0.00  0.00    -0.146 I 
ENDROOT
TORSDOF 0
ENDMDL
