MODEL 1
REMARK minimizedAffinity -3.61464906
REMARK minimizedRMSD -1
REMARK  0 active torsions:
REMARK  status: ('A' for Active; 'I' for Inactive)
ROOT
ATOM      1  C   UNL d   1      -1.210   3.237  -0.264  0.00  0.00     0.023 A 
ATOM      2  C1  UNL d   1      -1.609   3.014   1.054  0.00  0.00     0.003 A 
ATOM      3  C2  UNL d   1      -1.130   1.903   1.752  0.00  0.00     0.048 A 
ATOM      4  C3  UNL d   1      -0.252   1.020   1.125  0.00  0.00     0.023 A 
ATOM      5  C4  UNL d   1       0.151   1.239  -0.193  0.00  0.00     0.048 A 
ATOM      6  C5  UNL d   1      -0.331   2.351  -0.887  0.00  0.00     0.003 A 
ATOM      7  I   UNL d   1       0.462  -0.635   2.161  0.00  0.00    -0.146 I 
ENDROOT
TORSDOF 0
ENDMDL
