MODEL 1
REMARK minimizedAffinity -4.74471283
REMARK minimizedRMSD -1
REMARK  0 active torsions:
REMARK  status: ('A' for Active; 'I' for Inactive)
ROOT
ATOM      1  C   UNL d   1      -2.401   3.011   1.042  0.00  0.00     0.023 A 
ATOM      2  C1  UNL d   1      -1.373   3.305   0.146  0.00  0.00     0.003 A 
ATOM      3  C2  UNL d   1      -0.458   2.316  -0.218  0.00  0.00     0.048 A 
ATOM      4  C3  UNL d   1      -0.577   1.033   0.317  0.00  0.00     0.023 A 
ATOM      5  C4  UNL d   1      -1.605   0.734   1.213  0.00  0.00     0.048 A 
ATOM      6  C5  UNL d   1      -2.517   1.727   1.574  0.00  0.00     0.003 A 
ATOM      7  I   UNL d   1       0.784  -0.442  -0.223  0.00  0.00    -0.146 I 
ENDROOT
TORSDOF 0
ENDMDL
