MODEL 1
REMARK minimizedAffinity -4.33605242
REMARK minimizedRMSD -1
REMARK  0 active torsions:
REMARK  status: ('A' for Active; 'I' for Inactive)
ROOT
ATOM      1  C   UNL d   1      -0.511   0.146   1.977  0.00  0.00     0.023 A 
ATOM      2  C1  UNL d   1      -1.046   1.417   2.185  0.00  0.00     0.003 A 
ATOM      3  C2  UNL d   1      -0.910   2.403   1.205  0.00  0.00     0.048 A 
ATOM      4  C3  UNL d   1      -0.240   2.109   0.018  0.00  0.00     0.023 A 
ATOM      5  C4  UNL d   1       0.296   0.838  -0.195  0.00  0.00     0.048 A 
ATOM      6  C5  UNL d   1       0.159  -0.143   0.788  0.00  0.00     0.003 A 
ATOM      7  I   UNL d   1      -0.037   3.574  -1.443  0.00  0.00    -0.146 I 
ENDROOT
TORSDOF 0
ENDMDL
