MODEL 1
REMARK minimizedAffinity -3.9881134
REMARK minimizedRMSD -1
REMARK  0 active torsions:
REMARK  status: ('A' for Active; 'I' for Inactive)
ROOT
ATOM      1  C   UNL d   1      -1.372  -0.683   1.728  0.00  0.00     0.023 A 
ATOM      2  C1  UNL d   1      -1.936   0.481   2.250  0.00  0.00     0.003 A 
ATOM      3  C2  UNL d   1      -1.683   1.714   1.644  0.00  0.00     0.048 A 
ATOM      4  C3  UNL d   1      -0.866   1.775   0.516  0.00  0.00     0.023 A 
ATOM      5  C4  UNL d   1      -0.300   0.613  -0.011  0.00  0.00     0.048 A 
ATOM      6  C5  UNL d   1      -0.555  -0.617   0.599  0.00  0.00     0.003 A 
ATOM      7  I   UNL d   1      -0.488   3.608  -0.387  0.00  0.00    -0.146 I 
ENDROOT
TORSDOF 0
ENDMDL
