MODEL 1
REMARK minimizedAffinity -3.10814238
REMARK minimizedRMSD -1
REMARK  0 active torsions:
REMARK  status: ('A' for Active; 'I' for Inactive)
ROOT
ATOM      1  C   UNL d   1      -0.955  -0.456   2.018  0.00  0.00     0.023 A 
ATOM      2  C1  UNL d   1      -0.303  -0.629   0.797  0.00  0.00     0.003 A 
ATOM      3  C2  UNL d   1      -0.055   0.471  -0.026  0.00  0.00     0.048 A 
ATOM      4  C3  UNL d   1      -0.459   1.743   0.379  0.00  0.00     0.023 A 
ATOM      5  C4  UNL d   1      -1.111   1.921   1.600  0.00  0.00     0.048 A 
ATOM      6  C5  UNL d   1      -1.358   0.818   2.419  0.00  0.00     0.003 A 
ATOM      7  I   UNL d   1      -0.090   3.382  -0.845  0.00  0.00    -0.146 I 
ENDROOT
TORSDOF 0
ENDMDL
