MODEL 1
REMARK minimizedAffinity -5.01139784
REMARK minimizedRMSD -1
REMARK  0 active torsions:
REMARK  status: ('A' for Active; 'I' for Inactive)
ROOT
ATOM      1  C   UNL d   1      -1.032   3.444   0.128  0.00  0.00     0.023 A 
ATOM      2  C1  UNL d   1      -0.034   3.172  -0.808  0.00  0.00     0.003 A 
ATOM      3  C2  UNL d   1       0.391   1.859  -1.016  0.00  0.00     0.048 A 
ATOM      4  C3  UNL d   1      -0.186   0.821  -0.285  0.00  0.00     0.023 A 
ATOM      5  C4  UNL d   1      -1.186   1.088   0.652  0.00  0.00     0.048 A 
ATOM      6  C5  UNL d   1      -1.607   2.403   0.857  0.00  0.00     0.003 A 
ATOM      7  I   UNL d   1       0.445  -1.135  -0.593  0.00  0.00    -0.146 I 
ENDROOT
TORSDOF 0
ENDMDL
