MODEL 1
REMARK minimizedAffinity -4.93809605
REMARK minimizedRMSD -1
REMARK  0 active torsions:
REMARK  status: ('A' for Active; 'I' for Inactive)
ROOT
ATOM      1  C   UNL d   1      -1.242   3.775   0.606  0.00  0.00     0.023 A 
ATOM      2  C1  UNL d   1      -1.693   2.705   1.379  0.00  0.00     0.003 A 
ATOM      3  C2  UNL d   1      -1.233   1.412   1.119  0.00  0.00     0.048 A 
ATOM      4  C3  UNL d   1      -0.323   1.197   0.084  0.00  0.00     0.023 A 
ATOM      5  C4  UNL d   1       0.131   2.265  -0.691  0.00  0.00     0.048 A 
ATOM      6  C5  UNL d   1      -0.332   3.556  -0.428  0.00  0.00     0.003 A 
ATOM      7  I   UNL d   1       0.362  -0.726  -0.305  0.00  0.00    -0.146 I 
ENDROOT
TORSDOF 0
ENDMDL
