MODEL 1
REMARK minimizedAffinity 10.2664757
REMARK minimizedRMSD -1
REMARK  2 active torsions:
REMARK  status: ('A' for Active; 'I' for Inactive)
REMARK    1  A    between atoms: C2'_3  and  C1'_4 
REMARK    2  A    between atoms: C1'_4  and  C1_5 
ROOT
ATOM      1  C1  I4B d   1       1.354  -1.802   0.669  0.00  0.00    -0.075 A 
ATOM      2  C2  I4B d   1       0.522  -1.604  -0.404  0.00  0.00     0.003 A 
ATOM      3  C3  I4B d   1       0.980  -0.896  -1.541  0.00  0.00     0.002 A 
ATOM      4  C4  I4B d   1       2.253  -0.362  -1.542  0.00  0.00    -0.004 A 
ATOM      5  C5  I4B d   1       3.103  -0.582  -0.462  0.00  0.00     0.002 A 
ATOM      6  C6  I4B d   1       2.656  -1.317   0.645  0.00  0.00     0.003 A 
ENDROOT
BRANCH   1   7
ATOM      7  C1' I4B d   1       0.827  -2.526   1.867  0.00  0.00     0.060 C 
BRANCH   7   8
ATOM      8  C2' I4B d   1      -0.542  -1.962   2.188  0.00  0.00    -0.013 C 
ATOM      9  C4' I4B d   1      -1.463  -3.031   2.715  0.00  0.00     0.013 C 
ATOM     10  C3' I4B d   1      -0.366  -0.858   3.187  0.00  0.00     0.013 C 
ENDBRANCH   7   8
ENDBRANCH   1   7
TORSDOF 2
ENDMDL
