MODEL 1
REMARK minimizedAffinity 7.94286108
REMARK minimizedRMSD -1
REMARK  2 active torsions:
REMARK  status: ('A' for Active; 'I' for Inactive)
REMARK    1  A    between atoms: C2'_3  and  C1'_4 
REMARK    2  A    between atoms: C1'_4  and  C1_5 
ROOT
ATOM      1  C1  I4B d   1      -4.377   0.543  -5.489  0.00  0.00    -0.075 A 
ATOM      2  C2  I4B d   1      -3.419  -0.298  -6.000  0.00  0.00     0.003 A 
ATOM      3  C3  I4B d   1      -3.311  -1.627  -5.524  0.00  0.00     0.002 A 
ATOM      4  C4  I4B d   1      -4.141  -2.055  -4.508  0.00  0.00    -0.004 A 
ATOM      5  C5  I4B d   1      -5.126  -1.209  -4.008  0.00  0.00     0.002 A 
ATOM      6  C6  I4B d   1      -5.253   0.095  -4.509  0.00  0.00     0.003 A 
ENDROOT
BRANCH   1   7
ATOM      7  C1' I4B d   1      -4.442   1.951  -5.991  0.00  0.00     0.060 C 
BRANCH   7   8
ATOM      8  C2' I4B d   1      -5.043   2.809  -4.896  0.00  0.00    -0.013 C 
ATOM      9  C4' I4B d   1      -3.973   3.534  -4.123  0.00  0.00     0.013 C 
ATOM     10  C3' I4B d   1      -5.997   3.773  -5.536  0.00  0.00     0.013 C 
ENDBRANCH   7   8
ENDBRANCH   1   7
TORSDOF 2
ENDMDL
