MODEL 1
REMARK minimizedAffinity 11.8292694
REMARK minimizedRMSD -1
REMARK  2 active torsions:
REMARK  status: ('A' for Active; 'I' for Inactive)
REMARK    1  A    between atoms: C2'_3  and  C1'_4 
REMARK    2  A    between atoms: C1'_4  and  C1_5 
ROOT
ATOM      1  C1  I4B d   1      -3.567   0.289  -5.095  0.00  0.00    -0.075 A 
ATOM      2  C2  I4B d   1      -3.353  -0.933  -5.683  0.00  0.00     0.003 A 
ATOM      3  C3  I4B d   1      -2.735  -1.977  -4.952  0.00  0.00     0.002 A 
ATOM      4  C4  I4B d   1      -2.305  -1.741  -3.662  0.00  0.00    -0.004 A 
ATOM      5  C5  I4B d   1      -2.544  -0.509  -3.060  0.00  0.00     0.002 A 
ATOM      6  C6  I4B d   1      -3.190   0.509  -3.777  0.00  0.00     0.003 A 
ENDROOT
BRANCH   1   7
ATOM      7  C1' I4B d   1      -4.192   1.379  -5.907  0.00  0.00     0.060 C 
BRANCH   7   8
ATOM      8  C2' I4B d   1      -5.666   1.433  -5.559  0.00  0.00    -0.013 C 
ATOM      9  C4' I4B d   1      -6.000   0.472  -4.448  0.00  0.00     0.013 C 
ATOM     10  C3' I4B d   1      -5.999   2.844  -5.172  0.00  0.00     0.013 C 
ENDBRANCH   7   8
ENDBRANCH   1   7
TORSDOF 2
ENDMDL
