MODEL 1
REMARK minimizedAffinity 4.45447063
REMARK minimizedRMSD -1
REMARK  2 active torsions:
REMARK  status: ('A' for Active; 'I' for Inactive)
REMARK    1  A    between atoms: C2'_3  and  C1'_4 
REMARK    2  A    between atoms: C1'_4  and  C1_5 
ROOT
ATOM      1  C1  I4B d   1      -3.617   0.927  -3.269  0.00  0.00    -0.075 A 
ATOM      2  C2  I4B d   1      -3.660  -0.290  -2.635  0.00  0.00     0.003 A 
ATOM      3  C3  I4B d   1      -4.286  -1.397  -3.258  0.00  0.00     0.002 A 
ATOM      4  C4  I4B d   1      -4.896  -1.231  -4.485  0.00  0.00    -0.004 A 
ATOM      5  C5  I4B d   1      -4.832  -0.002  -5.136  0.00  0.00     0.002 A 
ATOM      6  C6  I4B d   1      -4.178   1.080  -4.531  0.00  0.00     0.003 A 
ENDROOT
BRANCH   1   7
ATOM      7  C1' I4B d   1      -2.977   2.083  -2.568  0.00  0.00     0.060 C 
BRANCH   7   8
ATOM      8  C2' I4B d   1      -2.753   3.181  -3.587  0.00  0.00    -0.013 C 
ATOM      9  C4' I4B d   1      -3.701   4.331  -3.366  0.00  0.00     0.013 C 
ATOM     10  C3' I4B d   1      -1.326   3.628  -3.481  0.00  0.00     0.013 C 
ENDBRANCH   7   8
ENDBRANCH   1   7
TORSDOF 2
ENDMDL
