MODEL 1
REMARK minimizedAffinity 1.4543823
REMARK minimizedRMSD -1
REMARK  2 active torsions:
REMARK  status: ('A' for Active; 'I' for Inactive)
REMARK    1  A    between atoms: C2'_3  and  C1'_4 
REMARK    2  A    between atoms: C1'_4  and  C1_5 
ROOT
ATOM      1  C1  I4B d   1       2.268   0.420  -1.754  0.00  0.00    -0.075 A 
ATOM      2  C2  I4B d   1       2.534   1.429  -0.863  0.00  0.00     0.003 A 
ATOM      3  C3  I4B d   1       2.218   2.770  -1.188  0.00  0.00     0.002 A 
ATOM      4  C4  I4B d   1       1.687   3.062  -2.428  0.00  0.00    -0.004 A 
ATOM      5  C5  I4B d   1       1.396   2.035  -3.322  0.00  0.00     0.002 A 
ATOM      6  C6  I4B d   1       1.677   0.705  -2.979  0.00  0.00     0.003 A 
ENDROOT
BRANCH   1   7
ATOM      7  C1' I4B d   1       2.645  -0.981  -1.391  0.00  0.00     0.060 C 
BRANCH   7   8
ATOM      8  C2' I4B d   1       1.477  -1.602  -0.652  0.00  0.00    -0.013 C 
ATOM      9  C4' I4B d   1       1.474  -1.198   0.799  0.00  0.00     0.013 C 
ATOM     10  C3' I4B d   1       0.214  -1.172  -1.336  0.00  0.00     0.013 C 
ENDBRANCH   7   8
ENDBRANCH   1   7
TORSDOF 2
ENDMDL
