MODEL 1
REMARK minimizedAffinity 12.1100483
REMARK minimizedRMSD -1
REMARK  2 active torsions:
REMARK  status: ('A' for Active; 'I' for Inactive)
REMARK    1  A    between atoms: C2'_3  and  C1'_4 
REMARK    2  A    between atoms: C1'_4  and  C1_5 
ROOT
ATOM      1  C1  I4B d   1       3.472  -1.125  -0.131  0.00  0.00    -0.075 A 
ATOM      2  C2  I4B d   1       3.294   0.107   0.447  0.00  0.00     0.003 A 
ATOM      3  C3  I4B d   1       4.373   0.749   1.103  0.00  0.00     0.002 A 
ATOM      4  C4  I4B d   1       5.590   0.106   1.199  0.00  0.00    -0.004 A 
ATOM      5  C5  I4B d   1       5.775  -1.133   0.592  0.00  0.00     0.002 A 
ATOM      6  C6  I4B d   1       4.713  -1.747  -0.088  0.00  0.00     0.003 A 
ENDROOT
BRANCH   1   7
ATOM      7  C1' I4B d   1       2.303  -1.789  -0.787  0.00  0.00     0.060 C 
BRANCH   7   8
ATOM      8  C2' I4B d   1       1.825  -0.891  -1.909  0.00  0.00    -0.013 C 
ATOM      9  C4' I4B d   1       2.737  -0.979  -3.104  0.00  0.00     0.013 C 
ATOM     10  C3' I4B d   1       0.426  -1.298  -2.264  0.00  0.00     0.013 C 
ENDBRANCH   7   8
ENDBRANCH   1   7
TORSDOF 2
ENDMDL
