MODEL 1
REMARK minimizedAffinity 3.33605957
REMARK minimizedRMSD -1
REMARK  2 active torsions:
REMARK  status: ('A' for Active; 'I' for Inactive)
REMARK    1  A    between atoms: C2'_3  and  C1'_4 
REMARK    2  A    between atoms: C1'_4  and  C1_5 
ROOT
ATOM      1  C1  I4B d   1       1.178  -1.603   1.278  0.00  0.00    -0.075 A 
ATOM      2  C2  I4B d   1       1.869  -1.049   2.327  0.00  0.00     0.003 A 
ATOM      3  C3  I4B d   1       1.172  -0.411   3.382  0.00  0.00     0.002 A 
ATOM      4  C4  I4B d   1      -0.203  -0.306   3.323  0.00  0.00    -0.004 A 
ATOM      5  C5  I4B d   1      -0.903  -0.888   2.270  0.00  0.00     0.002 A 
ATOM      6  C6  I4B d   1      -0.210  -1.552   1.247  0.00  0.00     0.003 A 
ENDROOT
BRANCH   1   7
ATOM      7  C1' I4B d   1       1.947  -2.240   0.165  0.00  0.00     0.060 C 
BRANCH   7   8
ATOM      8  C2' I4B d   1       2.379  -1.146  -0.790  0.00  0.00    -0.013 C 
ATOM      9  C4' I4B d   1       3.769  -1.395  -1.312  0.00  0.00     0.013 C 
ATOM     10  C3' I4B d   1       1.383  -1.089  -1.910  0.00  0.00     0.013 C 
ENDBRANCH   7   8
ENDBRANCH   1   7
TORSDOF 2
ENDMDL
