MODEL 1
REMARK minimizedAffinity 16.2085934
REMARK minimizedRMSD -1
REMARK  2 active torsions:
REMARK  status: ('A' for Active; 'I' for Inactive)
REMARK    1  A    between atoms: C2'_3  and  C1'_4 
REMARK    2  A    between atoms: C1'_4  and  C1_5 
ROOT
ATOM      1  C1  I4B d   1       1.854  -0.326  -0.732  0.00  0.00    -0.075 A 
ATOM      2  C2  I4B d   1       1.789  -0.038  -2.073  0.00  0.00     0.003 A 
ATOM      3  C3  I4B d   1       2.382   1.145  -2.577  0.00  0.00     0.002 A 
ATOM      4  C4  I4B d   1       2.982   2.030  -1.704  0.00  0.00    -0.004 A 
ATOM      5  C5  I4B d   1       3.067   1.725  -0.349  0.00  0.00     0.002 A 
ATOM      6  C6  I4B d   1       2.510   0.533   0.139  0.00  0.00     0.003 A 
ENDROOT
BRANCH   1   7
ATOM      7  C1' I4B d   1       1.188  -1.568  -0.229  0.00  0.00     0.060 C 
BRANCH   7   8
ATOM      8  C2' I4B d   1       1.376  -1.622   1.273  0.00  0.00    -0.013 C 
ATOM      9  C4' I4B d   1       0.064  -1.849   1.978  0.00  0.00     0.013 C 
ATOM     10  C3' I4B d   1       2.352  -2.718   1.579  0.00  0.00     0.013 C 
ENDBRANCH   7   8
ENDBRANCH   1   7
TORSDOF 2
ENDMDL
