MODEL 1
REMARK minimizedAffinity 7.2675457
REMARK minimizedRMSD -1
REMARK  2 active torsions:
REMARK  status: ('A' for Active; 'I' for Inactive)
REMARK    1  A    between atoms: C2'_3  and  C1'_4 
REMARK    2  A    between atoms: C1'_4  and  C1_5 
ROOT
ATOM      1  C1  I4B d   1      -4.089   0.741   2.809  0.00  0.00    -0.075 A 
ATOM      2  C2  I4B d   1      -2.950   0.176   3.326  0.00  0.00     0.003 A 
ATOM      3  C3  I4B d   1      -2.191  -0.733   2.552  0.00  0.00     0.002 A 
ATOM      4  C4  I4B d   1      -2.631  -1.087   1.293  0.00  0.00    -0.004 A 
ATOM      5  C5  I4B d   1      -3.774  -0.496   0.761  0.00  0.00     0.002 A 
ATOM      6  C6  I4B d   1      -4.501   0.433   1.519  0.00  0.00     0.003 A 
ENDROOT
BRANCH   1   7
ATOM      7  C1' I4B d   1      -4.886   1.673   3.667  0.00  0.00     0.060 C 
BRANCH   7   8
ATOM      8  C2' I4B d   1      -4.074   1.970   4.911  0.00  0.00    -0.013 C 
ATOM      9  C4' I4B d   1      -4.214   3.412   5.322  0.00  0.00     0.013 C 
ATOM     10  C3' I4B d   1      -4.540   1.050   5.999  0.00  0.00     0.013 C 
ENDBRANCH   7   8
ENDBRANCH   1   7
TORSDOF 2
ENDMDL
