MODEL 1
REMARK minimizedAffinity 3.3685689
REMARK minimizedRMSD -1
REMARK  2 active torsions:
REMARK  status: ('A' for Active; 'I' for Inactive)
REMARK    1  A    between atoms: C2'_3  and  C1'_4 
REMARK    2  A    between atoms: C1'_4  and  C1_5 
ROOT
ATOM      1  C1  I4B d   1       0.414   1.836  -2.346  0.00  0.00    -0.075 A 
ATOM      2  C2  I4B d   1      -0.663   0.992  -2.230  0.00  0.00     0.003 A 
ATOM      3  C3  I4B d   1      -1.960   1.440  -2.578  0.00  0.00     0.002 A 
ATOM      4  C4  I4B d   1      -2.142   2.745  -2.985  0.00  0.00    -0.004 A 
ATOM      5  C5  I4B d   1      -1.047   3.593  -3.124  0.00  0.00     0.002 A 
ATOM      6  C6  I4B d   1       0.241   3.132  -2.814  0.00  0.00     0.003 A 
ENDROOT
BRANCH   1   7
ATOM      7  C1' I4B d   1       1.765   1.341  -1.939  0.00  0.00     0.060 C 
BRANCH   7   8
ATOM      8  C2' I4B d   1       2.533   2.508  -1.352  0.00  0.00    -0.013 C 
ATOM      9  C4' I4B d   1       2.889   2.257   0.089  0.00  0.00     0.013 C 
ATOM     10  C3' I4B d   1       3.762   2.719  -2.185  0.00  0.00     0.013 C 
ENDBRANCH   7   8
ENDBRANCH   1   7
TORSDOF 2
ENDMDL
