MODEL 1
REMARK minimizedAffinity -3.74974585
REMARK minimizedRMSD -1
REMARK  2 active torsions:
REMARK  status: ('A' for Active; 'I' for Inactive)
REMARK    1  A    between atoms: C1_2  and  C2_3 
REMARK    2  A    between atoms: C2_3  and  C3_4 
ROOT
ATOM      1  C3  UNL d   1       1.652  -0.086   0.565  0.00  0.00    -0.075 A 
ATOM      2  C4  UNL d   1       1.014   1.061   0.070  0.00  0.00     0.002 A 
ATOM      3  C5  UNL d   1      -0.344   1.035  -0.247  0.00  0.00     0.002 A 
ATOM      4  C6  UNL d   1      -1.078  -0.138  -0.083  0.00  0.00    -0.004 A 
ATOM      5  C7  UNL d   1      -0.451  -1.288   0.392  0.00  0.00     0.002 A 
ATOM      6  C8  UNL d   1       0.907  -1.263   0.714  0.00  0.00     0.002 A 
ENDROOT
BRANCH   1   7
ATOM      7  C2  UNL d   1       3.115  -0.056   0.938  0.00  0.00     0.056 C 
BRANCH   7   8
ATOM      8  C1  UNL d   1       3.373   0.133   2.437  0.00  0.00     0.007 C 
ATOM      9  C   UNL d   1       2.895   1.480   2.963  0.00  0.00     0.009 C 
ENDBRANCH   7   8
ENDBRANCH   1   7
TORSDOF 2
ENDMDL
