MODEL 1
REMARK minimizedAffinity 1.44379103
REMARK minimizedRMSD -1
REMARK  2 active torsions:
REMARK  status: ('A' for Active; 'I' for Inactive)
REMARK    1  A    between atoms: C1_2  and  C2_3 
REMARK    2  A    between atoms: C2_3  and  C3_4 
ROOT
ATOM      1  C3  UNL d   1       1.209  -0.553   0.422  0.00  0.00    -0.075 A 
ATOM      2  C4  UNL d   1       2.309  -0.329   1.263  0.00  0.00     0.002 A 
ATOM      3  C5  UNL d   1       2.590   0.953   1.735  0.00  0.00     0.002 A 
ATOM      4  C6  UNL d   1       1.784   2.028   1.364  0.00  0.00    -0.004 A 
ATOM      5  C7  UNL d   1       0.699   1.819   0.516  0.00  0.00     0.002 A 
ATOM      6  C8  UNL d   1       0.413   0.537   0.046  0.00  0.00     0.002 A 
ENDROOT
BRANCH   1   7
ATOM      7  C2  UNL d   1       0.882  -1.943  -0.069  0.00  0.00     0.056 C 
BRANCH   7   8
ATOM      8  C1  UNL d   1       0.444  -2.908   1.038  0.00  0.00     0.007 C 
ATOM      9  C   UNL d   1      -0.939  -2.597   1.593  0.00  0.00     0.009 C 
ENDBRANCH   7   8
ENDBRANCH   1   7
TORSDOF 2
ENDMDL
