MODEL 1
REMARK minimizedAffinity -5.84199238
REMARK minimizedRMSD -1
REMARK  2 active torsions:
REMARK  status: ('A' for Active; 'I' for Inactive)
REMARK    1  A    between atoms: C1_2  and  C2_3 
REMARK    2  A    between atoms: C2_3  and  C3_4 
ROOT
ATOM      1  C3  UNL d   1       1.154  -0.737  -0.058  0.00  0.00    -0.075 A 
ATOM      2  C4  UNL d   1      -0.219  -0.632   0.209  0.00  0.00     0.002 A 
ATOM      3  C5  UNL d   1      -1.088  -0.107  -0.748  0.00  0.00     0.002 A 
ATOM      4  C6  UNL d   1      -0.596   0.329  -1.976  0.00  0.00    -0.004 A 
ATOM      5  C7  UNL d   1       0.768   0.245  -2.245  0.00  0.00     0.002 A 
ATOM      6  C8  UNL d   1       1.639  -0.285  -1.292  0.00  0.00     0.002 A 
ENDROOT
BRANCH   1   7
ATOM      7  C2  UNL d   1       2.095  -1.332   0.961  0.00  0.00     0.056 C 
BRANCH   7   8
ATOM      8  C1  UNL d   1       3.252  -0.408   1.357  0.00  0.00     0.007 C 
ATOM      9  C   UNL d   1       2.787   0.903   1.978  0.00  0.00     0.009 C 
ENDBRANCH   7   8
ENDBRANCH   1   7
TORSDOF 2
ENDMDL
