MODEL 1
REMARK minimizedAffinity -4.07291985
REMARK minimizedRMSD -1
REMARK  0 active torsions:
REMARK  status: ('A' for Active; 'I' for Inactive)
ROOT
ATOM      1  C1  BNZ d   1      -0.890   0.268   1.096  0.00  0.00     0.000 A 
ATOM      2  C2  BNZ d   1      -0.480   0.284  -0.210  0.00  0.00     0.000 A 
ATOM      3  C3  BNZ d   1       0.600  -0.450  -0.614  0.00  0.00     0.000 A 
ATOM      4  C4  BNZ d   1       1.292  -1.167   0.295  0.00  0.00     0.000 A 
ATOM      5  C5  BNZ d   1       0.897  -1.186   1.618  0.00  0.00     0.000 A 
ATOM      6  C6  BNZ d   1      -0.214  -0.476   2.013  0.00  0.00     0.000 A 
ENDROOT
TORSDOF 0
ENDMDL
