MODEL 1
REMARK minimizedAffinity 0.952463031
REMARK minimizedRMSD -1
REMARK  0 active torsions:
REMARK  status: ('A' for Active; 'I' for Inactive)
ROOT
ATOM      1  C1  BNZ d   1       0.199  -1.263   2.851  0.00  0.00     0.000 A 
ATOM      2  C2  BNZ d   1       0.688  -1.397   1.578  0.00  0.00     0.000 A 
ATOM      3  C3  BNZ d   1       0.307  -0.535   0.588  0.00  0.00     0.000 A 
ATOM      4  C4  BNZ d   1      -0.590   0.434   0.861  0.00  0.00     0.000 A 
ATOM      5  C5  BNZ d   1      -1.099   0.577   2.137  0.00  0.00     0.000 A 
ATOM      6  C6  BNZ d   1      -0.684  -0.269   3.140  0.00  0.00     0.000 A 
ENDROOT
TORSDOF 0
ENDMDL
