MODEL 1
REMARK minimizedAffinity -4.7317977
REMARK minimizedRMSD -1
REMARK  0 active torsions:
REMARK  status: ('A' for Active; 'I' for Inactive)
ROOT
ATOM      1  C1  BNZ d   1      -1.104  -0.306   1.429  0.00  0.00     0.000 A 
ATOM      2  C2  BNZ d   1      -0.818  -0.245   0.091  0.00  0.00     0.000 A 
ATOM      3  C3  BNZ d   1       0.454  -0.456  -0.362  0.00  0.00     0.000 A 
ATOM      4  C4  BNZ d   1       1.444  -0.687   0.524  0.00  0.00     0.000 A 
ATOM      5  C5  BNZ d   1       1.173  -0.742   1.877  0.00  0.00     0.000 A 
ATOM      6  C6  BNZ d   1      -0.115  -0.569   2.327  0.00  0.00     0.000 A 
ENDROOT
TORSDOF 0
ENDMDL
