MODEL 1
REMARK minimizedAffinity -4.4072566
REMARK minimizedRMSD -1
REMARK  0 active torsions:
REMARK  status: ('A' for Active; 'I' for Inactive)
ROOT
ATOM      1  C1  BNZ d   1       0.434  -1.044   2.155  0.00  0.00     0.000 A 
ATOM      2  C2  BNZ d   1       1.545  -1.819   1.955  0.00  0.00     0.000 A 
ATOM      3  C3  BNZ d   1       2.196  -1.812   0.753  0.00  0.00     0.000 A 
ATOM      4  C4  BNZ d   1       1.712  -1.063  -0.259  0.00  0.00     0.000 A 
ATOM      5  C5  BNZ d   1       0.587  -0.284  -0.076  0.00  0.00     0.000 A 
ATOM      6  C6  BNZ d   1      -0.043  -0.263   1.147  0.00  0.00     0.000 A 
ENDROOT
TORSDOF 0
ENDMDL
