MODEL 1
REMARK minimizedAffinity -0.68740046
REMARK minimizedRMSD -1
REMARK  0 active torsions:
REMARK  status: ('A' for Active; 'I' for Inactive)
ROOT
ATOM      1  C1  BNZ d   1      -2.800   3.963  -2.800  0.00  0.00     0.000 A 
ATOM      2  C2  BNZ d   1      -3.506   2.791  -2.740  0.00  0.00     0.000 A 
ATOM      3  C3  BNZ d   1      -2.878   1.586  -2.891  0.00  0.00     0.000 A 
ATOM      4  C4  BNZ d   1      -1.553   1.556  -3.141  0.00  0.00     0.000 A 
ATOM      5  C5  BNZ d   1      -0.829   2.730  -3.214  0.00  0.00     0.000 A 
ATOM      6  C6  BNZ d   1      -1.458   3.938  -3.023  0.00  0.00     0.000 A 
ENDROOT
TORSDOF 0
ENDMDL
