MODEL 1
REMARK minimizedAffinity -2.55518126
REMARK minimizedRMSD -1
REMARK  0 active torsions:
REMARK  status: ('A' for Active; 'I' for Inactive)
ROOT
ATOM      1  C1  BNZ d   1      -0.299   0.135   1.051  0.00  0.00     0.000 A 
ATOM      2  C2  BNZ d   1       0.513   0.258  -0.045  0.00  0.00     0.000 A 
ATOM      3  C3  BNZ d   1      -0.017   0.407  -1.296  0.00  0.00     0.000 A 
ATOM      4  C4  BNZ d   1      -1.356   0.393  -1.454  0.00  0.00     0.000 A 
ATOM      5  C5  BNZ d   1      -2.188   0.260  -0.361  0.00  0.00     0.000 A 
ATOM      6  C6  BNZ d   1      -1.651   0.149   0.901  0.00  0.00     0.000 A 
ENDROOT
TORSDOF 0
ENDMDL
