MODEL 1
REMARK minimizedAffinity -3.30062199
REMARK minimizedRMSD -1
REMARK  0 active torsions:
REMARK  status: ('A' for Active; 'I' for Inactive)
ROOT
ATOM      1  C1  BNZ d   1      -0.573  -0.710   0.095  0.00  0.00     0.000 A 
ATOM      2  C2  BNZ d   1      -1.110   0.414  -0.473  0.00  0.00     0.000 A 
ATOM      3  C3  BNZ d   1      -0.356   1.542  -0.641  0.00  0.00     0.000 A 
ATOM      4  C4  BNZ d   1       0.920   1.558  -0.204  0.00  0.00     0.000 A 
ATOM      5  C5  BNZ d   1       1.473   0.435   0.380  0.00  0.00     0.000 A 
ATOM      6  C6  BNZ d   1       0.723  -0.711   0.511  0.00  0.00     0.000 A 
ENDROOT
TORSDOF 0
ENDMDL
