MODEL 1
REMARK minimizedAffinity -4.26504517
REMARK minimizedRMSD -1
REMARK  0 active torsions:
REMARK  status: ('A' for Active; 'I' for Inactive)
ROOT
ATOM      1  C1  BNZ d   1       1.906  -0.368   1.703  0.00  0.00     0.000 A 
ATOM      2  C2  BNZ d   1       1.483  -0.103   0.428  0.00  0.00     0.000 A 
ATOM      3  C3  BNZ d   1       0.150  -0.012   0.137  0.00  0.00     0.000 A 
ATOM      4  C4  BNZ d   1      -0.757  -0.225   1.112  0.00  0.00     0.000 A 
ATOM      5  C5  BNZ d   1      -0.347  -0.502   2.401  0.00  0.00     0.000 A 
ATOM      6  C6  BNZ d   1       0.996  -0.555   2.698  0.00  0.00     0.000 A 
ENDROOT
TORSDOF 0
ENDMDL
