MODEL 1
REMARK minimizedAffinity -4.45034027
REMARK minimizedRMSD -1
REMARK  0 active torsions:
REMARK  status: ('A' for Active; 'I' for Inactive)
ROOT
ATOM      1  C1  BNZ d   1      -0.818  -0.007   0.544  0.00  0.00     0.000 A 
ATOM      2  C2  BNZ d   1      -0.941  -0.374   1.857  0.00  0.00     0.000 A 
ATOM      3  C3  BNZ d   1       0.155  -0.741   2.587  0.00  0.00     0.000 A 
ATOM      4  C4  BNZ d   1       1.365  -0.781   1.993  0.00  0.00     0.000 A 
ATOM      5  C5  BNZ d   1       1.504  -0.424   0.666  0.00  0.00     0.000 A 
ATOM      6  C6  BNZ d   1       0.405  -0.017  -0.055  0.00  0.00     0.000 A 
ENDROOT
TORSDOF 0
ENDMDL
