MODEL 1
REMARK minimizedAffinity -1.08221436
REMARK minimizedRMSD -1
REMARK  2 active torsions:
REMARK  status: ('A' for Active; 'I' for Inactive)
REMARK    1  A    between atoms: C1_2  and  C2_3 
REMARK    2  A    between atoms: C2_3  and  C3_4 
ROOT
ATOM      1  C3  UNL d   1      -0.377   2.879   0.083  0.00  0.00    -0.075 A 
ATOM      2  C4  UNL d   1      -0.349   2.920  -1.319  0.00  0.00     0.002 A 
ATOM      3  C5  UNL d   1       0.038   4.082  -1.986  0.00  0.00     0.002 A 
ATOM      4  C6  UNL d   1       0.391   5.219  -1.263  0.00  0.00    -0.004 A 
ATOM      5  C7  UNL d   1       0.351   5.195   0.129  0.00  0.00     0.002 A 
ATOM      6  C8  UNL d   1      -0.032   4.032   0.800  0.00  0.00     0.002 A 
ENDROOT
BRANCH   1   7
ATOM      7  C2  UNL d   1      -0.767   1.615   0.811  0.00  0.00     0.056 C 
BRANCH   7   8
ATOM      8  C1  UNL d   1      -1.176   1.838   2.271  0.00  0.00     0.007 C 
ATOM      9  C   UNL d   1      -2.291   0.907   2.731  0.00  0.00     0.009 C 
ENDBRANCH   7   8
ENDBRANCH   1   7
TORSDOF 2
ENDMDL
