MODEL 1
REMARK minimizedAffinity 6.8639617
REMARK minimizedRMSD -1
REMARK  2 active torsions:
REMARK  status: ('A' for Active; 'I' for Inactive)
REMARK    1  A    between atoms: C1_2  and  C2_3 
REMARK    2  A    between atoms: C2_3  and  C3_4 
ROOT
ATOM      1  C3  UNL d   1      -0.556   3.364   0.182  0.00  0.00    -0.075 A 
ATOM      2  C4  UNL d   1       0.645   2.778   0.607  0.00  0.00     0.002 A 
ATOM      3  C5  UNL d   1       0.649   1.846   1.645  0.00  0.00     0.002 A 
ATOM      4  C6  UNL d   1      -0.543   1.496   2.277  0.00  0.00    -0.004 A 
ATOM      5  C7  UNL d   1      -1.739   2.084   1.873  0.00  0.00     0.002 A 
ATOM      6  C8  UNL d   1      -1.747   3.014   0.832  0.00  0.00     0.002 A 
ENDROOT
BRANCH   1   7
ATOM      7  C2  UNL d   1      -0.572   4.351  -0.960  0.00  0.00     0.056 C 
BRANCH   7   8
ATOM      8  C1  UNL d   1      -0.173   3.749  -2.312  0.00  0.00     0.007 C 
ATOM      9  C   UNL d   1      -1.340   3.629  -3.284  0.00  0.00     0.009 C 
ENDBRANCH   7   8
ENDBRANCH   1   7
TORSDOF 2
ENDMDL
