MODEL 1
REMARK minimizedAffinity 7.89602757
REMARK minimizedRMSD -1
REMARK  2 active torsions:
REMARK  status: ('A' for Active; 'I' for Inactive)
REMARK    1  A    between atoms: C1_2  and  C2_3 
REMARK    2  A    between atoms: C2_3  and  C3_4 
ROOT
ATOM      1  C3  UNL d   1      -0.236   2.337  -0.132  0.00  0.00    -0.075 A 
ATOM      2  C4  UNL d   1       0.504   3.336   0.517  0.00  0.00     0.002 A 
ATOM      3  C5  UNL d   1       0.962   4.450  -0.187  0.00  0.00     0.002 A 
ATOM      4  C6  UNL d   1       0.696   4.574  -1.549  0.00  0.00    -0.004 A 
ATOM      5  C7  UNL d   1      -0.024   3.580  -2.208  0.00  0.00     0.002 A 
ATOM      6  C8  UNL d   1      -0.487   2.467  -1.505  0.00  0.00     0.002 A 
ENDROOT
BRANCH   1   7
ATOM      7  C2  UNL d   1      -0.759   1.144   0.630  0.00  0.00     0.056 C 
BRANCH   7   8
ATOM      8  C1  UNL d   1      -0.406   1.153   2.122  0.00  0.00     0.007 C 
ATOM      9  C   UNL d   1      -1.584   0.798   3.020  0.00  0.00     0.009 C 
ENDBRANCH   7   8
ENDBRANCH   1   7
TORSDOF 2
ENDMDL
