MODEL 1
REMARK minimizedAffinity 2.03145218
REMARK minimizedRMSD -1
REMARK  2 active torsions:
REMARK  status: ('A' for Active; 'I' for Inactive)
REMARK    1  A    between atoms: C1_2  and  C2_3 
REMARK    2  A    between atoms: C2_3  and  C3_4 
ROOT
ATOM      1  C3  UNL d   1      -0.517   2.139   1.630  0.00  0.00    -0.075 A 
ATOM      2  C4  UNL d   1      -1.894   1.882   1.706  0.00  0.00     0.002 A 
ATOM      3  C5  UNL d   1      -2.429   1.205   2.802  0.00  0.00     0.002 A 
ATOM      4  C6  UNL d   1      -1.596   0.769   3.830  0.00  0.00    -0.004 A 
ATOM      5  C7  UNL d   1      -0.224   1.005   3.757  0.00  0.00     0.002 A 
ATOM      6  C8  UNL d   1       0.313   1.685   2.663  0.00  0.00     0.002 A 
ENDROOT
BRANCH   1   7
ATOM      7  C2  UNL d   1       0.064   2.896   0.460  0.00  0.00     0.056 C 
BRANCH   7   8
ATOM      8  C1  UNL d   1      -0.791   4.080  -0.003  0.00  0.00     0.007 C 
ATOM      9  C   UNL d   1      -0.654   4.374  -1.491  0.00  0.00     0.009 C 
ENDBRANCH   7   8
ENDBRANCH   1   7
TORSDOF 2
ENDMDL
