MODEL 1
REMARK minimizedAffinity 14.3108721
REMARK minimizedRMSD -1
REMARK  2 active torsions:
REMARK  status: ('A' for Active; 'I' for Inactive)
REMARK    1  A    between atoms: C1_2  and  C2_3 
REMARK    2  A    between atoms: C2_3  and  C3_4 
ROOT
ATOM      1  C3  UNL d   1      -0.155   2.580  -0.021  0.00  0.00    -0.075 A 
ATOM      2  C4  UNL d   1       0.711   3.519   0.557  0.00  0.00     0.002 A 
ATOM      3  C5  UNL d   1       1.103   4.653  -0.156  0.00  0.00     0.002 A 
ATOM      4  C6  UNL d   1       0.644   4.857  -1.455  0.00  0.00    -0.004 A 
ATOM      5  C7  UNL d   1      -0.203   3.921  -2.045  0.00  0.00     0.002 A 
ATOM      6  C8  UNL d   1      -0.601   2.788  -1.333  0.00  0.00     0.002 A 
ENDROOT
BRANCH   1   7
ATOM      7  C2  UNL d   1      -0.607   1.366   0.755  0.00  0.00     0.056 C 
BRANCH   7   8
ATOM      8  C1  UNL d   1       0.511   0.681   1.548  0.00  0.00     0.007 C 
ATOM      9  C   UNL d   1       0.039   0.108   2.878  0.00  0.00     0.009 C 
ENDBRANCH   7   8
ENDBRANCH   1   7
TORSDOF 2
ENDMDL
