MODEL 1
REMARK minimizedAffinity 14.171195
REMARK minimizedRMSD -1
REMARK  2 active torsions:
REMARK  status: ('A' for Active; 'I' for Inactive)
REMARK    1  A    between atoms: C1_2  and  C2_3 
REMARK    2  A    between atoms: C2_3  and  C3_4 
ROOT
ATOM      1  C3  UNL d   1      -3.940  -2.995   5.449  0.00  0.00    -0.075 A 
ATOM      2  C4  UNL d   1      -3.469  -1.774   5.953  0.00  0.00     0.002 A 
ATOM      3  C5  UNL d   1      -2.313  -1.192   5.434  0.00  0.00     0.002 A 
ATOM      4  C6  UNL d   1      -1.607  -1.827   4.414  0.00  0.00    -0.004 A 
ATOM      5  C7  UNL d   1      -2.056  -3.048   3.917  0.00  0.00     0.002 A 
ATOM      6  C8  UNL d   1      -3.216  -3.630   4.431  0.00  0.00     0.002 A 
ENDROOT
BRANCH   1   7
ATOM      7  C2  UNL d   1      -5.208  -3.615   5.986  0.00  0.00     0.056 C 
BRANCH   7   8
ATOM      8  C1  UNL d   1      -5.943  -4.504   4.977  0.00  0.00     0.007 C 
ATOM      9  C   UNL d   1      -5.951  -5.976   5.369  0.00  0.00     0.009 C 
ENDBRANCH   7   8
ENDBRANCH   1   7
TORSDOF 2
ENDMDL
