MODEL 1
REMARK minimizedAffinity 0.722265482
REMARK minimizedRMSD -1
REMARK  2 active torsions:
REMARK  status: ('A' for Active; 'I' for Inactive)
REMARK    1  A    between atoms: C1_2  and  C2_3 
REMARK    2  A    between atoms: C2_3  and  C3_4 
ROOT
ATOM      1  C3  UNL d   1       0.315   3.473   0.507  0.00  0.00    -0.075 A 
ATOM      2  C4  UNL d   1       1.124   3.667   1.635  0.00  0.00     0.002 A 
ATOM      3  C5  UNL d   1       0.883   2.957   2.811  0.00  0.00     0.002 A 
ATOM      4  C6  UNL d   1      -0.175   2.053   2.878  0.00  0.00    -0.004 A 
ATOM      5  C7  UNL d   1      -0.996   1.864   1.768  0.00  0.00     0.002 A 
ATOM      6  C8  UNL d   1      -0.754   2.570   0.588  0.00  0.00     0.002 A 
ENDROOT
BRANCH   1   7
ATOM      7  C2  UNL d   1       0.589   4.217  -0.779  0.00  0.00     0.056 C 
BRANCH   7   8
ATOM      8  C1  UNL d   1       0.436   3.360  -2.040  0.00  0.00     0.007 C 
ATOM      9  C   UNL d   1      -0.663   3.853  -2.971  0.00  0.00     0.009 C 
ENDBRANCH   7   8
ENDBRANCH   1   7
TORSDOF 2
ENDMDL
