MODEL 1
REMARK minimizedAffinity 13.1809864
REMARK minimizedRMSD -1
REMARK  2 active torsions:
REMARK  status: ('A' for Active; 'I' for Inactive)
REMARK    1  A    between atoms: C1_2  and  C2_3 
REMARK    2  A    between atoms: C2_3  and  C3_4 
ROOT
ATOM      1  C3  UNL d   1      -2.222   4.373   0.741  0.00  0.00    -0.075 A 
ATOM      2  C4  UNL d   1      -1.487   3.252   0.331  0.00  0.00     0.002 A 
ATOM      3  C5  UNL d   1      -0.173   3.392  -0.117  0.00  0.00     0.002 A 
ATOM      4  C6  UNL d   1       0.418   4.652  -0.170  0.00  0.00    -0.004 A 
ATOM      5  C7  UNL d   1      -0.309   5.775   0.219  0.00  0.00     0.002 A 
ATOM      6  C8  UNL d   1      -1.623   5.638   0.672  0.00  0.00     0.002 A 
ENDROOT
BRANCH   1   7
ATOM      7  C2  UNL d   1      -3.635   4.225   1.254  0.00  0.00     0.056 C 
BRANCH   7   8
ATOM      8  C1  UNL d   1      -4.394   5.549   1.381  0.00  0.00     0.007 C 
ATOM      9  C   UNL d   1      -4.710   5.924   2.823  0.00  0.00     0.009 C 
ENDBRANCH   7   8
ENDBRANCH   1   7
TORSDOF 2
ENDMDL
