MODEL 1
REMARK minimizedAffinity -2.73193121
REMARK minimizedRMSD -1
REMARK  2 active torsions:
REMARK  status: ('A' for Active; 'I' for Inactive)
REMARK    1  A    between atoms: C1_2  and  C2_3 
REMARK    2  A    between atoms: C2_3  and  C3_4 
ROOT
ATOM      1  C3  UNL d   1      -4.374  -3.458   4.533  0.00  0.00    -0.075 A 
ATOM      2  C4  UNL d   1      -3.222  -3.671   3.762  0.00  0.00     0.002 A 
ATOM      3  C5  UNL d   1      -2.013  -3.072   4.115  0.00  0.00     0.002 A 
ATOM      4  C6  UNL d   1      -1.941  -2.247   5.236  0.00  0.00    -0.004 A 
ATOM      5  C7  UNL d   1      -3.083  -2.015   6.000  0.00  0.00     0.002 A 
ATOM      6  C8  UNL d   1      -4.294  -2.617   5.651  0.00  0.00     0.002 A 
ENDROOT
BRANCH   1   7
ATOM      7  C2  UNL d   1      -5.679  -4.126   4.173  0.00  0.00     0.056 C 
BRANCH   7   8
ATOM      8  C1  UNL d   1      -5.631  -4.927   2.867  0.00  0.00     0.007 C 
ATOM      9  C   UNL d   1      -6.000  -4.100   1.643  0.00  0.00     0.009 C 
ENDBRANCH   7   8
ENDBRANCH   1   7
TORSDOF 2
ENDMDL
