MODEL 1
REMARK minimizedAffinity -4.87364721
REMARK minimizedRMSD -1
REMARK  2 active torsions:
REMARK  status: ('A' for Active; 'I' for Inactive)
REMARK    1  A    between atoms: C1_2  and  C2_3 
REMARK    2  A    between atoms: C2_3  and  C3_4 
ROOT
ATOM      1  C3  UNL d   1      -5.356  -1.244  -1.527  0.00  0.00    -0.075 A 
ATOM      2  C4  UNL d   1      -6.000  -0.660  -2.628  0.00  0.00     0.002 A 
ATOM      3  C5  UNL d   1      -5.389   0.373  -3.339  0.00  0.00     0.002 A 
ATOM      4  C6  UNL d   1      -4.135   0.841  -2.954  0.00  0.00    -0.004 A 
ATOM      5  C7  UNL d   1      -3.494   0.280  -1.852  0.00  0.00     0.002 A 
ATOM      6  C8  UNL d   1      -4.101  -0.757  -1.141  0.00  0.00     0.002 A 
ENDROOT
BRANCH   1   7
ATOM      7  C2  UNL d   1      -5.999  -2.382  -0.771  0.00  0.00     0.056 C 
BRANCH   7   8
ATOM      8  C1  UNL d   1      -5.142  -2.933   0.374  0.00  0.00     0.007 C 
ATOM      9  C   UNL d   1      -5.920  -3.829   1.329  0.00  0.00     0.009 C 
ENDBRANCH   7   8
ENDBRANCH   1   7
TORSDOF 2
ENDMDL
