MODEL 1
REMARK minimizedAffinity 1.41851008
REMARK minimizedRMSD -1
REMARK  2 active torsions:
REMARK  status: ('A' for Active; 'I' for Inactive)
REMARK    1  A    between atoms: C1_2  and  C2_3 
REMARK    2  A    between atoms: C2_3  and  C3_4 
ROOT
ATOM      1  C3  UNL d   1      -0.810   0.930   2.080  0.00  0.00    -0.075 A 
ATOM      2  C4  UNL d   1      -0.680   1.128   0.698  0.00  0.00     0.002 A 
ATOM      3  C5  UNL d   1      -0.155   2.321   0.200  0.00  0.00     0.002 A 
ATOM      4  C6  UNL d   1       0.235   3.333   1.074  0.00  0.00    -0.004 A 
ATOM      5  C7  UNL d   1       0.095   3.153   2.449  0.00  0.00     0.002 A 
ATOM      6  C8  UNL d   1      -0.425   1.959   2.950  0.00  0.00     0.002 A 
ENDROOT
BRANCH   1   7
ATOM      7  C2  UNL d   1      -1.349  -0.370   2.627  0.00  0.00     0.056 C 
BRANCH   7   8
ATOM      8  C1  UNL d   1      -0.283  -1.453   2.825  0.00  0.00     0.007 C 
ATOM      9  C   UNL d   1      -0.823  -2.711   3.494  0.00  0.00     0.009 C 
ENDBRANCH   7   8
ENDBRANCH   1   7
TORSDOF 2
ENDMDL
