MODEL 1
REMARK minimizedAffinity -0.12272691
REMARK minimizedRMSD -1
REMARK  0 active torsions:
REMARK  status: ('A' for Active; 'I' for Inactive)
ROOT
ATOM      1  C   UNL d   1      -0.292   2.839   1.864  0.00  0.00    -0.002 A 
ATOM      2  C1  UNL d   1      -1.037   3.055   0.713  0.00  0.00     0.010 A 
ATOM      3  C2  UNL d   1      -1.129   2.067  -0.270  0.00  0.00     0.041 A 
ATOM      4  C3  UNL d   1      -0.454   0.846  -0.074  0.00  0.00    -0.075 A 
ATOM      5  S   UNL d   1      -0.424  -0.508  -1.140  0.00  0.00     0.015 SA
ATOM      6  C4  UNL d   1       0.577  -1.406  -0.093  0.00  0.00     0.022 A 
ATOM      7  C5  UNL d   1       0.891  -0.704   1.047  0.00  0.00     0.026 A 
ATOM      8  C6  UNL d   1       0.302   0.605   1.077  0.00  0.00    -0.082 A 
ATOM      9  C7  UNL d   1       0.376   1.626   2.055  0.00  0.00     0.045 A 
ENDROOT
TORSDOF 0
ENDMDL
