MODEL 1
REMARK minimizedAffinity -2.6693604
REMARK minimizedRMSD -1
REMARK  0 active torsions:
REMARK  status: ('A' for Active; 'I' for Inactive)
ROOT
ATOM      1  C   UNL d   1      -1.129   2.285   1.941  0.00  0.00    -0.002 A 
ATOM      2  C1  UNL d   1      -0.465   1.237   2.561  0.00  0.00     0.010 A 
ATOM      3  C2  UNL d   1       0.157   0.242   1.803  0.00  0.00     0.041 A 
ATOM      4  C3  UNL d   1       0.101   0.321   0.398  0.00  0.00    -0.075 A 
ATOM      5  S   UNL d   1       0.790  -0.782  -0.733  0.00  0.00     0.015 SA
ATOM      6  C4  UNL d   1       0.220   0.113  -2.067  0.00  0.00     0.022 A 
ATOM      7  C5  UNL d   1      -0.482   1.229  -1.677  0.00  0.00     0.026 A 
ATOM      8  C6  UNL d   1      -0.561   1.368  -0.250  0.00  0.00    -0.082 A 
ATOM      9  C7  UNL d   1      -1.183   2.360   0.546  0.00  0.00     0.045 A 
ENDROOT
TORSDOF 0
ENDMDL
