MODEL 1
REMARK minimizedAffinity -4.19672251
REMARK minimizedRMSD -1
REMARK  0 active torsions:
REMARK  status: ('A' for Active; 'I' for Inactive)
ROOT
ATOM      1  C   UNL d   1      -0.939   2.317   2.004  0.00  0.00    -0.002 A 
ATOM      2  C1  UNL d   1      -1.348   2.516   0.693  0.00  0.00     0.010 A 
ATOM      3  C2  UNL d   1      -1.089   1.553  -0.285  0.00  0.00     0.041 A 
ATOM      4  C3  UNL d   1      -0.407   0.376   0.081  0.00  0.00    -0.075 A 
ATOM      5  S   UNL d   1       0.019  -0.941  -0.947  0.00  0.00     0.015 SA
ATOM      6  C4  UNL d   1       0.753  -1.798   0.330  0.00  0.00     0.022 A 
ATOM      7  C5  UNL d   1       0.684  -1.111   1.519  0.00  0.00     0.026 A 
ATOM      8  C6  UNL d   1       0.014   0.153   1.395  0.00  0.00    -0.082 A 
ATOM      9  C7  UNL d   1      -0.263   1.148   2.363  0.00  0.00     0.045 A 
ENDROOT
TORSDOF 0
ENDMDL
