MODEL 1
REMARK minimizedAffinity -2.46362519
REMARK minimizedRMSD -1
REMARK  0 active torsions:
REMARK  status: ('A' for Active; 'I' for Inactive)
ROOT
ATOM      1  C   UNL d   1       0.126  -3.309  -2.422  0.00  0.00    -0.002 A 
ATOM      2  C1  UNL d   1      -1.155  -3.358  -1.889  0.00  0.00     0.010 A 
ATOM      3  C2  UNL d   1      -1.552  -2.445  -0.910  0.00  0.00     0.041 A 
ATOM      4  C3  UNL d   1      -0.632  -1.471  -0.473  0.00  0.00    -0.075 A 
ATOM      5  S   UNL d   1      -0.898  -0.250   0.715  0.00  0.00     0.015 SA
ATOM      6  C4  UNL d   1       0.682   0.367   0.541  0.00  0.00     0.022 A 
ATOM      7  C5  UNL d   1       1.408  -0.331  -0.395  0.00  0.00     0.026 A 
ATOM      8  C6  UNL d   1       0.662  -1.401  -0.996  0.00  0.00    -0.082 A 
ATOM      9  C7  UNL d   1       1.035  -2.341  -1.986  0.00  0.00     0.045 A 
ENDROOT
TORSDOF 0
ENDMDL
