MODEL 1
REMARK minimizedAffinity -0.471837908
REMARK minimizedRMSD -1
REMARK  0 active torsions:
REMARK  status: ('A' for Active; 'I' for Inactive)
ROOT
ATOM      1  C   UNL d   1      -0.363   2.259   2.228  0.00  0.00    -0.002 A 
ATOM      2  C1  UNL d   1      -1.634   2.314   1.675  0.00  0.00     0.010 A 
ATOM      3  C2  UNL d   1      -2.026   1.391   0.703  0.00  0.00     0.041 A 
ATOM      4  C3  UNL d   1      -1.111   0.401   0.295  0.00  0.00    -0.075 A 
ATOM      5  S   UNL d   1      -1.371  -0.836  -0.878  0.00  0.00     0.015 SA
ATOM      6  C4  UNL d   1       0.199  -1.466  -0.672  0.00  0.00     0.022 A 
ATOM      7  C5  UNL d   1       0.918  -0.762   0.265  0.00  0.00     0.026 A 
ATOM      8  C6  UNL d   1       0.175   0.325   0.838  0.00  0.00    -0.082 A 
ATOM      9  C7  UNL d   1       0.543   1.276   1.820  0.00  0.00     0.045 A 
ENDROOT
TORSDOF 0
ENDMDL
