MODEL 1
REMARK minimizedAffinity -2.96396875
REMARK minimizedRMSD -1
REMARK  0 active torsions:
REMARK  status: ('A' for Active; 'I' for Inactive)
ROOT
ATOM      1  C   UNL d   1      -1.062   2.027   1.892  0.00  0.00    -0.002 A 
ATOM      2  C1  UNL d   1      -0.352   0.950   2.405  0.00  0.00     0.010 A 
ATOM      3  C2  UNL d   1       0.325   0.075   1.553  0.00  0.00     0.041 A 
ATOM      4  C3  UNL d   1       0.277   0.304   0.163  0.00  0.00    -0.075 A 
ATOM      5  S   UNL d   1       1.030  -0.635  -1.071  0.00  0.00     0.015 SA
ATOM      6  C4  UNL d   1       0.427   0.371  -2.308  0.00  0.00     0.022 A 
ATOM      7  C5  UNL d   1      -0.332   1.403  -1.809  0.00  0.00     0.026 A 
ATOM      8  C6  UNL d   1      -0.431   1.381  -0.377  0.00  0.00    -0.082 A 
ATOM      9  C7  UNL d   1      -1.107   2.250   0.513  0.00  0.00     0.045 A 
ENDROOT
TORSDOF 0
ENDMDL
