MODEL 1
REMARK minimizedAffinity -3.50664353
REMARK minimizedRMSD -1
REMARK  0 active torsions:
REMARK  status: ('A' for Active; 'I' for Inactive)
ROOT
ATOM      1  C   UNL d   1      -0.545   2.454   2.248  0.00  0.00    -0.002 A 
ATOM      2  C1  UNL d   1      -0.102   1.175   2.553  0.00  0.00     0.010 A 
ATOM      3  C2  UNL d   1       0.272   0.292   1.538  0.00  0.00     0.041 A 
ATOM      4  C3  UNL d   1       0.195   0.721   0.199  0.00  0.00    -0.075 A 
ATOM      5  S   UNL d   1       0.601  -0.187  -1.209  0.00  0.00     0.015 SA
ATOM      6  C4  UNL d   1       0.197   1.101  -2.249  0.00  0.00     0.022 A 
ATOM      7  C5  UNL d   1      -0.240   2.205  -1.556  0.00  0.00     0.026 A 
ATOM      8  C6  UNL d   1      -0.248   2.005  -0.134  0.00  0.00    -0.082 A 
ATOM      9  C7  UNL d   1      -0.621   2.876   0.918  0.00  0.00     0.045 A 
ENDROOT
TORSDOF 0
ENDMDL
