MODEL 1
REMARK minimizedAffinity -2.3566165
REMARK minimizedRMSD -1
REMARK  0 active torsions:
REMARK  status: ('A' for Active; 'I' for Inactive)
ROOT
ATOM      1  C   UNL d   1       0.899   0.919  -2.701  0.00  0.00    -0.002 A 
ATOM      2  C1  UNL d   1       0.075   2.035  -2.660  0.00  0.00     0.010 A 
ATOM      3  C2  UNL d   1      -0.598   2.379  -1.486  0.00  0.00     0.041 A 
ATOM      4  C3  UNL d   1      -0.425   1.576  -0.342  0.00  0.00    -0.075 A 
ATOM      5  S   UNL d   1      -1.148   1.804   1.207  0.00  0.00     0.015 SA
ATOM      6  C4  UNL d   1      -0.379   0.427   1.852  0.00  0.00     0.022 A 
ATOM      7  C5  UNL d   1       0.413  -0.204   0.922  0.00  0.00     0.026 A 
ATOM      8  C6  UNL d   1       0.400   0.448  -0.357  0.00  0.00    -0.082 A 
ATOM      9  C7  UNL d   1       1.068   0.125  -1.563  0.00  0.00     0.045 A 
ENDROOT
TORSDOF 0
ENDMDL
