MODEL 1
REMARK minimizedAffinity -0.205993995
REMARK minimizedRMSD -1
REMARK  0 active torsions:
REMARK  status: ('A' for Active; 'I' for Inactive)
ROOT
ATOM      1  C   UNL d   1      -1.811   2.827  -0.128  0.00  0.00    -0.002 A 
ATOM      2  C1  UNL d   1      -1.365   2.905   1.184  0.00  0.00     0.010 A 
ATOM      3  C2  UNL d   1      -0.421   1.997   1.668  0.00  0.00     0.041 A 
ATOM      4  C3  UNL d   1       0.072   1.001   0.804  0.00  0.00    -0.075 A 
ATOM      5  S   UNL d   1       1.233  -0.219   1.177  0.00  0.00     0.015 SA
ATOM      6  C4  UNL d   1       1.163  -0.872  -0.396  0.00  0.00     0.022 A 
ATOM      7  C5  UNL d   1       0.281  -0.189  -1.199  0.00  0.00     0.026 A 
ATOM      8  C6  UNL d   1      -0.362   0.902  -0.521  0.00  0.00    -0.082 A 
ATOM      9  C7  UNL d   1      -1.320   1.837  -0.982  0.00  0.00     0.045 A 
ENDROOT
TORSDOF 0
ENDMDL
