MODEL 1
REMARK minimizedAffinity 6.71115208
REMARK minimizedRMSD -1
REMARK  1 active torsions:
REMARK  status: ('A' for Active; 'I' for Inactive)
REMARK    1  A    between atoms: C1_2  and  C2_3 
ROOT
ATOM      1  C2  UNL d   1       4.501  -3.293  -5.636  0.00  0.00    -0.077 A 
ATOM      2  C3  UNL d   1       3.681  -4.370  -6.000  0.00  0.00     0.002 A 
ATOM      3  C4  UNL d   1       4.015  -5.672  -5.622  0.00  0.00     0.002 A 
ATOM      4  C5  UNL d   1       5.167  -5.909  -4.876  0.00  0.00    -0.004 A 
ATOM      5  C6  UNL d   1       5.991  -4.845  -4.510  0.00  0.00     0.002 A 
ATOM      6  C7  UNL d   1       5.659  -3.543  -4.887  0.00  0.00     0.002 A 
ENDROOT
BRANCH   1   7
ATOM      7  C1  UNL d   1       4.117  -1.883  -6.000  0.00  0.00     0.055 C 
ATOM      8  C   UNL d   1       4.137  -0.972  -4.781  0.00  0.00     0.019 C 
ENDBRANCH   1   7
TORSDOF 1
ENDMDL
