MODEL 1
REMARK minimizedAffinity 12.0219183
REMARK minimizedRMSD -1
REMARK  1 active torsions:
REMARK  status: ('A' for Active; 'I' for Inactive)
REMARK    1  A    between atoms: C1_2  and  C2_3 
ROOT
ATOM      1  C2  UNL d   1       5.272  -1.363   1.155  0.00  0.00    -0.077 A 
ATOM      2  C3  UNL d   1       5.974  -1.222   2.360  0.00  0.00     0.002 A 
ATOM      3  C4  UNL d   1       5.332  -1.441   3.581  0.00  0.00     0.002 A 
ATOM      4  C5  UNL d   1       3.987  -1.806   3.607  0.00  0.00    -0.004 A 
ATOM      5  C6  UNL d   1       3.280  -1.947   2.414  0.00  0.00     0.002 A 
ATOM      6  C7  UNL d   1       3.920  -1.727   1.193  0.00  0.00     0.002 A 
ENDROOT
BRANCH   1   7
ATOM      7  C1  UNL d   1       5.975  -1.176  -0.165  0.00  0.00     0.055 C 
ATOM      8  C   UNL d   1       4.981  -1.063  -1.311  0.00  0.00     0.019 C 
ENDBRANCH   1   7
TORSDOF 1
ENDMDL
