MODEL 1
REMARK minimizedAffinity 2.0656023
REMARK minimizedRMSD -1
REMARK  1 active torsions:
REMARK  status: ('A' for Active; 'I' for Inactive)
REMARK    1  A    between atoms: C1_2  and  C2_3 
ROOT
ATOM      1  C2  UNL d   1       5.604  -3.856  -3.788  0.00  0.00    -0.077 A 
ATOM      2  C3  UNL d   1       5.998  -5.201  -3.830  0.00  0.00     0.002 A 
ATOM      3  C4  UNL d   1       5.676  -5.996  -4.932  0.00  0.00     0.002 A 
ATOM      4  C5  UNL d   1       4.964  -5.456  -6.000  0.00  0.00    -0.004 A 
ATOM      5  C6  UNL d   1       4.566  -4.120  -5.966  0.00  0.00     0.002 A 
ATOM      6  C7  UNL d   1       4.885  -3.323  -4.866  0.00  0.00     0.002 A 
ENDROOT
BRANCH   1   7
ATOM      7  C1  UNL d   1       5.992  -2.983  -2.624  0.00  0.00     0.055 C 
ATOM      8  C   UNL d   1       4.908  -1.961  -2.312  0.00  0.00     0.019 C 
ENDBRANCH   1   7
TORSDOF 1
ENDMDL
