MODEL 1
REMARK minimizedAffinity 6.68607521
REMARK minimizedRMSD -1
REMARK  1 active torsions:
REMARK  status: ('A' for Active; 'I' for Inactive)
REMARK    1  A    between atoms: C1_2  and  C2_3 
ROOT
ATOM      1  C2  UNL d   1       3.541  -4.557  -5.158  0.00  0.00    -0.077 A 
ATOM      2  C3  UNL d   1       4.841  -4.413  -5.663  0.00  0.00     0.002 A 
ATOM      3  C4  UNL d   1       5.941  -4.836  -4.914  0.00  0.00     0.002 A 
ATOM      4  C5  UNL d   1       5.752  -5.409  -3.658  0.00  0.00    -0.004 A 
ATOM      5  C6  UNL d   1       4.463  -5.555  -3.146  0.00  0.00     0.002 A 
ATOM      6  C7  UNL d   1       3.363  -5.131  -3.893  0.00  0.00     0.002 A 
ENDROOT
BRANCH   1   7
ATOM      7  C1  UNL d   1       2.351  -4.147  -5.985  0.00  0.00     0.055 C 
ATOM      8  C   UNL d   1       1.270  -5.218  -5.970  0.00  0.00     0.019 C 
ENDBRANCH   1   7
TORSDOF 1
ENDMDL
