MODEL 1
REMARK minimizedAffinity 4.0850482
REMARK minimizedRMSD -1
REMARK  1 active torsions:
REMARK  status: ('A' for Active; 'I' for Inactive)
REMARK    1  A    between atoms: C1_2  and  C2_3 
ROOT
ATOM      1  C2  UNL d   1       4.412  -3.886  -5.279  0.00  0.00    -0.077 A 
ATOM      2  C3  UNL d   1       4.133  -4.169  -3.935  0.00  0.00     0.002 A 
ATOM      3  C4  UNL d   1       4.781  -5.220  -3.284  0.00  0.00     0.002 A 
ATOM      4  C5  UNL d   1       5.716  -5.994  -3.969  0.00  0.00    -0.004 A 
ATOM      5  C6  UNL d   1       6.000  -5.722  -5.306  0.00  0.00     0.002 A 
ATOM      6  C7  UNL d   1       5.352  -4.673  -5.959  0.00  0.00     0.002 A 
ENDROOT
BRANCH   1   7
ATOM      7  C1  UNL d   1       3.750  -2.722  -5.969  0.00  0.00     0.055 C 
ATOM      8  C   UNL d   1       4.653  -1.497  -5.977  0.00  0.00     0.019 C 
ENDBRANCH   1   7
TORSDOF 1
ENDMDL
