MODEL 1
REMARK minimizedAffinity 3.66729665
REMARK minimizedRMSD -1
REMARK  1 active torsions:
REMARK  status: ('A' for Active; 'I' for Inactive)
REMARK    1  A    between atoms: C1_2  and  C2_3 
ROOT
ATOM      1  C2  UNL d   1      -0.595  -0.045   0.485  0.00  0.00    -0.077 A 
ATOM      2  C3  UNL d   1      -1.799  -0.123   1.199  0.00  0.00     0.002 A 
ATOM      3  C4  UNL d   1      -1.789  -0.317   2.582  0.00  0.00     0.002 A 
ATOM      4  C5  UNL d   1      -0.578  -0.432   3.262  0.00  0.00    -0.004 A 
ATOM      5  C6  UNL d   1       0.625  -0.359   2.561  0.00  0.00     0.002 A 
ATOM      6  C7  UNL d   1       0.616  -0.165   1.179  0.00  0.00     0.002 A 
ENDROOT
BRANCH   1   7
ATOM      7  C1  UNL d   1      -0.603   0.214  -0.999  0.00  0.00     0.055 C 
ATOM      8  C   UNL d   1      -0.011   1.577  -1.326  0.00  0.00     0.019 C 
ENDBRANCH   1   7
TORSDOF 1
ENDMDL
