MODEL 1
REMARK minimizedAffinity 0.778554499
REMARK minimizedRMSD -1
REMARK  1 active torsions:
REMARK  status: ('A' for Active; 'I' for Inactive)
REMARK    1  A    between atoms: C1_2  and  C2_3 
ROOT
ATOM      1  C2  UNL d   1       5.273  -3.921  -3.684  0.00  0.00    -0.077 A 
ATOM      2  C3  UNL d   1       4.653  -5.178  -3.692  0.00  0.00     0.002 A 
ATOM      3  C4  UNL d   1       4.020  -5.645  -4.845  0.00  0.00     0.002 A 
ATOM      4  C5  UNL d   1       4.003  -4.864  -5.999  0.00  0.00    -0.004 A 
ATOM      5  C6  UNL d   1       4.615  -3.611  -6.000  0.00  0.00     0.002 A 
ATOM      6  C7  UNL d   1       5.248  -3.142  -4.848  0.00  0.00     0.002 A 
ENDROOT
BRANCH   1   7
ATOM      7  C1  UNL d   1       6.000  -3.436  -2.457  0.00  0.00     0.055 C 
ATOM      8  C   UNL d   1       5.276  -2.262  -1.813  0.00  0.00     0.019 C 
ENDBRANCH   1   7
TORSDOF 1
ENDMDL
