MODEL 1
REMARK minimizedAffinity 5.2038455
REMARK minimizedRMSD -1
REMARK  1 active torsions:
REMARK  status: ('A' for Active; 'I' for Inactive)
REMARK    1  A    between atoms: C1_2  and  C2_3 
ROOT
ATOM      1  C2  UNL d   1       4.156  -4.096  -4.068  0.00  0.00    -0.077 A 
ATOM      2  C3  UNL d   1       4.612  -5.421  -4.076  0.00  0.00     0.002 A 
ATOM      3  C4  UNL d   1       5.528  -5.847  -5.039  0.00  0.00     0.002 A 
ATOM      4  C5  UNL d   1       6.000  -4.953  -5.998  0.00  0.00    -0.004 A 
ATOM      5  C6  UNL d   1       5.551  -3.633  -6.000  0.00  0.00     0.002 A 
ATOM      6  C7  UNL d   1       4.634  -3.206  -5.039  0.00  0.00     0.002 A 
ENDROOT
BRANCH   1   7
ATOM      7  C1  UNL d   1       3.205  -3.622  -3.000  0.00  0.00     0.055 C 
ATOM      8  C   UNL d   1       3.545  -2.210  -2.543  0.00  0.00     0.019 C 
ENDBRANCH   1   7
TORSDOF 1
ENDMDL
