MODEL 1
REMARK minimizedAffinity 8.35629654
REMARK minimizedRMSD -1
REMARK  1 active torsions:
REMARK  status: ('A' for Active; 'I' for Inactive)
REMARK    1  A    between atoms: C1_2  and  C2_3 
ROOT
ATOM      1  C2  UNL d   1       4.868  -3.447  -3.705  0.00  0.00    -0.077 A 
ATOM      2  C3  UNL d   1       5.791  -4.500  -3.642  0.00  0.00     0.002 A 
ATOM      3  C4  UNL d   1       5.995  -5.327  -4.749  0.00  0.00     0.002 A 
ATOM      4  C5  UNL d   1       5.285  -5.106  -5.927  0.00  0.00    -0.004 A 
ATOM      5  C6  UNL d   1       4.363  -4.062  -5.999  0.00  0.00     0.002 A 
ATOM      6  C7  UNL d   1       4.156  -3.236  -4.893  0.00  0.00     0.002 A 
ENDROOT
BRANCH   1   7
ATOM      7  C1  UNL d   1       4.681  -2.524  -2.529  0.00  0.00     0.055 C 
ATOM      8  C   UNL d   1       5.883  -2.567  -1.596  0.00  0.00     0.019 C 
ENDBRANCH   1   7
TORSDOF 1
ENDMDL
