MODEL 1
REMARK minimizedAffinity 3.15579748
REMARK minimizedRMSD -1
REMARK  1 active torsions:
REMARK  status: ('A' for Active; 'I' for Inactive)
REMARK    1  A    between atoms: C1_2  and  C2_3 
ROOT
ATOM      1  C2  UNL d   1      -0.160  -0.587   1.820  0.00  0.00    -0.077 A 
ATOM      2  C3  UNL d   1      -0.878   0.279   0.983  0.00  0.00     0.002 A 
ATOM      3  C4  UNL d   1      -0.546   0.392  -0.369  0.00  0.00     0.002 A 
ATOM      4  C5  UNL d   1       0.501  -0.361  -0.896  0.00  0.00    -0.004 A 
ATOM      5  C6  UNL d   1       1.223  -1.223  -0.071  0.00  0.00     0.002 A 
ATOM      6  C7  UNL d   1       0.893  -1.337   1.280  0.00  0.00     0.002 A 
ENDROOT
BRANCH   1   7
ATOM      7  C1  UNL d   1      -0.549  -0.747   3.266  0.00  0.00     0.055 C 
ATOM      8  C   UNL d   1      -1.998  -1.191   3.405  0.00  0.00     0.019 C 
ENDBRANCH   1   7
TORSDOF 1
ENDMDL
