MODEL 1
REMARK minimizedAffinity 2.21364784
REMARK minimizedRMSD -1
REMARK  1 active torsions:
REMARK  status: ('A' for Active; 'I' for Inactive)
REMARK    1  A    between atoms: C1_2  and  C2_3 
ROOT
ATOM      1  C2  UNL d   1       5.407  -3.942  -3.959  0.00  0.00    -0.077 A 
ATOM      2  C3  UNL d   1       5.990  -5.184  -4.246  0.00  0.00     0.002 A 
ATOM      3  C4  UNL d   1       5.468  -5.991  -5.259  0.00  0.00     0.002 A 
ATOM      4  C5  UNL d   1       4.364  -5.563  -5.995  0.00  0.00    -0.004 A 
ATOM      5  C6  UNL d   1       3.777  -4.330  -5.715  0.00  0.00     0.002 A 
ATOM      6  C7  UNL d   1       4.297  -3.523  -4.702  0.00  0.00     0.002 A 
ENDROOT
BRANCH   1   7
ATOM      7  C1  UNL d   1       5.999  -3.048  -2.900  0.00  0.00     0.055 C 
ATOM      8  C   UNL d   1       5.983  -3.722  -1.535  0.00  0.00     0.019 C 
ENDBRANCH   1   7
TORSDOF 1
ENDMDL
