MODEL 1
REMARK minimizedAffinity -2.1497581
REMARK minimizedRMSD -1
REMARK  3 active torsions:
REMARK  status: ('A' for Active; 'I' for Inactive)
REMARK    1  A    between atoms: C3'_2  and  C2'_3 
REMARK    2  A    between atoms: C2'_3  and  C1'_4 
REMARK    3  A    between atoms: C1'_4  and  C1_5 
ROOT
ATOM      1  C1  N4B d   1      -4.426  -3.957  -4.778  0.00  0.00    -0.075 A 
ATOM      2  C2  N4B d   1      -3.400  -2.998  -4.624  0.00  0.00     0.002 A 
ATOM      3  C3  N4B d   1      -3.644  -1.679  -4.917  0.00  0.00     0.002 A 
ATOM      4  C4  N4B d   1      -4.894  -1.299  -5.382  0.00  0.00    -0.004 A 
ATOM      5  C5  N4B d   1      -5.886  -2.227  -5.504  0.00  0.00     0.002 A 
ATOM      6  C6  N4B d   1      -5.657  -3.556  -5.209  0.00  0.00     0.002 A 
ENDROOT
BRANCH   1   7
ATOM      7  C1' N4B d   1      -4.182  -5.424  -4.553  0.00  0.00     0.057 C 
BRANCH   7   8
ATOM      8  C2' N4B d   1      -3.443  -6.000  -5.757  0.00  0.00     0.009 C 
BRANCH   8   9
ATOM      9  C3' N4B d   1      -2.031  -5.453  -5.871  0.00  0.00     0.004 C 
ATOM     10  C4' N4B d   1      -1.111  -5.994  -4.818  0.00  0.00     0.003 C 
ENDBRANCH   8   9
ENDBRANCH   7   8
ENDBRANCH   1   7
TORSDOF 3
ENDMDL
