MODEL 1
REMARK minimizedAffinity -1.66861463
REMARK minimizedRMSD -1
REMARK  3 active torsions:
REMARK  status: ('A' for Active; 'I' for Inactive)
REMARK    1  A    between atoms: C3'_2  and  C2'_3 
REMARK    2  A    between atoms: C2'_3  and  C1'_4 
REMARK    3  A    between atoms: C1'_4  and  C1_5 
ROOT
ATOM      1  C1  N4B d   1      -3.751  -5.216  -4.758  0.00  0.00    -0.075 A 
ATOM      2  C2  N4B d   1      -2.917  -4.350  -4.017  0.00  0.00     0.002 A 
ATOM      3  C3  N4B d   1      -1.571  -4.299  -4.283  0.00  0.00     0.002 A 
ATOM      4  C4  N4B d   1      -1.035  -5.113  -5.269  0.00  0.00    -0.004 A 
ATOM      5  C5  N4B d   1      -1.851  -5.928  -5.998  0.00  0.00     0.002 A 
ATOM      6  C6  N4B d   1      -3.207  -5.987  -5.744  0.00  0.00     0.002 A 
ENDROOT
BRANCH   1   7
ATOM      7  C1' N4B d   1      -5.214  -5.370  -4.445  0.00  0.00     0.057 C 
BRANCH   7   8
ATOM      8  C2' N4B d   1      -5.905  -4.019  -4.605  0.00  0.00     0.009 C 
BRANCH   8   9
ATOM      9  C3' N4B d   1      -5.705  -3.438  -5.994  0.00  0.00     0.004 C 
ATOM     10  C4' N4B d   1      -4.794  -2.247  -6.000  0.00  0.00     0.003 C 
ENDBRANCH   8   9
ENDBRANCH   7   8
ENDBRANCH   1   7
TORSDOF 3
ENDMDL
