MODEL 1
REMARK minimizedAffinity -1.82099295
REMARK minimizedRMSD -1
REMARK  3 active torsions:
REMARK  status: ('A' for Active; 'I' for Inactive)
REMARK    1  A    between atoms: C3'_2  and  C2'_3 
REMARK    2  A    between atoms: C2'_3  and  C1'_4 
REMARK    3  A    between atoms: C1'_4  and  C1_5 
ROOT
ATOM      1  C1  N4B d   1      -4.657  -5.216  -3.926  0.00  0.00    -0.075 A 
ATOM      2  C2  N4B d   1      -4.755  -3.809  -3.868  0.00  0.00     0.002 A 
ATOM      3  C3  N4B d   1      -5.431  -3.127  -4.849  0.00  0.00     0.002 A 
ATOM      4  C4  N4B d   1      -5.999  -3.826  -5.903  0.00  0.00    -0.004 A 
ATOM      5  C5  N4B d   1      -5.922  -5.187  -5.939  0.00  0.00     0.002 A 
ATOM      6  C6  N4B d   1      -5.249  -5.886  -4.957  0.00  0.00     0.002 A 
ENDROOT
BRANCH   1   7
ATOM      7  C1' N4B d   1      -3.854  -5.999  -2.922  0.00  0.00     0.057 C 
BRANCH   7   8
ATOM      8  C2' N4B d   1      -2.388  -6.000  -3.345  0.00  0.00     0.009 C 
BRANCH   8   9
ATOM      9  C3' N4B d   1      -2.111  -4.983  -4.439  0.00  0.00     0.004 C 
ATOM     10  C4' N4B d   1      -1.780  -5.621  -5.755  0.00  0.00     0.003 C 
ENDBRANCH   8   9
ENDBRANCH   7   8
ENDBRANCH   1   7
TORSDOF 3
ENDMDL
