MODEL 1
REMARK minimizedAffinity 6.2544446
REMARK minimizedRMSD -1
REMARK  3 active torsions:
REMARK  status: ('A' for Active; 'I' for Inactive)
REMARK    1  A    between atoms: C3'_2  and  C2'_3 
REMARK    2  A    between atoms: C2'_3  and  C1'_4 
REMARK    3  A    between atoms: C1'_4  and  C1_5 
ROOT
ATOM      1  C1  N4B d   1      -5.440  -3.424  -4.407  0.00  0.00    -0.075 A 
ATOM      2  C2  N4B d   1      -4.545  -4.224  -3.663  0.00  0.00     0.002 A 
ATOM      3  C3  N4B d   1      -4.248  -5.496  -4.085  0.00  0.00     0.002 A 
ATOM      4  C4  N4B d   1      -4.845  -5.995  -5.234  0.00  0.00    -0.004 A 
ATOM      5  C5  N4B d   1      -5.688  -5.207  -5.961  0.00  0.00     0.002 A 
ATOM      6  C6  N4B d   1      -5.993  -3.924  -5.550  0.00  0.00     0.002 A 
ENDROOT
BRANCH   1   7
ATOM      7  C1' N4B d   1      -5.862  -2.058  -3.939  0.00  0.00     0.057 C 
BRANCH   7   8
ATOM      8  C2' N4B d   1      -5.938  -1.119  -5.139  0.00  0.00     0.009 C 
BRANCH   8   9
ATOM      9  C3' N4B d   1      -4.680  -1.179  -5.989  0.00  0.00     0.004 C 
ATOM     10  C4' N4B d   1      -3.922   0.115  -5.997  0.00  0.00     0.003 C 
ENDBRANCH   8   9
ENDBRANCH   7   8
ENDBRANCH   1   7
TORSDOF 3
ENDMDL
