MODEL 1
REMARK minimizedAffinity -2.59968066
REMARK minimizedRMSD -1
REMARK  3 active torsions:
REMARK  status: ('A' for Active; 'I' for Inactive)
REMARK    1  A    between atoms: C3'_2  and  C2'_3 
REMARK    2  A    between atoms: C2'_3  and  C1'_4 
REMARK    3  A    between atoms: C1'_4  and  C1_5 
ROOT
ATOM      1  C1  N4B d   1      -4.044  -4.500  -5.688  0.00  0.00    -0.075 A 
ATOM      2  C2  N4B d   1      -3.142  -3.480  -5.311  0.00  0.00     0.002 A 
ATOM      3  C3  N4B d   1      -1.796  -3.742  -5.251  0.00  0.00     0.002 A 
ATOM      4  C4  N4B d   1      -1.331  -5.016  -5.543  0.00  0.00    -0.004 A 
ATOM      5  C5  N4B d   1      -2.206  -5.988  -5.931  0.00  0.00     0.002 A 
ATOM      6  C6  N4B d   1      -3.562  -5.738  -6.000  0.00  0.00     0.002 A 
ENDROOT
BRANCH   1   7
ATOM      7  C1' N4B d   1      -5.533  -4.284  -5.685  0.00  0.00     0.057 C 
BRANCH   7   8
ATOM      8  C2' N4B d   1      -5.991  -3.970  -4.264  0.00  0.00     0.009 C 
BRANCH   8   9
ATOM      9  C3' N4B d   1      -6.000  -2.477  -3.987  0.00  0.00     0.004 C 
ATOM     10  C4' N4B d   1      -5.998  -1.654  -5.240  0.00  0.00     0.003 C 
ENDBRANCH   8   9
ENDBRANCH   7   8
ENDBRANCH   1   7
TORSDOF 3
ENDMDL
