MODEL 1
REMARK minimizedAffinity -3.2797215
REMARK minimizedRMSD -1
REMARK  3 active torsions:
REMARK  status: ('A' for Active; 'I' for Inactive)
REMARK    1  A    between atoms: C3'_2  and  C2'_3 
REMARK    2  A    between atoms: C2'_3  and  C1'_4 
REMARK    3  A    between atoms: C1'_4  and  C1_5 
ROOT
ATOM      1  C1  N4B d   1      -3.831  -4.388  -5.158  0.00  0.00    -0.075 A 
ATOM      2  C2  N4B d   1      -2.774  -3.455  -5.071  0.00  0.00     0.002 A 
ATOM      3  C3  N4B d   1      -1.504  -3.820  -5.444  0.00  0.00     0.002 A 
ATOM      4  C4  N4B d   1      -1.264  -5.112  -5.888  0.00  0.00    -0.004 A 
ATOM      5  C5  N4B d   1      -2.295  -5.999  -5.994  0.00  0.00     0.002 A 
ATOM      6  C6  N4B d   1      -3.578  -5.645  -5.626  0.00  0.00     0.002 A 
ENDROOT
BRANCH   1   7
ATOM      7  C1' N4B d   1      -5.220  -4.061  -4.681  0.00  0.00     0.057 C 
BRANCH   7   8
ATOM      8  C2' N4B d   1      -6.000  -3.408  -5.818  0.00  0.00     0.009 C 
BRANCH   8   9
ATOM      9  C3' N4B d   1      -5.816  -1.901  -5.840  0.00  0.00     0.004 C 
ATOM     10  C4' N4B d   1      -5.957  -1.278  -4.483  0.00  0.00     0.003 C 
ENDBRANCH   8   9
ENDBRANCH   7   8
ENDBRANCH   1   7
TORSDOF 3
ENDMDL
