MODEL 1
REMARK minimizedAffinity -0.0787185654
REMARK minimizedRMSD -1
REMARK  3 active torsions:
REMARK  status: ('A' for Active; 'I' for Inactive)
REMARK    1  A    between atoms: C3'_2  and  C2'_3 
REMARK    2  A    between atoms: C2'_3  and  C1'_4 
REMARK    3  A    between atoms: C1'_4  and  C1_5 
ROOT
ATOM      1  C1  N4B d   1      -4.714  -3.582  -4.627  0.00  0.00    -0.075 A 
ATOM      2  C2  N4B d   1      -5.894  -3.899  -5.335  0.00  0.00     0.002 A 
ATOM      3  C3  N4B d   1      -5.999  -5.101  -5.991  0.00  0.00     0.002 A 
ATOM      4  C4  N4B d   1      -4.935  -5.990  -5.969  0.00  0.00    -0.004 A 
ATOM      5  C5  N4B d   1      -3.808  -5.687  -5.262  0.00  0.00     0.002 A 
ATOM      6  C6  N4B d   1      -3.690  -4.484  -4.594  0.00  0.00     0.002 A 
ENDROOT
BRANCH   1   7
ATOM      7  C1' N4B d   1      -4.520  -2.245  -3.966  0.00  0.00     0.057 C 
BRANCH   7   8
ATOM      8  C2' N4B d   1      -3.398  -2.353  -2.937  0.00  0.00     0.009 C 
BRANCH   8   9
ATOM      9  C3' N4B d   1      -3.367  -1.157  -2.002  0.00  0.00     0.004 C 
ATOM     10  C4' N4B d   1      -3.117  -1.541  -0.574  0.00  0.00     0.003 C 
ENDBRANCH   8   9
ENDBRANCH   7   8
ENDBRANCH   1   7
TORSDOF 3
ENDMDL
