MODEL 1
REMARK minimizedAffinity -3.41300368
REMARK minimizedRMSD -1
REMARK  3 active torsions:
REMARK  status: ('A' for Active; 'I' for Inactive)
REMARK    1  A    between atoms: C3'_2  and  C2'_3 
REMARK    2  A    between atoms: C2'_3  and  C1'_4 
REMARK    3  A    between atoms: C1'_4  and  C1_5 
ROOT
ATOM      1  C1  N4B d   1      -3.815  -4.699  -5.049  0.00  0.00    -0.075 A 
ATOM      2  C2  N4B d   1      -3.078  -3.735  -5.771  0.00  0.00     0.002 A 
ATOM      3  C3  N4B d   1      -1.737  -3.926  -5.999  0.00  0.00     0.002 A 
ATOM      4  C4  N4B d   1      -1.111  -5.058  -5.501  0.00  0.00    -0.004 A 
ATOM      5  C5  N4B d   1      -1.835  -5.997  -4.826  0.00  0.00     0.002 A 
ATOM      6  C6  N4B d   1      -3.184  -5.820  -4.592  0.00  0.00     0.002 A 
ENDROOT
BRANCH   1   7
ATOM      7  C1' N4B d   1      -5.264  -4.493  -4.701  0.00  0.00     0.057 C 
BRANCH   7   8
ATOM      8  C2' N4B d   1      -5.959  -3.774  -5.853  0.00  0.00     0.009 C 
BRANCH   8   9
ATOM      9  C3' N4B d   1      -5.889  -2.264  -5.706  0.00  0.00     0.004 C 
ATOM     10  C4' N4B d   1      -6.000  -1.814  -4.279  0.00  0.00     0.003 C 
ENDBRANCH   8   9
ENDBRANCH   7   8
ENDBRANCH   1   7
TORSDOF 3
ENDMDL
