MODEL 1
REMARK minimizedAffinity -2.6327436
REMARK minimizedRMSD -1
REMARK  3 active torsions:
REMARK  status: ('A' for Active; 'I' for Inactive)
REMARK    1  A    between atoms: C3'_2  and  C2'_3 
REMARK    2  A    between atoms: C2'_3  and  C1'_4 
REMARK    3  A    between atoms: C1'_4  and  C1_5 
ROOT
ATOM      1  C1  N4B d   1      -3.955  -3.882  -4.452  0.00  0.00    -0.075 A 
ATOM      2  C2  N4B d   1      -5.245  -4.206  -3.976  0.00  0.00     0.002 A 
ATOM      3  C3  N4B d   1      -5.935  -5.258  -4.527  0.00  0.00     0.002 A 
ATOM      4  C4  N4B d   1      -5.366  -5.985  -5.562  0.00  0.00    -0.004 A 
ATOM      5  C5  N4B d   1      -4.110  -5.681  -5.999  0.00  0.00     0.002 A 
ATOM      6  C6  N4B d   1      -3.403  -4.629  -5.452  0.00  0.00     0.002 A 
ENDROOT
BRANCH   1   7
ATOM      7  C1' N4B d   1      -3.197  -2.688  -3.940  0.00  0.00     0.057 C 
BRANCH   7   8
ATOM      8  C2' N4B d   1      -3.950  -1.416  -4.320  0.00  0.00     0.009 C 
BRANCH   8   9
ATOM      9  C3' N4B d   1      -4.346  -1.408  -5.787  0.00  0.00     0.004 C 
ATOM     10  C4' N4B d   1      -5.814  -1.635  -5.993  0.00  0.00     0.003 C 
ENDBRANCH   8   9
ENDBRANCH   7   8
ENDBRANCH   1   7
TORSDOF 3
ENDMDL
