MODEL 1
REMARK minimizedAffinity -2.99635911
REMARK minimizedRMSD -1
REMARK  3 active torsions:
REMARK  status: ('A' for Active; 'I' for Inactive)
REMARK    1  A    between atoms: C3'_2  and  C2'_3 
REMARK    2  A    between atoms: C2'_3  and  C1'_4 
REMARK    3  A    between atoms: C1'_4  and  C1_5 
ROOT
ATOM      1  C1  N4B d   1      -5.833  -3.892  -4.549  0.00  0.00    -0.075 A 
ATOM      2  C2  N4B d   1      -5.813  -3.306  -5.834  0.00  0.00     0.002 A 
ATOM      3  C3  N4B d   1      -5.887  -1.941  -5.967  0.00  0.00     0.002 A 
ATOM      4  C4  N4B d   1      -6.000  -1.147  -4.836  0.00  0.00    -0.004 A 
ATOM      5  C5  N4B d   1      -5.993  -1.719  -3.597  0.00  0.00     0.002 A 
ATOM      6  C6  N4B d   1      -5.915  -3.089  -3.448  0.00  0.00     0.002 A 
ENDROOT
BRANCH   1   7
ATOM      7  C1' N4B d   1      -5.842  -5.384  -4.357  0.00  0.00     0.057 C 
BRANCH   7   8
ATOM      8  C2' N4B d   1      -4.697  -5.998  -5.157  0.00  0.00     0.009 C 
BRANCH   8   9
ATOM      9  C3' N4B d   1      -3.340  -5.631  -4.582  0.00  0.00     0.004 C 
ATOM     10  C4' N4B d   1      -2.648  -4.557  -5.368  0.00  0.00     0.003 C 
ENDBRANCH   8   9
ENDBRANCH   7   8
ENDBRANCH   1   7
TORSDOF 3
ENDMDL
