MODEL 1
REMARK minimizedAffinity -2.49069262
REMARK minimizedRMSD -1
REMARK  3 active torsions:
REMARK  status: ('A' for Active; 'I' for Inactive)
REMARK    1  A    between atoms: C3'_2  and  C2'_3 
REMARK    2  A    between atoms: C2'_3  and  C1'_4 
REMARK    3  A    between atoms: C1'_4  and  C1_5 
ROOT
ATOM      1  C1  N4B d   1      -4.431  -4.074  -5.990  0.00  0.00    -0.075 A 
ATOM      2  C2  N4B d   1      -3.293  -3.239  -5.999  0.00  0.00     0.002 A 
ATOM      3  C3  N4B d   1      -2.036  -3.791  -5.999  0.00  0.00     0.002 A 
ATOM      4  C4  N4B d   1      -1.892  -5.170  -5.972  0.00  0.00    -0.004 A 
ATOM      5  C5  N4B d   1      -2.997  -5.971  -5.989  0.00  0.00     0.002 A 
ATOM      6  C6  N4B d   1      -4.267  -5.429  -5.993  0.00  0.00     0.002 A 
ENDROOT
BRANCH   1   7
ATOM      7  C1' N4B d   1      -5.826  -3.517  -5.902  0.00  0.00     0.057 C 
BRANCH   7   8
ATOM      8  C2' N4B d   1      -5.999  -2.811  -4.561  0.00  0.00     0.009 C 
BRANCH   8   9
ATOM      9  C3' N4B d   1      -5.975  -3.787  -3.397  0.00  0.00     0.004 C 
ATOM     10  C4' N4B d   1      -4.707  -3.709  -2.600  0.00  0.00     0.003 C 
ENDBRANCH   8   9
ENDBRANCH   7   8
ENDBRANCH   1   7
TORSDOF 3
ENDMDL
