MODEL 1
REMARK minimizedAffinity 0.886799037
REMARK minimizedRMSD -1
REMARK  3 active torsions:
REMARK  status: ('A' for Active; 'I' for Inactive)
REMARK    1  A    between atoms: C3'_2  and  C2'_3 
REMARK    2  A    between atoms: C2'_3  and  C1'_4 
REMARK    3  A    between atoms: C1'_4  and  C1_5 
ROOT
ATOM      1  C1  N4B d   1      -4.889  -4.229  -5.035  0.00  0.00    -0.075 A 
ATOM      2  C2  N4B d   1      -5.985  -4.025  -4.168  0.00  0.00     0.002 A 
ATOM      3  C3  N4B d   1      -5.992  -2.950  -3.313  0.00  0.00     0.002 A 
ATOM      4  C4  N4B d   1      -4.911  -2.081  -3.294  0.00  0.00    -0.004 A 
ATOM      5  C5  N4B d   1      -3.869  -2.271  -4.153  0.00  0.00     0.002 A 
ATOM      6  C6  N4B d   1      -3.850  -3.345  -5.020  0.00  0.00     0.002 A 
ENDROOT
BRANCH   1   7
ATOM      7  C1' N4B d   1      -4.797  -5.438  -5.926  0.00  0.00     0.057 C 
BRANCH   7   8
ATOM      8  C2' N4B d   1      -3.375  -5.989  -5.877  0.00  0.00     0.009 C 
BRANCH   8   9
ATOM      9  C3' N4B d   1      -2.717  -5.743  -4.530  0.00  0.00     0.004 C 
ATOM     10  C4' N4B d   1      -1.294  -5.287  -4.654  0.00  0.00     0.003 C 
ENDBRANCH   8   9
ENDBRANCH   7   8
ENDBRANCH   1   7
TORSDOF 3
ENDMDL
