MODEL 1
REMARK minimizedAffinity -2.18144178
REMARK minimizedRMSD -1
REMARK  3 active torsions:
REMARK  status: ('A' for Active; 'I' for Inactive)
REMARK    1  A    between atoms: C3'_2  and  C2'_3 
REMARK    2  A    between atoms: C2'_3  and  C1'_4 
REMARK    3  A    between atoms: C1'_4  and  C1_5 
ROOT
ATOM      1  C1  N4B d   1      -3.039  -5.254  -4.754  0.00  0.00    -0.075 A 
ATOM      2  C2  N4B d   1      -2.329  -5.251  -5.974  0.00  0.00     0.002 A 
ATOM      3  C3  N4B d   1      -1.006  -5.619  -5.999  0.00  0.00     0.002 A 
ATOM      4  C4  N4B d   1      -0.370  -5.974  -4.818  0.00  0.00    -0.004 A 
ATOM      5  C5  N4B d   1      -1.070  -5.998  -3.648  0.00  0.00     0.002 A 
ATOM      6  C6  N4B d   1      -2.401  -5.634  -3.609  0.00  0.00     0.002 A 
ENDROOT
BRANCH   1   7
ATOM      7  C1' N4B d   1      -4.463  -4.777  -4.663  0.00  0.00     0.057 C 
BRANCH   7   8
ATOM      8  C2' N4B d   1      -4.671  -3.631  -5.648  0.00  0.00     0.009 C 
BRANCH   8   9
ATOM      9  C3' N4B d   1      -5.999  -2.926  -5.427  0.00  0.00     0.004 C 
ATOM     10  C4' N4B d   1      -5.965  -1.483  -5.836  0.00  0.00     0.003 C 
ENDBRANCH   8   9
ENDBRANCH   7   8
ENDBRANCH   1   7
TORSDOF 3
ENDMDL
