MODEL 1
REMARK minimizedAffinity -0.233111858
REMARK minimizedRMSD -1
REMARK  3 active torsions:
REMARK  status: ('A' for Active; 'I' for Inactive)
REMARK    1  A    between atoms: C3'_2  and  C2'_3 
REMARK    2  A    between atoms: C2'_3  and  C1'_4 
REMARK    3  A    between atoms: C1'_4  and  C1_5 
ROOT
ATOM      1  C1  N4B d   1      -3.777  -4.665  -5.702  0.00  0.00    -0.075 A 
ATOM      2  C2  N4B d   1      -3.140  -5.923  -5.770  0.00  0.00     0.002 A 
ATOM      3  C3  N4B d   1      -1.775  -5.995  -5.905  0.00  0.00     0.002 A 
ATOM      4  C4  N4B d   1      -1.032  -4.828  -5.993  0.00  0.00    -0.004 A 
ATOM      5  C5  N4B d   1      -1.653  -3.616  -5.901  0.00  0.00     0.002 A 
ATOM      6  C6  N4B d   1      -3.023  -3.529  -5.761  0.00  0.00     0.002 A 
ENDROOT
BRANCH   1   7
ATOM      7  C1' N4B d   1      -5.275  -4.535  -5.641  0.00  0.00     0.057 C 
BRANCH   7   8
ATOM      8  C2' N4B d   1      -5.659  -3.070  -5.824  0.00  0.00     0.009 C 
BRANCH   8   9
ATOM      9  C3' N4B d   1      -5.996  -2.401  -4.503  0.00  0.00     0.004 C 
ATOM     10  C4' N4B d   1      -5.007  -2.719  -3.421  0.00  0.00     0.003 C 
ENDBRANCH   8   9
ENDBRANCH   7   8
ENDBRANCH   1   7
TORSDOF 3
ENDMDL
