MODEL 1
REMARK minimizedAffinity 8.74039841
REMARK minimizedRMSD -1
REMARK  3 active torsions:
REMARK  status: ('A' for Active; 'I' for Inactive)
REMARK    1  A    between atoms: C3'_2  and  C2'_3 
REMARK    2  A    between atoms: C2'_3  and  C1'_4 
REMARK    3  A    between atoms: C1'_4  and  C1_5 
ROOT
ATOM      1  C1  N4B d   1      -2.773  -4.180  -3.907  0.00  0.00    -0.075 A 
ATOM      2  C2  N4B d   1      -3.070  -4.431  -5.265  0.00  0.00     0.002 A 
ATOM      3  C3  N4B d   1      -2.266  -5.268  -6.000  0.00  0.00     0.002 A 
ATOM      4  C4  N4B d   1      -1.154  -5.847  -5.407  0.00  0.00    -0.004 A 
ATOM      5  C5  N4B d   1      -0.889  -5.619  -4.088  0.00  0.00     0.002 A 
ATOM      6  C6  N4B d   1      -1.690  -4.784  -3.336  0.00  0.00     0.002 A 
ENDROOT
BRANCH   1   7
ATOM      7  C1' N4B d   1      -3.572  -3.205  -3.087  0.00  0.00     0.057 C 
BRANCH   7   8
ATOM      8  C2' N4B d   1      -4.833  -2.819  -3.856  0.00  0.00     0.009 C 
BRANCH   8   9
ATOM      9  C3' N4B d   1      -4.846  -1.345  -4.223  0.00  0.00     0.004 C 
ATOM     10  C4' N4B d   1      -5.648  -1.061  -5.457  0.00  0.00     0.003 C 
ENDBRANCH   8   9
ENDBRANCH   7   8
ENDBRANCH   1   7
TORSDOF 3
ENDMDL
