MODEL 1
REMARK minimizedAffinity 8.39233398
REMARK minimizedRMSD -1
REMARK  1 active torsions:
REMARK  status: ('A' for Active; 'I' for Inactive)
REMARK    1  A    between atoms: C1_2  and  C2_3 
ROOT
ATOM      1  C2  UNL d   1      -0.605   2.944   0.810  0.00  0.00    -0.076 A 
ATOM      2  C3  UNL d   1       0.555   2.151   0.758  0.00  0.00     0.004 A 
ATOM      3  C4  UNL d   1       1.030   1.498   1.893  0.00  0.00    -0.003 A 
ATOM      4  C5  UNL d   1       0.352   1.626   3.101  0.00  0.00     0.000 A 
ATOM      5  C6  UNL d   1      -0.810   2.393   3.167  0.00  0.00     0.000 A 
ATOM      6  C7  UNL d   1      -1.311   3.046   2.028  0.00  0.00    -0.073 A 
ATOM      7  C8  UNL d   1      -2.565   3.866   2.158  0.00  0.00     0.078 C 
ENDROOT
BRANCH   1   8
ATOM      8  C1  UNL d   1      -1.057   3.651  -0.447  0.00  0.00     0.053 C 
ATOM      9  C   UNL d   1      -0.833   2.815  -1.698  0.00  0.00     0.018 C 
ENDBRANCH   1   8
TORSDOF 1
ENDMDL
