MODEL 1
REMARK minimizedAffinity 8.6543541
REMARK minimizedRMSD -1
REMARK  1 active torsions:
REMARK  status: ('A' for Active; 'I' for Inactive)
REMARK    1  A    between atoms: C1_2  and  C2_3 
ROOT
ATOM      1  C2  UNL d   1      -2.351   1.591   2.587  0.00  0.00    -0.076 A 
ATOM      2  C3  UNL d   1      -1.443   0.784   3.294  0.00  0.00     0.004 A 
ATOM      3  C4  UNL d   1      -0.070   1.013   3.218  0.00  0.00    -0.003 A 
ATOM      4  C5  UNL d   1       0.416   2.053   2.434  0.00  0.00     0.000 A 
ATOM      5  C6  UNL d   1      -0.471   2.874   1.740  0.00  0.00     0.000 A 
ATOM      6  C7  UNL d   1      -1.859   2.667   1.819  0.00  0.00    -0.073 A 
ATOM      7  C8  UNL d   1      -2.770   3.580   1.044  0.00  0.00     0.078 C 
ENDROOT
BRANCH   1   8
ATOM      8  C1  UNL d   1      -3.827   1.278   2.686  0.00  0.00     0.053 C 
ATOM      9  C   UNL d   1      -4.154  -0.139   2.238  0.00  0.00     0.018 C 
ENDBRANCH   1   8
TORSDOF 1
ENDMDL
