MODEL 1
REMARK minimizedAffinity 10.7700624
REMARK minimizedRMSD -1
REMARK  1 active torsions:
REMARK  status: ('A' for Active; 'I' for Inactive)
REMARK    1  A    between atoms: C1_2  and  C2_3 
ROOT
ATOM      1  C2  UNL d   1      -0.458   2.559   0.852  0.00  0.00    -0.076 A 
ATOM      2  C3  UNL d   1      -1.302   2.650  -0.268  0.00  0.00     0.004 A 
ATOM      3  C4  UNL d   1      -1.130   3.659  -1.215  0.00  0.00    -0.003 A 
ATOM      4  C5  UNL d   1      -0.112   4.592  -1.057  0.00  0.00     0.000 A 
ATOM      5  C6  UNL d   1       0.746   4.506   0.039  0.00  0.00     0.000 A 
ATOM      6  C7  UNL d   1       0.597   3.486   0.994  0.00  0.00    -0.073 A 
ATOM      7  C8  UNL d   1       1.547   3.445   2.160  0.00  0.00     0.078 C 
ENDROOT
BRANCH   1   8
ATOM      8  C1  UNL d   1      -0.709   1.461   1.861  0.00  0.00     0.053 C 
ATOM      9  C   UNL d   1      -1.303   1.985   3.158  0.00  0.00     0.018 C 
ENDBRANCH   1   8
TORSDOF 1
ENDMDL
