MODEL 1
REMARK minimizedAffinity 4.08999777
REMARK minimizedRMSD -1
REMARK  1 active torsions:
REMARK  status: ('A' for Active; 'I' for Inactive)
REMARK    1  A    between atoms: C1_2  and  C2_3 
ROOT
ATOM      1  C2  UNL d   1      -0.321   1.155   0.112  0.00  0.00    -0.076 A 
ATOM      2  C3  UNL d   1      -1.191   1.960   0.868  0.00  0.00     0.004 A 
ATOM      3  C4  UNL d   1      -1.062   2.052   2.253  0.00  0.00    -0.003 A 
ATOM      4  C5  UNL d   1      -0.060   1.342   2.904  0.00  0.00     0.000 A 
ATOM      5  C6  UNL d   1       0.823   0.552   2.168  0.00  0.00     0.000 A 
ATOM      6  C7  UNL d   1       0.716   0.460   0.770  0.00  0.00    -0.073 A 
ATOM      7  C8  UNL d   1       1.692  -0.412   0.027  0.00  0.00     0.078 C 
ENDROOT
BRANCH   1   8
ATOM      8  C1  UNL d   1      -0.527   1.072  -1.383  0.00  0.00     0.053 C 
ATOM      9  C   UNL d   1      -0.866   2.420  -2.000  0.00  0.00     0.018 C 
ENDBRANCH   1   8
TORSDOF 1
ENDMDL
