MODEL 1
REMARK minimizedAffinity 3.76618004
REMARK minimizedRMSD -1
REMARK  1 active torsions:
REMARK  status: ('A' for Active; 'I' for Inactive)
REMARK    1  A    between atoms: C1_2  and  C2_3 
ROOT
ATOM      1  C2  UNL d   1       4.671  -4.223  -1.793  0.00  0.00    -0.076 A 
ATOM      2  C3  UNL d   1       4.125  -3.044  -2.329  0.00  0.00     0.004 A 
ATOM      3  C4  UNL d   1       4.176  -1.844  -1.622  0.00  0.00    -0.003 A 
ATOM      4  C5  UNL d   1       4.775  -1.803  -0.368  0.00  0.00     0.000 A 
ATOM      5  C6  UNL d   1       5.338  -2.959   0.171  0.00  0.00     0.000 A 
ATOM      6  C7  UNL d   1       5.310  -4.174  -0.535  0.00  0.00    -0.073 A 
ATOM      7  C8  UNL d   1       5.927  -5.391   0.097  0.00  0.00     0.078 C 
ENDROOT
BRANCH   1   8
ATOM      8  C1  UNL d   1       4.562  -5.501  -2.594  0.00  0.00     0.053 C 
ATOM      9  C   UNL d   1       3.129  -5.999  -2.704  0.00  0.00     0.018 C 
ENDBRANCH   1   8
TORSDOF 1
ENDMDL
