MODEL 1
REMARK minimizedAffinity -2.6489923
REMARK minimizedRMSD -1
REMARK  1 active torsions:
REMARK  status: ('A' for Active; 'I' for Inactive)
REMARK    1  A    between atoms: C1_2  and  C2_3 
ROOT
ATOM      1  C2  UNL d   1      -0.324   0.502  -0.347  0.00  0.00    -0.076 A 
ATOM      2  C3  UNL d   1      -1.632   0.160   0.038  0.00  0.00     0.004 A 
ATOM      3  C4  UNL d   1      -2.736   0.787  -0.538  0.00  0.00    -0.003 A 
ATOM      4  C5  UNL d   1      -2.549   1.765  -1.509  0.00  0.00     0.000 A 
ATOM      5  C6  UNL d   1      -1.259   2.104  -1.915  0.00  0.00     0.000 A 
ATOM      6  C7  UNL d   1      -0.136   1.471  -1.356  0.00  0.00    -0.073 A 
ATOM      7  C8  UNL d   1       1.233   1.880  -1.827  0.00  0.00     0.078 C 
ENDROOT
BRANCH   1   8
ATOM      8  C1  UNL d   1       0.835  -0.192   0.332  0.00  0.00     0.053 C 
ATOM      9  C   UNL d   1       0.578  -0.446   1.809  0.00  0.00     0.018 C 
ENDBRANCH   1   8
TORSDOF 1
ENDMDL
