MODEL 1
REMARK minimizedAffinity -2.82567382
REMARK minimizedRMSD -1
REMARK  1 active torsions:
REMARK  status: ('A' for Active; 'I' for Inactive)
REMARK    1  A    between atoms: C1_2  and  C2_3 
ROOT
ATOM      1  C2  UNL d   1      -0.119   0.590   0.110  0.00  0.00    -0.076 A 
ATOM      2  C3  UNL d   1      -0.575  -0.199   1.180  0.00  0.00     0.004 A 
ATOM      3  C4  UNL d   1      -1.437   0.326   2.141  0.00  0.00    -0.003 A 
ATOM      4  C5  UNL d   1      -1.858   1.648   2.047  0.00  0.00     0.000 A 
ATOM      5  C6  UNL d   1      -1.430   2.439   0.982  0.00  0.00     0.000 A 
ATOM      6  C7  UNL d   1      -0.573   1.921  -0.004  0.00  0.00    -0.073 A 
ATOM      7  C8  UNL d   1      -0.137   2.821  -1.128  0.00  0.00     0.078 C 
ENDROOT
BRANCH   1   8
ATOM      8  C1  UNL d   1       0.837  -0.026  -0.887  0.00  0.00     0.053 C 
ATOM      9  C   UNL d   1       1.042  -1.515  -0.655  0.00  0.00     0.018 C 
ENDBRANCH   1   8
TORSDOF 1
ENDMDL
