MODEL 1
REMARK minimizedAffinity -1.68617964
REMARK minimizedRMSD -1
REMARK  1 active torsions:
REMARK  status: ('A' for Active; 'I' for Inactive)
REMARK    1  A    between atoms: C1_2  and  C2_3 
ROOT
ATOM      1  C2  UNL d   1       0.182  -0.090   0.124  0.00  0.00    -0.076 A 
ATOM      2  C3  UNL d   1      -0.145  -0.663   1.366  0.00  0.00     0.004 A 
ATOM      3  C4  UNL d   1      -0.710   0.103   2.383  0.00  0.00    -0.003 A 
ATOM      4  C5  UNL d   1      -0.959   1.455   2.176  0.00  0.00     0.000 A 
ATOM      5  C6  UNL d   1      -0.658   2.037   0.945  0.00  0.00     0.000 A 
ATOM      6  C7  UNL d   1      -0.103   1.275  -0.097  0.00  0.00    -0.073 A 
ATOM      7  C8  UNL d   1       0.208   1.955  -1.402  0.00  0.00     0.078 C 
ENDROOT
BRANCH   1   8
ATOM      8  C1  UNL d   1       0.818  -0.964  -0.932  0.00  0.00     0.053 C 
ATOM      9  C   UNL d   1      -0.165  -1.951  -1.542  0.00  0.00     0.018 C 
ENDBRANCH   1   8
TORSDOF 1
ENDMDL
