MODEL 1
REMARK minimizedAffinity -5.01299286
REMARK minimizedRMSD -1
REMARK  1 active torsions:
REMARK  status: ('A' for Active; 'I' for Inactive)
REMARK    1  A    between atoms: C1_2  and  C2_3 
ROOT
ATOM      1  C2  UNL d   1      -0.033   0.353   0.013  0.00  0.00    -0.076 A 
ATOM      2  C3  UNL d   1      -0.477   1.466  -0.722  0.00  0.00     0.004 A 
ATOM      3  C4  UNL d   1      -1.437   2.333  -0.202  0.00  0.00    -0.003 A 
ATOM      4  C5  UNL d   1      -1.968   2.101   1.063  0.00  0.00     0.000 A 
ATOM      5  C6  UNL d   1      -1.526   1.012   1.813  0.00  0.00     0.000 A 
ATOM      6  C7  UNL d   1      -0.547   0.138   1.310  0.00  0.00    -0.073 A 
ATOM      7  C8  UNL d   1      -0.111  -1.024   2.160  0.00  0.00     0.078 C 
ENDROOT
BRANCH   1   8
ATOM      8  C1  UNL d   1       0.990  -0.567  -0.613  0.00  0.00     0.053 C 
ATOM      9  C   UNL d   1       0.350  -1.722  -1.368  0.00  0.00     0.018 C 
ENDBRANCH   1   8
TORSDOF 1
ENDMDL
