MODEL 1
REMARK minimizedAffinity -0.781609833
REMARK minimizedRMSD -1
REMARK  1 active torsions:
REMARK  status: ('A' for Active; 'I' for Inactive)
REMARK    1  A    between atoms: C1_2  and  C2_3 
ROOT
ATOM      1  C2  UNL d   1       0.750  -0.015  -0.818  0.00  0.00    -0.076 A 
ATOM      2  C3  UNL d   1       0.573   1.092  -1.666  0.00  0.00     0.004 A 
ATOM      3  C4  UNL d   1      -0.371   2.075  -1.374  0.00  0.00    -0.003 A 
ATOM      4  C5  UNL d   1      -1.153   1.967  -0.230  0.00  0.00     0.000 A 
ATOM      5  C6  UNL d   1      -0.979   0.885   0.632  0.00  0.00     0.000 A 
ATOM      6  C7  UNL d   1      -0.020  -0.107   0.361  0.00  0.00    -0.073 A 
ATOM      7  C8  UNL d   1       0.122  -1.255   1.322  0.00  0.00     0.078 C 
ENDROOT
BRANCH   1   8
ATOM      8  C1  UNL d   1       1.771  -1.063  -1.199  0.00  0.00     0.053 C 
ATOM      9  C   UNL d   1       1.209  -2.103  -2.156  0.00  0.00     0.018 C 
ENDBRANCH   1   8
TORSDOF 1
ENDMDL
