MODEL 1
REMARK minimizedAffinity -2.37581325
REMARK minimizedRMSD -1
REMARK  1 active torsions:
REMARK  status: ('A' for Active; 'I' for Inactive)
REMARK    1  A    between atoms: C1_2  and  C2_3 
ROOT
ATOM      1  C2  UNL d   1       0.340   0.743   0.007  0.00  0.00    -0.076 A 
ATOM      2  C3  UNL d   1      -0.053   1.562   1.080  0.00  0.00     0.004 A 
ATOM      3  C4  UNL d   1      -0.835   1.059   2.119  0.00  0.00    -0.003 A 
ATOM      4  C5  UNL d   1      -1.236  -0.273   2.102  0.00  0.00     0.000 A 
ATOM      5  C6  UNL d   1      -0.840  -1.104   1.054  0.00  0.00     0.000 A 
ATOM      6  C7  UNL d   1      -0.039  -0.616   0.008  0.00  0.00    -0.073 A 
ATOM      7  C8  UNL d   1       0.353  -1.556  -1.100  0.00  0.00     0.078 C 
ENDROOT
BRANCH   1   8
ATOM      8  C1  UNL d   1       1.164   1.352  -1.104  0.00  0.00     0.053 C 
ATOM      9  C   UNL d   1       0.400   2.409  -1.885  0.00  0.00     0.018 C 
ENDBRANCH   1   8
TORSDOF 1
ENDMDL
