MODEL 1
REMARK minimizedAffinity -4.83168602
REMARK minimizedRMSD -1
REMARK  1 active torsions:
REMARK  status: ('A' for Active; 'I' for Inactive)
REMARK    1  A    between atoms: C1_2  and  C2_3 
ROOT
ATOM      1  C2  UNL d   1       0.022   0.160   0.067  0.00  0.00    -0.076 A 
ATOM      2  C3  UNL d   1      -0.137   1.282  -0.765  0.00  0.00     0.004 A 
ATOM      3  C4  UNL d   1      -0.968   2.338  -0.394  0.00  0.00    -0.003 A 
ATOM      4  C5  UNL d   1      -1.652   2.290   0.816  0.00  0.00     0.000 A 
ATOM      5  C6  UNL d   1      -1.492   1.192   1.661  0.00  0.00     0.000 A 
ATOM      6  C7  UNL d   1      -0.646   0.127   1.310  0.00  0.00    -0.073 A 
ATOM      7  C8  UNL d   1      -0.516  -1.034   2.257  0.00  0.00     0.078 C 
ENDROOT
BRANCH   1   8
ATOM      8  C1  UNL d   1       0.915  -0.967  -0.400  0.00  0.00     0.053 C 
ATOM      9  C   UNL d   1       0.268  -1.809  -1.490  0.00  0.00     0.018 C 
ENDBRANCH   1   8
TORSDOF 1
ENDMDL
