MODEL 1
REMARK minimizedAffinity -5.10036945
REMARK minimizedRMSD -1
REMARK  1 active torsions:
REMARK  status: ('A' for Active; 'I' for Inactive)
REMARK    1  A    between atoms: C1_2  and  C2_3 
ROOT
ATOM      1  C2  UNL d   1       0.054   0.314  -0.043  0.00  0.00    -0.076 A 
ATOM      2  C3  UNL d   1      -0.384  -0.449   1.053  0.00  0.00     0.004 A 
ATOM      3  C4  UNL d   1      -1.292   0.072   1.974  0.00  0.00    -0.003 A 
ATOM      4  C5  UNL d   1      -1.777   1.365   1.812  0.00  0.00     0.000 A 
ATOM      5  C6  UNL d   1      -1.367   2.130   0.721  0.00  0.00     0.000 A 
ATOM      6  C7  UNL d   1      -0.465   1.614  -0.225  0.00  0.00    -0.073 A 
ATOM      7  C8  UNL d   1      -0.053   2.485  -1.380  0.00  0.00     0.078 C 
ENDROOT
BRANCH   1   8
ATOM      8  C1  UNL d   1       1.060  -0.294  -0.994  0.00  0.00     0.053 C 
ATOM      9  C   UNL d   1       0.749  -1.747  -1.320  0.00  0.00     0.018 C 
ENDBRANCH   1   8
TORSDOF 1
ENDMDL
