MODEL 1
REMARK minimizedAffinity -4.9176178
REMARK minimizedRMSD -1
REMARK  1 active torsions:
REMARK  status: ('A' for Active; 'I' for Inactive)
REMARK    1  A    between atoms: C1_2  and  C2_3 
ROOT
ATOM      1  C2  UNL d   1      -0.662   1.176   0.811  0.00  0.00    -0.076 A 
ATOM      2  C3  UNL d   1      -0.332   2.044  -0.244  0.00  0.00     0.004 A 
ATOM      3  C4  UNL d   1       0.612   1.682  -1.203  0.00  0.00    -0.003 A 
ATOM      4  C5  UNL d   1       1.240   0.444  -1.124  0.00  0.00     0.000 A 
ATOM      5  C6  UNL d   1       0.912  -0.437  -0.094  0.00  0.00     0.000 A 
ATOM      6  C7  UNL d   1      -0.049  -0.094   0.872  0.00  0.00    -0.073 A 
ATOM      7  C8  UNL d   1      -0.360  -1.081   1.964  0.00  0.00     0.078 C 
ENDROOT
BRANCH   1   8
ATOM      8  C1  UNL d   1      -1.674   1.634   1.837  0.00  0.00     0.053 C 
ATOM      9  C   UNL d   1      -3.063   1.816   1.246  0.00  0.00     0.018 C 
ENDBRANCH   1   8
TORSDOF 1
ENDMDL
