MODEL 1
REMARK minimizedAffinity -3.48570776
REMARK minimizedRMSD -1
REMARK  1 active torsions:
REMARK  status: ('A' for Active; 'I' for Inactive)
REMARK    1  A    between atoms: C1_2  and  C2_3 
ROOT
ATOM      1  C2  UNL d   1      -1.189   1.214   0.714  0.00  0.00    -0.076 A 
ATOM      2  C3  UNL d   1      -0.944   2.041  -0.396  0.00  0.00     0.004 A 
ATOM      3  C4  UNL d   1      -0.042   1.661  -1.388  0.00  0.00    -0.003 A 
ATOM      4  C5  UNL d   1       0.628   0.446  -1.287  0.00  0.00     0.000 A 
ATOM      5  C6  UNL d   1       0.384  -0.394  -0.202  0.00  0.00     0.000 A 
ATOM      6  C7  UNL d   1      -0.535  -0.033   0.799  0.00  0.00    -0.073 A 
ATOM      7  C8  UNL d   1      -0.755  -0.975   1.951  0.00  0.00     0.078 C 
ENDROOT
BRANCH   1   8
ATOM      8  C1  UNL d   1      -2.157   1.692   1.773  0.00  0.00     0.053 C 
ATOM      9  C   UNL d   1      -2.327   3.204   1.768  0.00  0.00     0.018 C 
ENDBRANCH   1   8
TORSDOF 1
ENDMDL
