MODEL 1
REMARK minimizedAffinity -1.64013088
REMARK minimizedRMSD -1
REMARK  1 active torsions:
REMARK  status: ('A' for Active; 'I' for Inactive)
REMARK    1  A    between atoms: C1_2  and  C2_3 
ROOT
ATOM      1  C2  UNL d   1      -0.284  -0.103   0.165  0.00  0.00    -0.076 A 
ATOM      2  C3  UNL d   1      -1.228   0.731  -0.459  0.00  0.00     0.004 A 
ATOM      3  C4  UNL d   1      -2.032   1.589   0.289  0.00  0.00    -0.003 A 
ATOM      4  C5  UNL d   1      -1.906   1.626   1.673  0.00  0.00     0.000 A 
ATOM      5  C6  UNL d   1      -0.963   0.819   2.307  0.00  0.00     0.000 A 
ATOM      6  C7  UNL d   1      -0.132  -0.040   1.566  0.00  0.00    -0.073 A 
ATOM      7  C8  UNL d   1       0.864  -0.894   2.303  0.00  0.00     0.078 C 
ENDROOT
BRANCH   1   8
ATOM      8  C1  UNL d   1       0.542  -1.033  -0.696  0.00  0.00     0.053 C 
ATOM      9  C   UNL d   1      -0.249  -2.241  -1.174  0.00  0.00     0.018 C 
ENDBRANCH   1   8
TORSDOF 1
ENDMDL
