MODEL 1
REMARK minimizedAffinity -2.6693337
REMARK minimizedRMSD -1
REMARK  1 active torsions:
REMARK  status: ('A' for Active; 'I' for Inactive)
REMARK    1  A    between atoms: C1_2  and  C2_3 
ROOT
ATOM      1  C2  UNL d   1      -0.970   1.069   0.127  0.00  0.00    -0.076 A 
ATOM      2  C3  UNL d   1      -0.492   2.000  -0.811  0.00  0.00     0.004 A 
ATOM      3  C4  UNL d   1       0.728   1.806  -1.458  0.00  0.00    -0.003 A 
ATOM      4  C5  UNL d   1       1.489   0.677  -1.176  0.00  0.00     0.000 A 
ATOM      5  C6  UNL d   1       1.022  -0.266  -0.261  0.00  0.00     0.000 A 
ATOM      6  C7  UNL d   1      -0.213  -0.093   0.387  0.00  0.00    -0.073 A 
ATOM      7  C8  UNL d   1      -0.665  -1.139   1.369  0.00  0.00     0.078 C 
ENDROOT
BRANCH   1   8
ATOM      8  C1  UNL d   1      -2.287   1.346   0.817  0.00  0.00     0.053 C 
ATOM      9  C   UNL d   1      -3.358   1.832  -0.147  0.00  0.00     0.018 C 
ENDBRANCH   1   8
TORSDOF 1
ENDMDL
