MODEL 1
REMARK minimizedAffinity -3.54056382
REMARK minimizedRMSD -1
REMARK  1 active torsions:
REMARK  status: ('A' for Active; 'I' for Inactive)
REMARK    1  A    between atoms: C1_2  and  C2_3 
ROOT
ATOM      1  C2  UNL d   1      -0.112   0.199   0.244  0.00  0.00    -0.076 A 
ATOM      2  C3  UNL d   1      -0.848   1.123  -0.518  0.00  0.00     0.004 A 
ATOM      3  C4  UNL d   1      -1.792   1.956   0.080  0.00  0.00    -0.003 A 
ATOM      4  C5  UNL d   1      -2.015   1.879   1.450  0.00  0.00     0.000 A 
ATOM      5  C6  UNL d   1      -1.282   0.980   2.225  0.00  0.00     0.000 A 
ATOM      6  C7  UNL d   1      -0.315   0.145   1.640  0.00  0.00    -0.073 A 
ATOM      7  C8  UNL d   1       0.443  -0.810   2.522  0.00  0.00     0.078 C 
ENDROOT
BRANCH   1   8
ATOM      8  C1  UNL d   1       0.879  -0.698  -0.463  0.00  0.00     0.053 C 
ATOM      9  C   UNL d   1       0.235  -1.520  -1.569  0.00  0.00     0.018 C 
ENDBRANCH   1   8
TORSDOF 1
ENDMDL
