MODEL 1
REMARK minimizedAffinity -5.8311348
REMARK minimizedRMSD -1
REMARK  1 active torsions:
REMARK  status: ('A' for Active; 'I' for Inactive)
REMARK    1  A    between atoms: C1_2  and  C2_3 
ROOT
ATOM      1  C2  UNL d   1      -0.062   0.214   0.190  0.00  0.00    -0.076 A 
ATOM      2  C3  UNL d   1      -0.448  -0.463   1.359  0.00  0.00     0.004 A 
ATOM      3  C4  UNL d   1      -1.407   0.074   2.217  0.00  0.00    -0.003 A 
ATOM      4  C5  UNL d   1      -1.995   1.298   1.919  0.00  0.00     0.000 A 
ATOM      5  C6  UNL d   1      -1.637   1.976   0.754  0.00  0.00     0.000 A 
ATOM      6  C7  UNL d   1      -0.685   1.440  -0.130  0.00  0.00    -0.073 A 
ATOM      7  C8  UNL d   1      -0.332   2.217  -1.369  0.00  0.00     0.078 C 
ENDROOT
BRANCH   1   8
ATOM      8  C1  UNL d   1       1.002  -0.404  -0.688  0.00  0.00     0.053 C 
ATOM      9  C   UNL d   1       0.711  -1.860  -1.019  0.00  0.00     0.018 C 
ENDBRANCH   1   8
TORSDOF 1
ENDMDL
