MODEL 1
REMARK minimizedAffinity 19.8222675
REMARK minimizedRMSD -1
REMARK  0 active torsions:
REMARK  status: ('A' for Active; 'I' for Inactive)
ROOT
ATOM      1  C1  DEN d   1       2.785  -0.348  -1.117  0.00  0.00     0.130 A 
ATOM      2  C2  DEN d   1       1.810   0.268  -2.014  0.00  0.00    -0.031 A 
ATOM      3  C3  DEN d   1       1.887   1.732  -1.834  0.00  0.00     0.027 A 
ATOM      4  C4  DEN d   1       3.415   3.097  -0.267  0.00  0.00     0.027 A 
ATOM      5  C5  DEN d   1       4.399   3.014   0.692  0.00  0.00    -0.003 A 
ATOM      6  C6  DEN d   1       4.887   1.814   1.137  0.00  0.00     0.001 A 
ATOM      7  C7  DEN d   1       4.422   0.647   0.589  0.00  0.00     0.017 A 
ATOM      8  C8  DEN d   1       3.424   0.722  -0.374  0.00  0.00    -0.094 A 
ATOM      9  C9  DEN d   1       2.953   1.946  -0.819  0.00  0.00    -0.072 A 
ENDROOT
TORSDOF 0
ENDMDL
