MODEL 1
REMARK minimizedAffinity 11.2103977
REMARK minimizedRMSD -1
REMARK  0 active torsions:
REMARK  status: ('A' for Active; 'I' for Inactive)
ROOT
ATOM      1  C1  DEN d   1      -1.808  -1.205   5.026  0.00  0.00     0.130 A 
ATOM      2  C2  DEN d   1      -2.332  -2.557   4.851  0.00  0.00    -0.031 A 
ATOM      3  C3  DEN d   1      -3.788  -2.517   5.098  0.00  0.00     0.027 A 
ATOM      4  C4  DEN d   1      -5.273  -0.504   5.727  0.00  0.00     0.027 A 
ATOM      5  C5  DEN d   1      -5.277   0.846   5.999  0.00  0.00    -0.003 A 
ATOM      6  C6  DEN d   1      -4.130   1.594   6.000  0.00  0.00     0.001 A 
ATOM      7  C7  DEN d   1      -2.935   1.006   5.678  0.00  0.00     0.017 A 
ATOM      8  C8  DEN d   1      -2.922  -0.357   5.409  0.00  0.00    -0.094 A 
ATOM      9  C9  DEN d   1      -4.094  -1.093   5.402  0.00  0.00    -0.072 A 
ENDROOT
TORSDOF 0
ENDMDL
