MODEL 1
REMARK minimizedAffinity 11.8821344
REMARK minimizedRMSD -1
REMARK  0 active torsions:
REMARK  status: ('A' for Active; 'I' for Inactive)
ROOT
ATOM      1  C1  DEN d   1      -4.077  -1.699   4.450  0.00  0.00     0.130 A 
ATOM      2  C2  DEN d   1      -2.644  -1.874   4.675  0.00  0.00    -0.031 A 
ATOM      3  C3  DEN d   1      -2.130  -0.650   5.321  0.00  0.00     0.027 A 
ATOM      4  C4  DEN d   1      -3.406   1.487   5.996  0.00  0.00     0.027 A 
ATOM      5  C5  DEN d   1      -4.636   2.107   5.997  0.00  0.00    -0.003 A 
ATOM      6  C6  DEN d   1      -5.750   1.521   5.456  0.00  0.00     0.001 A 
ATOM      7  C7  DEN d   1      -5.665   0.258   4.932  0.00  0.00     0.017 A 
ATOM      8  C8  DEN d   1      -4.427  -0.371   4.921  0.00  0.00    -0.094 A 
ATOM      9  C9  DEN d   1      -3.316   0.234   5.483  0.00  0.00    -0.072 A 
ENDROOT
TORSDOF 0
ENDMDL
