MODEL 1
REMARK minimizedAffinity 7.11987209
REMARK minimizedRMSD -1
REMARK  0 active torsions:
REMARK  status: ('A' for Active; 'I' for Inactive)
ROOT
ATOM      1  C1  DEN d   1       0.021  -4.680   0.353  0.00  0.00     0.130 A 
ATOM      2  C2  DEN d   1      -0.355  -5.634   1.392  0.00  0.00    -0.031 A 
ATOM      3  C3  DEN d   1      -1.321  -4.973   2.292  0.00  0.00     0.027 A 
ATOM      4  C4  DEN d   1      -2.271  -2.578   2.174  0.00  0.00     0.027 A 
ATOM      5  C5  DEN d   1      -2.240  -1.391   1.476  0.00  0.00    -0.003 A 
ATOM      6  C6  DEN d   1      -1.434  -1.207   0.384  0.00  0.00     0.001 A 
ATOM      7  C7  DEN d   1      -0.659  -2.242  -0.069  0.00  0.00     0.017 A 
ATOM      8  C8  DEN d   1      -0.680  -3.440   0.633  0.00  0.00    -0.094 A 
ATOM      9  C9  DEN d   1      -1.511  -3.610   1.728  0.00  0.00    -0.072 A 
ENDROOT
TORSDOF 0
ENDMDL
