MODEL 1
REMARK minimizedAffinity 6.86063862
REMARK minimizedRMSD -1
REMARK  0 active torsions:
REMARK  status: ('A' for Active; 'I' for Inactive)
ROOT
ATOM      1  C1  DEN d   1       3.113   1.253  -2.802  0.00  0.00     0.130 A 
ATOM      2  C2  DEN d   1       2.284   0.152  -2.319  0.00  0.00    -0.031 A 
ATOM      3  C3  DEN d   1       2.085   0.333  -0.867  0.00  0.00     0.027 A 
ATOM      4  C4  DEN d   1       2.973   2.203   0.672  0.00  0.00     0.027 A 
ATOM      5  C5  DEN d   1       3.731   3.352   0.720  0.00  0.00    -0.003 A 
ATOM      6  C6  DEN d   1       4.360   3.859  -0.387  0.00  0.00     0.001 A 
ATOM      7  C7  DEN d   1       4.204   3.240  -1.599  0.00  0.00     0.017 A 
ATOM      8  C8  DEN d   1       3.447   2.077  -1.654  0.00  0.00    -0.094 A 
ATOM      9  C9  DEN d   1       2.809   1.587  -0.526  0.00  0.00    -0.072 A 
ENDROOT
TORSDOF 0
ENDMDL
