MODEL 1
REMARK minimizedAffinity 15.9854717
REMARK minimizedRMSD -1
REMARK  0 active torsions:
REMARK  status: ('A' for Active; 'I' for Inactive)
ROOT
ATOM      1  C1  DEN d   1      -0.671  -0.276  -2.223  0.00  0.00     0.130 A 
ATOM      2  C2  DEN d   1      -0.696  -1.596  -2.847  0.00  0.00    -0.031 A 
ATOM      3  C3  DEN d   1       0.692  -1.963  -3.193  0.00  0.00     0.027 A 
ATOM      4  C4  DEN d   1       2.866  -0.625  -2.818  0.00  0.00     0.027 A 
ATOM      5  C5  DEN d   1       3.389   0.553  -2.334  0.00  0.00    -0.003 A 
ATOM      6  C6  DEN d   1       2.599   1.544  -1.814  0.00  0.00     0.001 A 
ATOM      7  C7  DEN d   1       1.245   1.356  -1.725  0.00  0.00     0.017 A 
ATOM      8  C8  DEN d   1       0.709   0.173  -2.218  0.00  0.00    -0.094 A 
ATOM      9  C9  DEN d   1       1.526  -0.821  -2.728  0.00  0.00    -0.072 A 
ENDROOT
TORSDOF 0
ENDMDL
