MODEL 1
REMARK minimizedAffinity 16.0727139
REMARK minimizedRMSD -1
REMARK  0 active torsions:
REMARK  status: ('A' for Active; 'I' for Inactive)
ROOT
ATOM      1  C1  DEN d   1       2.611   2.541   0.284  0.00  0.00     0.130 A 
ATOM      2  C2  DEN d   1       2.683   1.429  -0.660  0.00  0.00    -0.031 A 
ATOM      3  C3  DEN d   1       3.888   1.615  -1.493  0.00  0.00     0.027 A 
ATOM      4  C4  DEN d   1       5.642   3.504  -1.411  0.00  0.00     0.027 A 
ATOM      5  C5  DEN d   1       6.000   4.677  -0.785  0.00  0.00    -0.003 A 
ATOM      6  C6  DEN d   1       5.241   5.234   0.210  0.00  0.00     0.001 A 
ATOM      7  C7  DEN d   1       4.109   4.594   0.639  0.00  0.00     0.017 A 
ATOM      8  C8  DEN d   1       3.738   3.414   0.008  0.00  0.00    -0.094 A 
ATOM      9  C9  DEN d   1       4.525   2.860  -0.988  0.00  0.00    -0.072 A 
ENDROOT
TORSDOF 0
ENDMDL
