MODEL 1
REMARK minimizedAffinity 8.32384682
REMARK minimizedRMSD -1
REMARK  0 active torsions:
REMARK  status: ('A' for Active; 'I' for Inactive)
ROOT
ATOM      1  C1  DEN d   1       2.615   1.519  -2.570  0.00  0.00     0.130 A 
ATOM      2  C2  DEN d   1       1.896   0.415  -1.940  0.00  0.00    -0.031 A 
ATOM      3  C3  DEN d   1       2.708  -0.808  -2.097  0.00  0.00     0.027 A 
ATOM      4  C4  DEN d   1       4.999  -1.099  -3.245  0.00  0.00     0.027 A 
ATOM      5  C5  DEN d   1       5.999  -0.450  -3.934  0.00  0.00    -0.003 A 
ATOM      6  C6  DEN d   1       5.927   0.882  -4.245  0.00  0.00     0.001 A 
ATOM      7  C7  DEN d   1       4.851   1.619  -3.825  0.00  0.00     0.017 A 
ATOM      8  C8  DEN d   1       3.835   0.970  -3.136  0.00  0.00    -0.094 A 
ATOM      9  C9  DEN d   1       3.933  -0.374  -2.821  0.00  0.00    -0.072 A 
ENDROOT
TORSDOF 0
ENDMDL
