MODEL 1
REMARK minimizedAffinity 13.321063
REMARK minimizedRMSD -1
REMARK  0 active torsions:
REMARK  status: ('A' for Active; 'I' for Inactive)
ROOT
ATOM      1  C1  DEN d   1      -0.425  -2.835  -0.790  0.00  0.00     0.130 A 
ATOM      2  C2  DEN d   1      -0.743  -3.109   0.609  0.00  0.00    -0.031 A 
ATOM      3  C3  DEN d   1      -1.963  -2.352   0.956  0.00  0.00     0.027 A 
ATOM      4  C4  DEN d   1      -3.385  -0.796  -0.530  0.00  0.00     0.027 A 
ATOM      5  C5  DEN d   1      -3.504  -0.244  -1.786  0.00  0.00    -0.003 A 
ATOM      6  C6  DEN d   1      -2.594  -0.488  -2.780  0.00  0.00     0.001 A 
ATOM      7  C7  DEN d   1      -1.548  -1.342  -2.548  0.00  0.00     0.017 A 
ATOM      8  C8  DEN d   1      -1.417  -1.896  -1.282  0.00  0.00    -0.094 A 
ATOM      9  C9  DEN d   1      -2.355  -1.647  -0.294  0.00  0.00    -0.072 A 
ENDROOT
TORSDOF 0
ENDMDL
