MODEL 1
REMARK minimizedAffinity 18.6935883
REMARK minimizedRMSD -1
REMARK  0 active torsions:
REMARK  status: ('A' for Active; 'I' for Inactive)
ROOT
ATOM      1  C1  DEN d   1      -4.512  -3.157   2.050  0.00  0.00     0.130 A 
ATOM      2  C2  DEN d   1      -5.603  -2.528   1.310  0.00  0.00    -0.031 A 
ATOM      3  C3  DEN d   1      -5.014  -1.750   0.201  0.00  0.00     0.027 A 
ATOM      4  C4  DEN d   1      -2.532  -1.464  -0.441  0.00  0.00     0.027 A 
ATOM      5  C5  DEN d   1      -1.239  -1.797  -0.102  0.00  0.00    -0.003 A 
ATOM      6  C6  DEN d   1      -0.947  -2.572   0.989  0.00  0.00     0.001 A 
ATOM      7  C7  DEN d   1      -1.964  -3.078   1.754  0.00  0.00     0.017 A 
ATOM      8  C8  DEN d   1      -3.270  -2.740   1.423  0.00  0.00    -0.094 A 
ATOM      9  C9  DEN d   1      -3.545  -1.965   0.309  0.00  0.00    -0.072 A 
ENDROOT
TORSDOF 0
ENDMDL
