MODEL 1
REMARK minimizedAffinity 10.5464964
REMARK minimizedRMSD -1
REMARK  0 active torsions:
REMARK  status: ('A' for Active; 'I' for Inactive)
ROOT
ATOM      1  C1  DEN d   1      -3.879   1.601   5.995  0.00  0.00     0.130 A 
ATOM      2  C2  DEN d   1      -5.331   1.448   5.997  0.00  0.00    -0.031 A 
ATOM      3  C3  DEN d   1      -5.646   0.072   5.561  0.00  0.00     0.027 A 
ATOM      4  C4  DEN d   1      -4.034  -1.827   4.893  0.00  0.00     0.027 A 
ATOM      5  C5  DEN d   1      -2.710  -2.168   4.724  0.00  0.00    -0.003 A 
ATOM      6  C6  DEN d   1      -1.693  -1.275   4.933  0.00  0.00     0.001 A 
ATOM      7  C7  DEN d   1      -1.981  -0.008   5.366  0.00  0.00     0.017 A 
ATOM      8  C8  DEN d   1      -3.314   0.346   5.532  0.00  0.00    -0.094 A 
ATOM      9  C9  DEN d   1      -4.327  -0.575   5.327  0.00  0.00    -0.072 A 
ENDROOT
TORSDOF 0
ENDMDL
