MODEL 1
REMARK minimizedAffinity 12.7297115
REMARK minimizedRMSD -1
REMARK  0 active torsions:
REMARK  status: ('A' for Active; 'I' for Inactive)
ROOT
ATOM      1  C1  DEN d   1      -5.278   0.384   6.000  0.00  0.00     0.130 A 
ATOM      2  C2  DEN d   1      -4.936   1.803   5.955  0.00  0.00    -0.031 A 
ATOM      3  C3  DEN d   1      -3.505   1.918   5.612  0.00  0.00     0.027 A 
ATOM      4  C4  DEN d   1      -1.794   0.046   5.142  0.00  0.00     0.027 A 
ATOM      5  C5  DEN d   1      -1.613  -1.318   5.073  0.00  0.00    -0.003 A 
ATOM      6  C6  DEN d   1      -2.623  -2.203   5.339  0.00  0.00     0.001 A 
ATOM      7  C7  DEN d   1      -3.874  -1.734   5.643  0.00  0.00     0.017 A 
ATOM      8  C8  DEN d   1      -4.063  -0.361   5.722  0.00  0.00    -0.094 A 
ATOM      9  C9  DEN d   1      -3.031   0.518   5.437  0.00  0.00    -0.072 A 
ENDROOT
TORSDOF 0
ENDMDL
