MODEL 1
REMARK minimizedAffinity 13.6573448
REMARK minimizedRMSD -1
REMARK  0 active torsions:
REMARK  status: ('A' for Active; 'I' for Inactive)
ROOT
ATOM      1  C1  DEN d   1      -0.201  -1.687  -1.628  0.00  0.00     0.130 A 
ATOM      2  C2  DEN d   1      -0.140  -1.805  -3.082  0.00  0.00    -0.031 A 
ATOM      3  C3  DEN d   1      -0.032  -3.238  -3.420  0.00  0.00     0.027 A 
ATOM      4  C4  DEN d   1       0.042  -5.276  -1.841  0.00  0.00     0.027 A 
ATOM      5  C5  DEN d   1       0.031  -5.676  -0.523  0.00  0.00    -0.003 A 
ATOM      6  C6  DEN d   1      -0.022  -4.780   0.512  0.00  0.00     0.001 A 
ATOM      7  C7  DEN d   1      -0.114  -3.439   0.244  0.00  0.00     0.017 A 
ATOM      8  C8  DEN d   1      -0.096  -3.028  -1.082  0.00  0.00    -0.094 A 
ATOM      9  C9  DEN d   1      -0.054  -3.950  -2.114  0.00  0.00    -0.072 A 
ENDROOT
TORSDOF 0
ENDMDL
