MODEL 1
REMARK minimizedAffinity 10.9942465
REMARK minimizedRMSD -1
REMARK  0 active torsions:
REMARK  status: ('A' for Active; 'I' for Inactive)
ROOT
ATOM      1  C1  DEN d   1      -2.707  -0.918   0.083  0.00  0.00     0.130 A 
ATOM      2  C2  DEN d   1      -1.877  -0.889  -1.118  0.00  0.00    -0.031 A 
ATOM      3  C3  DEN d   1      -0.984  -2.065  -1.083  0.00  0.00     0.027 A 
ATOM      4  C4  DEN d   1      -0.812  -3.920   0.700  0.00  0.00     0.027 A 
ATOM      5  C5  DEN d   1      -1.304  -4.366   1.906  0.00  0.00    -0.003 A 
ATOM      6  C6  DEN d   1      -2.267  -3.683   2.600  0.00  0.00     0.001 A 
ATOM      7  C7  DEN d   1      -2.801  -2.537   2.071  0.00  0.00     0.017 A 
ATOM      8  C8  DEN d   1      -2.304  -2.077   0.859  0.00  0.00    -0.094 A 
ATOM      9  C9  DEN d   1      -1.339  -2.789   0.167  0.00  0.00    -0.072 A 
ENDROOT
TORSDOF 0
ENDMDL
