MODEL 1
REMARK minimizedAffinity 13.226656
REMARK minimizedRMSD -1
REMARK  0 active torsions:
REMARK  status: ('A' for Active; 'I' for Inactive)
ROOT
ATOM      1  C1  DEN d   1       2.626  -0.951  -1.503  0.00  0.00     0.130 A 
ATOM      2  C2  DEN d   1       2.615  -2.037  -0.526  0.00  0.00    -0.031 A 
ATOM      3  C3  DEN d   1       3.772  -1.853   0.373  0.00  0.00     0.027 A 
ATOM      4  C4  DEN d   1       5.566  -0.000   0.352  0.00  0.00     0.027 A 
ATOM      5  C5  DEN d   1       5.999   1.135  -0.297  0.00  0.00    -0.003 A 
ATOM      6  C6  DEN d   1       5.364   1.631  -1.405  0.00  0.00     0.001 A 
ATOM      7  C7  DEN d   1       4.232   1.015  -1.871  0.00  0.00     0.017 A 
ATOM      8  C8  DEN d   1       3.793  -0.134  -1.226  0.00  0.00    -0.094 A 
ATOM      9  C9  DEN d   1       4.442  -0.612  -0.101  0.00  0.00    -0.072 A 
ENDROOT
TORSDOF 0
ENDMDL
