MODEL 1
REMARK minimizedAffinity 3.69632602
REMARK minimizedRMSD -1
REMARK  0 active torsions:
REMARK  status: ('A' for Active; 'I' for Inactive)
ROOT
ATOM      1  C1  DEN d   1       2.978  -2.839  -1.570  0.00  0.00     0.130 A 
ATOM      2  C2  DEN d   1       1.604  -3.209  -1.240  0.00  0.00    -0.031 A 
ATOM      3  C3  DEN d   1       0.962  -2.050  -0.589  0.00  0.00     0.027 A 
ATOM      4  C4  DEN d   1       1.955   0.272  -0.065  0.00  0.00     0.027 A 
ATOM      5  C5  DEN d   1       3.086   1.053  -0.147  0.00  0.00    -0.003 A 
ATOM      6  C6  DEN d   1       4.261   0.585  -0.673  0.00  0.00     0.001 A 
ATOM      7  C7  DEN d   1       4.318  -0.686  -1.180  0.00  0.00     0.017 A 
ATOM      8  C8  DEN d   1       3.184  -1.483  -1.095  0.00  0.00    -0.094 A 
ATOM      9  C9  DEN d   1       2.002  -0.987  -0.570  0.00  0.00    -0.072 A 
ENDROOT
TORSDOF 0
ENDMDL
