MODEL 1
REMARK minimizedAffinity 10.6418343
REMARK minimizedRMSD -1
REMARK  0 active torsions:
REMARK  status: ('A' for Active; 'I' for Inactive)
ROOT
ATOM      1  C1  DEN d   1       3.963   0.039  -0.021  0.00  0.00     0.130 A 
ATOM      2  C2  DEN d   1       4.644   0.604  -1.183  0.00  0.00    -0.031 A 
ATOM      3  C3  DEN d   1       4.338  -0.248  -2.350  0.00  0.00     0.027 A 
ATOM      4  C4  DEN d   1       2.880  -2.372  -2.470  0.00  0.00     0.027 A 
ATOM      5  C5  DEN d   1       2.105  -3.244  -1.738  0.00  0.00    -0.003 A 
ATOM      6  C6  DEN d   1       1.924  -3.104  -0.388  0.00  0.00     0.001 A 
ATOM      7  C7  DEN d   1       2.490  -2.041   0.266  0.00  0.00     0.017 A 
ATOM      8  C8  DEN d   1       3.279  -1.162  -0.464  0.00  0.00    -0.094 A 
ATOM      9  C9  DEN d   1       3.439  -1.314  -1.830  0.00  0.00    -0.072 A 
ENDROOT
TORSDOF 0
ENDMDL
