MODEL 1
REMARK minimizedAffinity 19.25284
REMARK minimizedRMSD -1
REMARK  0 active torsions:
REMARK  status: ('A' for Active; 'I' for Inactive)
ROOT
ATOM      1  C1  DEN d   1       1.298  -2.540  -2.734  0.00  0.00     0.130 A 
ATOM      2  C2  DEN d   1       2.380  -2.778  -1.783  0.00  0.00    -0.031 A 
ATOM      3  C3  DEN d   1       1.925  -3.802  -0.820  0.00  0.00     0.027 A 
ATOM      4  C4  DEN d   1      -0.336  -5.038  -0.714  0.00  0.00     0.027 A 
ATOM      5  C5  DEN d   1      -1.575  -5.164  -1.301  0.00  0.00    -0.003 A 
ATOM      6  C6  DEN d   1      -1.953  -4.406  -2.378  0.00  0.00     0.001 A 
ATOM      7  C7  DEN d   1      -1.066  -3.519  -2.929  0.00  0.00     0.017 A 
ATOM      8  C8  DEN d   1       0.183  -3.381  -2.337  0.00  0.00    -0.094 A 
ATOM      9  C9  DEN d   1       0.550  -4.166  -1.257  0.00  0.00    -0.072 A 
ENDROOT
TORSDOF 0
ENDMDL
