MODEL 1
REMARK minimizedAffinity 14.3916483
REMARK minimizedRMSD -1
REMARK  0 active torsions:
REMARK  status: ('A' for Active; 'I' for Inactive)
ROOT
ATOM      1  C1  DEN d   1       2.598  -0.409  -0.543  0.00  0.00     0.130 A 
ATOM      2  C2  DEN d   1       3.135   0.853  -1.046  0.00  0.00    -0.031 A 
ATOM      3  C3  DEN d   1       4.567   0.913  -0.692  0.00  0.00     0.027 A 
ATOM      4  C4  DEN d   1       5.999  -0.818   0.575  0.00  0.00     0.027 A 
ATOM      5  C5  DEN d   1       5.982  -2.041   1.210  0.00  0.00    -0.003 A 
ATOM      6  C6  DEN d   1       4.838  -2.783   1.334  0.00  0.00     0.001 A 
ATOM      7  C7  DEN d   1       3.671  -2.331   0.775  0.00  0.00     0.017 A 
ATOM      8  C8  DEN d   1       3.679  -1.096   0.140  0.00  0.00    -0.094 A 
ATOM      9  C9  DEN d   1       4.849  -0.366   0.015  0.00  0.00    -0.072 A 
ENDROOT
TORSDOF 0
ENDMDL
