MODEL 1
REMARK minimizedAffinity 11.371541
REMARK minimizedRMSD -1
REMARK  0 active torsions:
REMARK  status: ('A' for Active; 'I' for Inactive)
ROOT
ATOM      1  C1  DEN d   1       4.248  -1.856   0.282  0.00  0.00     0.130 A 
ATOM      2  C2  DEN d   1       2.915  -2.080  -0.269  0.00  0.00    -0.031 A 
ATOM      3  C3  DEN d   1       2.517  -0.865  -1.009  0.00  0.00     0.027 A 
ATOM      4  C4  DEN d   1       3.832   1.326  -1.357  0.00  0.00     0.027 A 
ATOM      5  C5  DEN d   1       5.005   1.989  -1.070  0.00  0.00    -0.003 A 
ATOM      6  C6  DEN d   1       5.985   1.435  -0.289  0.00  0.00     0.001 A 
ATOM      7  C7  DEN d   1       5.829   0.163   0.193  0.00  0.00     0.017 A 
ATOM      8  C8  DEN d   1       4.647  -0.510  -0.086  0.00  0.00    -0.094 A 
ATOM      9  C9  DEN d   1       3.673   0.063  -0.887  0.00  0.00    -0.072 A 
ENDROOT
TORSDOF 0
ENDMDL
