MODEL 1
REMARK minimizedAffinity 8.47514439
REMARK minimizedRMSD -1
REMARK  0 active torsions:
REMARK  status: ('A' for Active; 'I' for Inactive)
ROOT
ATOM      1  C1  DEN d   1       5.595   4.554  -2.100  0.00  0.00     0.130 A 
ATOM      2  C2  DEN d   1       6.000   5.513  -1.075  0.00  0.00    -0.031 A 
ATOM      3  C3  DEN d   1       6.000   4.816   0.227  0.00  0.00     0.027 A 
ATOM      4  C4  DEN d   1       5.421   2.358   0.753  0.00  0.00     0.027 A 
ATOM      5  C5  DEN d   1       5.010   1.161   0.210  0.00  0.00    -0.003 A 
ATOM      6  C6  DEN d   1       4.735   1.021  -1.125  0.00  0.00     0.001 A 
ATOM      7  C7  DEN d   1       4.911   2.084  -1.970  0.00  0.00     0.017 A 
ATOM      8  C8  DEN d   1       5.318   3.297  -1.428  0.00  0.00    -0.094 A 
ATOM      9  C9  DEN d   1       5.602   3.415  -0.079  0.00  0.00    -0.072 A 
ENDROOT
TORSDOF 0
ENDMDL
