MODEL 1
REMARK minimizedAffinity 0.187308475
REMARK minimizedRMSD -1
REMARK  0 active torsions:
REMARK  status: ('A' for Active; 'I' for Inactive)
ROOT
ATOM      1  C1  DEN d   1       5.531  -4.481  -3.329  0.00  0.00     0.130 A 
ATOM      2  C2  DEN d   1       4.833  -3.929  -4.487  0.00  0.00    -0.031 A 
ATOM      3  C3  DEN d   1       3.550  -3.365  -4.022  0.00  0.00     0.027 A 
ATOM      4  C4  DEN d   1       2.583  -3.290  -1.632  0.00  0.00     0.027 A 
ATOM      5  C5  DEN d   1       2.805  -3.643  -0.319  0.00  0.00    -0.003 A 
ATOM      6  C6  DEN d   1       3.927  -4.324   0.074  0.00  0.00     0.001 A 
ATOM      7  C7  DEN d   1       4.891  -4.634  -0.849  0.00  0.00     0.017 A 
ATOM      8  C8  DEN d   1       4.670  -4.289  -2.176  0.00  0.00    -0.094 A 
ATOM      9  C9  DEN d   1       3.535  -3.590  -2.551  0.00  0.00    -0.072 A 
ENDROOT
TORSDOF 0
ENDMDL
