MODEL 1
REMARK minimizedAffinity -0.152357608
REMARK minimizedRMSD -1
REMARK  0 active torsions:
REMARK  status: ('A' for Active; 'I' for Inactive)
ROOT
ATOM      1  C1  DEN d   1       4.571  -4.741  -0.475  0.00  0.00     0.130 A 
ATOM      2  C2  DEN d   1       3.895  -3.983   0.574  0.00  0.00    -0.031 A 
ATOM      3  C3  DEN d   1       2.829  -3.181  -0.058  0.00  0.00     0.027 A 
ATOM      4  C4  DEN d   1       2.159  -3.043  -2.545  0.00  0.00     0.027 A 
ATOM      5  C5  DEN d   1       2.451  -3.496  -3.813  0.00  0.00    -0.003 A 
ATOM      6  C6  DEN d   1       3.483  -4.362  -4.059  0.00  0.00     0.001 A 
ATOM      7  C7  DEN d   1       4.233  -4.838  -3.017  0.00  0.00     0.017 A 
ATOM      8  C8  DEN d   1       3.950  -4.381  -1.737  0.00  0.00    -0.094 A 
ATOM      9  C9  DEN d   1       2.894  -3.515  -1.506  0.00  0.00    -0.072 A 
ENDROOT
TORSDOF 0
ENDMDL
