MODEL 1
REMARK minimizedAffinity 11.5482044
REMARK minimizedRMSD -1
REMARK  0 active torsions:
REMARK  status: ('A' for Active; 'I' for Inactive)
ROOT
ATOM      1  C1  DEN d   1       2.878  -3.436  -0.007  0.00  0.00     0.130 A 
ATOM      2  C2  DEN d   1       4.089  -4.063   0.517  0.00  0.00    -0.031 A 
ATOM      3  C3  DEN d   1       4.670  -4.898  -0.554  0.00  0.00     0.027 A 
ATOM      4  C4  DEN d   1       3.821  -5.275  -2.960  0.00  0.00     0.027 A 
ATOM      5  C5  DEN d   1       2.826  -4.964  -3.861  0.00  0.00    -0.003 A 
ATOM      6  C6  DEN d   1       1.770  -4.156  -3.532  0.00  0.00     0.001 A 
ATOM      7  C7  DEN d   1       1.707  -3.594  -2.285  0.00  0.00     0.017 A 
ATOM      8  C8  DEN d   1       2.702  -3.909  -1.368  0.00  0.00    -0.094 A 
ATOM      9  C9  DEN d   1       3.768  -4.718  -1.723  0.00  0.00    -0.072 A 
ENDROOT
TORSDOF 0
ENDMDL
