MODEL 1
REMARK minimizedAffinity 2.11750937
REMARK minimizedRMSD -1
REMARK  0 active torsions:
REMARK  status: ('A' for Active; 'I' for Inactive)
ROOT
ATOM      1  C1  DEN d   1       4.996  -4.595  -0.730  0.00  0.00     0.130 A 
ATOM      2  C2  DEN d   1       4.040  -4.460   0.366  0.00  0.00    -0.031 A 
ATOM      3  C3  DEN d   1       2.707  -4.212  -0.219  0.00  0.00     0.027 A 
ATOM      4  C4  DEN d   1       2.033  -4.029  -2.702  0.00  0.00     0.027 A 
ATOM      5  C5  DEN d   1       2.500  -4.063  -3.998  0.00  0.00    -0.003 A 
ATOM      6  C6  DEN d   1       3.826  -4.241  -4.291  0.00  0.00     0.001 A 
ATOM      7  C7  DEN d   1       4.725  -4.437  -3.277  0.00  0.00     0.017 A 
ATOM      8  C8  DEN d   1       4.263  -4.398  -1.968  0.00  0.00    -0.094 A 
ATOM      9  C9  DEN d   1       2.917  -4.229  -1.692  0.00  0.00    -0.072 A 
ENDROOT
TORSDOF 0
ENDMDL
