MODEL 1
REMARK minimizedAffinity 2.85603309
REMARK minimizedRMSD -1
REMARK  0 active torsions:
REMARK  status: ('A' for Active; 'I' for Inactive)
ROOT
ATOM      1  C1  DEN d   1       2.402  -3.760  -3.435  0.00  0.00     0.130 A 
ATOM      2  C2  DEN d   1       3.019  -4.566  -4.485  0.00  0.00    -0.031 A 
ATOM      3  C3  DEN d   1       4.176  -5.272  -3.898  0.00  0.00     0.027 A 
ATOM      4  C4  DEN d   1       5.065  -5.199  -1.478  0.00  0.00     0.027 A 
ATOM      5  C5  DEN d   1       4.878  -4.647  -0.230  0.00  0.00    -0.003 A 
ATOM      6  C6  DEN d   1       3.882  -3.742   0.027  0.00  0.00     0.001 A 
ATOM      7  C7  DEN d   1       3.006  -3.396  -0.968  0.00  0.00     0.017 A 
ATOM      8  C8  DEN d   1       3.193  -3.943  -2.231  0.00  0.00    -0.094 A 
ATOM      9  C9  DEN d   1       4.198  -4.865  -2.467  0.00  0.00    -0.072 A 
ENDROOT
TORSDOF 0
ENDMDL
