MODEL 1
REMARK minimizedAffinity 3.6753273
REMARK minimizedRMSD -1
REMARK  0 active torsions:
REMARK  status: ('A' for Active; 'I' for Inactive)
ROOT
ATOM      1  C1  DEN d   1       2.683  -0.601  -2.925  0.00  0.00     0.130 A 
ATOM      2  C2  DEN d   1       2.254   0.011  -1.671  0.00  0.00    -0.031 A 
ATOM      3  C3  DEN d   1       2.274  -1.030  -0.624  0.00  0.00     0.027 A 
ATOM      4  C4  DEN d   1       2.929  -3.517  -0.821  0.00  0.00     0.027 A 
ATOM      5  C5  DEN d   1       3.350  -4.501  -1.687  0.00  0.00    -0.003 A 
ATOM      6  C6  DEN d   1       3.545  -4.265  -3.022  0.00  0.00     0.001 A 
ATOM      7  C7  DEN d   1       3.361  -3.003  -3.522  0.00  0.00     0.017 A 
ATOM      8  C8  DEN d   1       2.929  -2.007  -2.656  0.00  0.00    -0.094 A 
ATOM      9  C9  DEN d   1       2.750  -2.263  -1.308  0.00  0.00    -0.072 A 
ENDROOT
TORSDOF 0
ENDMDL
