MODEL 1
REMARK minimizedAffinity -2.45557332
REMARK minimizedRMSD -1
REMARK  0 active torsions:
REMARK  status: ('A' for Active; 'I' for Inactive)
ROOT
ATOM      1  C1  DEN d   1       2.405  -1.725  -1.958  0.00  0.00     0.130 A 
ATOM      2  C2  DEN d   1       2.248  -1.713  -3.410  0.00  0.00    -0.031 A 
ATOM      3  C3  DEN d   1       2.806  -2.973  -3.940  0.00  0.00     0.027 A 
ATOM      4  C4  DEN d   1       3.888  -4.934  -2.660  0.00  0.00     0.027 A 
ATOM      5  C5  DEN d   1       4.254  -5.395  -1.415  0.00  0.00    -0.003 A 
ATOM      6  C6  DEN d   1       4.063  -4.657  -0.277  0.00  0.00     0.001 A 
ATOM      7  C7  DEN d   1       3.448  -3.436  -0.356  0.00  0.00     0.017 A 
ATOM      8  C8  DEN d   1       3.082  -2.961  -1.608  0.00  0.00    -0.094 A 
ATOM      9  C9  DEN d   1       3.273  -3.727  -2.745  0.00  0.00    -0.072 A 
ENDROOT
TORSDOF 0
ENDMDL
