MODEL 1
REMARK minimizedAffinity 0.488356382
REMARK minimizedRMSD -1
REMARK  0 active torsions:
REMARK  status: ('A' for Active; 'I' for Inactive)
ROOT
ATOM      1  C1  DEN d   1       1.139  -2.167   0.508  0.00  0.00     0.130 A 
ATOM      2  C2  DEN d   1       0.933  -2.503  -0.899  0.00  0.00    -0.031 A 
ATOM      3  C3  DEN d   1      -0.380  -3.168  -1.022  0.00  0.00     0.027 A 
ATOM      4  C4  DEN d   1      -2.107  -3.702   0.817  0.00  0.00     0.027 A 
ATOM      5  C5  DEN d   1      -2.373  -3.619   2.166  0.00  0.00    -0.003 A 
ATOM      6  C6  DEN d   1      -1.480  -3.081   3.054  0.00  0.00     0.001 A 
ATOM      7  C7  DEN d   1      -0.296  -2.564   2.597  0.00  0.00     0.017 A 
ATOM      8  C8  DEN d   1      -0.018  -2.651   1.240  0.00  0.00    -0.094 A 
ATOM      9  C9  DEN d   1      -0.939  -3.188   0.356  0.00  0.00    -0.072 A 
ENDROOT
TORSDOF 0
ENDMDL
