MODEL 1
REMARK minimizedAffinity 0.435890704
REMARK minimizedRMSD -1
REMARK  0 active torsions:
REMARK  status: ('A' for Active; 'I' for Inactive)
ROOT
ATOM      1  C1  DEN d   1      -1.373  -1.552   4.134  0.00  0.00     0.130 A 
ATOM      2  C2  DEN d   1      -0.344  -1.941   5.095  0.00  0.00    -0.031 A 
ATOM      3  C3  DEN d   1      -0.104  -0.796   5.995  0.00  0.00     0.027 A 
ATOM      4  C4  DEN d   1      -1.222   1.528   5.999  0.00  0.00     0.027 A 
ATOM      5  C5  DEN d   1      -2.146   2.330   5.366  0.00  0.00    -0.003 A 
ATOM      6  C6  DEN d   1      -2.847   1.910   4.266  0.00  0.00     0.001 A 
ATOM      7  C7  DEN d   1      -2.667   0.637   3.793  0.00  0.00     0.017 A 
ATOM      8  C8  DEN d   1      -1.732  -0.175   4.421  0.00  0.00    -0.094 A 
ATOM      9  C9  DEN d   1      -1.043   0.264   5.539  0.00  0.00    -0.072 A 
ENDROOT
TORSDOF 0
ENDMDL
