MODEL 1
REMARK minimizedAffinity 10.3054399
REMARK minimizedRMSD -1
REMARK  0 active torsions:
REMARK  status: ('A' for Active; 'I' for Inactive)
ROOT
ATOM      1  C1  DEN d   1      -3.371  -3.085  -4.974  0.00  0.00     0.130 A 
ATOM      2  C2  DEN d   1      -3.289  -4.121  -6.000  0.00  0.00    -0.031 A 
ATOM      3  C3  DEN d   1      -2.640  -5.305  -5.401  0.00  0.00     0.027 A 
ATOM      4  C4  DEN d   1      -1.763  -5.633  -2.997  0.00  0.00     0.027 A 
ATOM      5  C5  DEN d   1      -1.601  -5.030  -1.770  0.00  0.00    -0.003 A 
ATOM      6  C6  DEN d   1      -1.983  -3.735  -1.536  0.00  0.00     0.001 A 
ATOM      7  C7  DEN d   1      -2.588  -3.016  -2.532  0.00  0.00     0.017 A 
ATOM      8  C8  DEN d   1      -2.749  -3.615  -3.775  0.00  0.00    -0.094 A 
ATOM      9  C9  DEN d   1      -2.367  -4.928  -3.988  0.00  0.00    -0.072 A 
ENDROOT
TORSDOF 0
ENDMDL
