MODEL 1
REMARK minimizedAffinity 2.31582451
REMARK minimizedRMSD -1
REMARK  0 active torsions:
REMARK  status: ('A' for Active; 'I' for Inactive)
ROOT
ATOM      1  C1  DEN d   1      -3.235   1.804   3.206  0.00  0.00     0.130 A 
ATOM      2  C2  DEN d   1      -2.538   2.298   2.021  0.00  0.00    -0.031 A 
ATOM      3  C3  DEN d   1      -1.104   1.980   2.169  0.00  0.00     0.027 A 
ATOM      4  C4  DEN d   1       0.099   0.770   4.103  0.00  0.00     0.027 A 
ATOM      5  C5  DEN d   1      -0.071   0.176   5.334  0.00  0.00    -0.003 A 
ATOM      6  C6  DEN d   1      -1.292   0.113   5.952  0.00  0.00     0.001 A 
ATOM      7  C7  DEN d   1      -2.400   0.614   5.320  0.00  0.00     0.017 A 
ATOM      8  C8  DEN d   1      -2.234   1.222   4.082  0.00  0.00    -0.094 A 
ATOM      9  C9  DEN d   1      -0.994   1.265   3.469  0.00  0.00    -0.072 A 
ENDROOT
TORSDOF 0
ENDMDL
