MODEL 1
REMARK minimizedAffinity 9.99188042
REMARK minimizedRMSD -1
REMARK  0 active torsions:
REMARK  status: ('A' for Active; 'I' for Inactive)
ROOT
ATOM      1  C1  DEN d   1       1.463   2.133  -1.127  0.00  0.00     0.130 A 
ATOM      2  C2  DEN d   1       1.488   2.396  -2.563  0.00  0.00    -0.031 A 
ATOM      3  C3  DEN d   1       1.560   3.858  -2.759  0.00  0.00     0.027 A 
ATOM      4  C4  DEN d   1       1.642   5.730  -0.987  0.00  0.00     0.027 A 
ATOM      5  C5  DEN d   1       1.633   5.998   0.365  0.00  0.00    -0.003 A 
ATOM      6  C6  DEN d   1       1.534   5.007   1.305  0.00  0.00     0.001 A 
ATOM      7  C7  DEN d   1       1.484   3.697   0.908  0.00  0.00     0.017 A 
ATOM      8  C8  DEN d   1       1.485   3.419  -0.453  0.00  0.00    -0.094 A 
ATOM      9  C9  DEN d   1       1.599   4.434  -1.388  0.00  0.00    -0.072 A 
ENDROOT
TORSDOF 0
ENDMDL
