MODEL 1
REMARK minimizedAffinity 4.08233356
REMARK minimizedRMSD -1
REMARK  0 active torsions:
REMARK  status: ('A' for Active; 'I' for Inactive)
ROOT
ATOM      1  C1  DEN d   1       2.679  -0.227  -0.400  0.00  0.00     0.130 A 
ATOM      2  C2  DEN d   1       2.297  -0.004  -1.792  0.00  0.00    -0.031 A 
ATOM      3  C3  DEN d   1       1.826   1.390  -1.918  0.00  0.00     0.027 A 
ATOM      4  C4  DEN d   1       1.658   3.216  -0.104  0.00  0.00     0.027 A 
ATOM      5  C5  DEN d   1       1.856   3.494   1.230  0.00  0.00    -0.003 A 
ATOM      6  C6  DEN d   1       2.306   2.550   2.114  0.00  0.00     0.001 A 
ATOM      7  C7  DEN d   1       2.617   1.293   1.665  0.00  0.00     0.017 A 
ATOM      8  C8  DEN d   1       2.412   1.003   0.323  0.00  0.00    -0.094 A 
ATOM      9  C9  DEN d   1       1.968   1.975  -0.558  0.00  0.00    -0.072 A 
ENDROOT
TORSDOF 0
ENDMDL
