MODEL 1
REMARK minimizedAffinity 2.57683802
REMARK minimizedRMSD -1
REMARK  0 active torsions:
REMARK  status: ('A' for Active; 'I' for Inactive)
ROOT
ATOM      1  C1  DEN d   1      -0.033   2.406  -4.007  0.00  0.00     0.130 A 
ATOM      2  C2  DEN d   1      -1.005   3.446  -4.329  0.00  0.00    -0.031 A 
ATOM      3  C3  DEN d   1      -0.768   4.589  -3.424  0.00  0.00     0.027 A 
ATOM      4  C4  DEN d   1       1.005   4.848  -1.569  0.00  0.00     0.027 A 
ATOM      5  C5  DEN d   1       2.047   4.225  -0.917  0.00  0.00    -0.003 A 
ATOM      6  C6  DEN d   1       2.443   2.950  -1.223  0.00  0.00     0.001 A 
ATOM      7  C7  DEN d   1       1.822   2.273  -2.239  0.00  0.00     0.017 A 
ATOM      8  C8  DEN d   1       0.766   2.891  -2.897  0.00  0.00    -0.094 A 
ATOM      9  C9  DEN d   1       0.389   4.185  -2.580  0.00  0.00    -0.072 A 
ENDROOT
TORSDOF 0
ENDMDL
