MODEL 1
REMARK minimizedAffinity 9.85507679
REMARK minimizedRMSD -1
REMARK  0 active torsions:
REMARK  status: ('A' for Active; 'I' for Inactive)
ROOT
ATOM      1  O1  BZF d   1       2.961  -1.860  -5.313  0.00  0.00    -0.204 OA
ATOM      2  C2  BZF d   1       3.563  -1.048  -4.372  0.00  0.00     0.174 A 
ATOM      3  C3  BZF d   1       2.722  -0.795  -3.349  0.00  0.00    -0.012 A 
ATOM      4  C3A BZF d   1       1.549  -1.567  -3.627  0.00  0.00    -0.107 A 
ATOM      5  C4  BZF d   1       0.366  -1.746  -2.969  0.00  0.00     0.055 A 
ATOM      6  C5  BZF d   1      -0.601  -2.508  -3.545  0.00  0.00    -0.016 A 
ATOM      7  C6  BZF d   1      -0.420  -3.101  -4.778  0.00  0.00     0.022 A 
ATOM      8  C7  BZF d   1       0.739  -2.956  -5.465  0.00  0.00     0.029 A 
ATOM      9  C7A BZF d   1       1.730  -2.214  -4.871  0.00  0.00     0.058 A 
ENDROOT
TORSDOF 0
ENDMDL
