MODEL 1
REMARK minimizedAffinity 5.4959445
REMARK minimizedRMSD -1
REMARK  0 active torsions:
REMARK  status: ('A' for Active; 'I' for Inactive)
ROOT
ATOM      1  O1  BZF d   1       1.931  -5.907   1.985  0.00  0.00    -0.204 OA
ATOM      2  C2  BZF d   1       2.311  -6.000   3.310  0.00  0.00     0.174 A 
ATOM      3  C3  BZF d   1       1.231  -5.997   4.118  0.00  0.00    -0.012 A 
ATOM      4  C3A BZF d   1       0.102  -5.990   3.239  0.00  0.00    -0.107 A 
ATOM      5  C4  BZF d   1      -1.248  -6.000   3.444  0.00  0.00     0.055 A 
ATOM      6  C5  BZF d   1      -2.079  -5.914   2.372  0.00  0.00    -0.016 A 
ATOM      7  C6  BZF d   1      -1.595  -5.812   1.084  0.00  0.00     0.022 A 
ATOM      8  C7  BZF d   1      -0.264  -5.803   0.831  0.00  0.00     0.029 A 
ATOM      9  C7A BZF d   1       0.579  -5.923   1.909  0.00  0.00     0.058 A 
ENDROOT
TORSDOF 0
ENDMDL
