MODEL 1
REMARK minimizedAffinity 2.00051427
REMARK minimizedRMSD -1
REMARK  0 active torsions:
REMARK  status: ('A' for Active; 'I' for Inactive)
ROOT
ATOM      1  O1  BZF d   1      -1.151  -5.937   2.985  0.00  0.00    -0.204 OA
ATOM      2  C2  BZF d   1      -1.265  -5.991   1.609  0.00  0.00     0.174 A 
ATOM      3  C3  BZF d   1      -0.048  -5.970   1.027  0.00  0.00    -0.012 A 
ATOM      4  C3A BZF d   1       0.887  -5.991   2.109  0.00  0.00    -0.107 A 
ATOM      5  C4  BZF d   1       2.251  -6.000   2.171  0.00  0.00     0.055 A 
ATOM      6  C5  BZF d   1       2.858  -5.946   3.386  0.00  0.00    -0.016 A 
ATOM      7  C6  BZF d   1       2.133  -5.878   4.557  0.00  0.00     0.022 A 
ATOM      8  C7  BZF d   1       0.777  -5.872   4.547  0.00  0.00     0.029 A 
ATOM      9  C7A BZF d   1       0.161  -5.960   3.322  0.00  0.00     0.058 A 
ENDROOT
TORSDOF 0
ENDMDL
