MODEL 1
REMARK minimizedAffinity 4.09972954
REMARK minimizedRMSD -1
REMARK  0 active torsions:
REMARK  status: ('A' for Active; 'I' for Inactive)
ROOT
ATOM      1  O1  BZF d   1      -1.209  -4.909   3.731  0.00  0.00    -0.204 OA
ATOM      2  C2  BZF d   1      -0.684  -5.999   3.063  0.00  0.00     0.174 A 
ATOM      3  C3  BZF d   1      -0.768  -5.828   1.728  0.00  0.00    -0.012 A 
ATOM      4  C3A BZF d   1      -1.300  -4.512   1.550  0.00  0.00    -0.107 A 
ATOM      5  C4  BZF d   1      -1.600  -3.761   0.449  0.00  0.00     0.055 A 
ATOM      6  C5  BZF d   1      -2.175  -2.541   0.618  0.00  0.00    -0.016 A 
ATOM      7  C6  BZF d   1      -2.468  -2.044   1.871  0.00  0.00     0.022 A 
ATOM      8  C7  BZF d   1      -2.185  -2.750   2.993  0.00  0.00     0.029 A 
ATOM      9  C7A BZF d   1      -1.574  -3.969   2.827  0.00  0.00     0.058 A 
ENDROOT
TORSDOF 0
ENDMDL
