MODEL 1
REMARK minimizedAffinity 6.49896145
REMARK minimizedRMSD -1
REMARK  0 active torsions:
REMARK  status: ('A' for Active; 'I' for Inactive)
ROOT
ATOM      1  O1  BZF d   1       2.932  -5.962   2.207  0.00  0.00    -0.204 OA
ATOM      2  C2  BZF d   1       4.066  -5.965   2.995  0.00  0.00     0.174 A 
ATOM      3  C3  BZF d   1       3.740  -5.924   4.303  0.00  0.00    -0.012 A 
ATOM      4  C3A BZF d   1       2.311  -5.987   4.337  0.00  0.00    -0.107 A 
ATOM      5  C4  BZF d   1       1.395  -6.000   5.350  0.00  0.00     0.055 A 
ATOM      6  C5  BZF d   1       0.071  -5.992   5.043  0.00  0.00    -0.016 A 
ATOM      7  C6  BZF d   1      -0.372  -5.967   3.737  0.00  0.00     0.022 A 
ATOM      8  C7  BZF d   1       0.499  -5.958   2.698  0.00  0.00     0.029 A 
ATOM      9  C7A BZF d   1       1.837  -5.999   3.004  0.00  0.00     0.058 A 
ENDROOT
TORSDOF 0
ENDMDL
