MODEL 1
REMARK minimizedAffinity 7.69690418
REMARK minimizedRMSD -1
REMARK  0 active torsions:
REMARK  status: ('A' for Active; 'I' for Inactive)
ROOT
ATOM      1  O1  BZF d   1      -0.522  -2.312   1.824  0.00  0.00    -0.204 OA
ATOM      2  C2  BZF d   1      -1.253  -2.166   2.987  0.00  0.00     0.174 A 
ATOM      3  C3  BZF d   1      -1.174  -0.900   3.446  0.00  0.00    -0.012 A 
ATOM      4  C3A BZF d   1      -0.417  -0.189   2.462  0.00  0.00    -0.107 A 
ATOM      5  C4  BZF d   1      -0.015   1.110   2.345  0.00  0.00     0.055 A 
ATOM      6  C5  BZF d   1       0.776   1.466   1.299  0.00  0.00    -0.016 A 
ATOM      7  C6  BZF d   1       1.188   0.548   0.356  0.00  0.00     0.022 A 
ATOM      8  C7  BZF d   1       0.811  -0.752   0.427  0.00  0.00     0.029 A 
ATOM      9  C7A BZF d   1      -0.015  -1.108   1.464  0.00  0.00     0.058 A 
ENDROOT
TORSDOF 0
ENDMDL
