MODEL 1
REMARK minimizedAffinity 6.75556612
REMARK minimizedRMSD -1
REMARK  0 active torsions:
REMARK  status: ('A' for Active; 'I' for Inactive)
ROOT
ATOM      1  O1  BZF d   1      -1.943   0.406  -2.248  0.00  0.00    -0.204 OA
ATOM      2  C2  BZF d   1      -2.845  -0.638  -2.317  0.00  0.00     0.174 A 
ATOM      3  C3  BZF d   1      -2.769  -1.410  -1.213  0.00  0.00    -0.012 A 
ATOM      4  C3A BZF d   1      -1.820  -0.758  -0.363  0.00  0.00    -0.107 A 
ATOM      5  C4  BZF d   1      -1.330  -1.034   0.881  0.00  0.00     0.055 A 
ATOM      6  C5  BZF d   1      -0.359  -0.237   1.400  0.00  0.00    -0.016 A 
ATOM      7  C6  BZF d   1       0.148   0.839   0.701  0.00  0.00     0.022 A 
ATOM      8  C7  BZF d   1      -0.311   1.155  -0.535  0.00  0.00     0.029 A 
ATOM      9  C7A BZF d   1      -1.315   0.371  -1.048  0.00  0.00     0.058 A 
ENDROOT
TORSDOF 0
ENDMDL
