MODEL 1
REMARK minimizedAffinity 6.00135231
REMARK minimizedRMSD -1
REMARK  0 active torsions:
REMARK  status: ('A' for Active; 'I' for Inactive)
ROOT
ATOM      1  O1  BZF d   1       0.040   1.429   1.950  0.00  0.00    -0.204 OA
ATOM      2  C2  BZF d   1      -0.862   0.477   1.515  0.00  0.00     0.174 A 
ATOM      3  C3  BZF d   1      -0.235  -0.684   1.238  0.00  0.00    -0.012 A 
ATOM      4  C3A BZF d   1       1.131  -0.471   1.605  0.00  0.00    -0.107 A 
ATOM      5  C4  BZF d   1       2.244  -1.262   1.579  0.00  0.00     0.055 A 
ATOM      6  C5  BZF d   1       3.442  -0.729   1.937  0.00  0.00    -0.016 A 
ATOM      7  C6  BZF d   1       3.564   0.591   2.320  0.00  0.00     0.022 A 
ATOM      8  C7  BZF d   1       2.487   1.413   2.367  0.00  0.00     0.029 A 
ATOM      9  C7A BZF d   1       1.270   0.868   2.037  0.00  0.00     0.058 A 
ENDROOT
TORSDOF 0
ENDMDL
