MODEL 1
REMARK minimizedAffinity 6.57803774
REMARK minimizedRMSD -1
REMARK  0 active torsions:
REMARK  status: ('A' for Active; 'I' for Inactive)
ROOT
ATOM      1  O1  BZF d   1      -5.263  -0.632   3.759  0.00  0.00    -0.204 OA
ATOM      2  C2  BZF d   1      -5.230  -1.346   4.941  0.00  0.00     0.174 A 
ATOM      3  C3  BZF d   1      -5.137  -0.515   5.999  0.00  0.00    -0.012 A 
ATOM      4  C3A BZF d   1      -5.203   0.804   5.449  0.00  0.00    -0.107 A 
ATOM      5  C4  BZF d   1      -5.178   2.053   5.999  0.00  0.00     0.055 A 
ATOM      6  C5  BZF d   1      -5.188   3.137   5.179  0.00  0.00    -0.016 A 
ATOM      7  C6  BZF d   1      -5.217   3.008   3.806  0.00  0.00     0.022 A 
ATOM      8  C7  BZF d   1      -5.248   1.789   3.214  0.00  0.00     0.029 A 
ATOM      9  C7A BZF d   1      -5.271   0.693   4.041  0.00  0.00     0.058 A 
ENDROOT
TORSDOF 0
ENDMDL
