MODEL 1
REMARK minimizedAffinity -0.841964126
REMARK minimizedRMSD -1
REMARK  0 active torsions:
REMARK  status: ('A' for Active; 'I' for Inactive)
ROOT
ATOM      1  O1  BZF d   1      -2.994   1.988   3.103  0.00  0.00    -0.204 OA
ATOM      2  C2  BZF d   1      -4.123   1.334   3.558  0.00  0.00     0.174 A 
ATOM      3  C3  BZF d   1      -3.958  -0.003   3.497  0.00  0.00    -0.012 A 
ATOM      4  C3A BZF d   1      -2.610  -0.197   3.058  0.00  0.00    -0.107 A 
ATOM      5  C4  BZF d   1      -1.851  -1.306   2.821  0.00  0.00     0.055 A 
ATOM      6  C5  BZF d   1      -0.593  -1.153   2.329  0.00  0.00    -0.016 A 
ATOM      7  C6  BZF d   1      -0.066   0.093   2.059  0.00  0.00     0.022 A 
ATOM      8  C7  BZF d   1      -0.780   1.223   2.283  0.00  0.00     0.029 A 
ATOM      9  C7A BZF d   1      -2.039   1.073   2.810  0.00  0.00     0.058 A 
ENDROOT
TORSDOF 0
ENDMDL
