MODEL 1
REMARK minimizedAffinity 1.24227762
REMARK minimizedRMSD -1
REMARK  0 active torsions:
REMARK  status: ('A' for Active; 'I' for Inactive)
ROOT
ATOM      1  O1  BZF d   1      -2.550  -5.986   3.928  0.00  0.00    -0.204 OA
ATOM      2  C2  BZF d   1      -1.490  -5.964   3.043  0.00  0.00     0.174 A 
ATOM      3  C3  BZF d   1      -1.930  -5.973   1.769  0.00  0.00    -0.012 A 
ATOM      4  C3A BZF d   1      -3.357  -5.909   1.863  0.00  0.00    -0.107 A 
ATOM      5  C4  BZF d   1      -4.358  -5.872   0.935  0.00  0.00     0.055 A 
ATOM      6  C5  BZF d   1      -5.650  -5.887   1.357  0.00  0.00    -0.016 A 
ATOM      7  C6  BZF d   1      -5.976  -5.944   2.696  0.00  0.00     0.022 A 
ATOM      8  C7  BZF d   1      -5.017  -5.977   3.654  0.00  0.00     0.029 A 
ATOM      9  C7A BZF d   1      -3.711  -5.929   3.232  0.00  0.00     0.058 A 
ENDROOT
TORSDOF 0
ENDMDL
