MODEL 1
REMARK minimizedAffinity -0.682219446
REMARK minimizedRMSD -1
REMARK  0 active torsions:
REMARK  status: ('A' for Active; 'I' for Inactive)
ROOT
ATOM      1  O1  BZF d   1      -0.221  -0.507   0.639  0.00  0.00    -0.204 OA
ATOM      2  C2  BZF d   1       0.028   0.680   1.300  0.00  0.00     0.174 A 
ATOM      3  C3  BZF d   1      -0.649   0.728   2.466  0.00  0.00    -0.012 A 
ATOM      4  C3A BZF d   1      -1.291  -0.545   2.582  0.00  0.00    -0.107 A 
ATOM      5  C4  BZF d   1      -2.095  -1.108   3.531  0.00  0.00     0.055 A 
ATOM      6  C5  BZF d   1      -2.617  -2.343   3.307  0.00  0.00    -0.016 A 
ATOM      7  C6  BZF d   1      -2.361  -3.039   2.144  0.00  0.00     0.022 A 
ATOM      8  C7  BZF d   1      -1.565  -2.524   1.175  0.00  0.00     0.029 A 
ATOM      9  C7A BZF d   1      -1.010  -1.290   1.413  0.00  0.00     0.058 A 
ENDROOT
TORSDOF 0
ENDMDL
