MODEL 1
REMARK minimizedAffinity 1.0114727
REMARK minimizedRMSD -1
REMARK  0 active torsions:
REMARK  status: ('A' for Active; 'I' for Inactive)
ROOT
ATOM      1  O1  BZF d   1       0.979  -3.832   3.774  0.00  0.00    -0.204 OA
ATOM      2  C2  BZF d   1       1.515  -4.980   4.324  0.00  0.00     0.174 A 
ATOM      3  C3  BZF d   1       0.625  -5.992   4.280  0.00  0.00    -0.012 A 
ATOM      4  C3A BZF d   1      -0.508  -5.467   3.580  0.00  0.00    -0.107 A 
ATOM      5  C4  BZF d   1      -1.709  -5.998   3.206  0.00  0.00     0.055 A 
ATOM      6  C5  BZF d   1      -2.624  -5.198   2.599  0.00  0.00    -0.016 A 
ATOM      7  C6  BZF d   1      -2.373  -3.863   2.355  0.00  0.00     0.022 A 
ATOM      8  C7  BZF d   1      -1.194  -3.293   2.703  0.00  0.00     0.029 A 
ATOM      9  C7A BZF d   1      -0.255  -4.107   3.287  0.00  0.00     0.058 A 
ENDROOT
TORSDOF 0
ENDMDL
