MODEL 1
REMARK minimizedAffinity 0.691474974
REMARK minimizedRMSD -1
REMARK  0 active torsions:
REMARK  status: ('A' for Active; 'I' for Inactive)
ROOT
ATOM      1  O1  BZF d   1      -2.806   1.749   3.071  0.00  0.00    -0.204 OA
ATOM      2  C2  BZF d   1      -2.065   0.590   2.945  0.00  0.00     0.174 A 
ATOM      3  C3  BZF d   1      -2.668  -0.435   3.582  0.00  0.00    -0.012 A 
ATOM      4  C3A BZF d   1      -3.906   0.097   4.063  0.00  0.00    -0.107 A 
ATOM      5  C4  BZF d   1      -4.951  -0.439   4.760  0.00  0.00     0.055 A 
ATOM      6  C5  BZF d   1      -5.977   0.368   5.137  0.00  0.00    -0.016 A 
ATOM      7  C6  BZF d   1      -5.989   1.714   4.838  0.00  0.00     0.022 A 
ATOM      8  C7  BZF d   1      -4.978   2.291   4.144  0.00  0.00     0.029 A 
ATOM      9  C7A BZF d   1      -3.955   1.471   3.733  0.00  0.00     0.058 A 
ENDROOT
TORSDOF 0
ENDMDL
