MODEL 1
REMARK minimizedAffinity 2.88667965
REMARK minimizedRMSD -1
REMARK  0 active torsions:
REMARK  status: ('A' for Active; 'I' for Inactive)
ROOT
ATOM      1  O1  BZF d   1      -1.668   1.849   2.726  0.00  0.00    -0.204 OA
ATOM      2  C2  BZF d   1      -0.776   0.797   2.807  0.00  0.00     0.174 A 
ATOM      3  C3  BZF d   1      -1.311  -0.231   3.496  0.00  0.00    -0.012 A 
ATOM      4  C3A BZF d   1      -2.653   0.170   3.789  0.00  0.00    -0.107 A 
ATOM      5  C4  BZF d   1      -3.693  -0.433   4.438  0.00  0.00     0.055 A 
ATOM      6  C5  BZF d   1      -4.849   0.258   4.617  0.00  0.00    -0.016 A 
ATOM      7  C6  BZF d   1      -4.999   1.553   4.166  0.00  0.00     0.022 A 
ATOM      8  C7  BZF d   1      -3.998   2.190   3.512  0.00  0.00     0.029 A 
ATOM      9  C7A BZF d   1      -2.839   1.483   3.300  0.00  0.00     0.058 A 
ENDROOT
TORSDOF 0
ENDMDL
