MODEL 1
REMARK minimizedAffinity 6.36924648
REMARK minimizedRMSD -1
REMARK  0 active torsions:
REMARK  status: ('A' for Active; 'I' for Inactive)
ROOT
ATOM      1  O1  BZF d   1       0.537  -0.980  -3.741  0.00  0.00    -0.204 OA
ATOM      2  C2  BZF d   1       1.120  -1.982  -4.492  0.00  0.00     0.174 A 
ATOM      3  C3  BZF d   1       0.256  -2.999  -4.686  0.00  0.00    -0.012 A 
ATOM      4  C3A BZF d   1      -0.973  -2.567  -4.093  0.00  0.00    -0.107 A 
ATOM      5  C4  BZF d   1      -2.209  -3.134  -3.977  0.00  0.00     0.055 A 
ATOM      6  C5  BZF d   1      -3.172  -2.481  -3.274  0.00  0.00    -0.016 A 
ATOM      7  C6  BZF d   1      -2.932  -1.264  -2.672  0.00  0.00     0.022 A 
ATOM      8  C7  BZF d   1      -1.722  -0.659  -2.764  0.00  0.00     0.029 A 
ATOM      9  C7A BZF d   1      -0.757  -1.301  -3.501  0.00  0.00     0.058 A 
ENDROOT
TORSDOF 0
ENDMDL
