MODEL 1
REMARK minimizedAffinity -1.2136122
REMARK minimizedRMSD -1
REMARK  1 active torsions:
REMARK  status: ('A' for Active; 'I' for Inactive)
REMARK    1  A    between atoms: C3_4  and  O_7 
ROOT
ATOM      1  C   UNL d   1       5.831  -5.962  -4.148  0.00  0.00    -0.033 A 
ATOM      2  C1  UNL d   1       6.000  -5.314  -5.374  0.00  0.00     0.039 A 
ATOM      3  C2  UNL d   1       4.910  -4.706  -6.000  0.00  0.00    -0.080 A 
ATOM      4  C3  UNL d   1       3.659  -4.752  -5.391  0.00  0.00     0.150 A 
ATOM      5  C4  UNL d   1       3.484  -5.392  -4.168  0.00  0.00    -0.007 A 
ATOM      6  C5  UNL d   1       4.574  -6.000  -3.545  0.00  0.00     0.039 A 
ENDROOT
BRANCH   4   7
ATOM      7  O   UNL d   1       2.564  -4.178  -5.966  0.00  0.00    -0.526 OA
ATOM      8  H5  UNL d   1       2.830  -3.798  -6.820  0.00  0.00     0.418 HD
ENDBRANCH   4   7
TORSDOF 1
ENDMDL
