MODEL 1
REMARK minimizedAffinity 0.904613674
REMARK minimizedRMSD -1
REMARK  1 active torsions:
REMARK  status: ('A' for Active; 'I' for Inactive)
REMARK    1  A    between atoms: C3_4  and  O_7 
ROOT
ATOM      1  C   UNL d   1       1.097   0.240   0.292  0.00  0.00    -0.033 A 
ATOM      2  C1  UNL d   1       0.010   0.958   0.794  0.00  0.00     0.039 A 
ATOM      3  C2  UNL d   1      -1.088   1.230  -0.025  0.00  0.00    -0.080 A 
ATOM      4  C3  UNL d   1      -1.087   0.777  -1.341  0.00  0.00     0.150 A 
ATOM      5  C4  UNL d   1      -0.009   0.057  -1.847  0.00  0.00    -0.007 A 
ATOM      6  C5  UNL d   1       1.087  -0.212  -1.028  0.00  0.00     0.039 A 
ENDROOT
BRANCH   4   7
ATOM      7  O   UNL d   1      -2.133   1.021  -2.180  0.00  0.00    -0.526 OA
ATOM      8  H5  UNL d   1      -2.792   1.553  -1.703  0.00  0.00     0.418 HD
ENDBRANCH   4   7
TORSDOF 1
ENDMDL
