MODEL 1
REMARK minimizedAffinity -2.68436384
REMARK minimizedRMSD -1
REMARK  1 active torsions:
REMARK  status: ('A' for Active; 'I' for Inactive)
REMARK    1  A    between atoms: C3_4  and  O_7 
ROOT
ATOM      1  C   UNL d   1       0.335   4.278  -5.986  0.00  0.00    -0.033 A 
ATOM      2  C1  UNL d   1      -0.060   2.939  -5.993  0.00  0.00     0.039 A 
ATOM      3  C2  UNL d   1      -1.417   2.610  -5.999  0.00  0.00    -0.080 A 
ATOM      4  C3  UNL d   1      -2.367   3.628  -5.999  0.00  0.00     0.150 A 
ATOM      5  C4  UNL d   1      -1.980   4.964  -5.996  0.00  0.00    -0.007 A 
ATOM      6  C5  UNL d   1      -0.625   5.291  -5.989  0.00  0.00     0.039 A 
ENDROOT
BRANCH   4   7
ATOM      7  O   UNL d   1      -3.703   3.356  -6.000  0.00  0.00    -0.526 OA
ATOM      8  H5  UNL d   1      -3.821   2.391  -5.973  0.00  0.00     0.418 HD
ENDBRANCH   4   7
TORSDOF 1
ENDMDL
