MODEL 1
REMARK minimizedAffinity -2.67798781
REMARK minimizedRMSD -1
REMARK  1 active torsions:
REMARK  status: ('A' for Active; 'I' for Inactive)
REMARK    1  A    between atoms: C3_4  and  O_7 
ROOT
ATOM      1  C   UNL d   1      -0.651   3.898  -5.984  0.00  0.00    -0.033 A 
ATOM      2  C1  UNL d   1      -0.948   5.262  -5.980  0.00  0.00     0.039 A 
ATOM      3  C2  UNL d   1      -2.278   5.689  -5.984  0.00  0.00    -0.080 A 
ATOM      4  C3  UNL d   1      -3.299   4.742  -5.991  0.00  0.00     0.150 A 
ATOM      5  C4  UNL d   1      -3.010   3.382  -5.991  0.00  0.00    -0.007 A 
ATOM      6  C5  UNL d   1      -1.682   2.958  -5.987  0.00  0.00     0.039 A 
ENDROOT
BRANCH   4   7
ATOM      7  O   UNL d   1      -4.612   5.111  -6.000  0.00  0.00    -0.526 OA
ATOM      8  H5  UNL d   1      -4.659   6.081  -6.028  0.00  0.00     0.418 HD
ENDBRANCH   4   7
TORSDOF 1
ENDMDL
