MODEL 1
REMARK minimizedAffinity -0.822078884
REMARK minimizedRMSD -1
REMARK  1 active torsions:
REMARK  status: ('A' for Active; 'I' for Inactive)
REMARK    1  A    between atoms: C3_4  and  O_7 
ROOT
ATOM      1  C   UNL d   1       3.920   4.051  -5.991  0.00  0.00    -0.033 A 
ATOM      2  C1  UNL d   1       3.007   2.994  -5.996  0.00  0.00     0.039 A 
ATOM      3  C2  UNL d   1       1.635   3.254  -6.000  0.00  0.00    -0.080 A 
ATOM      4  C3  UNL d   1       1.190   4.573  -6.000  0.00  0.00     0.150 A 
ATOM      5  C4  UNL d   1       2.094   5.631  -5.999  0.00  0.00    -0.007 A 
ATOM      6  C5  UNL d   1       3.463   5.369  -5.994  0.00  0.00     0.039 A 
ENDROOT
BRANCH   4   7
ATOM      7  O   UNL d   1      -0.139   4.877  -5.999  0.00  0.00    -0.526 OA
ATOM      8  H5  UNL d   1      -0.644   4.047  -5.970  0.00  0.00     0.418 HD
ENDBRANCH   4   7
TORSDOF 1
ENDMDL
