MODEL 1
REMARK minimizedAffinity -1.86482775
REMARK minimizedRMSD -1
REMARK  1 active torsions:
REMARK  status: ('A' for Active; 'I' for Inactive)
REMARK    1  A    between atoms: C3_4  and  O_7 
ROOT
ATOM      1  C   UNL d   1       1.109   4.004  -6.000  0.00  0.00    -0.033 A 
ATOM      2  C1  UNL d   1       0.744   2.657  -6.000  0.00  0.00     0.039 A 
ATOM      3  C2  UNL d   1      -0.605   2.297  -5.997  0.00  0.00    -0.080 A 
ATOM      4  C3  UNL d   1      -1.578   3.293  -5.994  0.00  0.00     0.150 A 
ATOM      5  C4  UNL d   1      -1.221   4.637  -5.998  0.00  0.00    -0.007 A 
ATOM      6  C5  UNL d   1       0.126   4.995  -6.000  0.00  0.00     0.039 A 
ENDROOT
BRANCH   4   7
ATOM      7  O   UNL d   1      -2.907   2.991  -5.986  0.00  0.00    -0.526 OA
ATOM      8  H5  UNL d   1      -3.003   2.024  -5.955  0.00  0.00     0.418 HD
ENDBRANCH   4   7
TORSDOF 1
ENDMDL
