MODEL 1
REMARK minimizedAffinity -1.20761836
REMARK minimizedRMSD -1
REMARK  1 active torsions:
REMARK  status: ('A' for Active; 'I' for Inactive)
REMARK    1  A    between atoms: C3_4  and  O_7 
ROOT
ATOM      1  C   UNL d   1      -0.059   2.918  -5.989  0.00  0.00    -0.033 A 
ATOM      2  C1  UNL d   1      -1.397   2.520  -5.995  0.00  0.00     0.039 A 
ATOM      3  C2  UNL d   1      -2.413   3.478  -6.000  0.00  0.00    -0.080 A 
ATOM      4  C3  UNL d   1      -2.078   4.829  -6.000  0.00  0.00     0.150 A 
ATOM      5  C4  UNL d   1      -0.747   5.233  -5.998  0.00  0.00    -0.007 A 
ATOM      6  C5  UNL d   1       0.266   4.275  -5.992  0.00  0.00     0.039 A 
ENDROOT
BRANCH   4   7
ATOM      7  O   UNL d   1      -3.035   5.800  -6.000  0.00  0.00    -0.526 OA
ATOM      8  H5  UNL d   1      -3.907   5.373  -5.972  0.00  0.00     0.418 HD
ENDBRANCH   4   7
TORSDOF 1
ENDMDL
