MODEL 1
REMARK minimizedAffinity -0.985624015
REMARK minimizedRMSD -1
REMARK  1 active torsions:
REMARK  status: ('A' for Active; 'I' for Inactive)
REMARK    1  A    between atoms: C3_4  and  O_7 
ROOT
ATOM      1  C   UNL d   1      -3.820   4.344  -5.993  0.00  0.00    -0.033 A 
ATOM      2  C1  UNL d   1      -2.896   3.297  -5.998  0.00  0.00     0.039 A 
ATOM      3  C2  UNL d   1      -1.527   3.572  -5.999  0.00  0.00    -0.080 A 
ATOM      4  C3  UNL d   1      -1.096   4.896  -5.994  0.00  0.00     0.150 A 
ATOM      5  C4  UNL d   1      -2.011   5.943  -5.986  0.00  0.00    -0.007 A 
ATOM      6  C5  UNL d   1      -3.377   5.667  -5.986  0.00  0.00     0.039 A 
ENDROOT
BRANCH   4   7
ATOM      7  O   UNL d   1       0.230   5.214  -5.999  0.00  0.00    -0.526 OA
ATOM      8  H5  UNL d   1       0.744   4.390  -6.034  0.00  0.00     0.418 HD
ENDBRANCH   4   7
TORSDOF 1
ENDMDL
