MODEL 1
REMARK minimizedAffinity -1.07197058
REMARK minimizedRMSD -1
REMARK  1 active torsions:
REMARK  status: ('A' for Active; 'I' for Inactive)
REMARK    1  A    between atoms: C3_4  and  O_7 
ROOT
ATOM      1  C   UNL d   1      -3.260  -6.000  -1.958  0.00  0.00    -0.033 A 
ATOM      2  C1  UNL d   1      -3.631  -5.657  -3.260  0.00  0.00     0.039 A 
ATOM      3  C2  UNL d   1      -4.132  -4.382  -3.532  0.00  0.00    -0.080 A 
ATOM      4  C3  UNL d   1      -4.256  -3.461  -2.496  0.00  0.00     0.150 A 
ATOM      5  C4  UNL d   1      -3.885  -3.795  -1.197  0.00  0.00    -0.007 A 
ATOM      6  C5  UNL d   1      -3.386  -5.068  -0.927  0.00  0.00     0.039 A 
ENDROOT
BRANCH   4   7
ATOM      7  O   UNL d   1      -4.744  -2.207  -2.712  0.00  0.00    -0.526 OA
ATOM      8  H5  UNL d   1      -4.986  -2.128  -3.650  0.00  0.00     0.418 HD
ENDBRANCH   4   7
TORSDOF 1
ENDMDL
