MODEL 1
REMARK minimizedAffinity 6.35467243
REMARK minimizedRMSD -1
REMARK  1 active torsions:
REMARK  status: ('A' for Active; 'I' for Inactive)
REMARK    1  A    between atoms: C3_4  and  O_7 
ROOT
ATOM      1  C   UNL d   1      -5.602   1.892  -1.492  0.00  0.00    -0.033 A 
ATOM      2  C1  UNL d   1      -5.868   2.661  -2.626  0.00  0.00     0.039 A 
ATOM      3  C2  UNL d   1      -5.999   4.047  -2.517  0.00  0.00    -0.080 A 
ATOM      4  C3  UNL d   1      -5.860   4.650  -1.270  0.00  0.00     0.150 A 
ATOM      5  C4  UNL d   1      -5.591   3.890  -0.137  0.00  0.00    -0.007 A 
ATOM      6  C5  UNL d   1      -5.462   2.506  -0.247  0.00  0.00     0.039 A 
ENDROOT
BRANCH   4   7
ATOM      7  O   UNL d   1      -5.984   5.999  -1.113  0.00  0.00    -0.526 OA
ATOM      8  H5  UNL d   1      -6.198   6.390  -1.977  0.00  0.00     0.418 HD
ENDBRANCH   4   7
TORSDOF 1
ENDMDL
