MODEL 1
REMARK minimizedAffinity -2.0428915
REMARK minimizedRMSD -1
REMARK  1 active torsions:
REMARK  status: ('A' for Active; 'I' for Inactive)
REMARK    1  A    between atoms: C3_4  and  O_7 
ROOT
ATOM      1  C   UNL d   1      -1.868   5.178  -4.001  0.00  0.00    -0.033 A 
ATOM      2  C1  UNL d   1      -1.702   5.636  -5.309  0.00  0.00     0.039 A 
ATOM      3  C2  UNL d   1      -0.517   5.371  -5.999  0.00  0.00    -0.080 A 
ATOM      4  C3  UNL d   1       0.493   4.648  -5.369  0.00  0.00     0.150 A 
ATOM      5  C4  UNL d   1       0.332   4.185  -4.067  0.00  0.00    -0.007 A 
ATOM      6  C5  UNL d   1      -0.851   4.452  -3.380  0.00  0.00     0.039 A 
ENDROOT
BRANCH   4   7
ATOM      7  O   UNL d   1       1.669   4.368  -6.000  0.00  0.00    -0.526 OA
ATOM      8  H5  UNL d   1       1.649   4.775  -6.882  0.00  0.00     0.418 HD
ENDBRANCH   4   7
TORSDOF 1
ENDMDL
