MODEL 1
REMARK minimizedAffinity 0.453081757
REMARK minimizedRMSD -1
REMARK  1 active torsions:
REMARK  status: ('A' for Active; 'I' for Inactive)
REMARK    1  A    between atoms: C3_4  and  O_7 
ROOT
ATOM      1  C   UNL d   1       1.448   1.746  -1.790  0.00  0.00    -0.033 A 
ATOM      2  C1  UNL d   1       0.948   2.912  -1.207  0.00  0.00     0.039 A 
ATOM      3  C2  UNL d   1       0.003   2.833  -0.182  0.00  0.00    -0.080 A 
ATOM      4  C3  UNL d   1      -0.432   1.583   0.251  0.00  0.00     0.150 A 
ATOM      5  C4  UNL d   1       0.064   0.417  -0.323  0.00  0.00    -0.007 A 
ATOM      6  C5  UNL d   1       1.007   0.498  -1.347  0.00  0.00     0.039 A 
ENDROOT
BRANCH   4   7
ATOM      7  O   UNL d   1      -1.357   1.456   1.244  0.00  0.00    -0.526 OA
ATOM      8  H5  UNL d   1      -1.631   2.345   1.526  0.00  0.00     0.418 HD
ENDBRANCH   4   7
TORSDOF 1
ENDMDL
