MODEL 1
REMARK minimizedAffinity 1.41911781
REMARK minimizedRMSD -1
REMARK  1 active torsions:
REMARK  status: ('A' for Active; 'I' for Inactive)
REMARK    1  A    between atoms: C3_4  and  O_7 
ROOT
ATOM      1  C   UNL d   1      -3.706  -1.917   3.058  0.00  0.00    -0.033 A 
ATOM      2  C1  UNL d   1      -3.830  -0.608   2.588  0.00  0.00     0.039 A 
ATOM      3  C2  UNL d   1      -2.764   0.000   1.922  0.00  0.00    -0.080 A 
ATOM      4  C3  UNL d   1      -1.583  -0.711   1.731  0.00  0.00     0.150 A 
ATOM      5  C4  UNL d   1      -1.454  -2.016   2.193  0.00  0.00    -0.007 A 
ATOM      6  C5  UNL d   1      -2.519  -2.622   2.859  0.00  0.00     0.039 A 
ENDROOT
BRANCH   4   7
ATOM      7  O   UNL d   1      -0.514  -0.158   1.090  0.00  0.00    -0.526 OA
ATOM      8  H5  UNL d   1      -0.737   0.758   0.853  0.00  0.00     0.418 HD
ENDBRANCH   4   7
TORSDOF 1
ENDMDL
