MODEL 1
REMARK minimizedAffinity 1.97031152
REMARK minimizedRMSD -1
REMARK  1 active torsions:
REMARK  status: ('A' for Active; 'I' for Inactive)
REMARK    1  A    between atoms: C3_4  and  O_7 
ROOT
ATOM      1  C   UNL d   1       2.296  -1.313  -1.257  0.00  0.00    -0.033 A 
ATOM      2  C1  UNL d   1       2.924  -2.304  -2.015  0.00  0.00     0.039 A 
ATOM      3  C2  UNL d   1       2.861  -2.263  -3.409  0.00  0.00    -0.080 A 
ATOM      4  C3  UNL d   1       2.170  -1.228  -4.032  0.00  0.00     0.150 A 
ATOM      5  C4  UNL d   1       1.546  -0.235  -3.284  0.00  0.00    -0.007 A 
ATOM      6  C5  UNL d   1       1.609  -0.278  -1.891  0.00  0.00     0.039 A 
ENDROOT
BRANCH   4   7
ATOM      7  O   UNL d   1       2.077  -1.149  -5.390  0.00  0.00    -0.526 OA
ATOM      8  H5  UNL d   1       2.531  -1.917  -5.775  0.00  0.00     0.418 HD
ENDBRANCH   4   7
TORSDOF 1
ENDMDL
