MODEL 1
REMARK minimizedAffinity 4.19753075
REMARK minimizedRMSD -1
REMARK  1 active torsions:
REMARK  status: ('A' for Active; 'I' for Inactive)
REMARK    1  A    between atoms: C3_4  and  O_7 
ROOT
ATOM      1  C   UNL d   1      -3.303  -2.128   3.217  0.00  0.00    -0.033 A 
ATOM      2  C1  UNL d   1      -2.567  -1.320   2.348  0.00  0.00     0.039 A 
ATOM      3  C2  UNL d   1      -3.169  -0.218   1.738  0.00  0.00    -0.080 A 
ATOM      4  C3  UNL d   1      -4.505   0.067   2.007  0.00  0.00     0.150 A 
ATOM      5  C4  UNL d   1      -5.243  -0.731   2.875  0.00  0.00    -0.007 A 
ATOM      6  C5  UNL d   1      -4.641  -1.832   3.482  0.00  0.00     0.039 A 
ENDROOT
BRANCH   4   7
ATOM      7  O   UNL d   1      -5.136   1.130   1.432  0.00  0.00    -0.526 OA
ATOM      8  H5  UNL d   1      -4.511   1.573   0.834  0.00  0.00     0.418 HD
ENDBRANCH   4   7
TORSDOF 1
ENDMDL
