MODEL 1
REMARK minimizedAffinity 0.0890167207
REMARK minimizedRMSD -1
REMARK  1 active torsions:
REMARK  status: ('A' for Active; 'I' for Inactive)
REMARK    1  A    between atoms: C3_4  and  O_7 
ROOT
ATOM      1  C   UNL d   1      -4.131   4.570  -5.936  0.00  0.00    -0.033 A 
ATOM      2  C1  UNL d   1      -3.304   3.446  -5.998  0.00  0.00     0.039 A 
ATOM      3  C2  UNL d   1      -1.916   3.598  -5.999  0.00  0.00    -0.080 A 
ATOM      4  C3  UNL d   1      -1.368   4.876  -5.937  0.00  0.00     0.150 A 
ATOM      5  C4  UNL d   1      -2.186   6.000  -5.871  0.00  0.00    -0.007 A 
ATOM      6  C5  UNL d   1      -3.572   5.846  -5.871  0.00  0.00     0.039 A 
ENDROOT
BRANCH   4   7
ATOM      7  O   UNL d   1      -0.020   5.075  -5.940  0.00  0.00    -0.526 OA
ATOM      8  H5  UNL d   1       0.418   4.211  -6.018  0.00  0.00     0.418 HD
ENDBRANCH   4   7
TORSDOF 1
ENDMDL
