MODEL 1
REMARK minimizedAffinity 9.19772434
REMARK minimizedRMSD -1
REMARK  2 active torsions:
REMARK  status: ('A' for Active; 'I' for Inactive)
REMARK    1  A    between atoms: C2'_3  and  C1'_4 
REMARK    2  A    between atoms: C1'_4  and  C1_5 
ROOT
ATOM      1  C1  I4B d   1       1.567  -2.380   1.809  0.00  0.00    -0.075 A 
ATOM      2  C2  I4B d   1       1.378  -1.714   2.993  0.00  0.00     0.003 A 
ATOM      3  C3  I4B d   1       1.347  -0.298   3.018  0.00  0.00     0.002 A 
ATOM      4  C4  I4B d   1       1.559   0.406   1.850  0.00  0.00    -0.004 A 
ATOM      5  C5  I4B d   1       1.728  -0.271   0.646  0.00  0.00     0.002 A 
ATOM      6  C6  I4B d   1       1.719  -1.674   0.623  0.00  0.00     0.003 A 
ENDROOT
BRANCH   1   7
ATOM      7  C1' I4B d   1       1.626  -3.875   1.824  0.00  0.00     0.060 C 
BRANCH   7   8
ATOM      8  C2' I4B d   1       0.643  -4.370   2.865  0.00  0.00    -0.013 C 
ATOM      9  C4' I4B d   1      -0.777  -4.091   2.450  0.00  0.00     0.013 C 
ATOM     10  C3' I4B d   1       0.872  -5.840   3.056  0.00  0.00     0.013 C 
ENDBRANCH   7   8
ENDBRANCH   1   7
TORSDOF 2
ENDMDL
