MODEL 1
REMARK minimizedAffinity 6.24088907
REMARK minimizedRMSD -1
REMARK  2 active torsions:
REMARK  status: ('A' for Active; 'I' for Inactive)
REMARK    1  A    between atoms: C2'_3  and  C1'_4 
REMARK    2  A    between atoms: C1'_4  and  C1_5 
ROOT
ATOM      1  C1  I4B d   1      -1.405   3.812   5.289  0.00  0.00    -0.075 A 
ATOM      2  C2  I4B d   1      -1.560   3.918   3.929  0.00  0.00     0.003 A 
ATOM      3  C3  I4B d   1      -0.997   5.014   3.231  0.00  0.00     0.002 A 
ATOM      4  C4  I4B d   1      -0.335   6.000   3.934  0.00  0.00    -0.004 A 
ATOM      5  C5  I4B d   1      -0.159   5.879   5.309  0.00  0.00     0.002 A 
ATOM      6  C6  I4B d   1      -0.687   4.772   5.990  0.00  0.00     0.003 A 
ENDROOT
BRANCH   1   7
ATOM      7  C1' I4B d   1      -2.041   2.659   5.999  0.00  0.00     0.060 C 
BRANCH   7   8
ATOM      8  C2' I4B d   1      -3.050   2.031   5.059  0.00  0.00    -0.013 C 
ATOM      9  C4' I4B d   1      -2.377   1.114   4.072  0.00  0.00     0.013 C 
ATOM     10  C3' I4B d   1      -4.056   1.290   5.888  0.00  0.00     0.013 C 
ENDBRANCH   7   8
ENDBRANCH   1   7
TORSDOF 2
ENDMDL
