MODEL 1
REMARK minimizedAffinity 8.37736797
REMARK minimizedRMSD -1
REMARK  2 active torsions:
REMARK  status: ('A' for Active; 'I' for Inactive)
REMARK    1  A    between atoms: C2'_3  and  C1'_4 
REMARK    2  A    between atoms: C1'_4  and  C1_5 
ROOT
ATOM      1  C1  I4B d   1      -3.175   4.202   5.031  0.00  0.00    -0.075 A 
ATOM      2  C2  I4B d   1      -2.184   3.935   4.120  0.00  0.00     0.003 A 
ATOM      3  C3  I4B d   1      -0.975   4.672   4.145  0.00  0.00     0.002 A 
ATOM      4  C4  I4B d   1      -0.821   5.694   5.059  0.00  0.00    -0.004 A 
ATOM      5  C5  I4B d   1      -1.817   5.948   5.997  0.00  0.00     0.002 A 
ATOM      6  C6  I4B d   1      -2.997   5.190   5.992  0.00  0.00     0.003 A 
ENDROOT
BRANCH   1   7
ATOM      7  C1' I4B d   1      -4.452   3.427   4.955  0.00  0.00     0.060 C 
BRANCH   7   8
ATOM      8  C2' I4B d   1      -4.102   1.975   4.704  0.00  0.00    -0.013 C 
ATOM      9  C4' I4B d   1      -3.917   1.227   5.998  0.00  0.00     0.013 C 
ATOM     10  C3' I4B d   1      -5.200   1.370   3.881  0.00  0.00     0.013 C 
ENDBRANCH   7   8
ENDBRANCH   1   7
TORSDOF 2
ENDMDL
