MODEL 1
REMARK minimizedAffinity 3.60608101
REMARK minimizedRMSD -1
REMARK  2 active torsions:
REMARK  status: ('A' for Active; 'I' for Inactive)
REMARK    1  A    between atoms: C2'_3  and  C1'_4 
REMARK    2  A    between atoms: C1'_4  and  C1_5 
ROOT
ATOM      1  C1  I4B d   1       2.271  -4.018   2.123  0.00  0.00    -0.075 A 
ATOM      2  C2  I4B d   1       2.910  -4.991   2.851  0.00  0.00     0.003 A 
ATOM      3  C3  I4B d   1       2.162  -6.000   3.503  0.00  0.00     0.002 A 
ATOM      4  C4  I4B d   1       0.784  -5.970   3.444  0.00  0.00    -0.004 A 
ATOM      5  C5  I4B d   1       0.138  -4.997   2.687  0.00  0.00     0.002 A 
ATOM      6  C6  I4B d   1       0.887  -4.022   2.012  0.00  0.00     0.003 A 
ENDROOT
BRANCH   1   7
ATOM      7  C1' I4B d   1       3.090  -2.948   1.473  0.00  0.00     0.060 C 
BRANCH   7   8
ATOM      8  C2' I4B d   1       2.158  -2.080   0.653  0.00  0.00    -0.013 C 
ATOM      9  C4' I4B d   1       1.487  -1.039   1.510  0.00  0.00     0.013 C 
ATOM     10  C3' I4B d   1       2.962  -1.444  -0.442  0.00  0.00     0.013 C 
ENDBRANCH   7   8
ENDBRANCH   1   7
TORSDOF 2
ENDMDL
