MODEL 1
REMARK minimizedAffinity 3.09896278
REMARK minimizedRMSD -1
REMARK  2 active torsions:
REMARK  status: ('A' for Active; 'I' for Inactive)
REMARK    1  A    between atoms: C2'_3  and  C1'_4 
REMARK    2  A    between atoms: C1'_4  and  C1_5 
ROOT
ATOM      1  C1  I4B d   1       1.898   5.719   5.125  0.00  0.00    -0.075 A 
ATOM      2  C2  I4B d   1       0.914   5.330   6.000  0.00  0.00     0.003 A 
ATOM      3  C3  I4B d   1      -0.413   5.141   5.542  0.00  0.00     0.002 A 
ATOM      4  C4  I4B d   1      -0.720   5.401   4.222  0.00  0.00    -0.004 A 
ATOM      5  C5  I4B d   1       0.284   5.773   3.332  0.00  0.00     0.002 A 
ATOM      6  C6  I4B d   1       1.603   5.922   3.783  0.00  0.00     0.003 A 
ENDROOT
BRANCH   1   7
ATOM      7  C1' I4B d   1       3.281   5.941   5.649  0.00  0.00     0.060 C 
BRANCH   7   8
ATOM      8  C2' I4B d   1       4.212   4.991   4.924  0.00  0.00    -0.013 C 
ATOM      9  C4' I4B d   1       5.190   5.740   4.059  0.00  0.00     0.013 C 
ATOM     10  C3' I4B d   1       4.924   4.164   5.954  0.00  0.00     0.013 C 
ENDBRANCH   7   8
ENDBRANCH   1   7
TORSDOF 2
ENDMDL
