MODEL 1
REMARK minimizedAffinity -3.36521935
REMARK minimizedRMSD -1
REMARK  2 active torsions:
REMARK  status: ('A' for Active; 'I' for Inactive)
REMARK    1  A    between atoms: C2'_3  and  C1'_4 
REMARK    2  A    between atoms: C1'_4  and  C1_5 
ROOT
ATOM      1  C1  I4B d   1      -1.504   4.190   5.960  0.00  0.00    -0.075 A 
ATOM      2  C2  I4B d   1      -2.251   3.039   5.986  0.00  0.00     0.003 A 
ATOM      3  C3  I4B d   1      -3.666   3.108   5.981  0.00  0.00     0.002 A 
ATOM      4  C4  I4B d   1      -4.286   4.340   6.000  0.00  0.00    -0.004 A 
ATOM      5  C5  I4B d   1      -3.527   5.505   5.950  0.00  0.00     0.002 A 
ATOM      6  C6  I4B d   1      -2.127   5.430   5.917  0.00  0.00     0.003 A 
ENDROOT
BRANCH   1   7
ATOM      7  C1' I4B d   1      -0.012   4.081   5.999  0.00  0.00     0.060 C 
BRANCH   7   8
ATOM      8  C2' I4B d   1       0.565   5.392   5.503  0.00  0.00    -0.013 C 
ATOM      9  C4' I4B d   1       1.972   5.591   6.000  0.00  0.00     0.013 C 
ATOM     10  C3' I4B d   1       0.516   5.380   4.004  0.00  0.00     0.013 C 
ENDBRANCH   7   8
ENDBRANCH   1   7
TORSDOF 2
ENDMDL
