MODEL 1
REMARK minimizedAffinity 9.17666531
REMARK minimizedRMSD -1
REMARK  2 active torsions:
REMARK  status: ('A' for Active; 'I' for Inactive)
REMARK    1  A    between atoms: C2'_3  and  C1'_4 
REMARK    2  A    between atoms: C1'_4  and  C1_5 
ROOT
ATOM      1  C1  I4B d   1       2.738  -3.096   1.058  0.00  0.00    -0.075 A 
ATOM      2  C2  I4B d   1       3.171  -3.313   2.342  0.00  0.00     0.003 A 
ATOM      3  C3  I4B d   1       4.290  -4.147   2.584  0.00  0.00     0.002 A 
ATOM      4  C4  I4B d   1       4.910  -4.778   1.525  0.00  0.00    -0.004 A 
ATOM      5  C5  I4B d   1       4.483  -4.538   0.223  0.00  0.00     0.002 A 
ATOM      6  C6  I4B d   1       3.398  -3.682  -0.014  0.00  0.00     0.003 A 
ENDROOT
BRANCH   1   7
ATOM      7  C1' I4B d   1       1.533  -2.236   0.840  0.00  0.00     0.060 C 
BRANCH   7   8
ATOM      8  C2' I4B d   1       0.701  -2.269   2.106  0.00  0.00    -0.013 C 
ATOM      9  C4' I4B d   1      -0.173  -1.048   2.216  0.00  0.00     0.013 C 
ATOM     10  C3' I4B d   1      -0.121  -3.523   2.087  0.00  0.00     0.013 C 
ENDBRANCH   7   8
ENDBRANCH   1   7
TORSDOF 2
ENDMDL
