MODEL 1
REMARK minimizedAffinity -6.17773771
REMARK minimizedRMSD -1
REMARK  3 active torsions:
REMARK  status: ('A' for Active; 'I' for Inactive)
REMARK    1  A    between atoms: C3'_2  and  C2'_3 
REMARK    2  A    between atoms: C2'_3  and  C1'_4 
REMARK    3  A    between atoms: C1'_4  and  C1_5 
ROOT
ATOM      1  C1  N4B d   1       0.440  -0.402  -0.922  0.00  0.00    -0.075 A 
ATOM      2  C2  N4B d   1      -0.623  -0.338  -1.850  0.00  0.00     0.002 A 
ATOM      3  C3  N4B d   1      -1.858  -0.835  -1.514  0.00  0.00     0.002 A 
ATOM      4  C4  N4B d   1      -2.048  -1.415  -0.269  0.00  0.00    -0.004 A 
ATOM      5  C5  N4B d   1      -1.023  -1.450   0.631  0.00  0.00     0.002 A 
ATOM      6  C6  N4B d   1       0.223  -0.950   0.308  0.00  0.00     0.002 A 
ENDROOT
BRANCH   1   7
ATOM      7  C1' N4B d   1       1.831   0.051  -1.275  0.00  0.00     0.057 C 
BRANCH   7   8
ATOM      8  C2' N4B d   1       2.439   0.779  -0.080  0.00  0.00     0.009 C 
BRANCH   8   9
ATOM      9  C3' N4B d   1       3.430   1.847  -0.510  0.00  0.00     0.004 C 
ATOM     10  C4' N4B d   1       3.848   1.708  -1.943  0.00  0.00     0.003 C 
ENDBRANCH   8   9
ENDBRANCH   7   8
ENDBRANCH   1   7
TORSDOF 3
ENDMDL
