MODEL 1
REMARK minimizedAffinity -2.74257755
REMARK minimizedRMSD -1
REMARK  3 active torsions:
REMARK  status: ('A' for Active; 'I' for Inactive)
REMARK    1  A    between atoms: C3'_2  and  C2'_3 
REMARK    2  A    between atoms: C2'_3  and  C1'_4 
REMARK    3  A    between atoms: C1'_4  and  C1_5 
ROOT
ATOM      1  C1  N4B d   1      -0.418  -0.085  -0.230  0.00  0.00    -0.075 A 
ATOM      2  C2  N4B d   1      -0.472   0.392  -1.558  0.00  0.00     0.002 A 
ATOM      3  C3  N4B d   1      -1.600   0.189  -2.315  0.00  0.00     0.002 A 
ATOM      4  C4  N4B d   1      -2.674  -0.501  -1.774  0.00  0.00    -0.004 A 
ATOM      5  C5  N4B d   1      -2.624  -0.936  -0.482  0.00  0.00     0.002 A 
ATOM      6  C6  N4B d   1      -1.498  -0.736   0.292  0.00  0.00     0.002 A 
ENDROOT
BRANCH   1   7
ATOM      7  C1' N4B d   1       0.826   0.037   0.607  0.00  0.00     0.057 C 
BRANCH   7   8
ATOM      8  C2' N4B d   1       1.927   0.688  -0.224  0.00  0.00     0.009 C 
BRANCH   8   9
ATOM      9  C3' N4B d   1       2.452   1.958   0.422  0.00  0.00     0.004 C 
ATOM     10  C4' N4B d   1       3.672   2.497  -0.263  0.00  0.00     0.003 C 
ENDBRANCH   8   9
ENDBRANCH   7   8
ENDBRANCH   1   7
TORSDOF 3
ENDMDL
