MODEL 1
REMARK minimizedAffinity -3.78631473
REMARK minimizedRMSD -1
REMARK  3 active torsions:
REMARK  status: ('A' for Active; 'I' for Inactive)
REMARK    1  A    between atoms: C3'_2  and  C2'_3 
REMARK    2  A    between atoms: C2'_3  and  C1'_4 
REMARK    3  A    between atoms: C1'_4  and  C1_5 
ROOT
ATOM      1  C1  N4B d   1      -1.609  -0.417   0.421  0.00  0.00    -0.075 A 
ATOM      2  C2  N4B d   1      -2.945  -0.850   0.273  0.00  0.00     0.002 A 
ATOM      3  C3  N4B d   1      -3.317  -2.093   0.722  0.00  0.00     0.002 A 
ATOM      4  C4  N4B d   1      -2.371  -2.924   1.302  0.00  0.00    -0.004 A 
ATOM      5  C5  N4B d   1      -1.089  -2.489   1.465  0.00  0.00     0.002 A 
ATOM      6  C6  N4B d   1      -0.701  -1.240   1.022  0.00  0.00     0.002 A 
ENDROOT
BRANCH   1   7
ATOM      7  C1' N4B d   1      -1.135   0.900  -0.132  0.00  0.00     0.057 C 
BRANCH   7   8
ATOM      8  C2' N4B d   1      -1.428   0.949  -1.629  0.00  0.00     0.009 C 
BRANCH   8   9
ATOM      9  C3' N4B d   1      -0.864  -0.257  -2.359  0.00  0.00     0.004 C 
ATOM     10  C4' N4B d   1       0.632  -0.334  -2.284  0.00  0.00     0.003 C 
ENDBRANCH   8   9
ENDBRANCH   7   8
ENDBRANCH   1   7
TORSDOF 3
ENDMDL
