MODEL 1
REMARK minimizedAffinity -6.47889233
REMARK minimizedRMSD -1
REMARK  3 active torsions:
REMARK  status: ('A' for Active; 'I' for Inactive)
REMARK    1  A    between atoms: C3'_2  and  C2'_3 
REMARK    2  A    between atoms: C2'_3  and  C1'_4 
REMARK    3  A    between atoms: C1'_4  and  C1_5 
ROOT
ATOM      1  C1  N4B d   1       0.816   1.443   0.508  0.00  0.00    -0.075 A 
ATOM      2  C2  N4B d   1       1.974   1.300   1.305  0.00  0.00     0.002 A 
ATOM      3  C3  N4B d   1       2.905   2.308   1.350  0.00  0.00     0.002 A 
ATOM      4  C4  N4B d   1       2.711   3.455   0.595  0.00  0.00    -0.004 A 
ATOM      5  C5  N4B d   1       1.578   3.596  -0.151  0.00  0.00     0.002 A 
ATOM      6  C6  N4B d   1       0.631   2.593  -0.203  0.00  0.00     0.002 A 
ENDROOT
BRANCH   1   7
ATOM      7  C1' N4B d   1      -0.188   0.332   0.360  0.00  0.00     0.057 C 
BRANCH   7   8
ATOM      8  C2' N4B d   1      -1.339   0.812  -0.519  0.00  0.00     0.009 C 
BRANCH   8   9
ATOM      9  C3' N4B d   1      -2.459  -0.211  -0.597  0.00  0.00     0.004 C 
ATOM     10  C4' N4B d   1      -2.415  -1.025  -1.856  0.00  0.00     0.003 C 
ENDBRANCH   8   9
ENDBRANCH   7   8
ENDBRANCH   1   7
TORSDOF 3
ENDMDL
