MODEL 1
REMARK minimizedAffinity -5.78844833
REMARK minimizedRMSD -1
REMARK  3 active torsions:
REMARK  status: ('A' for Active; 'I' for Inactive)
REMARK    1  A    between atoms: C3'_2  and  C2'_3 
REMARK    2  A    between atoms: C2'_3  and  C1'_4 
REMARK    3  A    between atoms: C1'_4  and  C1_5 
ROOT
ATOM      1  C1  N4B d   1      -0.851  -0.064  -0.834  0.00  0.00    -0.075 A 
ATOM      2  C2  N4B d   1      -1.838  -0.113  -1.843  0.00  0.00     0.002 A 
ATOM      3  C3  N4B d   1      -2.962  -0.882  -1.667  0.00  0.00     0.002 A 
ATOM      4  C4  N4B d   1      -3.112  -1.623  -0.504  0.00  0.00    -0.004 A 
ATOM      5  C5  N4B d   1      -2.166  -1.550   0.476  0.00  0.00     0.002 A 
ATOM      6  C6  N4B d   1      -1.033  -0.778   0.315  0.00  0.00     0.002 A 
ENDROOT
BRANCH   1   7
ATOM      7  C1' N4B d   1       0.435   0.694  -1.016  0.00  0.00     0.057 C 
BRANCH   7   8
ATOM      8  C2' N4B d   1       1.308   0.506   0.221  0.00  0.00     0.009 C 
BRANCH   8   9
ATOM      9  C3' N4B d   1       2.410   1.547   0.302  0.00  0.00     0.004 C 
ATOM     10  C4' N4B d   1       2.505   2.189   1.654  0.00  0.00     0.003 C 
ENDBRANCH   8   9
ENDBRANCH   7   8
ENDBRANCH   1   7
TORSDOF 3
ENDMDL
