MODEL 1
REMARK minimizedAffinity -0.704620183
REMARK minimizedRMSD -1
REMARK  3 active torsions:
REMARK  status: ('A' for Active; 'I' for Inactive)
REMARK    1  A    between atoms: C3'_2  and  C2'_3 
REMARK    2  A    between atoms: C2'_3  and  C1'_4 
REMARK    3  A    between atoms: C1'_4  and  C1_5 
ROOT
ATOM      1  C1  N4B d   1      -0.007   0.841   0.616  0.00  0.00    -0.075 A 
ATOM      2  C2  N4B d   1       0.390  -0.511   0.703  0.00  0.00     0.002 A 
ATOM      3  C3  N4B d   1      -0.483  -1.453   1.191  0.00  0.00     0.002 A 
ATOM      4  C4  N4B d   1      -1.745  -1.064   1.614  0.00  0.00    -0.004 A 
ATOM      5  C5  N4B d   1      -2.130   0.240   1.503  0.00  0.00     0.002 A 
ATOM      6  C6  N4B d   1      -1.264   1.196   1.011  0.00  0.00     0.002 A 
ENDROOT
BRANCH   1   7
ATOM      7  C1' N4B d   1       0.942   1.920   0.170  0.00  0.00     0.057 C 
BRANCH   7   8
ATOM      8  C2' N4B d   1       1.876   2.274   1.324  0.00  0.00     0.009 C 
BRANCH   8   9
ATOM      9  C3' N4B d   1       2.565   3.610   1.107  0.00  0.00     0.004 C 
ATOM     10  C4' N4B d   1       3.816   3.492   0.288  0.00  0.00     0.003 C 
ENDBRANCH   8   9
ENDBRANCH   7   8
ENDBRANCH   1   7
TORSDOF 3
ENDMDL
