MODEL 1
REMARK minimizedAffinity -6.0948472
REMARK minimizedRMSD -1
REMARK  3 active torsions:
REMARK  status: ('A' for Active; 'I' for Inactive)
REMARK    1  A    between atoms: C3'_2  and  C2'_3 
REMARK    2  A    between atoms: C2'_3  and  C1'_4 
REMARK    3  A    between atoms: C1'_4  and  C1_5 
ROOT
ATOM      1  C1  N4B d   1       2.345   1.137   0.262  0.00  0.00    -0.075 A 
ATOM      2  C2  N4B d   1       2.787   1.759   1.450  0.00  0.00     0.002 A 
ATOM      3  C3  N4B d   1       3.629   2.842   1.387  0.00  0.00     0.002 A 
ATOM      4  C4  N4B d   1       4.057   3.307   0.152  0.00  0.00    -0.004 A 
ATOM      5  C5  N4B d   1       3.605   2.716  -0.992  0.00  0.00     0.002 A 
ATOM      6  C6  N4B d   1       2.755   1.630  -0.943  0.00  0.00     0.002 A 
ENDROOT
BRANCH   1   7
ATOM      7  C1' N4B d   1       1.493  -0.102   0.283  0.00  0.00     0.057 C 
BRANCH   7   8
ATOM      8  C2' N4B d   1       0.125   0.221  -0.310  0.00  0.00     0.009 C 
BRANCH   8   9
ATOM      9  C3' N4B d   1      -1.004  -0.110   0.651  0.00  0.00     0.004 C 
ATOM     10  C4' N4B d   1      -2.360   0.151   0.067  0.00  0.00     0.003 C 
ENDBRANCH   8   9
ENDBRANCH   7   8
ENDBRANCH   1   7
TORSDOF 3
ENDMDL
