MODEL 1
REMARK minimizedAffinity -5.94508982
REMARK minimizedRMSD -1
REMARK  3 active torsions:
REMARK  status: ('A' for Active; 'I' for Inactive)
REMARK    1  A    between atoms: C3'_2  and  C2'_3 
REMARK    2  A    between atoms: C2'_3  and  C1'_4 
REMARK    3  A    between atoms: C1'_4  and  C1_5 
ROOT
ATOM      1  C1  N4B d   1      -0.096  -0.115  -0.344  0.00  0.00    -0.075 A 
ATOM      2  C2  N4B d   1      -0.208   0.053  -1.742  0.00  0.00     0.002 A 
ATOM      3  C3  N4B d   1      -1.435  -0.054  -2.350  0.00  0.00     0.002 A 
ATOM      4  C4  N4B d   1      -2.556  -0.345  -1.586  0.00  0.00    -0.004 A 
ATOM      5  C5  N4B d   1      -2.443  -0.480  -0.234  0.00  0.00     0.002 A 
ATOM      6  C6  N4B d   1      -1.217  -0.372   0.391  0.00  0.00     0.002 A 
ENDROOT
BRANCH   1   7
ATOM      7  C1' N4B d   1       1.236  -0.093   0.354  0.00  0.00     0.057 C 
BRANCH   7   8
ATOM      8  C2' N4B d   1       1.997   1.164  -0.058  0.00  0.00     0.009 C 
BRANCH   8   9
ATOM      9  C3' N4B d   1       2.598   1.882   1.138  0.00  0.00     0.004 C 
ATOM     10  C4' N4B d   1       2.658   3.369   0.954  0.00  0.00     0.003 C 
ENDBRANCH   8   9
ENDBRANCH   7   8
ENDBRANCH   1   7
TORSDOF 3
ENDMDL
