MODEL 1
REMARK minimizedAffinity -6.3689909
REMARK minimizedRMSD -1
REMARK  3 active torsions:
REMARK  status: ('A' for Active; 'I' for Inactive)
REMARK    1  A    between atoms: C3'_2  and  C2'_3 
REMARK    2  A    between atoms: C2'_3  and  C1'_4 
REMARK    3  A    between atoms: C1'_4  and  C1_5 
ROOT
ATOM      1  C1  N4B d   1       0.012  -0.301   0.138  0.00  0.00    -0.075 A 
ATOM      2  C2  N4B d   1      -0.298  -0.370  -1.238  0.00  0.00     0.002 A 
ATOM      3  C3  N4B d   1      -1.608  -0.338  -1.649  0.00  0.00     0.002 A 
ATOM      4  C4  N4B d   1      -2.621  -0.257  -0.706  0.00  0.00    -0.004 A 
ATOM      5  C5  N4B d   1      -2.313  -0.165   0.619  0.00  0.00     0.002 A 
ATOM      6  C6  N4B d   1      -1.001  -0.192   1.047  0.00  0.00     0.002 A 
ENDROOT
BRANCH   1   7
ATOM      7  C1' N4B d   1       1.424  -0.418   0.641  0.00  0.00     0.057 C 
BRANCH   7   8
ATOM      8  C2' N4B d   1       1.918   0.959   1.074  0.00  0.00     0.009 C 
BRANCH   8   9
ATOM      9  C3' N4B d   1       3.009   1.485   0.158  0.00  0.00     0.004 C 
ATOM     10  C4' N4B d   1       2.953   2.974  -0.017  0.00  0.00     0.003 C 
ENDBRANCH   8   9
ENDBRANCH   7   8
ENDBRANCH   1   7
TORSDOF 3
ENDMDL
