MODEL 1
REMARK minimizedAffinity -2.9315486
REMARK minimizedRMSD -1
REMARK  3 active torsions:
REMARK  status: ('A' for Active; 'I' for Inactive)
REMARK    1  A    between atoms: C3'_2  and  C2'_3 
REMARK    2  A    between atoms: C2'_3  and  C1'_4 
REMARK    3  A    between atoms: C1'_4  and  C1_5 
ROOT
ATOM      1  C1  N4B d   1      -0.908  -0.788  -1.948  0.00  0.00    -0.075 A 
ATOM      2  C2  N4B d   1      -0.996  -1.405  -3.216  0.00  0.00     0.002 A 
ATOM      3  C3  N4B d   1      -1.952  -2.363  -3.448  0.00  0.00     0.002 A 
ATOM      4  C4  N4B d   1      -2.815  -2.733  -2.427  0.00  0.00    -0.004 A 
ATOM      5  C5  N4B d   1      -2.739  -2.114  -1.213  0.00  0.00     0.002 A 
ATOM      6  C6  N4B d   1      -1.786  -1.146  -0.967  0.00  0.00     0.002 A 
ENDROOT
BRANCH   1   7
ATOM      7  C1' N4B d   1       0.176   0.203  -1.621  0.00  0.00     0.057 C 
BRANCH   7   8
ATOM      8  C2' N4B d   1       0.362   0.260  -0.108  0.00  0.00     0.009 C 
BRANCH   8   9
ATOM      9  C3' N4B d   1       1.820   0.118   0.291  0.00  0.00     0.004 C 
ATOM     10  C4' N4B d   1       2.538   1.433   0.347  0.00  0.00     0.003 C 
ENDBRANCH   8   9
ENDBRANCH   7   8
ENDBRANCH   1   7
TORSDOF 3
ENDMDL
