MODEL 1
REMARK minimizedAffinity 12.5648737
REMARK minimizedRMSD -1
REMARK  0 active torsions:
REMARK  status: ('A' for Active; 'I' for Inactive)
ROOT
ATOM      1  N1  IND d   1      -2.198   5.346   1.515  0.00  0.00    -0.196 N 
ATOM      2  C2  IND d   1      -3.484   4.936   1.295  0.00  0.00     0.054 A 
ATOM      3  C3  IND d   1      -3.501   3.660   0.850  0.00  0.00    -0.031 A 
ATOM      4  C4  IND d   1      -1.545   2.021   0.506  0.00  0.00     0.051 A 
ATOM      5  C5  IND d   1      -0.181   1.950   0.540  0.00  0.00    -0.031 A 
ATOM      6  C6  IND d   1       0.596   3.028   0.911  0.00  0.00     0.015 A 
ATOM      7  C7  IND d   1       0.035   4.220   1.274  0.00  0.00    -0.016 A 
ATOM      8  C8  IND d   1      -1.350   4.298   1.234  0.00  0.00    -0.047 A 
ATOM      9  C9  IND d   1      -2.142   3.220   0.818  0.00  0.00    -0.096 A 
ATOM     10  HN1 IND d   1      -1.960   6.127   1.783  0.00  0.00     0.298 HD
ENDROOT
TORSDOF 0
ENDMDL
