MODEL 1
REMARK minimizedAffinity 2.44072652
REMARK minimizedRMSD -1
REMARK  0 active torsions:
REMARK  status: ('A' for Active; 'I' for Inactive)
ROOT
ATOM      1  N1  IND d   1       0.955  -1.832   4.983  0.00  0.00    -0.196 N 
ATOM      2  C2  IND d   1       1.458  -2.596   5.998  0.00  0.00     0.054 A 
ATOM      3  C3  IND d   1       1.988  -3.740   5.508  0.00  0.00    -0.031 A 
ATOM      4  C4  IND d   1       2.227  -4.516   3.065  0.00  0.00     0.051 A 
ATOM      5  C5  IND d   1       1.885  -4.172   1.787  0.00  0.00    -0.031 A 
ATOM      6  C6  IND d   1       1.203  -3.007   1.503  0.00  0.00     0.015 A 
ATOM      7  C7  IND d   1       0.847  -2.131   2.490  0.00  0.00    -0.016 A 
ATOM      8  C8  IND d   1       1.187  -2.480   3.789  0.00  0.00    -0.047 A 
ATOM      9  C9  IND d   1       1.841  -3.682   4.088  0.00  0.00    -0.096 A 
ATOM     10  HN1 IND d   1       0.559  -1.074   5.074  0.00  0.00     0.298 HD
ENDROOT
TORSDOF 0
ENDMDL
