MODEL 1
REMARK minimizedAffinity 11.328331
REMARK minimizedRMSD -1
REMARK  0 active torsions:
REMARK  status: ('A' for Active; 'I' for Inactive)
ROOT
ATOM      1  N1  IND d   1       0.768  -1.643   5.116  0.00  0.00    -0.196 N 
ATOM      2  C2  IND d   1       1.192  -2.597   5.998  0.00  0.00     0.054 A 
ATOM      3  C3  IND d   1       1.933  -3.531   5.360  0.00  0.00    -0.031 A 
ATOM      4  C4  IND d   1       2.660  -3.636   2.893  0.00  0.00     0.051 A 
ATOM      5  C5  IND d   1       2.488  -3.008   1.691  0.00  0.00    -0.031 A 
ATOM      6  C6  IND d   1       1.721  -1.867   1.568  0.00  0.00     0.015 A 
ATOM      7  C7  IND d   1       1.104  -1.304   2.649  0.00  0.00    -0.016 A 
ATOM      8  C8  IND d   1       1.270  -1.944   3.869  0.00  0.00    -0.047 A 
ATOM      9  C9  IND d   1       2.012  -3.125   3.992  0.00  0.00    -0.096 A 
ATOM     10  HN1 IND d   1       0.271  -0.968   5.308  0.00  0.00     0.298 HD
ENDROOT
TORSDOF 0
ENDMDL
