MODEL 1
REMARK minimizedAffinity 9.48395729
REMARK minimizedRMSD -1
REMARK  0 active torsions:
REMARK  status: ('A' for Active; 'I' for Inactive)
ROOT
ATOM      1  N1  IND d   1       1.109  -1.117   2.641  0.00  0.00    -0.196 N 
ATOM      2  C2  IND d   1       1.706  -1.722   1.571  0.00  0.00     0.054 A 
ATOM      3  C3  IND d   1       2.366  -2.833   1.967  0.00  0.00    -0.031 A 
ATOM      4  C4  IND d   1       2.513  -3.903   4.303  0.00  0.00     0.051 A 
ATOM      5  C5  IND d   1       2.160  -3.696   5.607  0.00  0.00    -0.031 A 
ATOM      6  C6  IND d   1       1.421  -2.597   5.997  0.00  0.00     0.015 A 
ATOM      7  C7  IND d   1       0.996  -1.667   5.091  0.00  0.00    -0.016 A 
ATOM      8  C8  IND d   1       1.359  -1.871   3.767  0.00  0.00    -0.047 A 
ATOM      9  C9  IND d   1       2.145  -2.961   3.372  0.00  0.00    -0.096 A 
ATOM     10  HN1 IND d   1       0.653  -0.388   2.616  0.00  0.00     0.298 HD
ENDROOT
TORSDOF 0
ENDMDL
