MODEL 1
REMARK minimizedAffinity 5.07132053
REMARK minimizedRMSD -1
REMARK  0 active torsions:
REMARK  status: ('A' for Active; 'I' for Inactive)
ROOT
ATOM      1  N1  IND d   1       0.398  -1.782   5.252  0.00  0.00    -0.196 N 
ATOM      2  C2  IND d   1       0.661  -2.908   5.982  0.00  0.00     0.054 A 
ATOM      3  C3  IND d   1       1.331  -3.810   5.229  0.00  0.00    -0.031 A 
ATOM      4  C4  IND d   1       2.185  -3.609   2.809  0.00  0.00     0.051 A 
ATOM      5  C5  IND d   1       2.155  -2.782   1.721  0.00  0.00    -0.031 A 
ATOM      6  C6  IND d   1       1.527  -1.554   1.756  0.00  0.00     0.015 A 
ATOM      7  C7  IND d   1       0.913  -1.100   2.889  0.00  0.00    -0.016 A 
ATOM      8  C8  IND d   1       0.935  -1.940   3.993  0.00  0.00    -0.047 A 
ATOM      9  C9  IND d   1       1.534  -3.205   3.951  0.00  0.00    -0.096 A 
ATOM     10  HN1 IND d   1      -0.032  -1.092   5.532  0.00  0.00     0.298 HD
ENDROOT
TORSDOF 0
ENDMDL
