MODEL 1
REMARK minimizedAffinity 13.4408798
REMARK minimizedRMSD -1
REMARK  0 active torsions:
REMARK  status: ('A' for Active; 'I' for Inactive)
ROOT
ATOM      1  N1  IND d   1       0.916  -1.224   5.129  0.00  0.00    -0.196 N 
ATOM      2  C2  IND d   1       1.203  -2.238   6.000  0.00  0.00     0.054 A 
ATOM      3  C3  IND d   1       1.606  -3.338   5.324  0.00  0.00    -0.031 A 
ATOM      4  C4  IND d   1       1.964  -3.664   2.796  0.00  0.00     0.051 A 
ATOM      5  C5  IND d   1       1.799  -3.034   1.594  0.00  0.00    -0.031 A 
ATOM      6  C6  IND d   1       1.324  -1.741   1.508  0.00  0.00     0.015 A 
ATOM      7  C7  IND d   1       1.006  -1.023   2.626  0.00  0.00    -0.016 A 
ATOM      8  C8  IND d   1       1.165  -1.662   3.847  0.00  0.00    -0.047 A 
ATOM      9  C9  IND d   1       1.607  -2.989   3.939  0.00  0.00    -0.096 A 
ATOM     10  HN1 IND d   1       0.627  -0.444   5.346  0.00  0.00     0.298 HD
ENDROOT
TORSDOF 0
ENDMDL
