MODEL 1
REMARK minimizedAffinity 10.8906851
REMARK minimizedRMSD -1
REMARK  0 active torsions:
REMARK  status: ('A' for Active; 'I' for Inactive)
ROOT
ATOM      1  N1  IND d   1      -2.961   1.086  -3.022  0.00  0.00    -0.196 N 
ATOM      2  C2  IND d   1      -3.197   1.067  -1.675  0.00  0.00     0.054 A 
ATOM      3  C3  IND d   1      -3.664   2.267  -1.263  0.00  0.00    -0.031 A 
ATOM      4  C4  IND d   1      -4.214   4.370  -2.643  0.00  0.00     0.051 A 
ATOM      5  C5  IND d   1      -4.129   4.880  -3.908  0.00  0.00    -0.031 A 
ATOM      6  C6  IND d   1      -3.644   4.137  -4.964  0.00  0.00     0.015 A 
ATOM      7  C7  IND d   1      -3.234   2.844  -4.796  0.00  0.00    -0.016 A 
ATOM      8  C8  IND d   1      -3.311   2.325  -3.511  0.00  0.00    -0.047 A 
ATOM      9  C9  IND d   1      -3.763   3.089  -2.428  0.00  0.00    -0.096 A 
ATOM     10  HN1 IND d   1      -2.646   0.433  -3.485  0.00  0.00     0.298 HD
ENDROOT
TORSDOF 0
ENDMDL
