MODEL 1
REMARK minimizedAffinity 9.22002888
REMARK minimizedRMSD -1
REMARK  0 active torsions:
REMARK  status: ('A' for Active; 'I' for Inactive)
ROOT
ATOM      1  N1  IND d   1       3.501  -3.930   0.782  0.00  0.00    -0.196 N 
ATOM      2  C2  IND d   1       2.976  -4.942   1.537  0.00  0.00     0.054 A 
ATOM      3  C3  IND d   1       2.045  -4.459   2.389  0.00  0.00    -0.031 A 
ATOM      4  C4  IND d   1       1.150  -2.059   2.645  0.00  0.00     0.051 A 
ATOM      5  C5  IND d   1       1.348  -0.782   2.200  0.00  0.00    -0.031 A 
ATOM      6  C6  IND d   1       2.292  -0.484   1.238  0.00  0.00     0.015 A 
ATOM      7  C7  IND d   1       3.067  -1.457   0.675  0.00  0.00    -0.016 A 
ATOM      8  C8  IND d   1       2.873  -2.754   1.129  0.00  0.00    -0.047 A 
ATOM      9  C9  IND d   1       1.947  -3.057   2.136  0.00  0.00    -0.096 A 
ATOM     10  HN1 IND d   1       4.119  -4.014   0.190  0.00  0.00     0.298 HD
ENDROOT
TORSDOF 0
ENDMDL
