MODEL 1
REMARK minimizedAffinity 8.82291508
REMARK minimizedRMSD -1
REMARK  0 active torsions:
REMARK  status: ('A' for Active; 'I' for Inactive)
ROOT
ATOM      1  N1  IND d   1       0.319  -5.832  -2.585  0.00  0.00    -0.196 N 
ATOM      2  C2  IND d   1       1.585  -5.354  -2.390  0.00  0.00     0.054 A 
ATOM      3  C3  IND d   1       1.717  -4.870  -1.135  0.00  0.00    -0.031 A 
ATOM      4  C4  IND d   1       0.016  -4.851   0.798  0.00  0.00     0.051 A 
ATOM      5  C5  IND d   1      -1.286  -5.145   1.090  0.00  0.00    -0.031 A 
ATOM      6  C6  IND d   1      -2.137  -5.696   0.153  0.00  0.00     0.015 A 
ATOM      7  C7  IND d   1      -1.711  -5.986  -1.112  0.00  0.00    -0.016 A 
ATOM      8  C8  IND d   1      -0.391  -5.683  -1.414  0.00  0.00    -0.047 A 
ATOM      9  C9  IND d   1       0.465  -5.084  -0.481  0.00  0.00    -0.096 A 
ATOM     10  HN1 IND d   1       0.017  -6.169  -3.316  0.00  0.00     0.298 HD
ENDROOT
TORSDOF 0
ENDMDL
