MODEL 1
REMARK minimizedAffinity 13.8999434
REMARK minimizedRMSD -1
REMARK  0 active torsions:
REMARK  status: ('A' for Active; 'I' for Inactive)
ROOT
ATOM      1  N1  IND d   1       0.642  -1.026   2.953  0.00  0.00    -0.196 N 
ATOM      2  C2  IND d   1       1.040  -1.495   1.732  0.00  0.00     0.054 A 
ATOM      3  C3  IND d   1       1.707  -2.663   1.871  0.00  0.00    -0.031 A 
ATOM      4  C4  IND d   1       2.170  -4.039   3.997  0.00  0.00     0.051 A 
ATOM      5  C5  IND d   1       2.033  -4.000   5.357  0.00  0.00    -0.031 A 
ATOM      6  C6  IND d   1       1.410  -2.948   5.997  0.00  0.00     0.015 A 
ATOM      7  C7  IND d   1       0.888  -1.896   5.298  0.00  0.00    -0.016 A 
ATOM      8  C8  IND d   1       1.032  -1.929   3.918  0.00  0.00    -0.047 A 
ATOM      9  C9  IND d   1       1.701  -2.973   3.266  0.00  0.00    -0.096 A 
ATOM     10  HN1 IND d   1       0.218  -0.292   3.095  0.00  0.00     0.298 HD
ENDROOT
TORSDOF 0
ENDMDL
