MODEL 1
REMARK minimizedAffinity 10.2430153
REMARK minimizedRMSD -1
REMARK  0 active torsions:
REMARK  status: ('A' for Active; 'I' for Inactive)
ROOT
ATOM      1  N1  IND d   1       0.870  -1.577   4.925  0.00  0.00    -0.196 N 
ATOM      2  C2  IND d   1       1.384  -2.605   5.665  0.00  0.00     0.054 A 
ATOM      3  C3  IND d   1       2.074  -3.456   4.872  0.00  0.00    -0.031 A 
ATOM      4  C4  IND d   1       2.575  -3.300   2.352  0.00  0.00     0.051 A 
ATOM      5  C5  IND d   1       2.287  -2.559   1.240  0.00  0.00    -0.031 A 
ATOM      6  C6  IND d   1       1.499  -1.428   1.302  0.00  0.00     0.015 A 
ATOM      7  C7  IND d   1       0.976  -0.988   2.485  0.00  0.00    -0.016 A 
ATOM      8  C8  IND d   1       1.260  -1.742   3.614  0.00  0.00    -0.047 A 
ATOM      9  C9  IND d   1       2.024  -2.914   3.551  0.00  0.00    -0.096 A 
ATOM     10  HN1 IND d   1       0.385  -0.935   5.228  0.00  0.00     0.298 HD
ENDROOT
TORSDOF 0
ENDMDL
