MODEL 1
REMARK minimizedAffinity 6.39636374
REMARK minimizedRMSD -1
REMARK  0 active torsions:
REMARK  status: ('A' for Active; 'I' for Inactive)
ROOT
ATOM      1  C1  DEN d   1       0.783  -0.295   0.055  0.00  0.00     0.130 A 
ATOM      2  C2  DEN d   1       0.942   0.126  -1.335  0.00  0.00    -0.031 A 
ATOM      3  C3  DEN d   1       1.364   1.541  -1.338  0.00  0.00     0.027 A 
ATOM      4  C4  DEN d   1       1.791   3.111   0.663  0.00  0.00     0.027 A 
ATOM      5  C5  DEN d   1       1.776   3.208   2.037  0.00  0.00    -0.003 A 
ATOM      6  C6  DEN d   1       1.399   2.163   2.839  0.00  0.00     0.001 A 
ATOM      7  C7  DEN d   1       1.066   0.960   2.275  0.00  0.00     0.017 A 
ATOM      8  C8  DEN d   1       1.071   0.857   0.890  0.00  0.00    -0.094 A 
ATOM      9  C9  DEN d   1       1.466   1.921   0.097  0.00  0.00    -0.072 A 
ENDROOT
TORSDOF 0
ENDMDL
