MODEL 1
REMARK minimizedAffinity 7.63902569
REMARK minimizedRMSD -1
REMARK  0 active torsions:
REMARK  status: ('A' for Active; 'I' for Inactive)
ROOT
ATOM      1  C1  DEN d   1      -0.874   5.972  -2.281  0.00  0.00     0.130 A 
ATOM      2  C2  DEN d   1      -2.281   6.000  -2.672  0.00  0.00    -0.031 A 
ATOM      3  C3  DEN d   1      -2.344   6.000  -4.147  0.00  0.00     0.027 A 
ATOM      4  C4  DEN d   1      -0.412   5.954  -5.855  0.00  0.00     0.027 A 
ATOM      5  C5  DEN d   1       0.958   5.937  -6.000  0.00  0.00    -0.003 A 
ATOM      6  C6  DEN d   1       1.806   5.964  -4.925  0.00  0.00     0.001 A 
ATOM      7  C7  DEN d   1       1.293   5.965  -3.655  0.00  0.00     0.017 A 
ATOM      8  C8  DEN d   1      -0.087   5.989  -3.501  0.00  0.00    -0.094 A 
ATOM      9  C9  DEN d   1      -0.928   5.949  -4.600  0.00  0.00    -0.072 A 
ENDROOT
TORSDOF 0
ENDMDL
