MODEL 1
REMARK minimizedAffinity -1.89769804
REMARK minimizedRMSD -1
REMARK  0 active torsions:
REMARK  status: ('A' for Active; 'I' for Inactive)
ROOT
ATOM      1  C1  DEN d   1       2.096   4.079  -4.621  0.00  0.00     0.130 A 
ATOM      2  C2  DEN d   1       1.372   5.069  -5.414  0.00  0.00    -0.031 A 
ATOM      3  C3  DEN d   1       2.360   5.999  -5.996  0.00  0.00     0.027 A 
ATOM      4  C4  DEN d   1       4.928   6.000  -5.753  0.00  0.00     0.027 A 
ATOM      5  C5  DEN d   1       6.000   5.362  -5.170  0.00  0.00    -0.003 A 
ATOM      6  C6  DEN d   1       5.845   4.281  -4.342  0.00  0.00     0.001 A 
ATOM      7  C7  DEN d   1       4.592   3.777  -4.111  0.00  0.00     0.017 A 
ATOM      8  C8  DEN d   1       3.505   4.420  -4.689  0.00  0.00    -0.094 A 
ATOM      9  C9  DEN d   1       3.684   5.503  -5.532  0.00  0.00    -0.072 A 
ENDROOT
TORSDOF 0
ENDMDL
