MODEL 1
REMARK minimizedAffinity 6.17476368
REMARK minimizedRMSD -1
REMARK  0 active torsions:
REMARK  status: ('A' for Active; 'I' for Inactive)
ROOT
ATOM      1  C1  DEN d   1       0.548   0.383  -0.460  0.00  0.00     0.130 A 
ATOM      2  C2  DEN d   1      -0.039   0.731   0.831  0.00  0.00    -0.031 A 
ATOM      3  C3  DEN d   1      -1.480   0.412   0.778  0.00  0.00     0.027 A 
ATOM      4  C4  DEN d   1      -2.851  -0.586  -1.165  0.00  0.00     0.027 A 
ATOM      5  C5  DEN d   1      -2.792  -1.036  -2.466  0.00  0.00    -0.003 A 
ATOM      6  C6  DEN d   1      -1.632  -1.013  -3.194  0.00  0.00     0.001 A 
ATOM      7  C7  DEN d   1      -0.473  -0.572  -2.611  0.00  0.00     0.017 A 
ATOM      8  C8  DEN d   1      -0.526  -0.110  -1.303  0.00  0.00    -0.094 A 
ATOM      9  C9  DEN d   1      -1.706  -0.153  -0.579  0.00  0.00    -0.072 A 
ENDROOT
TORSDOF 0
ENDMDL
