MODEL 1
REMARK minimizedAffinity -0.707437754
REMARK minimizedRMSD -1
REMARK  0 active torsions:
REMARK  status: ('A' for Active; 'I' for Inactive)
ROOT
ATOM      1  C1  DEN d   1       1.124   5.966  -3.163  0.00  0.00     0.130 A 
ATOM      2  C2  DEN d   1       1.060   5.951  -4.622  0.00  0.00    -0.031 A 
ATOM      3  C3  DEN d   1      -0.363   5.958  -5.017  0.00  0.00     0.027 A 
ATOM      4  C4  DEN d   1      -2.462   5.994  -3.519  0.00  0.00     0.027 A 
ATOM      5  C5  DEN d   1      -2.913   6.000  -2.217  0.00  0.00    -0.003 A 
ATOM      6  C6  DEN d   1      -2.057   5.961  -1.149  0.00  0.00     0.001 A 
ATOM      7  C7  DEN d   1      -0.704   5.960  -1.362  0.00  0.00     0.017 A 
ATOM      8  C8  DEN d   1      -0.242   5.946  -2.672  0.00  0.00    -0.094 A 
ATOM      9  C9  DEN d   1      -1.123   5.998  -3.739  0.00  0.00    -0.072 A 
ENDROOT
TORSDOF 0
ENDMDL
