MODEL 1
REMARK minimizedAffinity 0.603038311
REMARK minimizedRMSD -1
REMARK  0 active torsions:
REMARK  status: ('A' for Active; 'I' for Inactive)
ROOT
ATOM      1  C1  DEN d   1       3.507   5.968  -3.499  0.00  0.00     0.130 A 
ATOM      2  C2  DEN d   1       4.291   6.000  -4.731  0.00  0.00    -0.031 A 
ATOM      3  C3  DEN d   1       3.351   5.991  -5.870  0.00  0.00     0.027 A 
ATOM      4  C4  DEN d   1       0.773   5.937  -5.846  0.00  0.00     0.027 A 
ATOM      5  C5  DEN d   1      -0.342   5.892  -5.038  0.00  0.00    -0.003 A 
ATOM      6  C6  DEN d   1      -0.251   5.834  -3.672  0.00  0.00     0.001 A 
ATOM      7  C7  DEN d   1       0.979   5.867  -3.071  0.00  0.00     0.017 A 
ATOM      8  C8  DEN d   1       2.108   5.905  -3.880  0.00  0.00    -0.094 A 
ATOM      9  C9  DEN d   1       1.995   5.975  -5.258  0.00  0.00    -0.072 A 
ENDROOT
TORSDOF 0
ENDMDL
