MODEL 1
REMARK minimizedAffinity 0.69200623
REMARK minimizedRMSD -1
REMARK  0 active torsions:
REMARK  status: ('A' for Active; 'I' for Inactive)
ROOT
ATOM      1  C1  DEN d   1      -0.474   5.997  -2.252  0.00  0.00     0.130 A 
ATOM      2  C2  DEN d   1      -1.881   5.986  -2.641  0.00  0.00    -0.031 A 
ATOM      3  C3  DEN d   1      -1.947   5.947  -4.116  0.00  0.00     0.027 A 
ATOM      4  C4  DEN d   1      -0.016   5.896  -5.825  0.00  0.00     0.027 A 
ATOM      5  C5  DEN d   1       1.354   5.904  -5.972  0.00  0.00    -0.003 A 
ATOM      6  C6  DEN d   1       2.203   5.977  -4.900  0.00  0.00     0.001 A 
ATOM      7  C7  DEN d   1       1.691   5.999  -3.629  0.00  0.00     0.017 A 
ATOM      8  C8  DEN d   1       0.311   6.000  -3.474  0.00  0.00    -0.094 A 
ATOM      9  C9  DEN d   1      -0.530   5.913  -4.570  0.00  0.00    -0.072 A 
ENDROOT
TORSDOF 0
ENDMDL
