MODEL 1
REMARK minimizedAffinity 1.75365126
REMARK minimizedRMSD -1
REMARK  0 active torsions:
REMARK  status: ('A' for Active; 'I' for Inactive)
ROOT
ATOM      1  C1  DEN d   1      -2.141  -4.200   5.575  0.00  0.00     0.130 A 
ATOM      2  C2  DEN d   1      -2.788  -2.902   5.409  0.00  0.00    -0.031 A 
ATOM      3  C3  DEN d   1      -2.467  -2.402   4.057  0.00  0.00     0.027 A 
ATOM      4  C4  DEN d   1      -1.041  -3.508   2.214  0.00  0.00     0.027 A 
ATOM      5  C5  DEN d   1      -0.275  -4.608   1.896  0.00  0.00    -0.003 A 
ATOM      6  C6  DEN d   1      -0.052  -5.624   2.786  0.00  0.00     0.001 A 
ATOM      7  C7  DEN d   1      -0.637  -5.584   4.024  0.00  0.00     0.017 A 
ATOM      8  C8  DEN d   1      -1.404  -4.475   4.355  0.00  0.00    -0.094 A 
ATOM      9  C9  DEN d   1      -1.629  -3.463   3.437  0.00  0.00    -0.072 A 
ENDROOT
TORSDOF 0
ENDMDL
