MODEL 1
REMARK minimizedAffinity -2.67137694
REMARK minimizedRMSD -1
REMARK  0 active torsions:
REMARK  status: ('A' for Active; 'I' for Inactive)
ROOT
ATOM      1  C1  DEN d   1       1.305   5.916  -4.468  0.00  0.00     0.130 A 
ATOM      2  C2  DEN d   1       0.956   5.844  -5.884  0.00  0.00    -0.031 A 
ATOM      3  C3  DEN d   1      -0.517   5.839  -5.991  0.00  0.00     0.027 A 
ATOM      4  C4  DEN d   1      -2.281   5.940  -4.112  0.00  0.00     0.027 A 
ATOM      5  C5  DEN d   1      -2.466   5.998  -2.749  0.00  0.00    -0.003 A 
ATOM      6  C6  DEN d   1      -1.417   5.999  -1.868  0.00  0.00     0.001 A 
ATOM      7  C7  DEN d   1      -0.132   5.986  -2.344  0.00  0.00     0.017 A 
ATOM      8  C8  DEN d   1       0.063   5.920  -3.717  0.00  0.00    -0.094 A 
ATOM      9  C9  DEN d   1      -1.011   5.932  -4.591  0.00  0.00    -0.072 A 
ENDROOT
TORSDOF 0
ENDMDL
