MODEL 1
REMARK minimizedAffinity 3.45041895
REMARK minimizedRMSD -1
REMARK  0 active torsions:
REMARK  status: ('A' for Active; 'I' for Inactive)
ROOT
ATOM      1  C1  DEN d   1      -0.476   5.963  -5.938  0.00  0.00     0.130 A 
ATOM      2  C2  DEN d   1       0.984   5.986  -5.923  0.00  0.00    -0.031 A 
ATOM      3  C3  DEN d   1       1.426   5.999  -4.514  0.00  0.00     0.027 A 
ATOM      4  C4  DEN d   1      -0.000   5.983  -2.365  0.00  0.00     0.027 A 
ATOM      5  C5  DEN d   1      -1.286   5.977  -1.872  0.00  0.00    -0.003 A 
ATOM      6  C6  DEN d   1      -2.383   6.000  -2.692  0.00  0.00     0.001 A 
ATOM      7  C7  DEN d   1      -2.215   5.984  -4.051  0.00  0.00     0.017 A 
ATOM      8  C8  DEN d   1      -0.922   5.998  -4.556  0.00  0.00    -0.094 A 
ATOM      9  C9  DEN d   1       0.174   5.963  -3.711  0.00  0.00    -0.072 A 
ENDROOT
TORSDOF 0
ENDMDL
