MODEL 1
REMARK minimizedAffinity 8.21933556
REMARK minimizedRMSD -1
REMARK  0 active torsions:
REMARK  status: ('A' for Active; 'I' for Inactive)
ROOT
ATOM      1  C1  DEN d   1       2.739   2.790  -3.852  0.00  0.00     0.130 A 
ATOM      2  C2  DEN d   1       3.851   1.941  -3.437  0.00  0.00    -0.031 A 
ATOM      3  C3  DEN d   1       5.106   2.589  -3.868  0.00  0.00     0.027 A 
ATOM      4  C4  DEN d   1       5.433   4.817  -5.127  0.00  0.00     0.027 A 
ATOM      5  C5  DEN d   1       4.783   5.886  -5.703  0.00  0.00    -0.003 A 
ATOM      6  C6  DEN d   1       3.417   5.981  -5.733  0.00  0.00     0.001 A 
ATOM      7  C7  DEN d   1       2.656   5.011  -5.136  0.00  0.00     0.017 A 
ATOM      8  C8  DEN d   1       3.303   3.926  -4.559  0.00  0.00    -0.094 A 
ATOM      9  C9  DEN d   1       4.686   3.854  -4.528  0.00  0.00    -0.072 A 
ENDROOT
TORSDOF 0
ENDMDL
