MODEL 1
REMARK minimizedAffinity 4.82479954
REMARK minimizedRMSD -1
REMARK  0 active torsions:
REMARK  status: ('A' for Active; 'I' for Inactive)
ROOT
ATOM      1  C1  DEN d   1       1.238   3.777  -5.226  0.00  0.00     0.130 A 
ATOM      2  C2  DEN d   1       0.596   4.923  -5.865  0.00  0.00    -0.031 A 
ATOM      3  C3  DEN d   1       1.600   5.998  -5.988  0.00  0.00     0.027 A 
ATOM      4  C4  DEN d   1       4.074   6.000  -5.259  0.00  0.00     0.027 A 
ATOM      5  C5  DEN d   1       5.069   5.258  -4.661  0.00  0.00    -0.003 A 
ATOM      6  C6  DEN d   1       4.849   3.993  -4.183  0.00  0.00     0.001 A 
ATOM      7  C7  DEN d   1       3.616   3.415  -4.335  0.00  0.00     0.017 A 
ATOM      8  C8  DEN d   1       2.607   4.159  -4.930  0.00  0.00    -0.094 A 
ATOM      9  C9  DEN d   1       2.852   5.432  -5.418  0.00  0.00    -0.072 A 
ENDROOT
TORSDOF 0
ENDMDL
