MODEL 1
REMARK minimizedAffinity 1.58500087
REMARK minimizedRMSD -1
REMARK  0 active torsions:
REMARK  status: ('A' for Active; 'I' for Inactive)
ROOT
ATOM      1  C1  DEN d   1      -1.726   5.968  -5.225  0.00  0.00     0.130 A 
ATOM      2  C2  DEN d   1      -0.348   5.987  -5.709  0.00  0.00    -0.031 A 
ATOM      3  C3  DEN d   1       0.548   5.996  -4.536  0.00  0.00     0.027 A 
ATOM      4  C4  DEN d   1      -0.060   5.977  -2.029  0.00  0.00     0.027 A 
ATOM      5  C5  DEN d   1      -1.100   5.972  -1.127  0.00  0.00    -0.003 A 
ATOM      6  C6  DEN d   1      -2.411   6.000  -1.523  0.00  0.00     0.001 A 
ATOM      7  C7  DEN d   1      -2.717   5.987  -2.858  0.00  0.00     0.017 A 
ATOM      8  C8  DEN d   1      -1.673   6.000  -3.774  0.00  0.00    -0.094 A 
ATOM      9  C9  DEN d   1      -0.355   5.959  -3.354  0.00  0.00    -0.072 A 
ENDROOT
TORSDOF 0
ENDMDL
