MODEL 1
REMARK minimizedAffinity 2.54477954
REMARK minimizedRMSD -1
REMARK  0 active torsions:
REMARK  status: ('A' for Active; 'I' for Inactive)
ROOT
ATOM      1  C   UNL d   1       2.822   1.361  -0.490  0.00  0.00     0.124 A 
ATOM      2  C1  UNL d   1       3.114   0.014  -0.323  0.00  0.00     0.062 A 
ATOM      3  C2  UNL d   1       2.096  -0.934  -0.373  0.00  0.00     0.162 A 
ATOM      4  C3  UNL d   1       0.776  -0.539  -0.592  0.00  0.00    -0.034 A 
ATOM      5  C4  UNL d   1       0.491   0.818  -0.758  0.00  0.00     0.162 A 
ATOM      6  C5  UNL d   1       1.511   1.761  -0.707  0.00  0.00     0.062 A 
ATOM      7  F   UNL d   1       1.228   3.062  -0.868  0.00  0.00    -0.097 F 
ATOM      8  F1  UNL d   1      -0.767   1.232  -0.970  0.00  0.00    -0.096 F 
ATOM      9  I   UNL d   1      -0.748  -1.953  -0.668  0.00  0.00    -0.060 I 
ATOM     10  F2  UNL d   1       2.407  -2.228  -0.209  0.00  0.00    -0.096 F 
ATOM     11  F3  UNL d   1       4.379  -0.375  -0.112  0.00  0.00    -0.097 F 
ATOM     12  F4  UNL d   1       3.803   2.271  -0.440  0.00  0.00    -0.092 F 
ENDROOT
TORSDOF 0
ENDMDL
