MODEL 1
REMARK minimizedAffinity 1.72168744
REMARK minimizedRMSD -1
REMARK  0 active torsions:
REMARK  status: ('A' for Active; 'I' for Inactive)
ROOT
ATOM      1  C   UNL d   1       2.626   1.298  -0.493  0.00  0.00     0.124 A 
ATOM      2  C1  UNL d   1       2.921  -0.054  -0.388  0.00  0.00     0.062 A 
ATOM      3  C2  UNL d   1       1.903  -1.000  -0.456  0.00  0.00     0.162 A 
ATOM      4  C3  UNL d   1       0.579  -0.598  -0.631  0.00  0.00    -0.034 A 
ATOM      5  C4  UNL d   1       0.289   0.763  -0.735  0.00  0.00     0.162 A 
ATOM      6  C5  UNL d   1       1.310   1.706  -0.667  0.00  0.00     0.062 A 
ATOM      7  F   UNL d   1       1.023   3.011  -0.769  0.00  0.00    -0.097 F 
ATOM      8  F1  UNL d   1      -0.973   1.185  -0.904  0.00  0.00    -0.096 F 
ATOM      9  I   UNL d   1      -0.946  -2.010  -0.733  0.00  0.00    -0.060 I 
ATOM     10  F2  UNL d   1       2.218  -2.300  -0.351  0.00  0.00    -0.096 F 
ATOM     11  F3  UNL d   1       4.191  -0.449  -0.219  0.00  0.00    -0.097 F 
ATOM     12  F4  UNL d   1       3.607   2.207  -0.427  0.00  0.00    -0.092 F 
ENDROOT
TORSDOF 0
ENDMDL
