MODEL 1
REMARK minimizedAffinity -0.615588963
REMARK minimizedRMSD -1
REMARK  0 active torsions:
REMARK  status: ('A' for Active; 'I' for Inactive)
ROOT
ATOM      1  C   UNL d   1       2.252  -1.038   0.342  0.00  0.00     0.124 A 
ATOM      2  C1  UNL d   1       1.760   0.029   1.082  0.00  0.00     0.062 A 
ATOM      3  C2  UNL d   1       0.496   0.544   0.812  0.00  0.00     0.162 A 
ATOM      4  C3  UNL d   1      -0.287  -0.007  -0.202  0.00  0.00    -0.034 A 
ATOM      5  C4  UNL d   1       0.214  -1.079  -0.942  0.00  0.00     0.162 A 
ATOM      6  C5  UNL d   1       1.479  -1.590  -0.669  0.00  0.00     0.062 A 
ATOM      7  F   UNL d   1       1.952  -2.621  -1.385  0.00  0.00    -0.097 F 
ATOM      8  F1  UNL d   1      -0.512  -1.633  -1.925  0.00  0.00    -0.096 F 
ATOM      9  I   UNL d   1      -2.179   0.760  -0.608  0.00  0.00    -0.060 I 
ATOM     10  F2  UNL d   1       0.046   1.575   1.543  0.00  0.00    -0.096 F 
ATOM     11  F3  UNL d   1       2.506   0.565   2.059  0.00  0.00    -0.097 F 
ATOM     12  F4  UNL d   1       3.469  -1.531   0.603  0.00  0.00    -0.092 F 
ENDROOT
TORSDOF 0
ENDMDL
