MODEL 1
REMARK minimizedAffinity 0.881181598
REMARK minimizedRMSD -1
REMARK  0 active torsions:
REMARK  status: ('A' for Active; 'I' for Inactive)
ROOT
ATOM      1  C   UNL d   1       3.101   0.923   0.676  0.00  0.00     0.124 A 
ATOM      2  C1  UNL d   1       2.010   1.717   0.349  0.00  0.00     0.062 A 
ATOM      3  C2  UNL d   1       0.923   1.169  -0.326  0.00  0.00     0.162 A 
ATOM      4  C3  UNL d   1       0.920  -0.181  -0.677  0.00  0.00    -0.034 A 
ATOM      5  C4  UNL d   1       2.021  -0.973  -0.346  0.00  0.00     0.162 A 
ATOM      6  C5  UNL d   1       3.106  -0.421   0.328  0.00  0.00     0.062 A 
ATOM      7  F   UNL d   1       4.159  -1.189   0.643  0.00  0.00    -0.097 F 
ATOM      8  F1  UNL d   1       2.052  -2.274  -0.668  0.00  0.00    -0.096 F 
ATOM      9  I   UNL d   1      -0.704  -1.004  -1.686  0.00  0.00    -0.060 I 
ATOM     10  F2  UNL d   1      -0.117   1.959  -0.629  0.00  0.00    -0.096 F 
ATOM     11  F3  UNL d   1       2.004   3.015   0.682  0.00  0.00    -0.097 F 
ATOM     12  F4  UNL d   1       4.146   1.453   1.324  0.00  0.00    -0.092 F 
ENDROOT
TORSDOF 0
ENDMDL
