MODEL 1
REMARK minimizedAffinity -0.757903278
REMARK minimizedRMSD -1
REMARK  0 active torsions:
REMARK  status: ('A' for Active; 'I' for Inactive)
ROOT
ATOM      1  C   UNL d   1       2.169  -0.913   0.020  0.00  0.00     0.124 A 
ATOM      2  C1  UNL d   1       1.220  -1.720  -0.591  0.00  0.00     0.062 A 
ATOM      3  C2  UNL d   1      -0.107  -1.308  -0.664  0.00  0.00     0.162 A 
ATOM      4  C3  UNL d   1      -0.493  -0.080  -0.126  0.00  0.00    -0.034 A 
ATOM      5  C4  UNL d   1       0.467   0.727   0.487  0.00  0.00     0.162 A 
ATOM      6  C5  UNL d   1       1.792   0.310   0.558  0.00  0.00     0.062 A 
ATOM      7  F   UNL d   1       2.708   1.091   1.148  0.00  0.00    -0.097 F 
ATOM      8  F1  UNL d   1       0.130   1.913   1.015  0.00  0.00    -0.096 F 
ATOM      9  I   UNL d   1      -2.477   0.541  -0.234  0.00  0.00    -0.060 I 
ATOM     10  F2  UNL d   1      -1.004  -2.108  -1.260  0.00  0.00    -0.096 F 
ATOM     11  F3  UNL d   1       1.581  -2.902  -1.111  0.00  0.00    -0.097 F 
ATOM     12  F4  UNL d   1       3.445  -1.313   0.090  0.00  0.00    -0.092 F 
ENDROOT
TORSDOF 0
ENDMDL
