MODEL 1
REMARK minimizedAffinity 0.979874253
REMARK minimizedRMSD -1
REMARK  0 active torsions:
REMARK  status: ('A' for Active; 'I' for Inactive)
ROOT
ATOM      1  C   UNL d   1      -1.408   0.950  -0.286  0.00  0.00     0.124 A 
ATOM      2  C1  UNL d   1      -1.515  -0.420  -0.090  0.00  0.00     0.062 A 
ATOM      3  C2  UNL d   1      -0.371  -1.195   0.077  0.00  0.00     0.162 A 
ATOM      4  C3  UNL d   1       0.891  -0.602   0.051  0.00  0.00    -0.034 A 
ATOM      5  C4  UNL d   1       0.991   0.777  -0.148  0.00  0.00     0.162 A 
ATOM      6  C5  UNL d   1      -0.155   1.547  -0.314  0.00  0.00     0.062 A 
ATOM      7  F   UNL d   1      -0.050   2.870  -0.503  0.00  0.00    -0.097 F 
ATOM      8  F1  UNL d   1       2.189   1.380  -0.179  0.00  0.00    -0.096 F 
ATOM      9  I   UNL d   1       2.604  -1.757   0.300  0.00  0.00    -0.060 I 
ATOM     10  F2  UNL d   1      -0.504  -2.517   0.264  0.00  0.00    -0.096 F 
ATOM     11  F3  UNL d   1      -2.724  -1.000  -0.063  0.00  0.00    -0.097 F 
ATOM     12  F4  UNL d   1      -2.510   1.693  -0.448  0.00  0.00    -0.092 F 
ENDROOT
TORSDOF 0
ENDMDL
