MODEL 1
REMARK minimizedAffinity -3.60290051
REMARK minimizedRMSD -1
REMARK  0 active torsions:
REMARK  status: ('A' for Active; 'I' for Inactive)
ROOT
ATOM      1  C   UNL d   1       3.107  -1.092   0.335  0.00  0.00     0.124 A 
ATOM      2  C1  UNL d   1       1.955  -1.835   0.124  0.00  0.00     0.062 A 
ATOM      3  C2  UNL d   1       0.729  -1.196  -0.039  0.00  0.00     0.162 A 
ATOM      4  C3  UNL d   1       0.650   0.196   0.008  0.00  0.00    -0.034 A 
ATOM      5  C4  UNL d   1       1.813   0.937   0.221  0.00  0.00     0.162 A 
ATOM      6  C5  UNL d   1       3.036   0.293   0.384  0.00  0.00     0.062 A 
ATOM      7  F   UNL d   1       4.149   1.013   0.587  0.00  0.00    -0.097 F 
ATOM      8  F1  UNL d   1       1.773   2.277   0.271  0.00  0.00    -0.096 F 
ATOM      9  I   UNL d   1      -1.181   1.156  -0.236  0.00  0.00    -0.060 I 
ATOM     10  F2  UNL d   1      -0.369  -1.940  -0.241  0.00  0.00    -0.096 F 
ATOM     11  F3  UNL d   1       2.021  -3.174   0.078  0.00  0.00    -0.097 F 
ATOM     12  F4  UNL d   1       4.285  -1.710   0.493  0.00  0.00    -0.092 F 
ENDROOT
TORSDOF 0
ENDMDL
