MODEL 1
REMARK minimizedAffinity -0.932537913
REMARK minimizedRMSD -1
REMARK  0 active torsions:
REMARK  status: ('A' for Active; 'I' for Inactive)
ROOT
ATOM      1  C   UNL d   1       3.665  -0.594  -0.062  0.00  0.00     0.124 A 
ATOM      2  C1  UNL d   1       3.413   0.631   0.541  0.00  0.00     0.062 A 
ATOM      3  C2  UNL d   1       2.208   1.289   0.312  0.00  0.00     0.162 A 
ATOM      4  C3  UNL d   1       1.245   0.723  -0.523  0.00  0.00    -0.034 A 
ATOM      5  C4  UNL d   1       1.506  -0.508  -1.127  0.00  0.00     0.162 A 
ATOM      6  C5  UNL d   1       2.712  -1.162  -0.895  0.00  0.00     0.062 A 
ATOM      7  F   UNL d   1       2.954  -2.345  -1.478  0.00  0.00    -0.097 F 
ATOM      8  F1  UNL d   1       0.602  -1.081  -1.936  0.00  0.00    -0.096 F 
ATOM      9  I   UNL d   1      -0.558   1.704  -0.869  0.00  0.00    -0.060 I 
ATOM     10  F2  UNL d   1       1.992   2.471   0.907  0.00  0.00    -0.096 F 
ATOM     11  F3  UNL d   1       4.333   1.183   1.346  0.00  0.00    -0.097 F 
ATOM     12  F4  UNL d   1       4.826  -1.224   0.160  0.00  0.00    -0.092 F 
ENDROOT
TORSDOF 0
ENDMDL
