MODEL 1
REMARK minimizedAffinity -1.40190077
REMARK minimizedRMSD -1
REMARK  0 active torsions:
REMARK  status: ('A' for Active; 'I' for Inactive)
ROOT
ATOM      1  C   UNL d   1       0.197  -1.436  -0.458  0.00  0.00     0.124 A 
ATOM      2  C1  UNL d   1      -0.290  -0.137  -0.493  0.00  0.00     0.062 A 
ATOM      3  C2  UNL d   1       0.570   0.939  -0.293  0.00  0.00     0.162 A 
ATOM      4  C3  UNL d   1       1.927   0.721  -0.059  0.00  0.00    -0.034 A 
ATOM      5  C4  UNL d   1       2.410  -0.588  -0.025  0.00  0.00     0.162 A 
ATOM      6  C5  UNL d   1       1.547  -1.660  -0.225  0.00  0.00     0.062 A 
ATOM      7  F   UNL d   1       2.020  -2.914  -0.191  0.00  0.00    -0.097 F 
ATOM      8  F1  UNL d   1       3.710  -0.834   0.198  0.00  0.00    -0.096 F 
ATOM      9  I   UNL d   1       3.216   2.328   0.239  0.00  0.00    -0.060 I 
ATOM     10  F2  UNL d   1       0.071   2.184  -0.332  0.00  0.00    -0.096 F 
ATOM     11  F3  UNL d   1      -1.594   0.083  -0.717  0.00  0.00    -0.097 F 
ATOM     12  F4  UNL d   1      -0.633  -2.469  -0.649  0.00  0.00    -0.092 F 
ENDROOT
TORSDOF 0
ENDMDL
