MODEL 1
REMARK minimizedAffinity 0.913264513
REMARK minimizedRMSD -1
REMARK  0 active torsions:
REMARK  status: ('A' for Active; 'I' for Inactive)
ROOT
ATOM      1  C   UNL d   1       0.217  -1.035  -0.427  0.00  0.00     0.124 A 
ATOM      2  C1  UNL d   1      -0.170   0.290  -0.279  0.00  0.00     0.062 A 
ATOM      3  C2  UNL d   1       0.771   1.261   0.052  0.00  0.00     0.162 A 
ATOM      4  C3  UNL d   1       2.108   0.911   0.237  0.00  0.00    -0.034 A 
ATOM      5  C4  UNL d   1       2.490  -0.423   0.087  0.00  0.00     0.162 A 
ATOM      6  C5  UNL d   1       1.546  -1.390  -0.244  0.00  0.00     0.062 A 
ATOM      7  F   UNL d   1       1.922  -2.669  -0.386  0.00  0.00    -0.097 F 
ATOM      8  F1  UNL d   1       3.767  -0.794   0.258  0.00  0.00    -0.096 F 
ATOM      9  I   UNL d   1       3.518   2.360   0.732  0.00  0.00    -0.060 I 
ATOM     10  F2  UNL d   1       0.369   2.534   0.188  0.00  0.00    -0.096 F 
ATOM     11  F3  UNL d   1      -1.453   0.636  -0.455  0.00  0.00    -0.097 F 
ATOM     12  F4  UNL d   1      -0.690  -1.967  -0.745  0.00  0.00    -0.092 F 
ENDROOT
TORSDOF 0
ENDMDL
