MODEL 1
REMARK minimizedAffinity -0.737543046
REMARK minimizedRMSD -1
REMARK  0 active torsions:
REMARK  status: ('A' for Active; 'I' for Inactive)
ROOT
ATOM      1  C   UNL d   1       2.508  -0.063   0.823  0.00  0.00     0.124 A 
ATOM      2  C1  UNL d   1       1.758  -1.207   0.587  0.00  0.00     0.062 A 
ATOM      3  C2  UNL d   1       0.455  -1.104   0.107  0.00  0.00     0.162 A 
ATOM      4  C3  UNL d   1      -0.106   0.149  -0.140  0.00  0.00    -0.034 A 
ATOM      5  C4  UNL d   1       0.653   1.295   0.101  0.00  0.00     0.162 A 
ATOM      6  C5  UNL d   1       1.955   1.187   0.580  0.00  0.00     0.062 A 
ATOM      7  F   UNL d   1       2.677   2.293   0.807  0.00  0.00    -0.097 F 
ATOM      8  F1  UNL d   1       0.144   2.515  -0.127  0.00  0.00    -0.096 F 
ATOM      9  I   UNL d   1      -2.054   0.307  -0.857  0.00  0.00    -0.060 I 
ATOM     10  F2  UNL d   1      -0.246  -2.226  -0.112  0.00  0.00    -0.096 F 
ATOM     11  F3  UNL d   1       2.290  -2.415   0.822  0.00  0.00    -0.097 F 
ATOM     12  F4  UNL d   1       3.760  -0.165   1.285  0.00  0.00    -0.092 F 
ENDROOT
TORSDOF 0
ENDMDL
