MODEL 1
REMARK minimizedAffinity -4.29765463
REMARK minimizedRMSD -1
REMARK  3 active torsions:
REMARK  status: ('A' for Active; 'I' for Inactive)
REMARK    1  A    between atoms: C3'_2  and  C2'_3 
REMARK    2  A    between atoms: C2'_3  and  C1'_4 
REMARK    3  A    between atoms: C1'_4  and  C1_5 
ROOT
ATOM      1  C1  N4B d   1      -0.781  -0.349   0.072  0.00  0.00    -0.075 A 
ATOM      2  C2  N4B d   1       0.552   0.117   0.128  0.00  0.00     0.002 A 
ATOM      3  C3  N4B d   1       0.805   1.443   0.378  0.00  0.00     0.002 A 
ATOM      4  C4  N4B d   1      -0.253   2.322   0.556  0.00  0.00    -0.004 A 
ATOM      5  C5  N4B d   1      -1.536   1.860   0.525  0.00  0.00     0.002 A 
ATOM      6  C6  N4B d   1      -1.805   0.529   0.279  0.00  0.00     0.002 A 
ENDROOT
BRANCH   1   7
ATOM      7  C1' N4B d   1      -1.110  -1.773  -0.284  0.00  0.00     0.057 C 
BRANCH   7   8
ATOM      8  C2' N4B d   1      -0.129  -2.263  -1.345  0.00  0.00     0.009 C 
BRANCH   8   9
ATOM      9  C3' N4B d   1      -0.711  -3.394  -2.177  0.00  0.00     0.004 C 
ATOM     10  C4' N4B d   1      -2.208  -3.347  -2.254  0.00  0.00     0.003 C 
ENDBRANCH   8   9
ENDBRANCH   7   8
ENDBRANCH   1   7
TORSDOF 3
ENDMDL
