MODEL 1
REMARK minimizedAffinity -4.96009731
REMARK minimizedRMSD -1
REMARK  3 active torsions:
REMARK  status: ('A' for Active; 'I' for Inactive)
REMARK    1  A    between atoms: C3'_2  and  C2'_3 
REMARK    2  A    between atoms: C2'_3  and  C1'_4 
REMARK    3  A    between atoms: C1'_4  and  C1_5 
ROOT
ATOM      1  C1  N4B d   1      -0.099   0.109   0.151  0.00  0.00    -0.075 A 
ATOM      2  C2  N4B d   1       0.716   1.251  -0.008  0.00  0.00     0.002 A 
ATOM      3  C3  N4B d   1       0.173   2.506   0.121  0.00  0.00     0.002 A 
ATOM      4  C4  N4B d   1      -1.180   2.643   0.389  0.00  0.00    -0.004 A 
ATOM      5  C5  N4B d   1      -1.956   1.535   0.567  0.00  0.00     0.002 A 
ATOM      6  C6  N4B d   1      -1.423   0.267   0.443  0.00  0.00     0.002 A 
ENDROOT
BRANCH   1   7
ATOM      7  C1' N4B d   1       0.431  -1.282  -0.066  0.00  0.00     0.057 C 
BRANCH   7   8
ATOM      8  C2' N4B d   1      -0.676  -2.154  -0.653  0.00  0.00     0.009 C 
BRANCH   8   9
ATOM      9  C3' N4B d   1      -0.253  -2.807  -1.957  0.00  0.00     0.004 C 
ATOM     10  C4' N4B d   1      -1.403  -3.419  -2.700  0.00  0.00     0.003 C 
ENDBRANCH   8   9
ENDBRANCH   7   8
ENDBRANCH   1   7
TORSDOF 3
ENDMDL
