MODEL 1
REMARK minimizedAffinity -4.09819794
REMARK minimizedRMSD -1
REMARK  3 active torsions:
REMARK  status: ('A' for Active; 'I' for Inactive)
REMARK    1  A    between atoms: C3'_2  and  C2'_3 
REMARK    2  A    between atoms: C2'_3  and  C1'_4 
REMARK    3  A    between atoms: C1'_4  and  C1_5 
ROOT
ATOM      1  C1  N4B d   1       0.279   0.468   0.376  0.00  0.00    -0.075 A 
ATOM      2  C2  N4B d   1      -0.204   1.732   0.782  0.00  0.00     0.002 A 
ATOM      3  C3  N4B d   1       0.669   2.683   1.250  0.00  0.00     0.002 A 
ATOM      4  C4  N4B d   1       2.021   2.388   1.339  0.00  0.00    -0.004 A 
ATOM      5  C5  N4B d   1       2.483   1.174   0.921  0.00  0.00     0.002 A 
ATOM      6  C6  N4B d   1       1.617   0.210   0.445  0.00  0.00     0.002 A 
ENDROOT
BRANCH   1   7
ATOM      7  C1' N4B d   1      -0.647  -0.633  -0.061  0.00  0.00     0.057 C 
BRANCH   7   8
ATOM      8  C2' N4B d   1       0.120  -1.952  -0.089  0.00  0.00     0.009 C 
BRANCH   8   9
ATOM      9  C3' N4B d   1      -0.697  -3.071  -0.711  0.00  0.00     0.004 C 
ATOM     10  C4' N4B d   1      -0.189  -3.479  -2.062  0.00  0.00     0.003 C 
ENDBRANCH   8   9
ENDBRANCH   7   8
ENDBRANCH   1   7
TORSDOF 3
ENDMDL
