MODEL 1
REMARK minimizedAffinity -2.43057036
REMARK minimizedRMSD -1
REMARK  3 active torsions:
REMARK  status: ('A' for Active; 'I' for Inactive)
REMARK    1  A    between atoms: C3'_2  and  C2'_3 
REMARK    2  A    between atoms: C2'_3  and  C1'_4 
REMARK    3  A    between atoms: C1'_4  and  C1_5 
ROOT
ATOM      1  C1  N4B d   1       1.146   0.358   0.581  0.00  0.00    -0.075 A 
ATOM      2  C2  N4B d   1       1.070  -1.044   0.424  0.00  0.00     0.002 A 
ATOM      3  C3  N4B d   1      -0.152  -1.654   0.287  0.00  0.00     0.002 A 
ATOM      4  C4  N4B d   1      -1.308  -0.889   0.323  0.00  0.00    -0.004 A 
ATOM      5  C5  N4B d   1      -1.225   0.467   0.450  0.00  0.00     0.002 A 
ATOM      6  C6  N4B d   1      -0.003   1.094   0.584  0.00  0.00     0.002 A 
ENDROOT
BRANCH   1   7
ATOM      7  C1' N4B d   1       2.455   1.060   0.820  0.00  0.00     0.057 C 
BRANCH   7   8
ATOM      8  C2' N4B d   1       2.210   2.295   1.683  0.00  0.00     0.009 C 
BRANCH   8   9
ATOM      9  C3' N4B d   1       3.485   3.088   1.915  0.00  0.00     0.004 C 
ATOM     10  C4' N4B d   1       4.144   2.760   3.221  0.00  0.00     0.003 C 
ENDBRANCH   8   9
ENDBRANCH   7   8
ENDBRANCH   1   7
TORSDOF 3
ENDMDL
