MODEL 1
REMARK minimizedAffinity -3.58818007
REMARK minimizedRMSD -1
REMARK  3 active torsions:
REMARK  status: ('A' for Active; 'I' for Inactive)
REMARK    1  A    between atoms: C3'_2  and  C2'_3 
REMARK    2  A    between atoms: C2'_3  and  C1'_4 
REMARK    3  A    between atoms: C1'_4  and  C1_5 
ROOT
ATOM      1  C1  N4B d   1       0.147   0.439   0.351  0.00  0.00    -0.075 A 
ATOM      2  C2  N4B d   1       1.112   1.284   0.942  0.00  0.00     0.002 A 
ATOM      3  C3  N4B d   1       0.842   2.620   1.112  0.00  0.00     0.002 A 
ATOM      4  C4  N4B d   1      -0.372   3.135   0.683  0.00  0.00    -0.004 A 
ATOM      5  C5  N4B d   1      -1.309   2.306   0.137  0.00  0.00     0.002 A 
ATOM      6  C6  N4B d   1      -1.053   0.961  -0.036  0.00  0.00     0.002 A 
ENDROOT
BRANCH   1   7
ATOM      7  C1' N4B d   1       0.430  -1.011   0.067  0.00  0.00     0.057 C 
BRANCH   7   8
ATOM      8  C2' N4B d   1      -0.762  -1.619  -0.667  0.00  0.00     0.009 C 
BRANCH   8   9
ATOM      9  C3' N4B d   1      -0.326  -2.539  -1.795  0.00  0.00     0.004 C 
ATOM     10  C4' N4B d   1      -1.249  -3.706  -1.981  0.00  0.00     0.003 C 
ENDBRANCH   8   9
ENDBRANCH   7   8
ENDBRANCH   1   7
TORSDOF 3
ENDMDL
