MODEL 1
REMARK minimizedAffinity 3.61000657
REMARK minimizedRMSD -1
REMARK  1 active torsions:
REMARK  status: ('A' for Active; 'I' for Inactive)
REMARK    1  A    between atoms: C3_4  and  O_7 
ROOT
ATOM      1  C   UNL d   1      -0.326  -5.998   0.748  0.00  0.00    -0.033 A 
ATOM      2  C1  UNL d   1       0.885  -6.000   1.443  0.00  0.00     0.039 A 
ATOM      3  C2  UNL d   1       0.890  -6.000   2.840  0.00  0.00    -0.080 A 
ATOM      4  C3  UNL d   1      -0.320  -5.998   3.528  0.00  0.00     0.150 A 
ATOM      5  C4  UNL d   1      -1.530  -6.000   2.842  0.00  0.00    -0.007 A 
ATOM      6  C5  UNL d   1      -1.534  -5.999   1.447  0.00  0.00     0.039 A 
ENDROOT
BRANCH   4   7
ATOM      7  O   UNL d   1      -0.365  -5.993   4.890  0.00  0.00    -0.526 OA
ATOM      8  H5  UNL d   1       0.545  -5.963   5.228  0.00  0.00     0.418 HD
ENDBRANCH   4   7
TORSDOF 1
ENDMDL
