MODEL 1
REMARK minimizedAffinity 5.65571547
REMARK minimizedRMSD -1
REMARK  1 active torsions:
REMARK  status: ('A' for Active; 'I' for Inactive)
REMARK    1  A    between atoms: C3_4  and  O_7 
ROOT
ATOM      1  C   UNL d   1      -3.225  -2.781  -3.340  0.00  0.00    -0.033 A 
ATOM      2  C1  UNL d   1      -2.674  -3.674  -4.262  0.00  0.00     0.039 A 
ATOM      3  C2  UNL d   1      -1.441  -3.396  -4.855  0.00  0.00    -0.080 A 
ATOM      4  C3  UNL d   1      -0.769  -2.224  -4.518  0.00  0.00     0.150 A 
ATOM      5  C4  UNL d   1      -1.310  -1.332  -3.597  0.00  0.00    -0.007 A 
ATOM      6  C5  UNL d   1      -2.542  -1.611  -3.007  0.00  0.00     0.039 A 
ENDROOT
BRANCH   4   7
ATOM      7  O   UNL d   1       0.435  -1.908  -5.074  0.00  0.00    -0.526 OA
ATOM      8  H5  UNL d   1       0.671  -2.601  -5.712  0.00  0.00     0.418 HD
ENDBRANCH   4   7
TORSDOF 1
ENDMDL
