MODEL 1
REMARK minimizedAffinity 2.9183743
REMARK minimizedRMSD -1
REMARK  1 active torsions:
REMARK  status: ('A' for Active; 'I' for Inactive)
REMARK    1  A    between atoms: C3_4  and  O_7 
ROOT
ATOM      1  C   UNL d   1      -1.616  -0.258   3.296  0.00  0.00    -0.033 A 
ATOM      2  C1  UNL d   1      -1.306   1.098   3.179  0.00  0.00     0.039 A 
ATOM      3  C2  UNL d   1      -0.447   1.535   2.168  0.00  0.00    -0.080 A 
ATOM      4  C3  UNL d   1       0.094   0.606   1.283  0.00  0.00     0.150 A 
ATOM      5  C4  UNL d   1      -0.214  -0.746   1.392  0.00  0.00    -0.007 A 
ATOM      6  C5  UNL d   1      -1.072  -1.180   2.402  0.00  0.00     0.039 A 
ENDROOT
BRANCH   4   7
ATOM      7  O   UNL d   1       0.941   0.984   0.283  0.00  0.00    -0.526 OA
ATOM      8  H5  UNL d   1       1.085   1.943   0.348  0.00  0.00     0.418 HD
ENDBRANCH   4   7
TORSDOF 1
ENDMDL
