MODEL 1
REMARK minimizedAffinity 5.66710091
REMARK minimizedRMSD -1
REMARK  1 active torsions:
REMARK  status: ('A' for Active; 'I' for Inactive)
REMARK    1  A    between atoms: C3_4  and  O_7 
ROOT
ATOM      1  C   UNL d   1      -5.997   2.701   3.864  0.00  0.00    -0.033 A 
ATOM      2  C1  UNL d   1      -5.916   1.497   3.162  0.00  0.00     0.039 A 
ATOM      3  C2  UNL d   1      -5.828   0.288   3.854  0.00  0.00    -0.080 A 
ATOM      4  C3  UNL d   1      -5.823   0.296   5.247  0.00  0.00     0.150 A 
ATOM      5  C4  UNL d   1      -5.908   1.492   5.952  0.00  0.00    -0.007 A 
ATOM      6  C5  UNL d   1      -5.995   2.698   5.259  0.00  0.00     0.039 A 
ENDROOT
BRANCH   4   7
ATOM      7  O   UNL d   1      -5.734  -0.858   5.966  0.00  0.00    -0.526 OA
ATOM      8  H5  UNL d   1      -5.653  -1.602   5.346  0.00  0.00     0.418 HD
ENDBRANCH   4   7
TORSDOF 1
ENDMDL
