MODEL 1
REMARK minimizedAffinity -0.344796032
REMARK minimizedRMSD -1
REMARK  1 active torsions:
REMARK  status: ('A' for Active; 'I' for Inactive)
REMARK    1  A    between atoms: C3_4  and  O_7 
ROOT
ATOM      1  C   UNL d   1      -0.453   0.950   0.928  0.00  0.00    -0.033 A 
ATOM      2  C1  UNL d   1       0.710   1.439   0.331  0.00  0.00     0.039 A 
ATOM      3  C2  UNL d   1       1.949   0.881   0.652  0.00  0.00    -0.080 A 
ATOM      4  C3  UNL d   1       2.011  -0.164   1.570  0.00  0.00     0.150 A 
ATOM      5  C4  UNL d   1       0.856  -0.658   2.165  0.00  0.00    -0.007 A 
ATOM      6  C5  UNL d   1      -0.381  -0.100   1.844  0.00  0.00     0.039 A 
ENDROOT
BRANCH   4   7
ATOM      7  O   UNL d   1       3.198  -0.736   1.918  0.00  0.00    -0.526 OA
ATOM      8  H5  UNL d   1       3.913  -0.273   1.450  0.00  0.00     0.418 HD
ENDBRANCH   4   7
TORSDOF 1
ENDMDL
