MODEL 1
REMARK minimizedAffinity 2.09001112
REMARK minimizedRMSD -1
REMARK  1 active torsions:
REMARK  status: ('A' for Active; 'I' for Inactive)
REMARK    1  A    between atoms: C3_4  and  O_7 
ROOT
ATOM      1  C   UNL d   1      -2.014  -5.987   2.504  0.00  0.00    -0.033 A 
ATOM      2  C1  UNL d   1      -1.206  -5.979   3.642  0.00  0.00     0.039 A 
ATOM      3  C2  UNL d   1       0.184  -5.981   3.514  0.00  0.00    -0.080 A 
ATOM      4  C3  UNL d   1       0.753  -5.991   2.243  0.00  0.00     0.150 A 
ATOM      5  C4  UNL d   1      -0.046  -5.996   1.105  0.00  0.00    -0.007 A 
ATOM      6  C5  UNL d   1      -1.434  -5.994   1.235  0.00  0.00     0.039 A 
ENDROOT
BRANCH   4   7
ATOM      7  O   UNL d   1       2.105  -5.999   2.067  0.00  0.00    -0.526 OA
ATOM      8  H5  UNL d   1       2.529  -6.024   2.942  0.00  0.00     0.418 HD
ENDBRANCH   4   7
TORSDOF 1
ENDMDL
