MODEL 1
REMARK minimizedAffinity -3.31843305
REMARK minimizedRMSD -1
REMARK  1 active torsions:
REMARK  status: ('A' for Active; 'I' for Inactive)
REMARK    1  A    between atoms: C3_4  and  O_7 
ROOT
ATOM      1  C   UNL d   1       0.758  -5.992   1.814  0.00  0.00    -0.033 A 
ATOM      2  C1  UNL d   1      -0.518  -5.993   2.380  0.00  0.00     0.039 A 
ATOM      3  C2  UNL d   1      -0.668  -5.994   3.768  0.00  0.00    -0.080 A 
ATOM      4  C3  UNL d   1       0.465  -5.993   4.578  0.00  0.00     0.150 A 
ATOM      5  C4  UNL d   1       1.739  -5.989   4.020  0.00  0.00    -0.007 A 
ATOM      6  C5  UNL d   1       1.887  -5.989   2.634  0.00  0.00     0.039 A 
ENDROOT
BRANCH   4   7
ATOM      7  O   UNL d   1       0.369  -5.999   5.938  0.00  0.00    -0.526 OA
ATOM      8  H5  UNL d   1      -0.572  -6.030   6.180  0.00  0.00     0.418 HD
ENDBRANCH   4   7
TORSDOF 1
ENDMDL
