MODEL 1
REMARK minimizedAffinity 0.138674408
REMARK minimizedRMSD -1
REMARK  1 active torsions:
REMARK  status: ('A' for Active; 'I' for Inactive)
REMARK    1  A    between atoms: C3_4  and  O_7 
ROOT
ATOM      1  C   UNL d   1       0.298  -5.995   1.919  0.00  0.00    -0.033 A 
ATOM      2  C1  UNL d   1      -0.716  -6.000   2.879  0.00  0.00     0.039 A 
ATOM      3  C2  UNL d   1      -0.393  -6.000   4.237  0.00  0.00    -0.080 A 
ATOM      4  C3  UNL d   1       0.945  -5.994   4.622  0.00  0.00     0.150 A 
ATOM      5  C4  UNL d   1       1.960  -5.985   3.671  0.00  0.00    -0.007 A 
ATOM      6  C5  UNL d   1       1.636  -5.986   2.315  0.00  0.00     0.039 A 
ENDROOT
BRANCH   4   7
ATOM      7  O   UNL d   1       1.309  -5.999   5.935  0.00  0.00    -0.526 OA
ATOM      8  H5  UNL d   1       0.503  -6.034   6.478  0.00  0.00     0.418 HD
ENDBRANCH   4   7
TORSDOF 1
ENDMDL
