MODEL 1
REMARK minimizedAffinity 4.15373945
REMARK minimizedRMSD -1
REMARK  1 active torsions:
REMARK  status: ('A' for Active; 'I' for Inactive)
REMARK    1  A    between atoms: C3_4  and  O_7 
ROOT
ATOM      1  C   UNL d   1      -2.244  -0.507  -3.033  0.00  0.00    -0.033 A 
ATOM      2  C1  UNL d   1      -1.203  -0.874  -3.889  0.00  0.00     0.039 A 
ATOM      3  C2  UNL d   1      -1.137  -2.175  -4.391  0.00  0.00    -0.080 A 
ATOM      4  C3  UNL d   1      -2.115  -3.098  -4.032  0.00  0.00     0.150 A 
ATOM      5  C4  UNL d   1      -3.157  -2.738  -3.183  0.00  0.00    -0.007 A 
ATOM      6  C5  UNL d   1      -3.221  -1.439  -2.681  0.00  0.00     0.039 A 
ENDROOT
BRANCH   4   7
ATOM      7  O   UNL d   1      -2.090  -4.380  -4.493  0.00  0.00    -0.526 OA
ATOM      8  H5  UNL d   1      -1.298  -4.493  -5.046  0.00  0.00     0.418 HD
ENDBRANCH   4   7
TORSDOF 1
ENDMDL
