MODEL 1
REMARK minimizedAffinity 6.90421963
REMARK minimizedRMSD -1
REMARK  1 active torsions:
REMARK  status: ('A' for Active; 'I' for Inactive)
REMARK    1  A    between atoms: C3_4  and  O_7 
ROOT
ATOM      1  C   UNL d   1      -5.600  -0.732   5.732  0.00  0.00    -0.033 A 
ATOM      2  C1  UNL d   1      -5.856   0.615   6.000  0.00  0.00     0.039 A 
ATOM      3  C2  UNL d   1      -5.994   1.523   4.949  0.00  0.00    -0.080 A 
ATOM      4  C3  UNL d   1      -5.875   1.074   3.637  0.00  0.00     0.150 A 
ATOM      5  C4  UNL d   1      -5.624  -0.267   3.362  0.00  0.00    -0.007 A 
ATOM      6  C5  UNL d   1      -5.485  -1.172   4.413  0.00  0.00     0.039 A 
ENDROOT
BRANCH   4   7
ATOM      7  O   UNL d   1      -5.997   1.924   2.578  0.00  0.00    -0.526 OA
ATOM      8  H5  UNL d   1      -6.140   2.823   2.920  0.00  0.00     0.418 HD
ENDBRANCH   4   7
TORSDOF 1
ENDMDL
