MODEL 1
REMARK minimizedAffinity 1.38263094
REMARK minimizedRMSD -1
REMARK  1 active torsions:
REMARK  status: ('A' for Active; 'I' for Inactive)
REMARK    1  A    between atoms: C3_4  and  O_7 
ROOT
ATOM      1  C   UNL d   1       1.505  -5.973   1.119  0.00  0.00    -0.033 A 
ATOM      2  C1  UNL d   1       1.975  -5.975   2.434  0.00  0.00     0.039 A 
ATOM      3  C2  UNL d   1       1.072  -5.984   3.499  0.00  0.00    -0.080 A 
ATOM      4  C3  UNL d   1      -0.295  -5.991   3.236  0.00  0.00     0.150 A 
ATOM      5  C4  UNL d   1      -0.770  -5.993   1.928  0.00  0.00    -0.007 A 
ATOM      6  C5  UNL d   1       0.133  -5.983   0.866  0.00  0.00     0.039 A 
ENDROOT
BRANCH   4   7
ATOM      7  O   UNL d   1      -1.214  -5.995   4.243  0.00  0.00    -0.526 OA
ATOM      8  H5  UNL d   1      -0.742  -5.964   5.091  0.00  0.00     0.418 HD
ENDBRANCH   4   7
TORSDOF 1
ENDMDL
