MODEL 1
REMARK minimizedAffinity -1.22078156
REMARK minimizedRMSD -1
REMARK  1 active torsions:
REMARK  status: ('A' for Active; 'I' for Inactive)
REMARK    1  A    between atoms: C3_4  and  O_7 
ROOT
ATOM      1  C   UNL d   1      -1.082  -0.668  -3.895  0.00  0.00    -0.033 A 
ATOM      2  C1  UNL d   1      -2.327  -1.078  -3.413  0.00  0.00     0.039 A 
ATOM      3  C2  UNL d   1      -2.628  -2.438  -3.319  0.00  0.00    -0.080 A 
ATOM      4  C3  UNL d   1      -1.676  -3.377  -3.708  0.00  0.00     0.150 A 
ATOM      5  C4  UNL d   1      -0.433  -2.976  -4.185  0.00  0.00    -0.007 A 
ATOM      6  C5  UNL d   1      -0.135  -1.617  -4.279  0.00  0.00     0.039 A 
ENDROOT
BRANCH   4   7
ATOM      7  O   UNL d   1      -1.926  -4.716  -3.639  0.00  0.00    -0.526 OA
ATOM      8  H5  UNL d   1      -2.834  -4.843  -3.318  0.00  0.00     0.418 HD
ENDBRANCH   4   7
TORSDOF 1
ENDMDL
