MODEL 1
REMARK minimizedAffinity 5.78869629
REMARK minimizedRMSD -1
REMARK  1 active torsions:
REMARK  status: ('A' for Active; 'I' for Inactive)
REMARK    1  A    between atoms: C3_4  and  O_7 
ROOT
ATOM      1  C   UNL d   1       0.434   0.499   0.293  0.00  0.00    -0.033 A 
ATOM      2  C1  UNL d   1      -0.028  -0.817   0.361  0.00  0.00     0.039 A 
ATOM      3  C2  UNL d   1      -0.667  -1.275   1.515  0.00  0.00    -0.080 A 
ATOM      4  C3  UNL d   1      -0.838  -0.409   2.592  0.00  0.00     0.150 A 
ATOM      5  C4  UNL d   1      -0.383   0.904   2.529  0.00  0.00    -0.007 A 
ATOM      6  C5  UNL d   1       0.255   1.360   1.376  0.00  0.00     0.039 A 
ENDROOT
BRANCH   4   7
ATOM      7  O   UNL d   1      -1.451  -0.812   3.740  0.00  0.00    -0.526 OA
ATOM      8  H5  UNL d   1      -1.686  -1.751   3.651  0.00  0.00     0.418 HD
ENDBRANCH   4   7
TORSDOF 1
ENDMDL
