MODEL 1
REMARK minimizedAffinity 1.07256854
REMARK minimizedRMSD -1
REMARK  1 active torsions:
REMARK  status: ('A' for Active; 'I' for Inactive)
REMARK    1  A    between atoms: C3_4  and  O_7 
ROOT
ATOM      1  C   UNL d   1      -0.060  -5.999   1.508  0.00  0.00    -0.033 A 
ATOM      2  C1  UNL d   1      -1.063  -5.994   2.480  0.00  0.00     0.039 A 
ATOM      3  C2  UNL d   1      -0.724  -5.992   3.835  0.00  0.00    -0.080 A 
ATOM      4  C3  UNL d   1       0.618  -5.993   4.204  0.00  0.00     0.150 A 
ATOM      5  C4  UNL d   1       1.622  -5.994   3.241  0.00  0.00    -0.007 A 
ATOM      6  C5  UNL d   1       1.282  -5.997   1.889  0.00  0.00     0.039 A 
ENDROOT
BRANCH   4   7
ATOM      7  O   UNL d   1       0.997  -5.996   5.513  0.00  0.00    -0.526 OA
ATOM      8  H5  UNL d   1       0.198  -6.025   6.065  0.00  0.00     0.418 HD
ENDBRANCH   4   7
TORSDOF 1
ENDMDL
