MODEL 1
REMARK minimizedAffinity -1.87418246
REMARK minimizedRMSD -1
REMARK  1 active torsions:
REMARK  status: ('A' for Active; 'I' for Inactive)
REMARK    1  A    between atoms: C3_4  and  O_7 
ROOT
ATOM      1  C   UNL d   1       3.690  -6.000   3.847  0.00  0.00    -0.033 A 
ATOM      2  C1  UNL d   1       2.873  -6.000   2.715  0.00  0.00     0.039 A 
ATOM      3  C2  UNL d   1       1.484  -5.999   2.854  0.00  0.00    -0.080 A 
ATOM      4  C3  UNL d   1       0.925  -5.996   4.129  0.00  0.00     0.150 A 
ATOM      5  C4  UNL d   1       1.733  -5.992   5.261  0.00  0.00    -0.007 A 
ATOM      6  C5  UNL d   1       3.120  -5.995   5.120  0.00  0.00     0.039 A 
ENDROOT
BRANCH   4   7
ATOM      7  O   UNL d   1      -0.425  -6.000   4.316  0.00  0.00    -0.526 OA
ATOM      8  H5  UNL d   1      -0.856  -6.031   3.445  0.00  0.00     0.418 HD
ENDBRANCH   4   7
TORSDOF 1
ENDMDL
