MODEL 1
REMARK minimizedAffinity 0.829165876
REMARK minimizedRMSD -1
REMARK  1 active torsions:
REMARK  status: ('A' for Active; 'I' for Inactive)
REMARK    1  A    between atoms: C3_4  and  O_7 
ROOT
ATOM      1  C   UNL d   1      -1.043  -5.990   1.058  0.00  0.00    -0.033 A 
ATOM      2  C1  UNL d   1       0.336  -5.996   1.281  0.00  0.00     0.039 A 
ATOM      3  C2  UNL d   1       0.834  -5.999   2.586  0.00  0.00    -0.080 A 
ATOM      4  C3  UNL d   1      -0.055  -5.997   3.657  0.00  0.00     0.150 A 
ATOM      5  C4  UNL d   1      -1.430  -5.995   3.442  0.00  0.00    -0.007 A 
ATOM      6  C5  UNL d   1      -1.925  -5.991   2.139  0.00  0.00     0.039 A 
ENDROOT
BRANCH   4   7
ATOM      7  O   UNL d   1       0.384  -5.994   4.947  0.00  0.00    -0.526 OA
ATOM      8  H5  UNL d   1       1.355  -5.967   4.942  0.00  0.00     0.418 HD
ENDBRANCH   4   7
TORSDOF 1
ENDMDL
