MODEL 1
REMARK minimizedAffinity -0.855490744
REMARK minimizedRMSD -1
REMARK  0 active torsions:
REMARK  status: ('A' for Active; 'I' for Inactive)
ROOT
ATOM      1  O1  BZF d   1      -0.483  -0.944   1.216  0.00  0.00    -0.204 OA
ATOM      2  C2  BZF d   1      -0.370  -2.164   0.578  0.00  0.00     0.174 A 
ATOM      3  C3  BZF d   1       0.422  -2.065  -0.509  0.00  0.00    -0.012 A 
ATOM      4  C3A BZF d   1       0.904  -0.718  -0.501  0.00  0.00    -0.107 A 
ATOM      5  C4  BZF d   1       1.745  -0.018  -1.318  0.00  0.00     0.055 A 
ATOM      6  C5  BZF d   1       1.954   1.303  -1.075  0.00  0.00    -0.016 A 
ATOM      7  C6  BZF d   1       1.335   1.955  -0.029  0.00  0.00     0.022 A 
ATOM      8  C7  BZF d   1       0.496   1.301   0.811  0.00  0.00     0.029 A 
ATOM      9  C7A BZF d   1       0.309  -0.041   0.588  0.00  0.00     0.058 A 
ENDROOT
TORSDOF 0
ENDMDL
