MODEL 1
REMARK minimizedAffinity 1.17140698
REMARK minimizedRMSD -1
REMARK  0 active torsions:
REMARK  status: ('A' for Active; 'I' for Inactive)
ROOT
ATOM      1  O1  BZF d   1      -0.986  -0.721   0.436  0.00  0.00    -0.204 OA
ATOM      2  C2  BZF d   1      -1.476  -0.150   1.595  0.00  0.00     0.174 A 
ATOM      3  C3  BZF d   1      -0.699   0.881   1.985  0.00  0.00    -0.012 A 
ATOM      4  C3A BZF d   1       0.289   1.018   0.959  0.00  0.00    -0.107 A 
ATOM      5  C4  BZF d   1       1.333   1.877   0.770  0.00  0.00     0.055 A 
ATOM      6  C5  BZF d   1       2.152   1.696  -0.300  0.00  0.00    -0.016 A 
ATOM      7  C6  BZF d   1       1.959   0.665  -1.196  0.00  0.00     0.022 A 
ATOM      8  C7  BZF d   1       0.933  -0.209  -1.053  0.00  0.00     0.029 A 
ATOM      9  C7A BZF d   1       0.085  -0.009   0.009  0.00  0.00     0.058 A 
ENDROOT
TORSDOF 0
ENDMDL
