MODEL 1
REMARK minimizedAffinity -3.5894053
REMARK minimizedRMSD -1
REMARK  0 active torsions:
REMARK  status: ('A' for Active; 'I' for Inactive)
ROOT
ATOM      1  O1  BZF d   1       1.351  -1.207  -2.161  0.00  0.00    -0.204 OA
ATOM      2  C2  BZF d   1       1.773   0.036  -2.591  0.00  0.00     0.174 A 
ATOM      3  C3  BZF d   1       1.557   0.969  -1.642  0.00  0.00    -0.012 A 
ATOM      4  C3A BZF d   1       1.047   0.250  -0.516  0.00  0.00    -0.107 A 
ATOM      5  C4  BZF d   1       0.658   0.623   0.739  0.00  0.00     0.055 A 
ATOM      6  C5  BZF d   1       0.138  -0.313   1.575  0.00  0.00    -0.016 A 
ATOM      7  C6  BZF d   1      -0.012  -1.629   1.188  0.00  0.00     0.022 A 
ATOM      8  C7  BZF d   1       0.365  -2.048  -0.044  0.00  0.00     0.029 A 
ATOM      9  C7A BZF d   1       0.921  -1.111  -0.880  0.00  0.00     0.058 A 
ENDROOT
TORSDOF 0
ENDMDL
