MODEL 1
REMARK minimizedAffinity -1.41413963
REMARK minimizedRMSD -1
REMARK  0 active torsions:
REMARK  status: ('A' for Active; 'I' for Inactive)
ROOT
ATOM      1  O1  BZF d   1      -1.217  -0.629  -1.219  0.00  0.00    -0.204 OA
ATOM      2  C2  BZF d   1      -2.154   0.252  -0.716  0.00  0.00     0.174 A 
ATOM      3  C3  BZF d   1      -1.557   1.359  -0.228  0.00  0.00    -0.012 A 
ATOM      4  C3A BZF d   1      -0.167   1.197  -0.524  0.00  0.00    -0.107 A 
ATOM      5  C4  BZF d   1       0.936   1.972  -0.303  0.00  0.00     0.055 A 
ATOM      6  C5  BZF d   1       2.160   1.493  -0.649  0.00  0.00    -0.016 A 
ATOM      7  C6  BZF d   1       2.318   0.244  -1.212  0.00  0.00     0.022 A 
ATOM      8  C7  BZF d   1       1.253  -0.559  -1.454  0.00  0.00     0.029 A 
ATOM      9  C7A BZF d   1       0.012  -0.064  -1.136  0.00  0.00     0.058 A 
ENDROOT
TORSDOF 0
ENDMDL
