MODEL 1
REMARK minimizedAffinity -0.796004951
REMARK minimizedRMSD -1
REMARK  0 active torsions:
REMARK  status: ('A' for Active; 'I' for Inactive)
ROOT
ATOM      1  O1  BZF d   1      -5.274   0.246  -5.976  0.00  0.00    -0.204 OA
ATOM      2  C2  BZF d   1      -4.113   0.995  -5.998  0.00  0.00     0.174 A 
ATOM      3  C3  BZF d   1      -3.027   0.195  -5.956  0.00  0.00    -0.012 A 
ATOM      4  C3A BZF d   1      -3.541  -1.139  -5.998  0.00  0.00    -0.107 A 
ATOM      5  C4  BZF d   1      -2.953  -2.372  -6.000  0.00  0.00     0.055 A 
ATOM      6  C5  BZF d   1      -3.740  -3.479  -5.972  0.00  0.00    -0.016 A 
ATOM      7  C6  BZF d   1      -5.116  -3.391  -5.937  0.00  0.00     0.022 A 
ATOM      8  C7  BZF d   1      -5.745  -2.191  -5.938  0.00  0.00     0.029 A 
ATOM      9  C7A BZF d   1      -4.953  -1.070  -5.999  0.00  0.00     0.058 A 
ENDROOT
TORSDOF 0
ENDMDL
