MODEL 1
REMARK minimizedAffinity -0.247208446
REMARK minimizedRMSD -1
REMARK  0 active torsions:
REMARK  status: ('A' for Active; 'I' for Inactive)
ROOT
ATOM      1  O1  BZF d   1      -0.128  -1.123   0.221  0.00  0.00    -0.204 OA
ATOM      2  C2  BZF d   1      -0.668  -2.213  -0.434  0.00  0.00     0.174 A 
ATOM      3  C3  BZF d   1      -0.402  -2.157  -1.755  0.00  0.00    -0.012 A 
ATOM      4  C3A BZF d   1       0.429  -1.005  -1.923  0.00  0.00    -0.107 A 
ATOM      5  C4  BZF d   1       1.033  -0.432  -3.006  0.00  0.00     0.055 A 
ATOM      6  C5  BZF d   1       1.717   0.730  -2.843  0.00  0.00    -0.016 A 
ATOM      7  C6  BZF d   1       1.814   1.349  -1.614  0.00  0.00     0.022 A 
ATOM      8  C7  BZF d   1       1.237   0.817  -0.510  0.00  0.00     0.029 A 
ATOM      9  C7A BZF d   1       0.572  -0.375  -0.665  0.00  0.00     0.058 A 
ENDROOT
TORSDOF 0
ENDMDL
