MODEL 1
REMARK minimizedAffinity 4.56187582
REMARK minimizedRMSD -1
REMARK  0 active torsions:
REMARK  status: ('A' for Active; 'I' for Inactive)
ROOT
ATOM      1  O1  BZF d   1      -2.678  -4.161  -5.977  0.00  0.00    -0.204 OA
ATOM      2  C2  BZF d   1      -3.512  -5.262  -6.000  0.00  0.00     0.174 A 
ATOM      3  C3  BZF d   1      -4.806  -4.884  -5.956  0.00  0.00    -0.012 A 
ATOM      4  C3A BZF d   1      -4.781  -3.454  -5.997  0.00  0.00    -0.107 A 
ATOM      5  C4  BZF d   1      -5.757  -2.498  -5.997  0.00  0.00     0.055 A 
ATOM      6  C5  BZF d   1      -5.397  -1.188  -5.969  0.00  0.00    -0.016 A 
ATOM      7  C6  BZF d   1      -4.074  -0.798  -5.933  0.00  0.00     0.022 A 
ATOM      8  C7  BZF d   1      -3.071  -1.710  -5.936  0.00  0.00     0.029 A 
ATOM      9  C7A BZF d   1      -3.431  -3.034  -5.999  0.00  0.00     0.058 A 
ENDROOT
TORSDOF 0
ENDMDL
