MODEL 1
REMARK minimizedAffinity -2.56251431
REMARK minimizedRMSD -1
REMARK  0 active torsions:
REMARK  status: ('A' for Active; 'I' for Inactive)
ROOT
ATOM      1  O1  BZF d   1      -5.248   1.702  -5.982  0.00  0.00    -0.204 OA
ATOM      2  C2  BZF d   1      -4.066   0.987  -5.966  0.00  0.00     0.174 A 
ATOM      3  C3  BZF d   1      -3.004   1.818  -6.000  0.00  0.00    -0.012 A 
ATOM      4  C3A BZF d   1      -3.556   3.137  -5.946  0.00  0.00    -0.107 A 
ATOM      5  C4  BZF d   1      -3.005   4.386  -5.933  0.00  0.00     0.055 A 
ATOM      6  C5  BZF d   1      -3.824   5.470  -5.951  0.00  0.00    -0.016 A 
ATOM      7  C6  BZF d   1      -5.197   5.342  -5.988  0.00  0.00     0.022 A 
ATOM      8  C7  BZF d   1      -5.791   4.124  -5.998  0.00  0.00     0.029 A 
ATOM      9  C7A BZF d   1      -4.966   3.026  -5.946  0.00  0.00     0.058 A 
ENDROOT
TORSDOF 0
ENDMDL
