MODEL 1
REMARK minimizedAffinity 4.84901714
REMARK minimizedRMSD -1
REMARK  0 active torsions:
REMARK  status: ('A' for Active; 'I' for Inactive)
ROOT
ATOM      1  O1  BZF d   1      -4.603   1.551  -5.943  0.00  0.00    -0.204 OA
ATOM      2  C2  BZF d   1      -3.364   2.164  -5.941  0.00  0.00     0.174 A 
ATOM      3  C3  BZF d   1      -2.377   1.246  -5.905  0.00  0.00    -0.012 A 
ATOM      4  C3A BZF d   1      -3.037  -0.021  -5.977  0.00  0.00    -0.107 A 
ATOM      5  C4  BZF d   1      -2.592  -1.312  -5.998  0.00  0.00     0.055 A 
ATOM      6  C5  BZF d   1      -3.500  -2.323  -5.999  0.00  0.00    -0.016 A 
ATOM      7  C6  BZF d   1      -4.858  -2.081  -5.973  0.00  0.00     0.022 A 
ATOM      8  C7  BZF d   1      -5.347  -0.817  -5.957  0.00  0.00     0.029 A 
ATOM      9  C7A BZF d   1      -4.433   0.208  -5.990  0.00  0.00     0.058 A 
ENDROOT
TORSDOF 0
ENDMDL
