MODEL 1
REMARK minimizedAffinity -3.05996442
REMARK minimizedRMSD -1
REMARK  0 active torsions:
REMARK  status: ('A' for Active; 'I' for Inactive)
ROOT
ATOM      1  O1  BZF d   1      -4.870   0.058  -5.962  0.00  0.00    -0.204 OA
ATOM      2  C2  BZF d   1      -3.603   0.609  -5.963  0.00  0.00     0.174 A 
ATOM      3  C3  BZF d   1      -2.661  -0.356  -5.922  0.00  0.00    -0.012 A 
ATOM      4  C3A BZF d   1      -3.384  -1.590  -5.986  0.00  0.00    -0.107 A 
ATOM      5  C4  BZF d   1      -3.003  -2.901  -6.000  0.00  0.00     0.055 A 
ATOM      6  C5  BZF d   1      -3.959  -3.866  -5.994  0.00  0.00    -0.016 A 
ATOM      7  C6  BZF d   1      -5.304  -3.557  -5.970  0.00  0.00     0.022 A 
ATOM      8  C7  BZF d   1      -5.730  -2.270  -5.961  0.00  0.00     0.029 A 
ATOM      9  C7A BZF d   1      -4.766  -1.292  -6.000  0.00  0.00     0.058 A 
ENDROOT
TORSDOF 0
ENDMDL
