MODEL 1
REMARK minimizedAffinity 2.25302482
REMARK minimizedRMSD -1
REMARK  0 active torsions:
REMARK  status: ('A' for Active; 'I' for Inactive)
ROOT
ATOM      1  O1  BZF d   1      -1.931   3.750  -5.939  0.00  0.00    -0.204 OA
ATOM      2  C2  BZF d   1      -1.138   2.619  -5.939  0.00  0.00     0.174 A 
ATOM      3  C3  BZF d   1      -1.895   1.504  -5.905  0.00  0.00    -0.012 A 
ATOM      4  C3A BZF d   1      -3.248   1.965  -5.976  0.00  0.00    -0.107 A 
ATOM      5  C4  BZF d   1      -4.457   1.330  -5.998  0.00  0.00     0.055 A 
ATOM      6  C5  BZF d   1      -5.594   2.074  -5.997  0.00  0.00    -0.016 A 
ATOM      7  C6  BZF d   1      -5.559   3.453  -5.969  0.00  0.00     0.022 A 
ATOM      8  C7  BZF d   1      -4.384   4.128  -5.952  0.00  0.00     0.029 A 
ATOM      9  C7A BZF d   1      -3.233   3.379  -5.986  0.00  0.00     0.058 A 
ENDROOT
TORSDOF 0
ENDMDL
