MODEL 1
REMARK minimizedAffinity 1.46709538
REMARK minimizedRMSD -1
REMARK  0 active torsions:
REMARK  status: ('A' for Active; 'I' for Inactive)
ROOT
ATOM      1  O1  BZF d   1       0.713  -0.371   0.676  0.00  0.00    -0.204 OA
ATOM      2  C2  BZF d   1       0.339   0.957   0.754  0.00  0.00     0.174 A 
ATOM      3  C3  BZF d   1       0.232   1.496  -0.478  0.00  0.00    -0.012 A 
ATOM      4  C3A BZF d   1       0.470   0.415  -1.384  0.00  0.00    -0.107 A 
ATOM      5  C4  BZF d   1       0.485   0.318  -2.746  0.00  0.00     0.055 A 
ATOM      6  C5  BZF d   1       0.824  -0.866  -3.320  0.00  0.00    -0.016 A 
ATOM      7  C6  BZF d   1       1.159  -1.970  -2.564  0.00  0.00     0.022 A 
ATOM      8  C7  BZF d   1       1.153  -1.924  -1.209  0.00  0.00     0.029 A 
ATOM      9  C7A BZF d   1       0.778  -0.738  -0.626  0.00  0.00     0.058 A 
ENDROOT
TORSDOF 0
ENDMDL
