MODEL 1
REMARK minimizedAffinity 8.51015663
REMARK minimizedRMSD -1
REMARK  0 active torsions:
REMARK  status: ('A' for Active; 'I' for Inactive)
ROOT
ATOM      1  O1  BZF d   1       1.322   5.983   0.085  0.00  0.00    -0.204 OA
ATOM      2  C2  BZF d   1       1.141   6.000  -1.285  0.00  0.00     0.174 A 
ATOM      3  C3  BZF d   1       1.108   4.746  -1.779  0.00  0.00    -0.012 A 
ATOM      4  C3A BZF d   1       1.185   3.889  -0.635  0.00  0.00    -0.107 A 
ATOM      5  C4  BZF d   1       1.181   2.532  -0.477  0.00  0.00     0.055 A 
ATOM      6  C5  BZF d   1       1.345   2.013   0.768  0.00  0.00    -0.016 A 
ATOM      7  C6  BZF d   1       1.521   2.818   1.874  0.00  0.00     0.022 A 
ATOM      8  C7  BZF d   1       1.527   4.170   1.767  0.00  0.00     0.029 A 
ATOM      9  C7A BZF d   1       1.329   4.698   0.515  0.00  0.00     0.058 A 
ENDROOT
TORSDOF 0
ENDMDL
