MODEL 1
REMARK minimizedAffinity 5.04190779
REMARK minimizedRMSD -1
REMARK  0 active torsions:
REMARK  status: ('A' for Active; 'I' for Inactive)
ROOT
ATOM      1  O1  BZF d   1      -3.546   3.535  -3.824  0.00  0.00    -0.204 OA
ATOM      2  C2  BZF d   1      -3.799   2.978  -5.062  0.00  0.00     0.174 A 
ATOM      3  C3  BZF d   1      -2.988   3.508  -6.000  0.00  0.00    -0.012 A 
ATOM      4  C3A BZF d   1      -2.113   4.388  -5.287  0.00  0.00    -0.107 A 
ATOM      5  C4  BZF d   1      -1.077   5.192  -5.666  0.00  0.00     0.055 A 
ATOM      6  C5  BZF d   1      -0.478   5.981  -4.736  0.00  0.00    -0.016 A 
ATOM      7  C6  BZF d   1      -0.893   5.995  -3.420  0.00  0.00     0.022 A 
ATOM      8  C7  BZF d   1      -1.913   5.211  -2.995  0.00  0.00     0.029 A 
ATOM      9  C7A BZF d   1      -2.499   4.388  -3.926  0.00  0.00     0.058 A 
ENDROOT
TORSDOF 0
ENDMDL
