MODEL 1
REMARK minimizedAffinity 18.8312798
REMARK minimizedRMSD -1
REMARK  0 active torsions:
REMARK  status: ('A' for Active; 'I' for Inactive)
ROOT
ATOM      1  O1  BZF d   1       0.933  -4.613  -2.758  0.00  0.00    -0.204 OA
ATOM      2  C2  BZF d   1       1.894  -5.296  -2.038  0.00  0.00     0.174 A 
ATOM      3  C3  BZF d   1       2.265  -4.593  -0.948  0.00  0.00    -0.012 A 
ATOM      4  C3A BZF d   1       1.421  -3.438  -0.941  0.00  0.00    -0.107 A 
ATOM      5  C4  BZF d   1       1.299  -2.369  -0.099  0.00  0.00     0.055 A 
ATOM      6  C5  BZF d   1       0.429  -1.375  -0.415  0.00  0.00    -0.016 A 
ATOM      7  C6  BZF d   1      -0.331  -1.414  -1.566  0.00  0.00     0.022 A 
ATOM      8  C7  BZF d   1      -0.249  -2.456  -2.429  0.00  0.00     0.029 A 
ATOM      9  C7A BZF d   1       0.606  -3.478  -2.096  0.00  0.00     0.058 A 
ENDROOT
TORSDOF 0
ENDMDL
