MODEL 1
REMARK minimizedAffinity 10.7282314
REMARK minimizedRMSD -1
REMARK  0 active torsions:
REMARK  status: ('A' for Active; 'I' for Inactive)
ROOT
ATOM      1  O1  BZF d   1      -0.698   5.458  -4.703  0.00  0.00    -0.204 OA
ATOM      2  C2  BZF d   1      -0.729   6.000  -3.433  0.00  0.00     0.174 A 
ATOM      3  C3  BZF d   1      -1.885   5.691  -2.810  0.00  0.00    -0.012 A 
ATOM      4  C3A BZF d   1      -2.582   4.829  -3.715  0.00  0.00    -0.107 A 
ATOM      5  C4  BZF d   1      -3.781   4.179  -3.656  0.00  0.00     0.055 A 
ATOM      6  C5  BZF d   1      -4.204   3.475  -4.739  0.00  0.00    -0.016 A 
ATOM      7  C6  BZF d   1      -3.457   3.404  -5.896  0.00  0.00     0.022 A 
ATOM      8  C7  BZF d   1      -2.258   4.028  -6.000  0.00  0.00     0.029 A 
ATOM      9  C7A BZF d   1      -1.813   4.713  -4.896  0.00  0.00     0.058 A 
ENDROOT
TORSDOF 0
ENDMDL
