MODEL 1
REMARK minimizedAffinity 22.1808319
REMARK minimizedRMSD -1
REMARK  0 active torsions:
REMARK  status: ('A' for Active; 'I' for Inactive)
ROOT
ATOM      1  O1  BZF d   1      -2.243   2.664   5.378  0.00  0.00    -0.204 OA
ATOM      2  C2  BZF d   1      -2.692   1.515   5.999  0.00  0.00     0.174 A 
ATOM      3  C3  BZF d   1      -3.491   0.807   5.176  0.00  0.00    -0.012 A 
ATOM      4  C3A BZF d   1      -3.471   1.514   3.932  0.00  0.00    -0.107 A 
ATOM      5  C4  BZF d   1      -4.058   1.297   2.718  0.00  0.00     0.055 A 
ATOM      6  C5  BZF d   1      -3.895   2.216   1.731  0.00  0.00    -0.016 A 
ATOM      7  C6  BZF d   1      -3.156   3.365   1.924  0.00  0.00     0.022 A 
ATOM      8  C7  BZF d   1      -2.550   3.622   3.109  0.00  0.00     0.029 A 
ATOM      9  C7A BZF d   1      -2.686   2.679   4.098  0.00  0.00     0.058 A 
ENDROOT
TORSDOF 0
ENDMDL
