MODEL 1
REMARK minimizedAffinity 6.52615356
REMARK minimizedRMSD -1
REMARK  1 active torsions:
REMARK  status: ('A' for Active; 'I' for Inactive)
REMARK    1  A    between atoms: N_2  and  C1_3 
ROOT
ATOM      1  C1  UNL d   1      -5.249   2.412   0.249  0.00  0.00     0.143 A 
ATOM      2  C2  UNL d   1      -3.866   2.626   0.242  0.00  0.00    -0.057 A 
ATOM      3  C3  UNL d   1      -3.182   2.992   1.407  0.00  0.00     0.033 A 
ATOM      4  C4  UNL d   1      -3.875   3.180   2.598  0.00  0.00    -0.042 A 
ATOM      5  C5  UNL d   1      -5.254   2.998   2.623  0.00  0.00     0.033 A 
ATOM      6  C6  UNL d   1      -5.930   2.625   1.457  0.00  0.00    -0.057 A 
ENDROOT
BRANCH   1   7
ATOM      7  N   UNL d   1      -6.000   2.143  -0.898  0.00  0.00    -0.732 N 
ATOM      8  C   UNL d   1      -6.000   3.066  -2.013  0.00  0.00     0.284 C 
ATOM      9  H3  UNL d   1      -5.957   1.163  -1.169  0.00  0.00     0.395 HD
ENDBRANCH   1   7
TORSDOF 1
ENDMDL
