MODEL 1
REMARK minimizedAffinity -0.160041243
REMARK minimizedRMSD -1
REMARK  1 active torsions:
REMARK  status: ('A' for Active; 'I' for Inactive)
REMARK    1  A    between atoms: N_2  and  C1_3 
ROOT
ATOM      1  C1  UNL d   1       2.240  -2.564   3.568  0.00  0.00     0.143 A 
ATOM      2  C2  UNL d   1       3.558  -2.498   4.032  0.00  0.00    -0.057 A 
ATOM      3  C3  UNL d   1       4.070  -3.466   4.905  0.00  0.00     0.033 A 
ATOM      4  C4  UNL d   1       3.260  -4.505   5.353  0.00  0.00    -0.042 A 
ATOM      5  C5  UNL d   1       1.940  -4.576   4.924  0.00  0.00     0.033 A 
ATOM      6  C6  UNL d   1       1.436  -3.610   4.048  0.00  0.00    -0.057 A 
ENDROOT
BRANCH   1   7
ATOM      7  N   UNL d   1       1.643  -1.578   2.778  0.00  0.00    -0.732 N 
ATOM      8  C   UNL d   1       2.387  -0.403   2.379  0.00  0.00     0.284 C 
ATOM      9  H3  UNL d   1       1.060  -1.971   2.042  0.00  0.00     0.395 HD
ENDBRANCH   1   7
TORSDOF 1
ENDMDL
