MODEL 1
REMARK minimizedAffinity 9.34977245
REMARK minimizedRMSD -1
REMARK  1 active torsions:
REMARK  status: ('A' for Active; 'I' for Inactive)
REMARK    1  A    between atoms: N_2  and  C1_3 
ROOT
ATOM      1  C1  UNL d   1       3.648   5.172  -3.113  0.00  0.00     0.143 A 
ATOM      2  C2  UNL d   1       4.821   5.592  -2.477  0.00  0.00    -0.057 A 
ATOM      3  C3  UNL d   1       5.940   6.000  -3.213  0.00  0.00     0.033 A 
ATOM      4  C4  UNL d   1       5.915   5.967  -4.604  0.00  0.00    -0.042 A 
ATOM      5  C5  UNL d   1       4.769   5.530  -5.257  0.00  0.00     0.033 A 
ATOM      6  C6  UNL d   1       3.652   5.130  -4.516  0.00  0.00    -0.057 A 
ENDROOT
BRANCH   1   7
ATOM      7  N   UNL d   1       2.537   4.661  -2.438  0.00  0.00    -0.732 N 
ATOM      8  C   UNL d   1       2.413   4.812  -1.004  0.00  0.00     0.284 C 
ATOM      9  H3  UNL d   1       1.670   4.811  -2.948  0.00  0.00     0.395 HD
ENDBRANCH   1   7
TORSDOF 1
ENDMDL
