MODEL 1
REMARK minimizedAffinity 9.0076952
REMARK minimizedRMSD -1
REMARK  1 active torsions:
REMARK  status: ('A' for Active; 'I' for Inactive)
REMARK    1  A    between atoms: N_2  and  C1_3 
ROOT
ATOM      1  C1  UNL d   1       2.491   2.543   0.884  0.00  0.00     0.143 A 
ATOM      2  C2  UNL d   1       2.237   3.263   2.057  0.00  0.00    -0.057 A 
ATOM      3  C3  UNL d   1       1.771   4.582   2.013  0.00  0.00     0.033 A 
ATOM      4  C4  UNL d   1       1.578   5.217   0.790  0.00  0.00    -0.042 A 
ATOM      5  C5  UNL d   1       1.848   4.530  -0.388  0.00  0.00     0.033 A 
ATOM      6  C6  UNL d   1       2.307   3.211  -0.337  0.00  0.00    -0.057 A 
ENDROOT
BRANCH   1   7
ATOM      7  N   UNL d   1       3.049   1.263   0.862  0.00  0.00    -0.732 N 
ATOM      8  C   UNL d   1       2.455   0.187   1.625  0.00  0.00     0.284 C 
ATOM      9  H3  UNL d   1       3.361   0.991  -0.067  0.00  0.00     0.395 HD
ENDBRANCH   1   7
TORSDOF 1
ENDMDL
