MODEL 1
REMARK minimizedAffinity 6.70779228
REMARK minimizedRMSD -1
REMARK  1 active torsions:
REMARK  status: ('A' for Active; 'I' for Inactive)
REMARK    1  A    between atoms: N_2  and  C1_3 
ROOT
ATOM      1  C1  UNL d   1       2.281   0.089   4.496  0.00  0.00     0.143 A 
ATOM      2  C2  UNL d   1       2.246   0.084   3.097  0.00  0.00    -0.057 A 
ATOM      3  C3  UNL d   1       2.585  -1.061   2.366  0.00  0.00     0.033 A 
ATOM      4  C4  UNL d   1       2.993  -2.217   3.023  0.00  0.00    -0.042 A 
ATOM      5  C5  UNL d   1       3.060  -2.227   4.411  0.00  0.00     0.033 A 
ATOM      6  C6  UNL d   1       2.714  -1.083   5.136  0.00  0.00    -0.057 A 
ENDROOT
BRANCH   1   7
ATOM      7  N   UNL d   1       2.051   1.225   5.276  0.00  0.00    -0.732 N 
ATOM      8  C   UNL d   1       3.136   1.856   5.997  0.00  0.00     0.284 C 
ATOM      9  H3  UNL d   1       1.412   1.879   4.830  0.00  0.00     0.395 HD
ENDBRANCH   1   7
TORSDOF 1
ENDMDL
