MODEL 1
REMARK minimizedAffinity 8.64234352
REMARK minimizedRMSD -1
REMARK  2 active torsions:
REMARK  status: ('A' for Active; 'I' for Inactive)
REMARK    1  A    between atoms: C1_2  and  C2_3 
REMARK    2  A    between atoms: C2_3  and  C3_4 
ROOT
ATOM      1  C3  UNL d   1       4.849   1.634  -1.199  0.00  0.00    -0.075 A 
ATOM      2  C4  UNL d   1       4.146   0.949  -2.201  0.00  0.00     0.002 A 
ATOM      3  C5  UNL d   1       3.066   0.128  -1.873  0.00  0.00     0.002 A 
ATOM      4  C6  UNL d   1       2.683  -0.027  -0.543  0.00  0.00    -0.004 A 
ATOM      5  C7  UNL d   1       3.385   0.636   0.462  0.00  0.00     0.002 A 
ATOM      6  C8  UNL d   1       4.463   1.461   0.137  0.00  0.00     0.002 A 
ENDROOT
BRANCH   1   7
ATOM      7  C2  UNL d   1       6.000   2.547  -1.550  0.00  0.00     0.056 C 
BRANCH   7   8
ATOM      8  C1  UNL d   1       5.998   3.021  -3.007  0.00  0.00     0.007 C 
ATOM      9  C   UNL d   1       5.284   4.352  -3.204  0.00  0.00     0.009 C 
ENDBRANCH   7   8
ENDBRANCH   1   7
TORSDOF 2
ENDMDL
