MODEL 1
REMARK minimizedAffinity 14.9060717
REMARK minimizedRMSD -1
REMARK  2 active torsions:
REMARK  status: ('A' for Active; 'I' for Inactive)
REMARK    1  A    between atoms: C1_2  and  C2_3 
REMARK    2  A    between atoms: C2_3  and  C3_4 
ROOT
ATOM      1  C3  UNL d   1       3.491  -0.245   1.758  0.00  0.00    -0.075 A 
ATOM      2  C4  UNL d   1       2.210  -0.712   1.433  0.00  0.00     0.002 A 
ATOM      3  C5  UNL d   1       1.714  -0.578   0.136  0.00  0.00     0.002 A 
ATOM      4  C6  UNL d   1       2.488   0.032  -0.849  0.00  0.00    -0.004 A 
ATOM      5  C7  UNL d   1       3.756   0.515  -0.534  0.00  0.00     0.002 A 
ATOM      6  C8  UNL d   1       4.256   0.378   0.763  0.00  0.00     0.002 A 
ENDROOT
BRANCH   1   7
ATOM      7  C2  UNL d   1       4.045  -0.413   3.153  0.00  0.00     0.056 C 
BRANCH   7   8
ATOM      8  C1  UNL d   1       5.091  -1.526   3.279  0.00  0.00     0.007 C 
ATOM      9  C   UNL d   1       6.000  -1.361   4.489  0.00  0.00     0.009 C 
ENDBRANCH   7   8
ENDBRANCH   1   7
TORSDOF 2
ENDMDL
