MODEL 1
REMARK minimizedAffinity 12.0950308
REMARK minimizedRMSD -1
REMARK  2 active torsions:
REMARK  status: ('A' for Active; 'I' for Inactive)
REMARK    1  A    between atoms: C1_2  and  C2_3 
REMARK    2  A    between atoms: C2_3  and  C3_4 
ROOT
ATOM      1  C3  UNL d   1       1.314   2.344   0.345  0.00  0.00    -0.075 A 
ATOM      2  C4  UNL d   1       0.899   1.339  -0.540  0.00  0.00     0.002 A 
ATOM      3  C5  UNL d   1       1.634   0.160  -0.669  0.00  0.00     0.002 A 
ATOM      4  C6  UNL d   1       2.797  -0.024   0.076  0.00  0.00    -0.004 A 
ATOM      5  C7  UNL d   1       3.228   0.975   0.946  0.00  0.00     0.002 A 
ATOM      6  C8  UNL d   1       2.492   2.153   1.080  0.00  0.00     0.002 A 
ENDROOT
BRANCH   1   7
ATOM      7  C2  UNL d   1       0.507   3.609   0.510  0.00  0.00     0.056 C 
BRANCH   7   8
ATOM      8  C1  UNL d   1       0.693   4.295   1.868  0.00  0.00     0.007 C 
ATOM      9  C   UNL d   1       0.323   5.772   1.850  0.00  0.00     0.009 C 
ENDBRANCH   7   8
ENDBRANCH   1   7
TORSDOF 2
ENDMDL
