MODEL 1
REMARK minimizedAffinity 7.64590359
REMARK minimizedRMSD -1
REMARK  2 active torsions:
REMARK  status: ('A' for Active; 'I' for Inactive)
REMARK    1  A    between atoms: C1_2  and  C2_3 
REMARK    2  A    between atoms: C2_3  and  C3_4 
ROOT
ATOM      1  C3  UNL d   1       3.868   1.272  -0.473  0.00  0.00    -0.075 A 
ATOM      2  C4  UNL d   1       3.960   1.490  -1.856  0.00  0.00     0.002 A 
ATOM      3  C5  UNL d   1       5.022   2.221  -2.389  0.00  0.00     0.002 A 
ATOM      4  C6  UNL d   1       5.998   2.751  -1.548  0.00  0.00    -0.004 A 
ATOM      5  C7  UNL d   1       5.908   2.554  -0.171  0.00  0.00     0.002 A 
ATOM      6  C8  UNL d   1       4.849   1.819   0.364  0.00  0.00     0.002 A 
ENDROOT
BRANCH   1   7
ATOM      7  C2  UNL d   1       2.737   0.456   0.107  0.00  0.00     0.056 C 
BRANCH   7   8
ATOM      8  C1  UNL d   1       2.697   0.447   1.639  0.00  0.00     0.007 C 
ATOM      9  C   UNL d   1       2.908  -0.938   2.236  0.00  0.00     0.009 C 
ENDBRANCH   7   8
ENDBRANCH   1   7
TORSDOF 2
ENDMDL
