MODEL 1
REMARK minimizedAffinity -5.08888149
REMARK minimizedRMSD -1
REMARK  3 active torsions:
REMARK  status: ('A' for Active; 'I' for Inactive)
REMARK    1  A    between atoms: C3'_2  and  C2'_3 
REMARK    2  A    between atoms: C2'_3  and  C1'_4 
REMARK    3  A    between atoms: C1'_4  and  C1_5 
ROOT
ATOM      1  C1  N4B d   1       0.628  -0.022   0.062  0.00  0.00    -0.075 A 
ATOM      2  C2  N4B d   1      -0.152  -0.741   0.994  0.00  0.00     0.002 A 
ATOM      3  C3  N4B d   1       0.307  -1.934   1.498  0.00  0.00     0.002 A 
ATOM      4  C4  N4B d   1       1.529  -2.433   1.072  0.00  0.00    -0.004 A 
ATOM      5  C5  N4B d   1       2.287  -1.719   0.191  0.00  0.00     0.002 A 
ATOM      6  C6  N4B d   1       1.840  -0.518  -0.320  0.00  0.00     0.002 A 
ENDROOT
BRANCH   1   7
ATOM      7  C1' N4B d   1       0.129   1.244  -0.581  0.00  0.00     0.057 C 
BRANCH   7   8
ATOM      8  C2' N4B d   1      -1.343   1.075  -0.944  0.00  0.00     0.009 C 
BRANCH   8   9
ATOM      9  C3' N4B d   1      -1.677   1.717  -2.279  0.00  0.00     0.004 C 
ATOM     10  C4' N4B d   1      -2.835   1.059  -2.967  0.00  0.00     0.003 C 
ENDBRANCH   8   9
ENDBRANCH   7   8
ENDBRANCH   1   7
TORSDOF 3
ENDMDL
