MODEL 1
REMARK minimizedAffinity -2.83663464
REMARK minimizedRMSD -1
REMARK  3 active torsions:
REMARK  status: ('A' for Active; 'I' for Inactive)
REMARK    1  A    between atoms: C3'_2  and  C2'_3 
REMARK    2  A    between atoms: C2'_3  and  C1'_4 
REMARK    3  A    between atoms: C1'_4  and  C1_5 
ROOT
ATOM      1  C1  N4B d   1       0.657   1.867   0.351  0.00  0.00    -0.075 A 
ATOM      2  C2  N4B d   1       1.566   0.793   0.230  0.00  0.00     0.002 A 
ATOM      3  C3  N4B d   1       1.144  -0.493   0.460  0.00  0.00     0.002 A 
ATOM      4  C4  N4B d   1      -0.173  -0.727   0.829  0.00  0.00    -0.004 A 
ATOM      5  C5  N4B d   1      -1.051   0.313   0.919  0.00  0.00     0.002 A 
ATOM      6  C6  N4B d   1      -0.641   1.611   0.686  0.00  0.00     0.002 A 
ENDROOT
BRANCH   1   7
ATOM      7  C1' N4B d   1       1.093   3.298   0.193  0.00  0.00     0.057 C 
BRANCH   7   8
ATOM      8  C2' N4B d   1       2.522   3.446   0.709  0.00  0.00     0.009 C 
BRANCH   8   9
ATOM      9  C3' N4B d   1       3.522   3.597  -0.424  0.00  0.00     0.004 C 
ATOM     10  C4' N4B d   1       4.859   4.089   0.043  0.00  0.00     0.003 C 
ENDBRANCH   8   9
ENDBRANCH   7   8
ENDBRANCH   1   7
TORSDOF 3
ENDMDL
