MODEL 1
REMARK minimizedAffinity -4.06739807
REMARK minimizedRMSD -1
REMARK  3 active torsions:
REMARK  status: ('A' for Active; 'I' for Inactive)
REMARK    1  A    between atoms: C3'_2  and  C2'_3 
REMARK    2  A    between atoms: C2'_3  and  C1'_4 
REMARK    3  A    between atoms: C1'_4  and  C1_5 
ROOT
ATOM      1  C1  N4B d   1       0.049   2.752  -0.713  0.00  0.00    -0.075 A 
ATOM      2  C2  N4B d   1      -0.433   1.499  -0.274  0.00  0.00     0.002 A 
ATOM      3  C3  N4B d   1      -1.425   0.860  -0.977  0.00  0.00     0.002 A 
ATOM      4  C4  N4B d   1      -1.961   1.460  -2.106  0.00  0.00    -0.004 A 
ATOM      5  C5  N4B d   1      -1.472   2.658  -2.538  0.00  0.00     0.002 A 
ATOM      6  C6  N4B d   1      -0.473   3.310  -1.843  0.00  0.00     0.002 A 
ENDROOT
BRANCH   1   7
ATOM      7  C1' N4B d   1       1.072   3.528   0.071  0.00  0.00     0.057 C 
BRANCH   7   8
ATOM      8  C2' N4B d   1       2.438   2.870  -0.099  0.00  0.00     0.009 C 
BRANCH   8   9
ATOM      9  C3' N4B d   1       3.573   3.825   0.226  0.00  0.00     0.004 C 
ATOM     10  C4' N4B d   1       4.599   3.901  -0.865  0.00  0.00     0.003 C 
ENDBRANCH   8   9
ENDBRANCH   7   8
ENDBRANCH   1   7
TORSDOF 3
ENDMDL
