MODEL 1
REMARK minimizedAffinity -2.21326447
REMARK minimizedRMSD -1
REMARK  3 active torsions:
REMARK  status: ('A' for Active; 'I' for Inactive)
REMARK    1  A    between atoms: C3'_2  and  C2'_3 
REMARK    2  A    between atoms: C2'_3  and  C1'_4 
REMARK    3  A    between atoms: C1'_4  and  C1_5 
ROOT
ATOM      1  C1  N4B d   1      -0.493   0.437   0.061  0.00  0.00    -0.075 A 
ATOM      2  C2  N4B d   1      -0.157  -0.808  -0.513  0.00  0.00     0.002 A 
ATOM      3  C3  N4B d   1      -0.389  -1.970   0.183  0.00  0.00     0.002 A 
ATOM      4  C4  N4B d   1      -0.935  -1.909   1.456  0.00  0.00    -0.004 A 
ATOM      5  C5  N4B d   1      -1.281  -0.704   1.993  0.00  0.00     0.002 A 
ATOM      6  C6  N4B d   1      -1.057   0.471   1.304  0.00  0.00     0.002 A 
ENDROOT
BRANCH   1   7
ATOM      7  C1' N4B d   1      -0.180   1.739  -0.625  0.00  0.00     0.057 C 
BRANCH   7   8
ATOM      8  C2' N4B d   1       1.317   2.011  -0.523  0.00  0.00     0.009 C 
BRANCH   8   9
ATOM      9  C3' N4B d   1       1.608   3.456  -0.155  0.00  0.00     0.004 C 
ATOM     10  C4' N4B d   1       3.066   3.711   0.089  0.00  0.00     0.003 C 
ENDBRANCH   8   9
ENDBRANCH   7   8
ENDBRANCH   1   7
TORSDOF 3
ENDMDL
