MODEL 1
REMARK minimizedAffinity -0.28697598
REMARK minimizedRMSD -1
REMARK  3 active torsions:
REMARK  status: ('A' for Active; 'I' for Inactive)
REMARK    1  A    between atoms: C3'_2  and  C2'_3 
REMARK    2  A    between atoms: C2'_3  and  C1'_4 
REMARK    3  A    between atoms: C1'_4  and  C1_5 
ROOT
ATOM      1  C1  N4B d   1       0.215   0.027  -0.062  0.00  0.00    -0.075 A 
ATOM      2  C2  N4B d   1      -0.849  -0.445   0.739  0.00  0.00     0.002 A 
ATOM      3  C3  N4B d   1      -0.795  -1.707   1.277  0.00  0.00     0.002 A 
ATOM      4  C4  N4B d   1       0.298  -2.519   1.014  0.00  0.00    -0.004 A 
ATOM      5  C5  N4B d   1       1.333  -2.047   0.261  0.00  0.00     0.002 A 
ATOM      6  C6  N4B d   1       1.294  -0.779  -0.283  0.00  0.00     0.002 A 
ENDROOT
BRANCH   1   7
ATOM      7  C1' N4B d   1       0.162   1.367  -0.743  0.00  0.00     0.057 C 
BRANCH   7   8
ATOM      8  C2' N4B d   1      -1.226   1.571  -1.341  0.00  0.00     0.009 C 
BRANCH   8   9
ATOM      9  C3' N4B d   1      -1.160   2.012  -2.793  0.00  0.00     0.004 C 
ATOM     10  C4' N4B d   1      -2.395   1.653  -3.565  0.00  0.00     0.003 C 
ENDBRANCH   8   9
ENDBRANCH   7   8
ENDBRANCH   1   7
TORSDOF 3
ENDMDL
