MODEL 1
REMARK minimizedAffinity -2.60030794
REMARK minimizedRMSD -1
REMARK  3 active torsions:
REMARK  status: ('A' for Active; 'I' for Inactive)
REMARK    1  A    between atoms: C3'_2  and  C2'_3 
REMARK    2  A    between atoms: C2'_3  and  C1'_4 
REMARK    3  A    between atoms: C1'_4  and  C1_5 
ROOT
ATOM      1  C1  N4B d   1       1.555  -0.271   0.543  0.00  0.00    -0.075 A 
ATOM      2  C2  N4B d   1       2.267  -1.373   1.067  0.00  0.00     0.002 A 
ATOM      3  C3  N4B d   1       1.617  -2.557   1.313  0.00  0.00     0.002 A 
ATOM      4  C4  N4B d   1       0.256  -2.657   1.063  0.00  0.00    -0.004 A 
ATOM      5  C5  N4B d   1      -0.419  -1.596   0.534  0.00  0.00     0.002 A 
ATOM      6  C6  N4B d   1       0.222  -0.402   0.278  0.00  0.00     0.002 A 
ENDROOT
BRANCH   1   7
ATOM      7  C1' N4B d   1       2.204   1.070   0.338  0.00  0.00     0.057 C 
BRANCH   7   8
ATOM      8  C2' N4B d   1       1.147   2.163   0.460  0.00  0.00     0.009 C 
BRANCH   8   9
ATOM      9  C3' N4B d   1       1.767   3.534   0.664  0.00  0.00     0.004 C 
ATOM     10  C4' N4B d   1       3.207   3.587   0.249  0.00  0.00     0.003 C 
ENDBRANCH   8   9
ENDBRANCH   7   8
ENDBRANCH   1   7
TORSDOF 3
ENDMDL
