MODEL 1
REMARK minimizedAffinity -5.55600452
REMARK minimizedRMSD -1
REMARK  3 active torsions:
REMARK  status: ('A' for Active; 'I' for Inactive)
REMARK    1  A    between atoms: C3'_2  and  C2'_3 
REMARK    2  A    between atoms: C2'_3  and  C1'_4 
REMARK    3  A    between atoms: C1'_4  and  C1_5 
ROOT
ATOM      1  C1  N4B d   1       0.443   1.062   0.006  0.00  0.00    -0.075 A 
ATOM      2  C2  N4B d   1       1.845   1.087  -0.158  0.00  0.00     0.002 A 
ATOM      3  C3  N4B d   1       2.528   2.273  -0.050  0.00  0.00     0.002 A 
ATOM      4  C4  N4B d   1       1.831   3.446   0.201  0.00  0.00    -0.004 A 
ATOM      5  C5  N4B d   1       0.479   3.409   0.383  0.00  0.00     0.002 A 
ATOM      6  C6  N4B d   1      -0.220   2.223   0.282  0.00  0.00     0.002 A 
ENDROOT
BRANCH   1   7
ATOM      7  C1' N4B d   1      -0.357  -0.198  -0.187  0.00  0.00     0.057 C 
BRANCH   7   8
ATOM      8  C2' N4B d   1      -0.179  -1.096   1.033  0.00  0.00     0.009 C 
BRANCH   8   9
ATOM      9  C3' N4B d   1       0.563  -2.377   0.692  0.00  0.00     0.004 C 
ATOM     10  C4' N4B d   1       1.979  -2.377   1.186  0.00  0.00     0.003 C 
ENDBRANCH   8   9
ENDBRANCH   7   8
ENDBRANCH   1   7
TORSDOF 3
ENDMDL
