MODEL 1
REMARK minimizedAffinity -1.6304121
REMARK minimizedRMSD -1
REMARK  3 active torsions:
REMARK  status: ('A' for Active; 'I' for Inactive)
REMARK    1  A    between atoms: C3'_2  and  C2'_3 
REMARK    2  A    between atoms: C2'_3  and  C1'_4 
REMARK    3  A    between atoms: C1'_4  and  C1_5 
ROOT
ATOM      1  C1  N4B d   1       0.534  -0.255   0.072  0.00  0.00    -0.075 A 
ATOM      2  C2  N4B d   1      -0.525  -1.011   0.622  0.00  0.00     0.002 A 
ATOM      3  C3  N4B d   1      -0.273  -2.242   1.177  0.00  0.00     0.002 A 
ATOM      4  C4  N4B d   1       1.020  -2.743   1.178  0.00  0.00    -0.004 A 
ATOM      5  C5  N4B d   1       2.041  -1.995   0.668  0.00  0.00     0.002 A 
ATOM      6  C6  N4B d   1       1.803  -0.755   0.110  0.00  0.00     0.002 A 
ENDROOT
BRANCH   1   7
ATOM      7  C1' N4B d   1       0.295   1.057  -0.623  0.00  0.00     0.057 C 
BRANCH   7   8
ATOM      8  C2' N4B d   1      -1.183   1.171  -0.985  0.00  0.00     0.009 C 
BRANCH   8   9
ATOM      9  C3' N4B d   1      -1.390   1.867  -2.319  0.00  0.00     0.004 C 
ATOM     10  C4' N4B d   1      -2.704   1.524  -2.955  0.00  0.00     0.003 C 
ENDBRANCH   8   9
ENDBRANCH   7   8
ENDBRANCH   1   7
TORSDOF 3
ENDMDL
