MODEL 1
REMARK minimizedAffinity -6.62326384
REMARK minimizedRMSD -1
REMARK  0 active torsions:
REMARK  status: ('A' for Active; 'I' for Inactive)
ROOT
ATOM      1  N1  IND d   1       0.882  -0.556  -0.560  0.00  0.00    -0.196 N 
ATOM      2  C2  IND d   1      -0.323  -0.833   0.023  0.00  0.00     0.054 A 
ATOM      3  C3  IND d   1      -0.625   0.105   0.949  0.00  0.00    -0.031 A 
ATOM      4  C4  IND d   1       0.665   2.236   1.597  0.00  0.00     0.051 A 
ATOM      5  C5  IND d   1       1.838   2.898   1.365  0.00  0.00    -0.031 A 
ATOM      6  C6  IND d   1       2.769   2.435   0.459  0.00  0.00     0.015 A 
ATOM      7  C7  IND d   1       2.557   1.293  -0.260  0.00  0.00    -0.016 A 
ATOM      8  C8  IND d   1       1.370   0.614  -0.022  0.00  0.00    -0.047 A 
ATOM      9  C9  IND d   1       0.440   1.057   0.928  0.00  0.00    -0.096 A 
ATOM     10  HN1 IND d   1       1.269  -1.033  -1.161  0.00  0.00     0.298 HD
ENDROOT
TORSDOF 0
ENDMDL
