MODEL 1
REMARK minimizedAffinity -5.17557716
REMARK minimizedRMSD -1
REMARK  0 active torsions:
REMARK  status: ('A' for Active; 'I' for Inactive)
ROOT
ATOM      1  N1  IND d   1       0.107  -0.459  -0.553  0.00  0.00    -0.196 N 
ATOM      2  C2  IND d   1      -1.102  -0.069  -0.048  0.00  0.00     0.054 A 
ATOM      3  C3  IND d   1      -0.962   1.051   0.696  0.00  0.00    -0.031 A 
ATOM      4  C4  IND d   1       1.140   2.469   1.137  0.00  0.00     0.051 A 
ATOM      5  C5  IND d   1       2.489   2.493   0.918  0.00  0.00    -0.031 A 
ATOM      6  C6  IND d   1       3.125   1.516   0.180  0.00  0.00     0.015 A 
ATOM      7  C7  IND d   1       2.431   0.480  -0.378  0.00  0.00    -0.016 A 
ATOM      8  C8  IND d   1       1.063   0.448  -0.151  0.00  0.00    -0.047 A 
ATOM      9  C9  IND d   1       0.418   1.414   0.632  0.00  0.00    -0.096 A 
ATOM     10  HN1 IND d   1       0.247  -1.155  -1.038  0.00  0.00     0.298 HD
ENDROOT
TORSDOF 0
ENDMDL
