MODEL 1
REMARK minimizedAffinity -6.7078476
REMARK minimizedRMSD -1
REMARK  0 active torsions:
REMARK  status: ('A' for Active; 'I' for Inactive)
ROOT
ATOM      1  N1  IND d   1       1.083  -0.514  -0.392  0.00  0.00    -0.196 N 
ATOM      2  C2  IND d   1      -0.144  -0.693   0.185  0.00  0.00     0.054 A 
ATOM      3  C3  IND d   1      -0.412   0.316   1.043  0.00  0.00    -0.031 A 
ATOM      4  C4  IND d   1       0.974   2.419   1.579  0.00  0.00     0.051 A 
ATOM      5  C5  IND d   1       2.182   3.006   1.327  0.00  0.00    -0.031 A 
ATOM      6  C6  IND d   1       3.103   2.440   0.469  0.00  0.00     0.015 A 
ATOM      7  C7  IND d   1       2.844   1.266  -0.180  0.00  0.00    -0.016 A 
ATOM      8  C8  IND d   1       1.621   0.663   0.079  0.00  0.00    -0.047 A 
ATOM      9  C9  IND d   1       0.700   1.211   0.981  0.00  0.00    -0.096 A 
ATOM     10  HN1 IND d   1       1.455  -1.047  -0.955  0.00  0.00     0.298 HD
ENDROOT
TORSDOF 0
ENDMDL
