MODEL 1
REMARK minimizedAffinity -3.96270561
REMARK minimizedRMSD -1
REMARK  0 active torsions:
REMARK  status: ('A' for Active; 'I' for Inactive)
ROOT
ATOM      1  N1  IND d   1       0.732  -0.461  -0.506  0.00  0.00    -0.196 N 
ATOM      2  C2  IND d   1      -0.594  -0.171  -0.344  0.00  0.00     0.054 A 
ATOM      3  C3  IND d   1      -0.743   0.954   0.390  0.00  0.00    -0.031 A 
ATOM      4  C4  IND d   1       1.051   2.535   1.342  0.00  0.00     0.051 A 
ATOM      5  C5  IND d   1       2.404   2.668   1.485  0.00  0.00    -0.031 A 
ATOM      6  C6  IND d   1       3.287   1.747   0.958  0.00  0.00     0.015 A 
ATOM      7  C7  IND d   1       2.847   0.661   0.256  0.00  0.00    -0.016 A 
ATOM      8  C8  IND d   1       1.474   0.519   0.115  0.00  0.00    -0.047 A 
ATOM      9  C9  IND d   1       0.572   1.427   0.684  0.00  0.00    -0.096 A 
ATOM     10  HN1 IND d   1       1.049  -1.142  -0.925  0.00  0.00     0.298 HD
ENDROOT
TORSDOF 0
ENDMDL
