MODEL 1
REMARK minimizedAffinity -1.64651549
REMARK minimizedRMSD -1
REMARK  0 active torsions:
REMARK  status: ('A' for Active; 'I' for Inactive)
ROOT
ATOM      1  N1  IND d   1       0.284   0.251  -1.897  0.00  0.00    -0.196 N 
ATOM      2  C2  IND d   1      -0.637  -0.759  -1.923  0.00  0.00     0.054 A 
ATOM      3  C3  IND d   1      -1.134  -0.975  -0.684  0.00  0.00    -0.031 A 
ATOM      4  C4  IND d   1      -0.652   0.278   1.512  0.00  0.00     0.051 A 
ATOM      5  C5  IND d   1       0.145   1.252   2.044  0.00  0.00    -0.031 A 
ATOM      6  C6  IND d   1       1.046   1.959   1.274  0.00  0.00     0.015 A 
ATOM      7  C7  IND d   1       1.175   1.724  -0.066  0.00  0.00    -0.016 A 
ATOM      8  C8  IND d   1       0.372   0.730  -0.608  0.00  0.00    -0.047 A 
ATOM      9  C9  IND d   1      -0.513  -0.019   0.177  0.00  0.00    -0.096 A 
ATOM     10  HN1 IND d   1       0.733   0.539  -2.571  0.00  0.00     0.298 HD
ENDROOT
TORSDOF 0
ENDMDL
