MODEL 1
REMARK minimizedAffinity -6.09431314
REMARK minimizedRMSD -1
REMARK  0 active torsions:
REMARK  status: ('A' for Active; 'I' for Inactive)
ROOT
ATOM      1  N1  IND d   1       0.668  -0.717  -0.326  0.00  0.00    -0.196 N 
ATOM      2  C2  IND d   1      -0.574  -0.800   0.238  0.00  0.00     0.054 A 
ATOM      3  C3  IND d   1      -0.739   0.177   1.158  0.00  0.00    -0.031 A 
ATOM      4  C4  IND d   1       0.860   2.082   1.825  0.00  0.00     0.051 A 
ATOM      5  C5  IND d   1       2.126   2.550   1.611  0.00  0.00    -0.031 A 
ATOM      6  C6  IND d   1       2.987   1.943   0.719  0.00  0.00     0.015 A 
ATOM      7  C7  IND d   1       2.608   0.847  -0.002  0.00  0.00    -0.016 A 
ATOM      8  C8  IND d   1       1.326   0.364   0.218  0.00  0.00    -0.047 A 
ATOM      9  C9  IND d   1       0.463   0.950   1.153  0.00  0.00    -0.096 A 
ATOM     10  HN1 IND d   1       0.985  -1.250  -0.922  0.00  0.00     0.298 HD
ENDROOT
TORSDOF 0
ENDMDL
