MODEL 1
REMARK minimizedAffinity -0.135550097
REMARK minimizedRMSD -1
REMARK  0 active torsions:
REMARK  status: ('A' for Active; 'I' for Inactive)
ROOT
ATOM      1  N1  IND d   1       0.784   1.853   2.469  0.00  0.00    -0.196 N 
ATOM      2  C2  IND d   1       1.708   2.756   2.022  0.00  0.00     0.054 A 
ATOM      3  C3  IND d   1       1.977   2.547   0.714  0.00  0.00    -0.031 A 
ATOM      4  C4  IND d   1       0.942   0.844  -0.916  0.00  0.00     0.051 A 
ATOM      5  C5  IND d   1       0.082  -0.218  -0.962  0.00  0.00    -0.031 A 
ATOM      6  C6  IND d   1      -0.603  -0.650   0.154  0.00  0.00     0.015 A 
ATOM      7  C7  IND d   1      -0.463  -0.027   1.362  0.00  0.00    -0.016 A 
ATOM      8  C8  IND d   1       0.415   1.046   1.415  0.00  0.00    -0.047 A 
ATOM      9  C9  IND d   1       1.145   1.463   0.295  0.00  0.00    -0.096 A 
ATOM     10  HN1 IND d   1       0.484   1.798   3.273  0.00  0.00     0.298 HD
ENDROOT
TORSDOF 0
ENDMDL
