MODEL 1
REMARK minimizedAffinity -4.76581573
REMARK minimizedRMSD -1
REMARK  0 active torsions:
REMARK  status: ('A' for Active; 'I' for Inactive)
ROOT
ATOM      1  N1  IND d   1       0.598  -1.128  -0.524  0.00  0.00    -0.196 N 
ATOM      2  C2  IND d   1      -0.723  -0.800  -0.399  0.00  0.00     0.054 A 
ATOM      3  C3  IND d   1      -0.852   0.446   0.110  0.00  0.00    -0.031 A 
ATOM      4  C4  IND d   1       0.969   2.162   0.715  0.00  0.00     0.051 A 
ATOM      5  C5  IND d   1       2.325   2.306   0.809  0.00  0.00    -0.031 A 
ATOM      6  C6  IND d   1       3.192   1.293   0.452  0.00  0.00     0.015 A 
ATOM      7  C7  IND d   1       2.733   0.097  -0.023  0.00  0.00    -0.016 A 
ATOM      8  C8  IND d   1       1.357  -0.055  -0.112  0.00  0.00    -0.047 A 
ATOM      9  C9  IND d   1       0.471   0.953   0.288  0.00  0.00    -0.096 A 
ATOM     10  HN1 IND d   1       0.903  -1.879  -0.811  0.00  0.00     0.298 HD
ENDROOT
TORSDOF 0
ENDMDL
