MODEL 1
REMARK minimizedAffinity -6.45988321
REMARK minimizedRMSD -1
REMARK  0 active torsions:
REMARK  status: ('A' for Active; 'I' for Inactive)
ROOT
ATOM      1  N1  IND d   1       0.499  -0.382  -0.406  0.00  0.00    -0.196 N 
ATOM      2  C2  IND d   1      -0.756  -0.525   0.117  0.00  0.00     0.054 A 
ATOM      3  C3  IND d   1      -0.977   0.410   1.069  0.00  0.00    -0.031 A 
ATOM      4  C4  IND d   1       0.542   2.334   1.857  0.00  0.00     0.051 A 
ATOM      5  C5  IND d   1       1.798   2.848   1.698  0.00  0.00    -0.031 A 
ATOM      6  C6  IND d   1       2.703   2.303   0.811  0.00  0.00     0.015 A 
ATOM      7  C7  IND d   1       2.380   1.225   0.036  0.00  0.00    -0.016 A 
ATOM      8  C8  IND d   1       1.107   0.695   0.199  0.00  0.00    -0.047 A 
ATOM      9  C9  IND d   1       0.200   1.218   1.129  0.00  0.00    -0.096 A 
ATOM     10  HN1 IND d   1       0.850  -0.882  -1.012  0.00  0.00     0.298 HD
ENDROOT
TORSDOF 0
ENDMDL
