MODEL 1
REMARK minimizedAffinity -4.62776279
REMARK minimizedRMSD -1
REMARK  0 active torsions:
REMARK  status: ('A' for Active; 'I' for Inactive)
ROOT
ATOM      1  N1  IND d   1       1.693  -0.206  -0.804  0.00  0.00    -0.196 N 
ATOM      2  C2  IND d   1       3.030   0.073  -0.860  0.00  0.00     0.054 A 
ATOM      3  C3  IND d   1       3.324   1.130  -0.071  0.00  0.00    -0.031 A 
ATOM      4  C4  IND d   1       1.786   2.491   1.481  0.00  0.00     0.051 A 
ATOM      5  C5  IND d   1       0.476   2.634   1.843  0.00  0.00    -0.031 A 
ATOM      6  C6  IND d   1      -0.515   1.821   1.333  0.00  0.00     0.015 A 
ATOM      7  C7  IND d   1      -0.230   0.821   0.447  0.00  0.00    -0.016 A 
ATOM      8  C8  IND d   1       1.098   0.677   0.072  0.00  0.00    -0.047 A 
ATOM      9  C9  IND d   1       2.102   1.527   0.553  0.00  0.00    -0.096 A 
ATOM     10  HN1 IND d   1       1.291  -0.827  -1.241  0.00  0.00     0.298 HD
ENDROOT
TORSDOF 0
ENDMDL
