MODEL 1
REMARK minimizedAffinity -0.262022436
REMARK minimizedRMSD -1
REMARK  0 active torsions:
REMARK  status: ('A' for Active; 'I' for Inactive)
ROOT
ATOM      1  N1  IND d   1       2.532   0.667  -0.972  0.00  0.00    -0.196 N 
ATOM      2  C2  IND d   1       2.553   1.923  -0.431  0.00  0.00     0.054 A 
ATOM      3  C3  IND d   1       1.410   2.162   0.249  0.00  0.00    -0.031 A 
ATOM      4  C4  IND d   1      -0.588   0.599   0.689  0.00  0.00     0.051 A 
ATOM      5  C5  IND d   1      -1.082  -0.635   0.369  0.00  0.00    -0.031 A 
ATOM      6  C6  IND d   1      -0.381  -1.516  -0.428  0.00  0.00     0.015 A 
ATOM      7  C7  IND d   1       0.851  -1.200  -0.928  0.00  0.00    -0.016 A 
ATOM      8  C8  IND d   1       1.352   0.055  -0.611  0.00  0.00    -0.047 A 
ATOM      9  C9  IND d   1       0.627   0.970   0.163  0.00  0.00    -0.096 A 
ATOM     10  HN1 IND d   1       3.151   0.319  -1.456  0.00  0.00     0.298 HD
ENDROOT
TORSDOF 0
ENDMDL
