MODEL 1
REMARK minimizedAffinity -5.30003643
REMARK minimizedRMSD -1
REMARK  0 active torsions:
REMARK  status: ('A' for Active; 'I' for Inactive)
ROOT
ATOM      1  N1  IND d   1       0.337  -0.725  -0.526  0.00  0.00    -0.196 N 
ATOM      2  C2  IND d   1      -0.950  -0.734  -0.063  0.00  0.00     0.054 A 
ATOM      3  C3  IND d   1      -1.146   0.287   0.801  0.00  0.00    -0.031 A 
ATOM      4  C4  IND d   1       0.475   2.153   1.521  0.00  0.00     0.051 A 
ATOM      5  C5  IND d   1       1.773   2.562   1.393  0.00  0.00    -0.031 A 
ATOM      6  C6  IND d   1       2.676   1.884   0.601  0.00  0.00     0.015 A 
ATOM      7  C7  IND d   1       2.310   0.773  -0.106  0.00  0.00    -0.016 A 
ATOM      8  C8  IND d   1       0.995   0.351   0.028  0.00  0.00    -0.047 A 
ATOM      9  C9  IND d   1       0.085   1.011   0.864  0.00  0.00    -0.096 A 
ATOM     10  HN1 IND d   1       0.677  -1.296  -1.072  0.00  0.00     0.298 HD
ENDROOT
TORSDOF 0
ENDMDL
