MODEL 1
REMARK minimizedAffinity -4.18938589
REMARK minimizedRMSD -1
REMARK  0 active torsions:
REMARK  status: ('A' for Active; 'I' for Inactive)
ROOT
ATOM      1  N1  IND d   1       1.274  -0.696  -0.520  0.00  0.00    -0.196 N 
ATOM      2  C2  IND d   1      -0.011  -1.163  -0.516  0.00  0.00     0.054 A 
ATOM      3  C3  IND d   1      -0.795  -0.376   0.253  0.00  0.00    -0.031 A 
ATOM      4  C4  IND d   1      -0.202   1.788   1.516  0.00  0.00     0.051 A 
ATOM      5  C5  IND d   1       0.855   2.591   1.840  0.00  0.00    -0.031 A 
ATOM      6  C6  IND d   1       2.132   2.335   1.382  0.00  0.00     0.015 A 
ATOM      7  C7  IND d   1       2.397   1.269   0.570  0.00  0.00    -0.016 A 
ATOM      8  C8  IND d   1       1.327   0.448   0.245  0.00  0.00    -0.047 A 
ATOM      9  C9  IND d   1       0.037   0.678   0.741  0.00  0.00    -0.096 A 
ATOM     10  HN1 IND d   1       1.937  -1.057  -0.932  0.00  0.00     0.298 HD
ENDROOT
TORSDOF 0
ENDMDL
