MODEL 1
REMARK minimizedAffinity -6.53747272
REMARK minimizedRMSD -1
REMARK  0 active torsions:
REMARK  status: ('A' for Active; 'I' for Inactive)
ROOT
ATOM      1  N1  IND d   1       2.304  -0.820  -0.337  0.00  0.00    -0.196 N 
ATOM      2  C2  IND d   1       1.067  -1.382  -0.486  0.00  0.00     0.054 A 
ATOM      3  C3  IND d   1       0.110  -0.539  -0.037  0.00  0.00    -0.031 A 
ATOM      4  C4  IND d   1       0.341   1.852   0.889  0.00  0.00     0.051 A 
ATOM      5  C5  IND d   1       1.276   2.782   1.249  0.00  0.00    -0.031 A 
ATOM      6  C6  IND d   1       2.628   2.556   1.094  0.00  0.00     0.015 A 
ATOM      7  C7  IND d   1       3.098   1.390   0.559  0.00  0.00    -0.016 A 
ATOM      8  C8  IND d   1       2.152   0.440   0.198  0.00  0.00    -0.047 A 
ATOM      9  C9  IND d   1       0.780   0.648   0.393  0.00  0.00    -0.096 A 
ATOM     10  HN1 IND d   1       3.052  -1.192  -0.543  0.00  0.00     0.298 HD
ENDROOT
TORSDOF 0
ENDMDL
