MODEL 1
REMARK minimizedAffinity -2.07751679
REMARK minimizedRMSD -1
REMARK  0 active torsions:
REMARK  status: ('A' for Active; 'I' for Inactive)
ROOT
ATOM      1  N1  IND d   1      -0.020  -0.247   0.031  0.00  0.00    -0.196 N 
ATOM      2  C2  IND d   1      -1.220  -0.068   0.661  0.00  0.00     0.054 A 
ATOM      3  C3  IND d   1      -1.166   1.007   1.478  0.00  0.00    -0.031 A 
ATOM      4  C4  IND d   1       0.756   2.676   1.861  0.00  0.00     0.051 A 
ATOM      5  C5  IND d   1       2.063   2.906   1.537  0.00  0.00    -0.031 A 
ATOM      6  C6  IND d   1       2.757   2.082   0.674  0.00  0.00     0.015 A 
ATOM      7  C7  IND d   1       2.162   0.998   0.093  0.00  0.00    -0.016 A 
ATOM      8  C8  IND d   1       0.836   0.757   0.425  0.00  0.00    -0.047 A 
ATOM      9  C9  IND d   1       0.140   1.566   1.333  0.00  0.00    -0.096 A 
ATOM     10  HN1 IND d   1       0.169  -0.881  -0.519  0.00  0.00     0.298 HD
ENDROOT
TORSDOF 0
ENDMDL
