MODEL 1
REMARK minimizedAffinity -2.82955003
REMARK minimizedRMSD -1
REMARK  0 active torsions:
REMARK  status: ('A' for Active; 'I' for Inactive)
ROOT
ATOM      1  N1  IND d   1       3.034   0.207  -0.307  0.00  0.00    -0.196 N 
ATOM      2  C2  IND d   1       3.060   1.519   0.076  0.00  0.00     0.054 A 
ATOM      3  C3  IND d   1       1.802   1.993   0.217  0.00  0.00    -0.031 A 
ATOM      4  C4  IND d   1      -0.446   0.763  -0.029  0.00  0.00     0.051 A 
ATOM      5  C5  IND d   1      -0.982  -0.438  -0.402  0.00  0.00    -0.031 A 
ATOM      6  C6  IND d   1      -0.190  -1.508  -0.767  0.00  0.00     0.015 A 
ATOM      7  C7  IND d   1       1.173  -1.419  -0.762  0.00  0.00    -0.016 A 
ATOM      8  C8  IND d   1       1.721  -0.199  -0.391  0.00  0.00    -0.047 A 
ATOM      9  C9  IND d   1       0.921   0.903  -0.060  0.00  0.00    -0.096 A 
ATOM     10  HN1 IND d   1       3.723  -0.282  -0.469  0.00  0.00     0.298 HD
ENDROOT
TORSDOF 0
ENDMDL
