MODEL 1
REMARK minimizedAffinity 3.05855179
REMARK minimizedRMSD -1
REMARK  2 active torsions:
REMARK  status: ('A' for Active; 'I' for Inactive)
REMARK    1  A    between atoms: C1_2  and  C2_3 
REMARK    2  A    between atoms: C2_3  and  C3_4 
ROOT
ATOM      1  C3  UNL d   1       0.304   0.526   2.032  0.00  0.00    -0.075 A 
ATOM      2  C4  UNL d   1      -1.063   0.610   1.730  0.00  0.00     0.002 A 
ATOM      3  C5  UNL d   1      -1.845   1.636   2.262  0.00  0.00     0.002 A 
ATOM      4  C6  UNL d   1      -1.273   2.583   3.109  0.00  0.00    -0.004 A 
ATOM      5  C7  UNL d   1       0.080   2.500   3.429  0.00  0.00     0.002 A 
ATOM      6  C8  UNL d   1       0.866   1.477   2.894  0.00  0.00     0.002 A 
ENDROOT
BRANCH   1   7
ATOM      7  C2  UNL d   1       1.162  -0.564   1.436  0.00  0.00     0.056 C 
BRANCH   7   8
ATOM      8  C1  UNL d   1       2.634  -0.177   1.264  0.00  0.00     0.007 C 
ATOM      9  C   UNL d   1       2.889   0.683   0.033  0.00  0.00     0.009 C 
ENDBRANCH   7   8
ENDBRANCH   1   7
TORSDOF 2
ENDMDL
