MODEL 1
REMARK minimizedAffinity 9.64580345
REMARK minimizedRMSD -1
REMARK  2 active torsions:
REMARK  status: ('A' for Active; 'I' for Inactive)
REMARK    1  A    between atoms: C1_2  and  C2_3 
REMARK    2  A    between atoms: C2_3  and  C3_4 
ROOT
ATOM      1  C3  UNL d   1      -1.353  -1.057   1.113  0.00  0.00    -0.075 A 
ATOM      2  C4  UNL d   1      -1.926   0.145   0.673  0.00  0.00     0.002 A 
ATOM      3  C5  UNL d   1      -1.360   1.370   1.026  0.00  0.00     0.002 A 
ATOM      4  C6  UNL d   1      -0.222   1.410   1.829  0.00  0.00    -0.004 A 
ATOM      5  C7  UNL d   1       0.346   0.223   2.285  0.00  0.00     0.002 A 
ATOM      6  C8  UNL d   1      -0.215  -1.005   1.930  0.00  0.00     0.002 A 
ENDROOT
BRANCH   1   7
ATOM      7  C2  UNL d   1      -1.943  -2.387   0.711  0.00  0.00     0.056 C 
BRANCH   7   8
ATOM      8  C1  UNL d   1      -1.194  -3.599   1.276  0.00  0.00     0.007 C 
ATOM      9  C   UNL d   1      -1.901  -4.920   1.008  0.00  0.00     0.009 C 
ENDBRANCH   7   8
ENDBRANCH   1   7
TORSDOF 2
ENDMDL
