MODEL 1
REMARK minimizedAffinity 3.43719006
REMARK minimizedRMSD -1
REMARK  2 active torsions:
REMARK  status: ('A' for Active; 'I' for Inactive)
REMARK    1  A    between atoms: C1_2  and  C2_3 
REMARK    2  A    between atoms: C2_3  and  C3_4 
ROOT
ATOM      1  C3  UNL d   1      -2.367   1.406   2.899  0.00  0.00    -0.075 A 
ATOM      2  C4  UNL d   1      -2.805   1.269   1.574  0.00  0.00     0.002 A 
ATOM      3  C5  UNL d   1      -1.947   0.773   0.592  0.00  0.00     0.002 A 
ATOM      4  C6  UNL d   1      -0.640   0.418   0.919  0.00  0.00    -0.004 A 
ATOM      5  C7  UNL d   1      -0.189   0.566   2.229  0.00  0.00     0.002 A 
ATOM      6  C8  UNL d   1      -1.047   1.057   3.215  0.00  0.00     0.002 A 
ENDROOT
BRANCH   1   7
ATOM      7  C2  UNL d   1      -3.300   1.914   3.973  0.00  0.00     0.056 C 
BRANCH   7   8
ATOM      8  C1  UNL d   1      -3.638   0.876   5.048  0.00  0.00     0.007 C 
ATOM      9  C   UNL d   1      -4.754   1.323   5.983  0.00  0.00     0.009 C 
ENDBRANCH   7   8
ENDBRANCH   1   7
TORSDOF 2
ENDMDL
