MODEL 1
REMARK minimizedAffinity 0.523917735
REMARK minimizedRMSD -1
REMARK  2 active torsions:
REMARK  status: ('A' for Active; 'I' for Inactive)
REMARK    1  A    between atoms: C1_2  and  C2_3 
REMARK    2  A    between atoms: C2_3  and  C3_4 
ROOT
ATOM      1  C3  UNL d   1      -4.108   1.305   4.008  0.00  0.00    -0.075 A 
ATOM      2  C4  UNL d   1      -4.133   1.130   5.399  0.00  0.00     0.002 A 
ATOM      3  C5  UNL d   1      -5.071   0.282   5.990  0.00  0.00     0.002 A 
ATOM      4  C6  UNL d   1      -6.000  -0.391   5.200  0.00  0.00    -0.004 A 
ATOM      5  C7  UNL d   1      -5.995  -0.212   3.818  0.00  0.00     0.002 A 
ATOM      6  C8  UNL d   1      -5.055   0.632   3.224  0.00  0.00     0.002 A 
ENDROOT
BRANCH   1   7
ATOM      7  C2  UNL d   1      -3.077   2.198   3.360  0.00  0.00     0.056 C 
BRANCH   7   8
ATOM      8  C1  UNL d   1      -2.222   1.496   2.299  0.00  0.00     0.007 C 
ATOM      9  C   UNL d   1      -0.734   1.507   2.623  0.00  0.00     0.009 C 
ENDBRANCH   7   8
ENDBRANCH   1   7
TORSDOF 2
ENDMDL
