MODEL 1
REMARK minimizedAffinity 9.25999641
REMARK minimizedRMSD -1
REMARK  2 active torsions:
REMARK  status: ('A' for Active; 'I' for Inactive)
REMARK    1  A    between atoms: C1_2  and  C2_3 
REMARK    2  A    between atoms: C2_3  and  C3_4 
ROOT
ATOM      1  C3  UNL d   1       2.595  -1.686   2.517  0.00  0.00    -0.075 A 
ATOM      2  C4  UNL d   1       3.679  -0.825   2.736  0.00  0.00     0.002 A 
ATOM      3  C5  UNL d   1       3.801   0.360   2.009  0.00  0.00     0.002 A 
ATOM      4  C6  UNL d   1       2.849   0.692   1.048  0.00  0.00    -0.004 A 
ATOM      5  C7  UNL d   1       1.776  -0.165   0.810  0.00  0.00     0.002 A 
ATOM      6  C8  UNL d   1       1.649  -1.348   1.540  0.00  0.00     0.002 A 
ENDROOT
BRANCH   1   7
ATOM      7  C2  UNL d   1       2.441  -2.955   3.321  0.00  0.00     0.056 C 
BRANCH   7   8
ATOM      8  C1  UNL d   1       3.023  -4.199   2.642  0.00  0.00     0.007 C 
ATOM      9  C   UNL d   1       2.037  -4.891   1.710  0.00  0.00     0.009 C 
ENDBRANCH   7   8
ENDBRANCH   1   7
TORSDOF 2
ENDMDL
