MODEL 1
REMARK minimizedAffinity 4.64494705
REMARK minimizedRMSD -1
REMARK  2 active torsions:
REMARK  status: ('A' for Active; 'I' for Inactive)
REMARK    1  A    between atoms: C1_2  and  C2_3 
REMARK    2  A    between atoms: C2_3  and  C3_4 
ROOT
ATOM      1  C3  UNL d   1      -5.029   3.129   5.669  0.00  0.00    -0.075 A 
ATOM      2  C4  UNL d   1      -5.790   4.299   5.813  0.00  0.00     0.002 A 
ATOM      3  C5  UNL d   1      -5.164   5.536   5.972  0.00  0.00     0.002 A 
ATOM      4  C6  UNL d   1      -3.774   5.618   5.999  0.00  0.00    -0.004 A 
ATOM      5  C7  UNL d   1      -3.008   4.461   5.874  0.00  0.00     0.002 A 
ATOM      6  C8  UNL d   1      -3.631   3.222   5.711  0.00  0.00     0.002 A 
ENDROOT
BRANCH   1   7
ATOM      7  C2  UNL d   1      -5.700   1.792   5.468  0.00  0.00     0.056 C 
BRANCH   7   8
ATOM      8  C1  UNL d   1      -5.051   0.926   4.382  0.00  0.00     0.007 C 
ATOM      9  C   UNL d   1      -5.854   0.885   3.088  0.00  0.00     0.009 C 
ENDBRANCH   7   8
ENDBRANCH   1   7
TORSDOF 2
ENDMDL
