MODEL 1
REMARK minimizedAffinity 7.99975252
REMARK minimizedRMSD -1
REMARK  2 active torsions:
REMARK  status: ('A' for Active; 'I' for Inactive)
REMARK    1  A    between atoms: C1_2  and  C2_3 
REMARK    2  A    between atoms: C2_3  and  C3_4 
ROOT
ATOM      1  C3  UNL d   1      -3.139   4.667   5.914  0.00  0.00    -0.075 A 
ATOM      2  C4  UNL d   1      -3.888   3.481   5.950  0.00  0.00     0.002 A 
ATOM      3  C5  UNL d   1      -5.282   3.524   5.956  0.00  0.00     0.002 A 
ATOM      4  C6  UNL d   1      -5.945   4.749   5.937  0.00  0.00    -0.004 A 
ATOM      5  C7  UNL d   1      -5.212   5.933   5.919  0.00  0.00     0.002 A 
ATOM      6  C8  UNL d   1      -3.816   5.894   5.908  0.00  0.00     0.002 A 
ENDROOT
BRANCH   1   7
ATOM      7  C2  UNL d   1      -1.630   4.627   5.878  0.00  0.00     0.056 C 
BRANCH   7   8
ATOM      8  C1  UNL d   1      -1.041   4.613   4.463  0.00  0.00     0.007 C 
ATOM      9  C   UNL d   1      -1.962   5.235   3.423  0.00  0.00     0.009 C 
ENDBRANCH   7   8
ENDBRANCH   1   7
TORSDOF 2
ENDMDL
