MODEL 1
REMARK minimizedAffinity 6.55283546
REMARK minimizedRMSD -1
REMARK  2 active torsions:
REMARK  status: ('A' for Active; 'I' for Inactive)
REMARK    1  A    between atoms: C1_2  and  C2_3 
REMARK    2  A    between atoms: C2_3  and  C3_4 
ROOT
ATOM      1  C3  UNL d   1       3.030   0.292  -5.051  0.00  0.00    -0.075 A 
ATOM      2  C4  UNL d   1       3.748  -0.003  -3.883  0.00  0.00     0.002 A 
ATOM      3  C5  UNL d   1       3.328  -1.028  -3.034  0.00  0.00     0.002 A 
ATOM      4  C6  UNL d   1       2.183  -1.762  -3.336  0.00  0.00    -0.004 A 
ATOM      5  C7  UNL d   1       1.453  -1.466  -4.486  0.00  0.00     0.002 A 
ATOM      6  C8  UNL d   1       1.873  -0.444  -5.339  0.00  0.00     0.002 A 
ENDROOT
BRANCH   1   7
ATOM      7  C2  UNL d   1       3.496   1.381  -5.989  0.00  0.00     0.056 C 
BRANCH   7   8
ATOM      8  C1  UNL d   1       2.616   2.635  -5.973  0.00  0.00     0.007 C 
ATOM      9  C   UNL d   1       3.417   3.931  -6.000  0.00  0.00     0.009 C 
ENDBRANCH   7   8
ENDBRANCH   1   7
TORSDOF 2
ENDMDL
