MODEL 1
REMARK minimizedAffinity 10.2295904
REMARK minimizedRMSD -1
REMARK  2 active torsions:
REMARK  status: ('A' for Active; 'I' for Inactive)
REMARK    1  A    between atoms: C1_2  and  C2_3 
REMARK    2  A    between atoms: C2_3  and  C3_4 
ROOT
ATOM      1  C3  UNL d   1      -3.326  -1.775   3.570  0.00  0.00    -0.075 A 
ATOM      2  C4  UNL d   1      -2.999  -1.169   4.792  0.00  0.00     0.002 A 
ATOM      3  C5  UNL d   1      -3.331  -1.785   5.999  0.00  0.00     0.002 A 
ATOM      4  C6  UNL d   1      -4.002  -3.006   6.000  0.00  0.00    -0.004 A 
ATOM      5  C7  UNL d   1      -4.346  -3.609   4.792  0.00  0.00     0.002 A 
ATOM      6  C8  UNL d   1      -4.011  -2.997   3.582  0.00  0.00     0.002 A 
ENDROOT
BRANCH   1   7
ATOM      7  C2  UNL d   1      -2.943  -1.128   2.260  0.00  0.00     0.056 C 
BRANCH   7   8
ATOM      8  C1  UNL d   1      -3.322  -1.950   1.024  0.00  0.00     0.007 C 
ATOM      9  C   UNL d   1      -4.013  -1.127  -0.056  0.00  0.00     0.009 C 
ENDBRANCH   7   8
ENDBRANCH   1   7
TORSDOF 2
ENDMDL
