MODEL 1
REMARK minimizedAffinity 13.1341677
REMARK minimizedRMSD -1
REMARK  2 active torsions:
REMARK  status: ('A' for Active; 'I' for Inactive)
REMARK    1  A    between atoms: C1_2  and  C2_3 
REMARK    2  A    between atoms: C2_3  and  C3_4 
ROOT
ATOM      1  C3  UNL d   1      -3.869   3.870   4.886  0.00  0.00    -0.075 A 
ATOM      2  C4  UNL d   1      -3.724   4.890   5.837  0.00  0.00     0.002 A 
ATOM      3  C5  UNL d   1      -2.647   5.774   5.769  0.00  0.00     0.002 A 
ATOM      4  C6  UNL d   1      -1.699   5.645   4.757  0.00  0.00    -0.004 A 
ATOM      5  C7  UNL d   1      -1.824   4.625   3.816  0.00  0.00     0.002 A 
ATOM      6  C8  UNL d   1      -2.903   3.742   3.879  0.00  0.00     0.002 A 
ENDROOT
BRANCH   1   7
ATOM      7  C2  UNL d   1      -5.049   2.928   4.937  0.00  0.00     0.056 C 
BRANCH   7   8
ATOM      8  C1  UNL d   1      -4.709   1.533   5.471  0.00  0.00     0.007 C 
ATOM      9  C   UNL d   1      -5.893   0.575   5.442  0.00  0.00     0.009 C 
ENDBRANCH   7   8
ENDBRANCH   1   7
TORSDOF 2
ENDMDL
