MODEL 1
REMARK minimizedAffinity 0.188616306
REMARK minimizedRMSD -1
REMARK  2 active torsions:
REMARK  status: ('A' for Active; 'I' for Inactive)
REMARK    1  A    between atoms: C1_2  and  C2_3 
REMARK    2  A    between atoms: C2_3  and  C3_4 
ROOT
ATOM      1  C3  UNL d   1      -3.881  -4.011   3.815  0.00  0.00    -0.075 A 
ATOM      2  C4  UNL d   1      -3.533  -2.818   3.166  0.00  0.00     0.002 A 
ATOM      3  C5  UNL d   1      -3.158  -1.694   3.903  0.00  0.00     0.002 A 
ATOM      4  C6  UNL d   1      -3.136  -1.746   5.295  0.00  0.00    -0.004 A 
ATOM      5  C7  UNL d   1      -3.496  -2.921   5.950  0.00  0.00     0.002 A 
ATOM      6  C8  UNL d   1      -3.867  -4.048   5.215  0.00  0.00     0.002 A 
ENDROOT
BRANCH   1   7
ATOM      7  C2  UNL d   1      -4.259  -5.239   3.022  0.00  0.00     0.056 C 
BRANCH   7   8
ATOM      8  C1  UNL d   1      -5.728  -5.273   2.588  0.00  0.00     0.007 C 
ATOM      9  C   UNL d   1      -5.947  -5.995   1.265  0.00  0.00     0.009 C 
ENDBRANCH   7   8
ENDBRANCH   1   7
TORSDOF 2
ENDMDL
