MODEL 1
REMARK minimizedAffinity 14.8620863
REMARK minimizedRMSD -1
REMARK  2 active torsions:
REMARK  status: ('A' for Active; 'I' for Inactive)
REMARK    1  A    between atoms: C1_2  and  C2_3 
REMARK    2  A    between atoms: C2_3  and  C3_4 
ROOT
ATOM      1  C3  UNL d   1       3.222   0.908   1.180  0.00  0.00    -0.075 A 
ATOM      2  C4  UNL d   1       4.549   1.288   0.930  0.00  0.00     0.002 A 
ATOM      3  C5  UNL d   1       5.587   0.802   1.726  0.00  0.00     0.002 A 
ATOM      4  C6  UNL d   1       5.312  -0.060   2.785  0.00  0.00    -0.004 A 
ATOM      5  C7  UNL d   1       3.996  -0.432   3.052  0.00  0.00     0.002 A 
ATOM      6  C8  UNL d   1       2.956   0.049   2.255  0.00  0.00     0.002 A 
ENDROOT
BRANCH   1   7
ATOM      7  C2  UNL d   1       2.097   1.406   0.304  0.00  0.00     0.056 C 
BRANCH   7   8
ATOM      8  C1  UNL d   1       1.729   2.875   0.538  0.00  0.00     0.007 C 
ATOM      9  C   UNL d   1       1.304   3.167   1.971  0.00  0.00     0.009 C 
ENDBRANCH   7   8
ENDBRANCH   1   7
TORSDOF 2
ENDMDL
