MODEL 1
REMARK minimizedAffinity 2.47078705
REMARK minimizedRMSD -1
REMARK  2 active torsions:
REMARK  status: ('A' for Active; 'I' for Inactive)
REMARK    1  A    between atoms: C1_2  and  C2_3 
REMARK    2  A    between atoms: C2_3  and  C3_4 
ROOT
ATOM      1  C3  UNL d   1       2.997   0.759   0.148  0.00  0.00    -0.075 A 
ATOM      2  C4  UNL d   1       4.324   1.070   0.480  0.00  0.00     0.002 A 
ATOM      3  C5  UNL d   1       4.856   0.680   1.709  0.00  0.00     0.002 A 
ATOM      4  C6  UNL d   1       4.068  -0.014   2.624  0.00  0.00    -0.004 A 
ATOM      5  C7  UNL d   1       2.744  -0.314   2.312  0.00  0.00     0.002 A 
ATOM      6  C8  UNL d   1       2.210   0.071   1.081  0.00  0.00     0.002 A 
ENDROOT
BRANCH   1   7
ATOM      7  C2  UNL d   1       2.423   1.152  -1.193  0.00  0.00     0.056 C 
BRANCH   7   8
ATOM      8  C1  UNL d   1       3.253   0.676  -2.390  0.00  0.00     0.007 C 
ATOM      9  C   UNL d   1       2.782  -0.657  -2.955  0.00  0.00     0.009 C 
ENDBRANCH   7   8
ENDBRANCH   1   7
TORSDOF 2
ENDMDL
