MODEL 1
REMARK minimizedAffinity 9.56982708
REMARK minimizedRMSD -1
REMARK  2 active torsions:
REMARK  status: ('A' for Active; 'I' for Inactive)
REMARK    1  A    between atoms: C1_2  and  C2_3 
REMARK    2  A    between atoms: C2_3  and  C3_4 
ROOT
ATOM      1  C3  UNL d   1      -3.309   3.338   5.945  0.00  0.00    -0.075 A 
ATOM      2  C4  UNL d   1      -1.920   3.505   5.848  0.00  0.00     0.002 A 
ATOM      3  C5  UNL d   1      -1.360   4.783   5.827  0.00  0.00     0.002 A 
ATOM      4  C6  UNL d   1      -2.180   5.907   5.894  0.00  0.00    -0.004 A 
ATOM      5  C7  UNL d   1      -3.562   5.753   5.974  0.00  0.00     0.002 A 
ATOM      6  C8  UNL d   1      -4.125   4.476   5.999  0.00  0.00     0.002 A 
ENDROOT
BRANCH   1   7
ATOM      7  C2  UNL d   1      -3.920   1.958   5.998  0.00  0.00     0.056 C 
BRANCH   7   8
ATOM      8  C1  UNL d   1      -5.451   1.950   5.930  0.00  0.00     0.007 C 
ATOM      9  C   UNL d   1      -5.999   2.613   4.673  0.00  0.00     0.009 C 
ENDBRANCH   7   8
ENDBRANCH   1   7
TORSDOF 2
ENDMDL
