MODEL 1
REMARK minimizedAffinity 2.80601025
REMARK minimizedRMSD -1
REMARK  0 active torsions:
REMARK  status: ('A' for Active; 'I' for Inactive)
ROOT
ATOM      1  C1  BNZ d   1       5.290   3.819  -6.000  0.00  0.00     0.000 A 
ATOM      2  C2  BNZ d   1       5.669   2.503  -6.000  0.00  0.00     0.000 A 
ATOM      3  C3  BNZ d   1       4.894   1.552  -5.398  0.00  0.00     0.000 A 
ATOM      4  C4  BNZ d   1       3.763   1.922  -4.763  0.00  0.00     0.000 A 
ATOM      5  C5  BNZ d   1       3.372   3.246  -4.746  0.00  0.00     0.000 A 
ATOM      6  C6  BNZ d   1       4.135   4.196  -5.387  0.00  0.00     0.000 A 
ENDROOT
TORSDOF 0
ENDMDL
