MODEL 1
REMARK minimizedAffinity -3.32653189
REMARK minimizedRMSD -1
REMARK  0 active torsions:
REMARK  status: ('A' for Active; 'I' for Inactive)
ROOT
ATOM      1  C1  BNZ d   1      -1.412   2.884   3.902  0.00  0.00     0.000 A 
ATOM      2  C2  BNZ d   1      -1.063   1.869   3.051  0.00  0.00     0.000 A 
ATOM      3  C3  BNZ d   1       0.015   1.993   2.220  0.00  0.00     0.000 A 
ATOM      4  C4  BNZ d   1       0.718   3.144   2.211  0.00  0.00     0.000 A 
ATOM      5  C5  BNZ d   1       0.373   4.179   3.056  0.00  0.00     0.000 A 
ATOM      6  C6  BNZ d   1      -0.689   4.037   3.920  0.00  0.00     0.000 A 
ENDROOT
TORSDOF 0
ENDMDL
