MODEL 1
REMARK minimizedAffinity 6.40565443
REMARK minimizedRMSD -1
REMARK  0 active torsions:
REMARK  status: ('A' for Active; 'I' for Inactive)
ROOT
ATOM      1  C1  BNZ d   1       2.232   2.984   2.728  0.00  0.00     0.000 A 
ATOM      2  C2  BNZ d   1       1.719   3.698   3.779  0.00  0.00     0.000 A 
ATOM      3  C3  BNZ d   1       0.421   3.527   4.173  0.00  0.00     0.000 A 
ATOM      4  C4  BNZ d   1      -0.372   2.674   3.494  0.00  0.00     0.000 A 
ATOM      5  C5  BNZ d   1       0.128   1.954   2.427  0.00  0.00     0.000 A 
ATOM      6  C6  BNZ d   1       1.445   2.100   2.057  0.00  0.00     0.000 A 
ENDROOT
TORSDOF 0
ENDMDL
