MODEL 1
REMARK minimizedAffinity 0.295134902
REMARK minimizedRMSD -1
REMARK  0 active torsions:
REMARK  status: ('A' for Active; 'I' for Inactive)
ROOT
ATOM      1  C1  BNZ d   1       0.902   3.013   3.886  0.00  0.00     0.000 A 
ATOM      2  C2  BNZ d   1       1.845   2.706   2.942  0.00  0.00     0.000 A 
ATOM      3  C3  BNZ d   1       1.518   1.961   1.843  0.00  0.00     0.000 A 
ATOM      4  C4  BNZ d   1       0.261   1.491   1.710  0.00  0.00     0.000 A 
ATOM      5  C5  BNZ d   1      -0.699   1.784   2.659  0.00  0.00     0.000 A 
ATOM      6  C6  BNZ d   1      -0.376   2.567   3.744  0.00  0.00     0.000 A 
ENDROOT
TORSDOF 0
ENDMDL
