MODEL 1
REMARK minimizedAffinity -2.21559572
REMARK minimizedRMSD -1
REMARK  0 active torsions:
REMARK  status: ('A' for Active; 'I' for Inactive)
ROOT
ATOM      1  C1  BNZ d   1      -1.179   2.178   1.862  0.00  0.00     0.000 A 
ATOM      2  C2  BNZ d   1      -0.221   1.407   1.260  0.00  0.00     0.000 A 
ATOM      3  C3  BNZ d   1       1.079   1.450   1.682  0.00  0.00     0.000 A 
ATOM      4  C4  BNZ d   1       1.425   2.291   2.677  0.00  0.00     0.000 A 
ATOM      5  C5  BNZ d   1       0.472   3.082   3.288  0.00  0.00     0.000 A 
ATOM      6  C6  BNZ d   1      -0.842   3.007   2.887  0.00  0.00     0.000 A 
ENDROOT
TORSDOF 0
ENDMDL
