MODEL 1
REMARK minimizedAffinity -1.0503546
REMARK minimizedRMSD -1
REMARK  0 active torsions:
REMARK  status: ('A' for Active; 'I' for Inactive)
ROOT
ATOM      1  C1  BNZ d   1      -0.580   3.655   3.203  0.00  0.00     0.000 A 
ATOM      2  C2  BNZ d   1       0.721   3.921   2.866  0.00  0.00     0.000 A 
ATOM      3  C3  BNZ d   1       1.376   3.153   1.945  0.00  0.00     0.000 A 
ATOM      4  C4  BNZ d   1       0.744   2.098   1.392  0.00  0.00     0.000 A 
ATOM      5  C5  BNZ d   1      -0.564   1.811   1.728  0.00  0.00     0.000 A 
ATOM      6  C6  BNZ d   1      -1.233   2.610   2.626  0.00  0.00     0.000 A 
ENDROOT
TORSDOF 0
ENDMDL
