MODEL 1
REMARK minimizedAffinity -3.76494431
REMARK minimizedRMSD -1
REMARK  0 active torsions:
REMARK  status: ('A' for Active; 'I' for Inactive)
ROOT
ATOM      1  C1  BNZ d   1      -0.684   2.335   2.468  0.00  0.00     0.000 A 
ATOM      2  C2  BNZ d   1      -0.580   3.464   3.236  0.00  0.00     0.000 A 
ATOM      3  C3  BNZ d   1       0.461   4.333   3.065  0.00  0.00     0.000 A 
ATOM      4  C4  BNZ d   1       1.417   4.052   2.157  0.00  0.00     0.000 A 
ATOM      5  C5  BNZ d   1       1.332   2.912   1.382  0.00  0.00     0.000 A 
ATOM      6  C6  BNZ d   1       0.262   2.060   1.529  0.00  0.00     0.000 A 
ENDROOT
TORSDOF 0
ENDMDL
