MODEL 1
REMARK minimizedAffinity -1.85232425
REMARK minimizedRMSD -1
REMARK  0 active torsions:
REMARK  status: ('A' for Active; 'I' for Inactive)
ROOT
ATOM      1  C1  BNZ d   1      -1.261   3.086   2.399  0.00  0.00     0.000 A 
ATOM      2  C2  BNZ d   1      -2.056   3.500   3.434  0.00  0.00     0.000 A 
ATOM      3  C3  BNZ d   1      -1.518   4.129   4.522  0.00  0.00     0.000 A 
ATOM      4  C4  BNZ d   1      -0.183   4.306   4.593  0.00  0.00     0.000 A 
ATOM      5  C5  BNZ d   1       0.633   3.885   3.562  0.00  0.00     0.000 A 
ATOM      6  C6  BNZ d   1       0.084   3.288   2.451  0.00  0.00     0.000 A 
ENDROOT
TORSDOF 0
ENDMDL
