MODEL 1
REMARK minimizedAffinity -0.880614519
REMARK minimizedRMSD -1
REMARK  0 active torsions:
REMARK  status: ('A' for Active; 'I' for Inactive)
ROOT
ATOM      1  C1  BNZ d   1      -3.888   0.130   1.871  0.00  0.00     0.000 A 
ATOM      2  C2  BNZ d   1      -4.591  -0.776   2.619  0.00  0.00     0.000 A 
ATOM      3  C3  BNZ d   1      -4.013  -1.946   3.025  0.00  0.00     0.000 A 
ATOM      4  C4  BNZ d   1      -2.749  -2.227   2.649  0.00  0.00     0.000 A 
ATOM      5  C5  BNZ d   1      -2.030  -1.328   1.887  0.00  0.00     0.000 A 
ATOM      6  C6  BNZ d   1      -2.602  -0.134   1.513  0.00  0.00     0.000 A 
ENDROOT
TORSDOF 0
ENDMDL
