MODEL 1
REMARK minimizedAffinity -1.69851184
REMARK minimizedRMSD -1
REMARK  0 active torsions:
REMARK  status: ('A' for Active; 'I' for Inactive)
ROOT
ATOM      1  C1  BNZ d   1       0.804   2.384   1.527  0.00  0.00     0.000 A 
ATOM      2  C2  BNZ d   1       1.074   2.489   0.189  0.00  0.00     0.000 A 
ATOM      3  C3  BNZ d   1       0.134   2.151  -0.744  0.00  0.00     0.000 A 
ATOM      4  C4  BNZ d   1      -1.060   1.672  -0.339  0.00  0.00     0.000 A 
ATOM      5  C5  BNZ d   1      -1.344   1.551   1.007  0.00  0.00     0.000 A 
ATOM      6  C6  BNZ d   1      -0.409   1.929   1.943  0.00  0.00     0.000 A 
ENDROOT
TORSDOF 0
ENDMDL
