MODEL 1
REMARK minimizedAffinity 3.89731288
REMARK minimizedRMSD -1
REMARK  0 active torsions:
REMARK  status: ('A' for Active; 'I' for Inactive)
ROOT
ATOM      1  C1  BNZ d   1       0.523   2.601   2.618  0.00  0.00     0.000 A 
ATOM      2  C2  BNZ d   1       0.492   3.425   3.711  0.00  0.00     0.000 A 
ATOM      3  C3  BNZ d   1      -0.602   3.461   4.529  0.00  0.00     0.000 A 
ATOM      4  C4  BNZ d   1      -1.678   2.704   4.232  0.00  0.00     0.000 A 
ATOM      5  C5  BNZ d   1      -1.665   1.874   3.129  0.00  0.00     0.000 A 
ATOM      6  C6  BNZ d   1      -0.547   1.811   2.329  0.00  0.00     0.000 A 
ENDROOT
TORSDOF 0
ENDMDL
