MODEL 1
REMARK minimizedAffinity 1.21954238
REMARK minimizedRMSD -1
REMARK  0 active torsions:
REMARK  status: ('A' for Active; 'I' for Inactive)
ROOT
ATOM      1  C1  BNZ d   1       4.058  -5.686  -3.529  0.00  0.00     0.000 A 
ATOM      2  C2  BNZ d   1       3.317  -5.873  -4.665  0.00  0.00     0.000 A 
ATOM      3  C3  BNZ d   1       3.913  -5.882  -5.896  0.00  0.00     0.000 A 
ATOM      4  C4  BNZ d   1       5.240  -5.665  -5.992  0.00  0.00     0.000 A 
ATOM      5  C5  BNZ d   1       6.000  -5.466  -4.856  0.00  0.00     0.000 A 
ATOM      6  C6  BNZ d   1       5.403  -5.497  -3.616  0.00  0.00     0.000 A 
ENDROOT
TORSDOF 0
ENDMDL
