MODEL 1
REMARK minimizedAffinity -3.12733555
REMARK minimizedRMSD -1
REMARK  0 active torsions:
REMARK  status: ('A' for Active; 'I' for Inactive)
ROOT
ATOM      1  C1  BNZ d   1      -0.650   1.332   1.872  0.00  0.00     0.000 A 
ATOM      2  C2  BNZ d   1      -0.280   2.223   2.844  0.00  0.00     0.000 A 
ATOM      3  C3  BNZ d   1       0.677   3.167   2.599  0.00  0.00     0.000 A 
ATOM      4  C4  BNZ d   1       1.291   3.193   1.399  0.00  0.00     0.000 A 
ATOM      5  C5  BNZ d   1       0.936   2.296   0.412  0.00  0.00     0.000 A 
ATOM      6  C6  BNZ d   1      -0.056   1.371   0.649  0.00  0.00     0.000 A 
ENDROOT
TORSDOF 0
ENDMDL
