MODEL 1
REMARK minimizedAffinity 3.48832035
REMARK minimizedRMSD -1
REMARK  0 active torsions:
REMARK  status: ('A' for Active; 'I' for Inactive)
ROOT
ATOM      1  C1  BNZ d   1       3.962   5.326   2.834  0.00  0.00     0.000 A 
ATOM      2  C2  BNZ d   1       5.195   5.235   3.423  0.00  0.00     0.000 A 
ATOM      3  C3  BNZ d   1       5.393   4.430   4.510  0.00  0.00     0.000 A 
ATOM      4  C4  BNZ d   1       4.351   3.749   5.029  0.00  0.00     0.000 A 
ATOM      5  C5  BNZ d   1       3.100   3.838   4.452  0.00  0.00     0.000 A 
ATOM      6  C6  BNZ d   1       2.913   4.619   3.335  0.00  0.00     0.000 A 
ENDROOT
TORSDOF 0
ENDMDL
