MODEL 1
REMARK minimizedAffinity 6.39380407
REMARK minimizedRMSD -1
REMARK  0 active torsions:
REMARK  status: ('A' for Active; 'I' for Inactive)
ROOT
ATOM      1  C1  BNZ d   1       2.696  -1.946  -1.386  0.00  0.00     0.000 A 
ATOM      2  C2  BNZ d   1       2.029  -2.772  -2.250  0.00  0.00     0.000 A 
ATOM      3  C3  BNZ d   1       0.994  -3.552  -1.815  0.00  0.00     0.000 A 
ATOM      4  C4  BNZ d   1       0.654  -3.534  -0.510  0.00  0.00     0.000 A 
ATOM      5  C5  BNZ d   1       1.323  -2.714   0.376  0.00  0.00     0.000 A 
ATOM      6  C6  BNZ d   1       2.339  -1.901  -0.073  0.00  0.00     0.000 A 
ENDROOT
TORSDOF 0
ENDMDL
