MODEL 1
REMARK minimizedAffinity 6.24761581
REMARK minimizedRMSD -1
REMARK  0 active torsions:
REMARK  status: ('A' for Active; 'I' for Inactive)
ROOT
ATOM      1  C1  BNZ d   1       2.272   2.429  -5.392  0.00  0.00     0.000 A 
ATOM      2  C2  BNZ d   1       3.356   3.013  -5.992  0.00  0.00     0.000 A 
ATOM      3  C3  BNZ d   1       3.505   4.371  -6.000  0.00  0.00     0.000 A 
ATOM      4  C4  BNZ d   1       2.551   5.146  -5.444  0.00  0.00     0.000 A 
ATOM      5  C5  BNZ d   1       1.448   4.573  -4.843  0.00  0.00     0.000 A 
ATOM      6  C6  BNZ d   1       1.321   3.204  -4.802  0.00  0.00     0.000 A 
ENDROOT
TORSDOF 0
ENDMDL
