MODEL 1
REMARK minimizedAffinity 4.09177494
REMARK minimizedRMSD -1
REMARK  0 active torsions:
REMARK  status: ('A' for Active; 'I' for Inactive)
ROOT
ATOM      1  C1  BNZ d   1       4.564   3.789   5.258  0.00  0.00     0.000 A 
ATOM      2  C2  BNZ d   1       3.435   3.632   4.500  0.00  0.00     0.000 A 
ATOM      3  C3  BNZ d   1       2.472   4.602   4.468  0.00  0.00     0.000 A 
ATOM      4  C4  BNZ d   1       2.621   5.709   5.223  0.00  0.00     0.000 A 
ATOM      5  C5  BNZ d   1       3.750   5.879   6.000  0.00  0.00     0.000 A 
ATOM      6  C6  BNZ d   1       4.735   4.918   6.000  0.00  0.00     0.000 A 
ENDROOT
TORSDOF 0
ENDMDL
