MODEL 1
REMARK minimizedAffinity 1.82948828
REMARK minimizedRMSD -1
REMARK  2 active torsions:
REMARK  status: ('A' for Active; 'I' for Inactive)
REMARK    1  A    between atoms: C2'_3  and  C1'_4 
REMARK    2  A    between atoms: C1'_4  and  C1_5 
ROOT
ATOM      1  C1  I4B d   1      -2.101   2.635   2.197  0.00  0.00    -0.075 A 
ATOM      2  C2  I4B d   1      -2.975   1.600   1.975  0.00  0.00     0.003 A 
ATOM      3  C3  I4B d   1      -4.263   1.856   1.447  0.00  0.00     0.002 A 
ATOM      4  C4  I4B d   1      -4.652   3.157   1.204  0.00  0.00    -0.004 A 
ATOM      5  C5  I4B d   1      -3.757   4.203   1.408  0.00  0.00     0.002 A 
ATOM      6  C6  I4B d   1      -2.469   3.940   1.896  0.00  0.00     0.003 A 
ENDROOT
BRANCH   1   7
ATOM      7  C1' I4B d   1      -0.760   2.332   2.787  0.00  0.00     0.060 C 
BRANCH   7   8
ATOM      8  C2' I4B d   1      -0.366   0.934   2.357  0.00  0.00    -0.013 C 
ATOM      9  C4' I4B d   1       0.602   0.969   1.204  0.00  0.00     0.013 C 
ATOM     10  C3' I4B d   1       0.230   0.236   3.543  0.00  0.00     0.013 C 
ENDBRANCH   7   8
ENDBRANCH   1   7
TORSDOF 2
ENDMDL
