MODEL 1
REMARK minimizedAffinity 8.62216854
REMARK minimizedRMSD -1
REMARK  2 active torsions:
REMARK  status: ('A' for Active; 'I' for Inactive)
REMARK    1  A    between atoms: C2'_3  and  C1'_4 
REMARK    2  A    between atoms: C1'_4  and  C1_5 
ROOT
ATOM      1  C1  I4B d   1       3.672  -0.041  -0.294  0.00  0.00    -0.075 A 
ATOM      2  C2  I4B d   1       3.750   1.320  -0.131  0.00  0.00     0.003 A 
ATOM      3  C3  I4B d   1       4.938   1.912   0.361  0.00  0.00     0.002 A 
ATOM      4  C4  I4B d   1       5.999   1.107   0.724  0.00  0.00    -0.004 A 
ATOM      5  C5  I4B d   1       5.926  -0.271   0.537  0.00  0.00     0.002 A 
ATOM      6  C6  I4B d   1       4.760  -0.848   0.013  0.00  0.00     0.003 A 
ENDROOT
BRANCH   1   7
ATOM      7  C1' I4B d   1       2.390  -0.636  -0.785  0.00  0.00     0.060 C 
BRANCH   7   8
ATOM      8  C2' I4B d   1       2.630  -2.108  -1.049  0.00  0.00    -0.013 C 
ATOM      9  C4' I4B d   1       1.431  -2.934  -0.663  0.00  0.00     0.013 C 
ATOM     10  C3' I4B d   1       2.954  -2.271  -2.504  0.00  0.00     0.013 C 
ENDBRANCH   7   8
ENDBRANCH   1   7
TORSDOF 2
ENDMDL
