MODEL 1
REMARK minimizedAffinity 8.82326508
REMARK minimizedRMSD -1
REMARK  2 active torsions:
REMARK  status: ('A' for Active; 'I' for Inactive)
REMARK    1  A    between atoms: C2'_3  and  C1'_4 
REMARK    2  A    between atoms: C1'_4  and  C1_5 
ROOT
ATOM      1  C1  I4B d   1       3.324  -0.857   0.045  0.00  0.00    -0.075 A 
ATOM      2  C2  I4B d   1       4.522  -0.923   0.712  0.00  0.00     0.003 A 
ATOM      3  C3  I4B d   1       5.467   0.123   0.584  0.00  0.00     0.002 A 
ATOM      4  C4  I4B d   1       5.198   1.184  -0.255  0.00  0.00    -0.004 A 
ATOM      5  C5  I4B d   1       3.973   1.260  -0.913  0.00  0.00     0.002 A 
ATOM      6  C6  I4B d   1       3.025   0.240  -0.753  0.00  0.00     0.003 A 
ENDROOT
BRANCH   1   7
ATOM      7  C1' I4B d   1       2.362  -1.995   0.176  0.00  0.00     0.060 C 
BRANCH   7   8
ATOM      8  C2' I4B d   1       1.856  -2.341  -1.210  0.00  0.00    -0.013 C 
ATOM      9  C4' I4B d   1       2.995  -2.662  -2.142  0.00  0.00     0.013 C 
ATOM     10  C3' I4B d   1       0.917  -3.503  -1.083  0.00  0.00     0.013 C 
ENDBRANCH   7   8
ENDBRANCH   1   7
TORSDOF 2
ENDMDL
