MODEL 1
REMARK minimizedAffinity 7.56148338
REMARK minimizedRMSD -1
REMARK  2 active torsions:
REMARK  status: ('A' for Active; 'I' for Inactive)
REMARK    1  A    between atoms: C2'_3  and  C1'_4 
REMARK    2  A    between atoms: C1'_4  and  C1_5 
ROOT
ATOM      1  C1  I4B d   1       2.078  -1.831  -0.679  0.00  0.00    -0.075 A 
ATOM      2  C2  I4B d   1       2.779  -2.195  -1.801  0.00  0.00     0.003 A 
ATOM      3  C3  I4B d   1       3.711  -1.300  -2.380  0.00  0.00     0.002 A 
ATOM      4  C4  I4B d   1       3.873  -0.042  -1.838  0.00  0.00    -0.004 A 
ATOM      5  C5  I4B d   1       3.178   0.317  -0.686  0.00  0.00     0.002 A 
ATOM      6  C6  I4B d   1       2.283  -0.587  -0.096  0.00  0.00     0.003 A 
ENDROOT
BRANCH   1   7
ATOM      7  C1' I4B d   1       1.077  -2.787  -0.112  0.00  0.00     0.060 C 
BRANCH   7   8
ATOM      8  C2' I4B d   1       0.262  -3.345  -1.262  0.00  0.00    -0.013 C 
ATOM      9  C4' I4B d   1      -0.681  -4.421  -0.790  0.00  0.00     0.013 C 
ATOM     10  C3' I4B d   1      -0.486  -2.208  -1.893  0.00  0.00     0.013 C 
ENDBRANCH   7   8
ENDBRANCH   1   7
TORSDOF 2
ENDMDL
