MODEL 1
REMARK minimizedAffinity 4.97287607
REMARK minimizedRMSD -1
REMARK  2 active torsions:
REMARK  status: ('A' for Active; 'I' for Inactive)
REMARK    1  A    between atoms: C2'_3  and  C1'_4 
REMARK    2  A    between atoms: C1'_4  and  C1_5 
ROOT
ATOM      1  C1  I4B d   1      -5.114   1.507  -2.689  0.00  0.00    -0.075 A 
ATOM      2  C2  I4B d   1      -3.768   1.490  -2.424  0.00  0.00     0.003 A 
ATOM      3  C3  I4B d   1      -3.271   0.782  -1.303  0.00  0.00     0.002 A 
ATOM      4  C4  I4B d   1      -4.155   0.151  -0.451  0.00  0.00    -0.004 A 
ATOM      5  C5  I4B d   1      -5.518   0.150  -0.735  0.00  0.00     0.002 A 
ATOM      6  C6  I4B d   1      -6.000   0.822  -1.867  0.00  0.00     0.003 A 
ENDROOT
BRANCH   1   7
ATOM      7  C1' I4B d   1      -5.608   2.293  -3.863  0.00  0.00     0.060 C 
BRANCH   7   8
ATOM      8  C2' I4B d   1      -5.718   3.744  -3.440  0.00  0.00    -0.013 C 
ATOM      9  C4' I4B d   1      -5.930   3.864  -1.954  0.00  0.00     0.013 C 
ATOM     10  C3' I4B d   1      -4.464   4.447  -3.867  0.00  0.00     0.013 C 
ENDBRANCH   7   8
ENDBRANCH   1   7
TORSDOF 2
ENDMDL
