MODEL 1
REMARK minimizedAffinity 6.56648588
REMARK minimizedRMSD -1
REMARK  2 active torsions:
REMARK  status: ('A' for Active; 'I' for Inactive)
REMARK    1  A    between atoms: C2'_3  and  C1'_4 
REMARK    2  A    between atoms: C1'_4  and  C1_5 
ROOT
ATOM      1  C1  I4B d   1       2.106  -2.137  -0.990  0.00  0.00    -0.075 A 
ATOM      2  C2  I4B d   1       1.735  -3.105  -0.090  0.00  0.00     0.003 A 
ATOM      3  C3  I4B d   1       0.510  -3.796  -0.251  0.00  0.00     0.002 A 
ATOM      4  C4  I4B d   1      -0.332  -3.455  -1.290  0.00  0.00    -0.004 A 
ATOM      5  C5  I4B d   1       0.056  -2.489  -2.215  0.00  0.00     0.002 A 
ATOM      6  C6  I4B d   1       1.288  -1.835  -2.071  0.00  0.00     0.003 A 
ENDROOT
BRANCH   1   7
ATOM      7  C1' I4B d   1       3.391  -1.404  -0.772  0.00  0.00     0.060 C 
BRANCH   7   8
ATOM      8  C2' I4B d   1       3.185   0.036  -1.196  0.00  0.00    -0.013 C 
ATOM      9  C4' I4B d   1       2.128   0.706  -0.358  0.00  0.00     0.013 C 
ATOM     10  C3' I4B d   1       4.500   0.747  -1.078  0.00  0.00     0.013 C 
ENDBRANCH   7   8
ENDBRANCH   1   7
TORSDOF 2
ENDMDL
