MODEL 1
REMARK minimizedAffinity 6.91724682
REMARK minimizedRMSD -1
REMARK  0 active torsions:
REMARK  status: ('A' for Active; 'I' for Inactive)
ROOT
ATOM      1  C   UNL d   1       4.244   0.121  -5.855  0.00  0.00     0.020 A 
ATOM      2  C1  UNL d   1       4.881  -0.373  -4.718  0.00  0.00     0.020 A 
ATOM      3  C2  UNL d   1       4.137  -1.013  -3.724  0.00  0.00     0.034 A 
ATOM      4  C3  UNL d   1       2.753  -1.160  -3.865  0.00  0.00     0.017 A 
ATOM      5  C4  UNL d   1       2.114  -0.664  -5.008  0.00  0.00     0.017 A 
ATOM      6  C5  UNL d   1       2.864  -0.024  -6.000  0.00  0.00     0.034 A 
ATOM      7 Cl   UNL d   1       0.410  -0.808  -5.253  0.00  0.00    -0.070 Cl
ATOM      8 Cl1  UNL d   1       1.896  -1.962  -2.597  0.00  0.00    -0.070 Cl
ENDROOT
TORSDOF 0
ENDMDL
