MODEL 1
REMARK minimizedAffinity 2.45797801
REMARK minimizedRMSD -1
REMARK  0 active torsions:
REMARK  status: ('A' for Active; 'I' for Inactive)
ROOT
ATOM      1  C   UNL d   1       3.998  -0.907  -4.972  0.00  0.00     0.020 A 
ATOM      2  C1  UNL d   1       3.212  -0.387  -6.000  0.00  0.00     0.020 A 
ATOM      3  C2  UNL d   1       1.820  -0.432  -5.904  0.00  0.00     0.034 A 
ATOM      4  C3  UNL d   1       1.209  -0.997  -4.779  0.00  0.00     0.017 A 
ATOM      5  C4  UNL d   1       1.999  -1.519  -3.748  0.00  0.00     0.017 A 
ATOM      6  C5  UNL d   1       3.393  -1.471  -3.849  0.00  0.00     0.034 A 
ATOM      7 Cl   UNL d   1       1.318  -2.232  -2.328  0.00  0.00    -0.070 Cl
ATOM      8 Cl1  UNL d   1      -0.518  -1.019  -4.727  0.00  0.00    -0.070 Cl
ENDROOT
TORSDOF 0
ENDMDL
