MODEL 1
REMARK minimizedAffinity 6.07340002
REMARK minimizedRMSD -1
REMARK  0 active torsions:
REMARK  status: ('A' for Active; 'I' for Inactive)
ROOT
ATOM      1  C   UNL d   1       2.374  -0.057  -5.999  0.00  0.00     0.020 A 
ATOM      2  C1  UNL d   1       3.125  -0.645  -4.982  0.00  0.00     0.020 A 
ATOM      3  C2  UNL d   1       2.486  -1.356  -3.964  0.00  0.00     0.034 A 
ATOM      4  C3  UNL d   1       1.092  -1.482  -3.962  0.00  0.00     0.017 A 
ATOM      5  C4  UNL d   1       0.339  -0.892  -4.983  0.00  0.00     0.017 A 
ATOM      6  C5  UNL d   1       0.984  -0.180  -6.000  0.00  0.00     0.034 A 
ATOM      7 Cl   UNL d   1      -1.384  -1.004  -5.048  0.00  0.00    -0.070 Cl
ATOM      8 Cl1  UNL d   1       0.368  -2.376  -2.673  0.00  0.00    -0.070 Cl
ENDROOT
TORSDOF 0
ENDMDL
