MODEL 1
REMARK minimizedAffinity -0.0351909958
REMARK minimizedRMSD -1
REMARK  0 active torsions:
REMARK  status: ('A' for Active; 'I' for Inactive)
ROOT
ATOM      1  C   UNL d   1      -0.777  -0.767  -5.227  0.00  0.00     0.020 A 
ATOM      2  C1  UNL d   1       0.153  -0.074  -6.000  0.00  0.00     0.020 A 
ATOM      3  C2  UNL d   1       1.509  -0.115  -5.665  0.00  0.00     0.034 A 
ATOM      4  C3  UNL d   1       1.937  -0.852  -4.554  0.00  0.00     0.017 A 
ATOM      5  C4  UNL d   1       1.002  -1.548  -3.779  0.00  0.00     0.017 A 
ATOM      6  C5  UNL d   1      -0.354  -1.503  -4.120  0.00  0.00     0.034 A 
ATOM      7 Cl   UNL d   1       1.454  -2.479  -2.395  0.00  0.00    -0.070 Cl
ATOM      8 Cl1  UNL d   1       3.628  -0.859  -4.198  0.00  0.00    -0.070 Cl
ENDROOT
TORSDOF 0
ENDMDL
