MODEL 1
REMARK minimizedAffinity 6.13192272
REMARK minimizedRMSD -1
REMARK  0 active torsions:
REMARK  status: ('A' for Active; 'I' for Inactive)
ROOT
ATOM      1  C   UNL d   1       2.451  -0.312  -5.993  0.00  0.00     0.020 A 
ATOM      2  C1  UNL d   1       3.099  -1.086  -5.031  0.00  0.00     0.020 A 
ATOM      3  C2  UNL d   1       2.354  -1.775  -4.071  0.00  0.00     0.034 A 
ATOM      4  C3  UNL d   1       0.957  -1.691  -4.071  0.00  0.00     0.017 A 
ATOM      5  C4  UNL d   1       0.307  -0.914  -5.037  0.00  0.00     0.017 A 
ATOM      6  C5  UNL d   1       1.058  -0.227  -5.996  0.00  0.00     0.034 A 
ATOM      7 Cl   UNL d   1      -1.413  -0.762  -5.101  0.00  0.00    -0.070 Cl
ATOM      8 Cl1  UNL d   1       0.099  -2.569  -2.855  0.00  0.00    -0.070 Cl
ENDROOT
TORSDOF 0
ENDMDL
