MODEL 1
REMARK minimizedAffinity 3.56917882
REMARK minimizedRMSD -1
REMARK  0 active torsions:
REMARK  status: ('A' for Active; 'I' for Inactive)
ROOT
ATOM      1  C   UNL d   1       0.132  -5.994  -5.883  0.00  0.00     0.020 A 
ATOM      2  C1  UNL d   1      -0.463  -5.998  -4.622  0.00  0.00     0.020 A 
ATOM      3  C2  UNL d   1       0.333  -5.999  -3.475  0.00  0.00     0.034 A 
ATOM      4  C3  UNL d   1       1.728  -5.997  -3.585  0.00  0.00     0.017 A 
ATOM      5  C4  UNL d   1       2.325  -5.993  -4.851  0.00  0.00     0.017 A 
ATOM      6  C5  UNL d   1       1.523  -5.992  -5.997  0.00  0.00     0.034 A 
ATOM      7 Cl   UNL d   1       4.039  -5.990  -5.068  0.00  0.00    -0.070 Cl
ATOM      8 Cl1  UNL d   1       2.650  -5.998  -2.124  0.00  0.00    -0.070 Cl
ENDROOT
TORSDOF 0
ENDMDL
