MODEL 1
REMARK minimizedAffinity -4.43241978
REMARK minimizedRMSD -1
REMARK  1 active torsions:
REMARK  status: ('A' for Active; 'I' for Inactive)
REMARK    1  A    between atoms: C1_2  and  C2_3 
ROOT
ATOM      1  C2  UNL d   1       0.089  -0.661  -3.282  0.00  0.00    -0.076 A 
ATOM      2  C3  UNL d   1      -1.172  -1.150  -3.663  0.00  0.00     0.004 A 
ATOM      3  C4  UNL d   1      -1.575  -1.132  -4.998  0.00  0.00    -0.003 A 
ATOM      4  C5  UNL d   1      -0.723  -0.626  -5.973  0.00  0.00     0.000 A 
ATOM      5  C6  UNL d   1       0.539  -0.153  -5.615  0.00  0.00     0.000 A 
ATOM      6  C7  UNL d   1       0.967  -0.178  -4.276  0.00  0.00    -0.073 A 
ATOM      7  C8  UNL d   1       2.336   0.350  -3.946  0.00  0.00     0.078 C 
ENDROOT
BRANCH   1   8
ATOM      8  C1  UNL d   1       0.461  -0.681  -1.817  0.00  0.00     0.053 C 
ATOM      9  C   UNL d   1      -0.750  -0.555  -0.906  0.00  0.00     0.018 C 
ENDBRANCH   1   8
TORSDOF 1
ENDMDL
