MODEL 1
REMARK minimizedAffinity -1.82134521
REMARK minimizedRMSD -1
REMARK  1 active torsions:
REMARK  status: ('A' for Active; 'I' for Inactive)
REMARK    1  A    between atoms: C1_2  and  C2_3 
ROOT
ATOM      1  C2  UNL d   1       0.664  -0.408  -1.471  0.00  0.00    -0.076 A 
ATOM      2  C3  UNL d   1       1.512  -1.404  -0.957  0.00  0.00     0.004 A 
ATOM      3  C4  UNL d   1       1.722  -1.530   0.415  0.00  0.00    -0.003 A 
ATOM      4  C5  UNL d   1       1.087  -0.661   1.296  0.00  0.00     0.000 A 
ATOM      5  C6  UNL d   1       0.228   0.322   0.804  0.00  0.00     0.000 A 
ATOM      6  C7  UNL d   1      -0.007   0.452  -0.575  0.00  0.00    -0.073 A 
ATOM      7  C8  UNL d   1      -0.938   1.534  -1.050  0.00  0.00     0.078 C 
ENDROOT
BRANCH   1   8
ATOM      8  C1  UNL d   1       0.496  -0.303  -2.970  0.00  0.00     0.053 C 
ATOM      9  C   UNL d   1       1.769   0.148  -3.669  0.00  0.00     0.018 C 
ENDBRANCH   1   8
TORSDOF 1
ENDMDL
