MODEL 1
REMARK minimizedAffinity -5.18352365
REMARK minimizedRMSD -1
REMARK  1 active torsions:
REMARK  status: ('A' for Active; 'I' for Inactive)
REMARK    1  A    between atoms: C1_2  and  C2_3 
ROOT
ATOM      1  C2  UNL d   1       0.032  -0.631  -0.166  0.00  0.00    -0.076 A 
ATOM      2  C3  UNL d   1      -1.283  -0.330  -0.564  0.00  0.00     0.004 A 
ATOM      3  C4  UNL d   1      -2.184   0.257   0.322  0.00  0.00    -0.003 A 
ATOM      4  C5  UNL d   1      -1.786   0.554   1.620  0.00  0.00     0.000 A 
ATOM      5  C6  UNL d   1      -0.481   0.279   2.027  0.00  0.00     0.000 A 
ATOM      6  C7  UNL d   1       0.445  -0.298   1.141  0.00  0.00    -0.073 A 
ATOM      7  C8  UNL d   1       1.838  -0.580   1.635  0.00  0.00     0.078 C 
ENDROOT
BRANCH   1   8
ATOM      8  C1  UNL d   1       0.957  -1.293  -1.162  0.00  0.00     0.053 C 
ATOM      9  C   UNL d   1       0.698  -0.837  -2.590  0.00  0.00     0.018 C 
ENDBRANCH   1   8
TORSDOF 1
ENDMDL
