MODEL 1
REMARK minimizedAffinity -1.87064254
REMARK minimizedRMSD -1
REMARK  1 active torsions:
REMARK  status: ('A' for Active; 'I' for Inactive)
REMARK    1  A    between atoms: C1_2  and  C2_3 
ROOT
ATOM      1  C2  UNL d   1       0.610   0.414  -2.403  0.00  0.00    -0.076 A 
ATOM      2  C3  UNL d   1       0.682   1.060  -1.157  0.00  0.00     0.004 A 
ATOM      3  C4  UNL d   1       0.496   0.353   0.030  0.00  0.00    -0.003 A 
ATOM      4  C5  UNL d   1       0.235  -1.012  -0.010  0.00  0.00     0.000 A 
ATOM      5  C6  UNL d   1       0.177  -1.673  -1.237  0.00  0.00     0.000 A 
ATOM      6  C7  UNL d   1       0.379  -0.978  -2.442  0.00  0.00    -0.073 A 
ATOM      7  C8  UNL d   1       0.300  -1.740  -3.737  0.00  0.00     0.078 C 
ENDROOT
BRANCH   1   8
ATOM      8  C1  UNL d   1       0.794   1.237  -3.658  0.00  0.00     0.053 C 
ATOM      9  C   UNL d   1       2.250   1.327  -4.088  0.00  0.00     0.018 C 
ENDBRANCH   1   8
TORSDOF 1
ENDMDL
