MODEL 1
REMARK minimizedAffinity -2.82060337
REMARK minimizedRMSD -1
REMARK  1 active torsions:
REMARK  status: ('A' for Active; 'I' for Inactive)
REMARK    1  A    between atoms: C1_2  and  C2_3 
ROOT
ATOM      1  C2  UNL d   1      -0.192  -0.105  -0.126  0.00  0.00    -0.076 A 
ATOM      2  C3  UNL d   1      -1.435   0.234  -0.689  0.00  0.00     0.004 A 
ATOM      3  C4  UNL d   1      -2.502   0.634   0.114  0.00  0.00    -0.003 A 
ATOM      4  C5  UNL d   1      -2.342   0.704   1.494  0.00  0.00     0.000 A 
ATOM      5  C6  UNL d   1      -1.111   0.389   2.068  0.00  0.00     0.000 A 
ATOM      6  C7  UNL d   1      -0.021  -0.001   1.271  0.00  0.00    -0.073 A 
ATOM      7  C8  UNL d   1       1.282  -0.335   1.944  0.00  0.00     0.078 C 
ENDROOT
BRANCH   1   8
ATOM      8  C1  UNL d   1       0.920  -0.558  -1.044  0.00  0.00     0.053 C 
ATOM      9  C   UNL d   1       0.673  -0.171  -2.494  0.00  0.00     0.018 C 
ENDBRANCH   1   8
TORSDOF 1
ENDMDL
