MODEL 1
REMARK minimizedAffinity -2.06940079
REMARK minimizedRMSD -1
REMARK  1 active torsions:
REMARK  status: ('A' for Active; 'I' for Inactive)
REMARK    1  A    between atoms: C1_2  and  C2_3 
ROOT
ATOM      1  C2  UNL d   1       0.052  -0.232   1.491  0.00  0.00    -0.076 A 
ATOM      2  C3  UNL d   1      -0.688   0.502   2.435  0.00  0.00     0.004 A 
ATOM      3  C4  UNL d   1      -1.945   1.014   2.120  0.00  0.00    -0.003 A 
ATOM      4  C5  UNL d   1      -2.484   0.799   0.856  0.00  0.00     0.000 A 
ATOM      5  C6  UNL d   1      -1.772   0.059  -0.087  0.00  0.00     0.000 A 
ATOM      6  C7  UNL d   1      -0.510  -0.478   0.220  0.00  0.00    -0.073 A 
ATOM      7  C8  UNL d   1       0.217  -1.264  -0.836  0.00  0.00     0.078 C 
ENDROOT
BRANCH   1   8
ATOM      8  C1  UNL d   1       1.422  -0.739   1.881  0.00  0.00     0.053 C 
ATOM      9  C   UNL d   1       1.653  -0.696   3.384  0.00  0.00     0.018 C 
ENDBRANCH   1   8
TORSDOF 1
ENDMDL
