MODEL 1
REMARK minimizedAffinity -1.97722769
REMARK minimizedRMSD -1
REMARK  1 active torsions:
REMARK  status: ('A' for Active; 'I' for Inactive)
REMARK    1  A    between atoms: C1_2  and  C2_3 
ROOT
ATOM      1  C2  UNL d   1      -0.139  -0.264  -1.226  0.00  0.00    -0.076 A 
ATOM      2  C3  UNL d   1      -1.332   0.480  -1.240  0.00  0.00     0.004 A 
ATOM      3  C4  UNL d   1      -1.987   0.807  -0.054  0.00  0.00    -0.003 A 
ATOM      4  C5  UNL d   1      -1.460   0.396   1.165  0.00  0.00     0.000 A 
ATOM      5  C6  UNL d   1      -0.269  -0.327   1.199  0.00  0.00     0.000 A 
ATOM      6  C7  UNL d   1       0.413  -0.652   0.013  0.00  0.00    -0.073 A 
ATOM      7  C8  UNL d   1       1.691  -1.440   0.108  0.00  0.00     0.078 C 
ENDROOT
BRANCH   1   8
ATOM      8  C1  UNL d   1       0.512  -0.613  -2.545  0.00  0.00     0.053 C 
ATOM      9  C   UNL d   1       0.945   0.619  -3.325  0.00  0.00     0.018 C 
ENDBRANCH   1   8
TORSDOF 1
ENDMDL
