MODEL 1
REMARK minimizedAffinity 15.0083132
REMARK minimizedRMSD -1
REMARK  0 active torsions:
REMARK  status: ('A' for Active; 'I' for Inactive)
ROOT
ATOM      1  C1  DEN d   1      -4.149   5.998   0.148  0.00  0.00     0.130 A 
ATOM      2  C2  DEN d   1      -3.648   4.923  -0.704  0.00  0.00    -0.031 A 
ATOM      3  C3  DEN d   1      -3.816   3.649   0.022  0.00  0.00     0.027 A 
ATOM      4  C4  DEN d   1      -4.803   3.237   2.369  0.00  0.00     0.027 A 
ATOM      5  C5  DEN d   1      -5.350   3.843   3.479  0.00  0.00    -0.003 A 
ATOM      6  C6  DEN d   1      -5.502   5.201   3.569  0.00  0.00     0.001 A 
ATOM      7  C7  DEN d   1      -5.144   5.996   2.512  0.00  0.00     0.017 A 
ATOM      8  C8  DEN d   1      -4.585   5.393   1.393  0.00  0.00    -0.094 A 
ATOM      9  C9  DEN d   1      -4.451   4.017   1.316  0.00  0.00    -0.072 A 
ENDROOT
TORSDOF 0
ENDMDL
