MODEL 1
REMARK minimizedAffinity 4.87268877
REMARK minimizedRMSD -1
REMARK  0 active torsions:
REMARK  status: ('A' for Active; 'I' for Inactive)
ROOT
ATOM      1  C1  DEN d   1       1.276   6.000   3.192  0.00  0.00     0.130 A 
ATOM      2  C2  DEN d   1       0.585   5.305   2.109  0.00  0.00    -0.031 A 
ATOM      3  C3  DEN d   1       1.521   4.323   1.527  0.00  0.00     0.027 A 
ATOM      4  C4  DEN d   1       3.958   3.809   2.196  0.00  0.00     0.027 A 
ATOM      5  C5  DEN d   1       4.983   4.150   3.050  0.00  0.00    -0.003 A 
ATOM      6  C6  DEN d   1       4.857   5.146   3.981  0.00  0.00     0.001 A 
ATOM      7  C7  DEN d   1       3.664   5.807   4.111  0.00  0.00     0.017 A 
ATOM      8  C8  DEN d   1       2.628   5.474   3.248  0.00  0.00    -0.094 A 
ATOM      9  C9  DEN d   1       2.772   4.455   2.321  0.00  0.00    -0.072 A 
ENDROOT
TORSDOF 0
ENDMDL
