MODEL 1
REMARK minimizedAffinity 11.898057
REMARK minimizedRMSD -1
REMARK  0 active torsions:
REMARK  status: ('A' for Active; 'I' for Inactive)
ROOT
ATOM      1  C1  DEN d   1       2.501  -0.161  -1.733  0.00  0.00     0.130 A 
ATOM      2  C2  DEN d   1       2.119  -0.529  -0.372  0.00  0.00    -0.031 A 
ATOM      3  C3  DEN d   1       3.136   0.016   0.550  0.00  0.00     0.027 A 
ATOM      4  C4  DEN d   1       5.250   1.390   0.005  0.00  0.00     0.027 A 
ATOM      5  C5  DEN d   1       6.000   1.941  -1.011  0.00  0.00    -0.003 A 
ATOM      6  C6  DEN d   1       5.657   1.802  -2.329  0.00  0.00     0.001 A 
ATOM      7  C7  DEN d   1       4.510   1.133  -2.666  0.00  0.00     0.017 A 
ATOM      8  C8  DEN d   1       3.753   0.569  -1.648  0.00  0.00    -0.094 A 
ATOM      9  C9  DEN d   1       4.109   0.731  -0.320  0.00  0.00    -0.072 A 
ENDROOT
TORSDOF 0
ENDMDL
