MODEL 1
REMARK minimizedAffinity 6.94808531
REMARK minimizedRMSD -1
REMARK  0 active torsions:
REMARK  status: ('A' for Active; 'I' for Inactive)
ROOT
ATOM      1  C1  DEN d   1       3.699   0.395   0.876  0.00  0.00     0.130 A 
ATOM      2  C2  DEN d   1       2.606  -0.426   0.361  0.00  0.00    -0.031 A 
ATOM      3  C3  DEN d   1       2.664  -0.389  -1.114  0.00  0.00     0.027 A 
ATOM      4  C4  DEN d   1       4.333   0.849  -2.642  0.00  0.00     0.027 A 
ATOM      5  C5  DEN d   1       5.428   1.684  -2.664  0.00  0.00    -0.003 A 
ATOM      6  C6  DEN d   1       5.999   2.171  -1.518  0.00  0.00     0.001 A 
ATOM      7  C7  DEN d   1       5.503   1.791  -0.299  0.00  0.00     0.017 A 
ATOM      8  C8  DEN d   1       4.394   0.955  -0.269  0.00  0.00    -0.094 A 
ATOM      9  C9  DEN d   1       3.839   0.464  -1.438  0.00  0.00    -0.072 A 
ENDROOT
TORSDOF 0
ENDMDL
