MODEL 1
REMARK minimizedAffinity 1.39815259
REMARK minimizedRMSD -1
REMARK  0 active torsions:
REMARK  status: ('A' for Active; 'I' for Inactive)
ROOT
ATOM      1  C1  DEN d   1      -0.793  -3.015  -2.529  0.00  0.00     0.130 A 
ATOM      2  C2  DEN d   1      -0.781  -4.475  -2.518  0.00  0.00    -0.031 A 
ATOM      3  C3  DEN d   1      -1.751  -4.948  -3.526  0.00  0.00     0.027 A 
ATOM      4  C4  DEN d   1      -3.260  -3.569  -5.098  0.00  0.00     0.027 A 
ATOM      5  C5  DEN d   1      -3.630  -2.294  -5.465  0.00  0.00    -0.003 A 
ATOM      6  C6  DEN d   1      -3.111  -1.180  -4.861  0.00  0.00     0.001 A 
ATOM      7  C7  DEN d   1      -2.157  -1.318  -3.888  0.00  0.00     0.017 A 
ATOM      8  C8  DEN d   1      -1.784  -2.601  -3.507  0.00  0.00    -0.094 A 
ATOM      9  C9  DEN d   1      -2.312  -3.714  -4.138  0.00  0.00    -0.072 A 
ENDROOT
TORSDOF 0
ENDMDL
