MODEL 1
REMARK minimizedAffinity 13.3511381
REMARK minimizedRMSD -1
REMARK  0 active torsions:
REMARK  status: ('A' for Active; 'I' for Inactive)
ROOT
ATOM      1  C1  DEN d   1       4.852   1.975  -1.561  0.00  0.00     0.130 A 
ATOM      2  C2  DEN d   1       5.797   2.565  -0.617  0.00  0.00    -0.031 A 
ATOM      3  C3  DEN d   1       5.390   2.168   0.746  0.00  0.00     0.027 A 
ATOM      4  C4  DEN d   1       3.402   0.699   1.482  0.00  0.00     0.027 A 
ATOM      5  C5  DEN d   1       2.313  -0.020   1.040  0.00  0.00    -0.003 A 
ATOM      6  C6  DEN d   1       1.978  -0.095  -0.286  0.00  0.00     0.001 A 
ATOM      7  C7  DEN d   1       2.765   0.522  -1.222  0.00  0.00     0.017 A 
ATOM      8  C8  DEN d   1       3.860   1.255  -0.784  0.00  0.00    -0.094 A 
ATOM      9  C9  DEN d   1       4.190   1.309   0.560  0.00  0.00    -0.072 A 
ENDROOT
TORSDOF 0
ENDMDL
