MODEL 1
REMARK minimizedAffinity 17.1617222
REMARK minimizedRMSD -1
REMARK  0 active torsions:
REMARK  status: ('A' for Active; 'I' for Inactive)
ROOT
ATOM      1  C1  DEN d   1       3.744   0.692   1.319  0.00  0.00     0.130 A 
ATOM      2  C2  DEN d   1       2.619  -0.002   0.699  0.00  0.00    -0.031 A 
ATOM      3  C3  DEN d   1       2.628   0.312  -0.744  0.00  0.00     0.027 A 
ATOM      4  C4  DEN d   1       4.271   1.792  -2.072  0.00  0.00     0.027 A 
ATOM      5  C5  DEN d   1       5.382   2.600  -1.977  0.00  0.00    -0.003 A 
ATOM      6  C6  DEN d   1       6.000   2.855  -0.781  0.00  0.00     0.001 A 
ATOM      7  C7  DEN d   1       5.537   2.258   0.362  0.00  0.00     0.017 A 
ATOM      8  C8  DEN d   1       4.413   1.448   0.275  0.00  0.00    -0.094 A 
ATOM      9  C9  DEN d   1       3.810   1.194  -0.945  0.00  0.00    -0.072 A 
ENDROOT
TORSDOF 0
ENDMDL
