MODEL 1
REMARK minimizedAffinity 10.225215
REMARK minimizedRMSD -1
REMARK  0 active torsions:
REMARK  status: ('A' for Active; 'I' for Inactive)
ROOT
ATOM      1  C1  DEN d   1       1.486   3.239   3.837  0.00  0.00     0.130 A 
ATOM      2  C2  DEN d   1       1.426   2.521   5.108  0.00  0.00    -0.031 A 
ATOM      3  C3  DEN d   1       2.049   1.197   4.914  0.00  0.00     0.027 A 
ATOM      4  C4  DEN d   1       3.100   0.194   2.783  0.00  0.00     0.027 A 
ATOM      5  C5  DEN d   1       3.375   0.422   1.452  0.00  0.00    -0.003 A 
ATOM      6  C6  DEN d   1       3.011   1.582   0.820  0.00  0.00     0.001 A 
ATOM      7  C7  DEN d   1       2.393   2.577   1.530  0.00  0.00     0.017 A 
ATOM      8  C8  DEN d   1       2.106   2.351   2.870  0.00  0.00    -0.094 A 
ATOM      9  C9  DEN d   1       2.492   1.177   3.494  0.00  0.00    -0.072 A 
ENDROOT
TORSDOF 0
ENDMDL
