MODEL 1
REMARK minimizedAffinity 8.05440998
REMARK minimizedRMSD -1
REMARK  0 active torsions:
REMARK  status: ('A' for Active; 'I' for Inactive)
ROOT
ATOM      1  C1  DEN d   1       6.000   2.355  -0.239  0.00  0.00     0.130 A 
ATOM      2  C2  DEN d   1       5.997   2.571  -1.683  0.00  0.00    -0.031 A 
ATOM      3  C3  DEN d   1       4.826   1.869  -2.248  0.00  0.00     0.027 A 
ATOM      4  C4  DEN d   1       3.026   0.479  -1.031  0.00  0.00     0.027 A 
ATOM      5  C5  DEN d   1       2.614   0.002   0.193  0.00  0.00    -0.003 A 
ATOM      6  C6  DEN d   1       3.314   0.246   1.345  0.00  0.00     0.001 A 
ATOM      7  C7  DEN d   1       4.440   1.024   1.303  0.00  0.00     0.017 A 
ATOM      8  C8  DEN d   1       4.867   1.502   0.071  0.00  0.00    -0.094 A 
ATOM      9  C9  DEN d   1       4.138   1.255  -1.080  0.00  0.00    -0.072 A 
ENDROOT
TORSDOF 0
ENDMDL
