MODEL 1
REMARK minimizedAffinity 8.32176781
REMARK minimizedRMSD -1
REMARK  0 active torsions:
REMARK  status: ('A' for Active; 'I' for Inactive)
ROOT
ATOM      1  C1  DEN d   1       2.665   0.316  -0.745  0.00  0.00     0.130 A 
ATOM      2  C2  DEN d   1       2.397   0.092   0.673  0.00  0.00    -0.031 A 
ATOM      3  C3  DEN d   1       3.412   0.830   1.452  0.00  0.00     0.027 A 
ATOM      4  C4  DEN d   1       5.358   2.295   0.605  0.00  0.00     0.027 A 
ATOM      5  C5  DEN d   1       5.996   2.775  -0.518  0.00  0.00    -0.003 A 
ATOM      6  C6  DEN d   1       5.592   2.444  -1.785  0.00  0.00     0.001 A 
ATOM      7  C7  DEN d   1       4.493   1.646  -1.960  0.00  0.00     0.017 A 
ATOM      8  C8  DEN d   1       3.849   1.152  -0.833  0.00  0.00    -0.094 A 
ATOM      9  C9  DEN d   1       4.265   1.508   0.439  0.00  0.00    -0.072 A 
ENDROOT
TORSDOF 0
ENDMDL
