MODEL 1
REMARK minimizedAffinity -4.09472609
REMARK minimizedRMSD -1
REMARK  1 active torsions:
REMARK  status: ('A' for Active; 'I' for Inactive)
REMARK    1  A    between atoms: C3_4  and  O_7 
ROOT
ATOM      1  C   UNL d   1      -0.208  -1.167   0.870  0.00  0.00    -0.033 A 
ATOM      2  C1  UNL d   1       0.942  -0.449   0.537  0.00  0.00     0.039 A 
ATOM      3  C2  UNL d   1       2.083  -1.120   0.094  0.00  0.00    -0.080 A 
ATOM      4  C3  UNL d   1       2.061  -2.508  -0.013  0.00  0.00     0.150 A 
ATOM      5  C4  UNL d   1       0.917  -3.230   0.313  0.00  0.00    -0.007 A 
ATOM      6  C5  UNL d   1      -0.221  -2.558   0.756  0.00  0.00     0.039 A 
ENDROOT
BRANCH   4   7
ATOM      7  O   UNL d   1       3.151  -3.208  -0.436  0.00  0.00    -0.526 OA
ATOM      8  H5  UNL d   1       3.876  -2.581  -0.598  0.00  0.00     0.418 HD
ENDBRANCH   4   7
TORSDOF 1
ENDMDL
