MODEL 1
REMARK minimizedAffinity 5.61241102
REMARK minimizedRMSD -1
REMARK  1 active torsions:
REMARK  status: ('A' for Active; 'I' for Inactive)
REMARK    1  A    between atoms: C3_4  and  O_7 
ROOT
ATOM      1  C   UNL d   1      -1.305  -1.099   0.371  0.00  0.00    -0.033 A 
ATOM      2  C1  UNL d   1      -0.304  -1.826  -0.275  0.00  0.00     0.039 A 
ATOM      3  C2  UNL d   1       1.039  -1.576   0.013  0.00  0.00    -0.080 A 
ATOM      4  C3  UNL d   1       1.367  -0.599   0.948  0.00  0.00     0.150 A 
ATOM      5  C4  UNL d   1       0.374   0.127   1.599  0.00  0.00    -0.007 A 
ATOM      6  C5  UNL d   1      -0.966  -0.124   1.309  0.00  0.00     0.039 A 
ENDROOT
BRANCH   4   7
ATOM      7  O   UNL d   1       2.664  -0.316   1.259  0.00  0.00    -0.526 OA
ATOM      8  H5  UNL d   1       3.240  -0.875   0.711  0.00  0.00     0.418 HD
ENDBRANCH   4   7
TORSDOF 1
ENDMDL
