MODEL 1
REMARK minimizedAffinity -2.33688998
REMARK minimizedRMSD -1
REMARK  1 active torsions:
REMARK  status: ('A' for Active; 'I' for Inactive)
REMARK    1  A    between atoms: C3_4  and  O_7 
ROOT
ATOM      1  C   UNL d   1      -0.219  -0.942   0.949  0.00  0.00    -0.033 A 
ATOM      2  C1  UNL d   1       1.014  -0.651   0.363  0.00  0.00     0.039 A 
ATOM      3  C2  UNL d   1       1.872  -1.686  -0.011  0.00  0.00    -0.080 A 
ATOM      4  C3  UNL d   1       1.486  -3.006   0.204  0.00  0.00     0.150 A 
ATOM      5  C4  UNL d   1       0.257  -3.303   0.784  0.00  0.00    -0.007 A 
ATOM      6  C5  UNL d   1      -0.599  -2.268   1.159  0.00  0.00     0.039 A 
ENDROOT
BRANCH   4   7
ATOM      7  O   UNL d   1       2.292  -4.050  -0.140  0.00  0.00    -0.526 OA
ATOM      8  H5  UNL d   1       3.120  -3.693  -0.503  0.00  0.00     0.418 HD
ENDBRANCH   4   7
TORSDOF 1
ENDMDL
