MODEL 1
REMARK minimizedAffinity -2.73584676
REMARK minimizedRMSD -1
REMARK  1 active torsions:
REMARK  status: ('A' for Active; 'I' for Inactive)
REMARK    1  A    between atoms: C3_4  and  O_7 
ROOT
ATOM      1  C   UNL d   1       0.521  -1.146   0.396  0.00  0.00    -0.033 A 
ATOM      2  C1  UNL d   1       1.910  -1.012   0.348  0.00  0.00     0.039 A 
ATOM      3  C2  UNL d   1       2.718  -2.144   0.223  0.00  0.00    -0.080 A 
ATOM      4  C3  UNL d   1       2.126  -3.401   0.145  0.00  0.00     0.150 A 
ATOM      5  C4  UNL d   1       0.742  -3.542   0.188  0.00  0.00    -0.007 A 
ATOM      6  C5  UNL d   1      -0.063  -2.411   0.314  0.00  0.00     0.039 A 
ENDROOT
BRANCH   4   7
ATOM      7  O   UNL d   1       2.873  -4.535   0.027  0.00  0.00    -0.526 OA
ATOM      8  H5  UNL d   1       3.813  -4.287   0.039  0.00  0.00     0.418 HD
ENDBRANCH   4   7
TORSDOF 1
ENDMDL
