MODEL 1
REMARK minimizedAffinity 0.532445252
REMARK minimizedRMSD -1
REMARK  1 active torsions:
REMARK  status: ('A' for Active; 'I' for Inactive)
REMARK    1  A    between atoms: C3_4  and  O_7 
ROOT
ATOM      1  C   UNL d   1      -0.103  -0.292   1.397  0.00  0.00    -0.033 A 
ATOM      2  C1  UNL d   1       1.291  -0.366   1.399  0.00  0.00     0.039 A 
ATOM      3  C2  UNL d   1       1.931  -1.539   0.993  0.00  0.00    -0.080 A 
ATOM      4  C3  UNL d   1       1.166  -2.629   0.588  0.00  0.00     0.150 A 
ATOM      5  C4  UNL d   1      -0.223  -2.561   0.579  0.00  0.00    -0.007 A 
ATOM      6  C5  UNL d   1      -0.860  -1.390   0.985  0.00  0.00     0.039 A 
ENDROOT
BRANCH   4   7
ATOM      7  O   UNL d   1       1.745  -3.796   0.188  0.00  0.00    -0.526 OA
ATOM      8  H5  UNL d   1       2.709  -3.706   0.273  0.00  0.00     0.418 HD
ENDBRANCH   4   7
TORSDOF 1
ENDMDL
