MODEL 1
REMARK minimizedAffinity -2.00674176
REMARK minimizedRMSD -1
REMARK  1 active torsions:
REMARK  status: ('A' for Active; 'I' for Inactive)
REMARK    1  A    between atoms: C3_4  and  O_7 
ROOT
ATOM      1  C   UNL d   1      -0.032  -1.496   0.090  0.00  0.00    -0.033 A 
ATOM      2  C1  UNL d   1      -0.541  -0.841   1.213  0.00  0.00     0.039 A 
ATOM      3  C2  UNL d   1       0.241   0.096   1.891  0.00  0.00    -0.080 A 
ATOM      4  C3  UNL d   1       1.528   0.369   1.437  0.00  0.00     0.150 A 
ATOM      5  C4  UNL d   1       2.040  -0.277   0.316  0.00  0.00    -0.007 A 
ATOM      6  C5  UNL d   1       1.258  -1.213  -0.359  0.00  0.00     0.039 A 
ENDROOT
BRANCH   4   7
ATOM      7  O   UNL d   1       2.331   1.272   2.068  0.00  0.00    -0.526 OA
ATOM      8  H5  UNL d   1       1.856   1.618   2.842  0.00  0.00     0.418 HD
ENDBRANCH   4   7
TORSDOF 1
ENDMDL
