MODEL 1
REMARK minimizedAffinity -6.22748661
REMARK minimizedRMSD -1
REMARK  1 active torsions:
REMARK  status: ('A' for Active; 'I' for Inactive)
REMARK    1  A    between atoms: C3_4  and  O_7 
ROOT
ATOM      1  C   UNL d   1      -0.016  -1.041   0.823  0.00  0.00    -0.033 A 
ATOM      2  C1  UNL d   1       1.221  -0.526   0.432  0.00  0.00     0.039 A 
ATOM      3  C2  UNL d   1       2.253  -1.391   0.059  0.00  0.00    -0.080 A 
ATOM      4  C3  UNL d   1       2.034  -2.765   0.082  0.00  0.00     0.150 A 
ATOM      5  C4  UNL d   1       0.803  -3.285   0.468  0.00  0.00    -0.007 A 
ATOM      6  C5  UNL d   1      -0.226  -2.420   0.840  0.00  0.00     0.039 A 
ENDROOT
BRANCH   4   7
ATOM      7  O   UNL d   1       3.012  -3.648  -0.268  0.00  0.00    -0.526 OA
ATOM      8  H5  UNL d   1       3.816  -3.147  -0.483  0.00  0.00     0.418 HD
ENDBRANCH   4   7
TORSDOF 1
ENDMDL
