MODEL 1
REMARK minimizedAffinity -0.642799795
REMARK minimizedRMSD -1
REMARK  1 active torsions:
REMARK  status: ('A' for Active; 'I' for Inactive)
REMARK    1  A    between atoms: C3_4  and  O_7 
ROOT
ATOM      1  C   UNL d   1       2.580   1.592  -3.541  0.00  0.00    -0.033 A 
ATOM      2  C1  UNL d   1       3.448   1.056  -2.587  0.00  0.00     0.039 A 
ATOM      3  C2  UNL d   1       4.208   1.903  -1.778  0.00  0.00    -0.080 A 
ATOM      4  C3  UNL d   1       4.091   3.282  -1.932  0.00  0.00     0.150 A 
ATOM      5  C4  UNL d   1       3.226   3.823  -2.877  0.00  0.00    -0.007 A 
ATOM      6  C5  UNL d   1       2.468   2.976  -3.685  0.00  0.00     0.039 A 
ENDROOT
BRANCH   4   7
ATOM      7  O   UNL d   1       4.816   4.148  -1.169  0.00  0.00    -0.526 OA
ATOM      8  H5  UNL d   1       5.392   3.632  -0.580  0.00  0.00     0.418 HD
ENDBRANCH   4   7
TORSDOF 1
ENDMDL
