MODEL 1
REMARK minimizedAffinity -1.51894403
REMARK minimizedRMSD -1
REMARK  1 active torsions:
REMARK  status: ('A' for Active; 'I' for Inactive)
REMARK    1  A    between atoms: C3_4  and  O_7 
ROOT
ATOM      1  C   UNL d   1       0.580   0.492   1.162  0.00  0.00    -0.033 A 
ATOM      2  C1  UNL d   1       1.921   0.102   1.158  0.00  0.00     0.039 A 
ATOM      3  C2  UNL d   1       2.284  -1.151   0.662  0.00  0.00    -0.080 A 
ATOM      4  C3  UNL d   1       1.299  -2.003   0.170  0.00  0.00     0.150 A 
ATOM      5  C4  UNL d   1      -0.038  -1.620   0.167  0.00  0.00    -0.007 A 
ATOM      6  C5  UNL d   1      -0.399  -0.369   0.664  0.00  0.00     0.039 A 
ENDROOT
BRANCH   4   7
ATOM      7  O   UNL d   1       1.605  -3.238  -0.320  0.00  0.00    -0.526 OA
ATOM      8  H5  UNL d   1       2.563  -3.377  -0.228  0.00  0.00     0.418 HD
ENDBRANCH   4   7
TORSDOF 1
ENDMDL
