MODEL 1
REMARK minimizedAffinity 0.0549109541
REMARK minimizedRMSD -1
REMARK  1 active torsions:
REMARK  status: ('A' for Active; 'I' for Inactive)
REMARK    1  A    between atoms: C3_4  and  O_7 
ROOT
ATOM      1  C   UNL d   1      -0.527  -0.306   0.779  0.00  0.00    -0.033 A 
ATOM      2  C1  UNL d   1       0.764  -0.341   1.309  0.00  0.00     0.039 A 
ATOM      3  C2  UNL d   1       1.519  -1.513   1.235  0.00  0.00    -0.080 A 
ATOM      4  C3  UNL d   1       0.973  -2.640   0.628  0.00  0.00     0.150 A 
ATOM      5  C4  UNL d   1      -0.311  -2.611   0.094  0.00  0.00    -0.007 A 
ATOM      6  C5  UNL d   1      -1.064  -1.441   0.170  0.00  0.00     0.039 A 
ENDROOT
BRANCH   4   7
ATOM      7  O   UNL d   1       1.671  -3.808   0.536  0.00  0.00    -0.526 OA
ATOM      8  H5  UNL d   1       2.530  -3.689   0.972  0.00  0.00     0.418 HD
ENDBRANCH   4   7
TORSDOF 1
ENDMDL
