MODEL 1
REMARK minimizedAffinity -5.35776329
REMARK minimizedRMSD -1
REMARK  1 active torsions:
REMARK  status: ('A' for Active; 'I' for Inactive)
REMARK    1  A    between atoms: C3_4  and  O_7 
ROOT
ATOM      1  C   UNL d   1       0.807  -1.172   0.590  0.00  0.00    -0.033 A 
ATOM      2  C1  UNL d   1       2.166  -0.856   0.574  0.00  0.00     0.039 A 
ATOM      3  C2  UNL d   1       3.117  -1.860   0.379  0.00  0.00    -0.080 A 
ATOM      4  C3  UNL d   1       2.695  -3.174   0.201  0.00  0.00     0.150 A 
ATOM      5  C4  UNL d   1       1.342  -3.496   0.211  0.00  0.00    -0.007 A 
ATOM      6  C5  UNL d   1       0.394  -2.492   0.407  0.00  0.00     0.039 A 
ENDROOT
BRANCH   4   7
ATOM      7  O   UNL d   1       3.585  -4.189   0.012  0.00  0.00    -0.526 OA
ATOM      8  H5  UNL d   1       4.484  -3.822   0.057  0.00  0.00     0.418 HD
ENDBRANCH   4   7
TORSDOF 1
ENDMDL
