MODEL 1
REMARK minimizedAffinity -2.57480907
REMARK minimizedRMSD -1
REMARK  1 active torsions:
REMARK  status: ('A' for Active; 'I' for Inactive)
REMARK    1  A    between atoms: C3_4  and  O_7 
ROOT
ATOM      1  C   UNL d   1      -0.438  -0.297   1.404  0.00  0.00    -0.033 A 
ATOM      2  C1  UNL d   1       0.923  -0.567   1.254  0.00  0.00     0.039 A 
ATOM      3  C2  UNL d   1       1.338  -1.746   0.631  0.00  0.00    -0.080 A 
ATOM      4  C3  UNL d   1       0.382  -2.644   0.163  0.00  0.00     0.150 A 
ATOM      5  C4  UNL d   1      -0.976  -2.379   0.306  0.00  0.00    -0.007 A 
ATOM      6  C5  UNL d   1      -1.388  -1.202   0.929  0.00  0.00     0.039 A 
ENDROOT
BRANCH   4   7
ATOM      7  O   UNL d   1       0.739  -3.810  -0.448  0.00  0.00    -0.526 OA
ATOM      8  H5  UNL d   1       1.709  -3.872  -0.450  0.00  0.00     0.418 HD
ENDBRANCH   4   7
TORSDOF 1
ENDMDL
