MODEL 1
REMARK minimizedAffinity -2.39780045
REMARK minimizedRMSD -1
REMARK  1 active torsions:
REMARK  status: ('A' for Active; 'I' for Inactive)
REMARK    1  A    between atoms: C3_4  and  O_7 
ROOT
ATOM      1  C   UNL d   1       0.286  -0.948   0.541  0.00  0.00    -0.033 A 
ATOM      2  C1  UNL d   1      -0.282  -2.213   0.379  0.00  0.00     0.039 A 
ATOM      3  C2  UNL d   1       0.536  -3.333   0.218  0.00  0.00    -0.080 A 
ATOM      4  C3  UNL d   1       1.919  -3.175   0.221  0.00  0.00     0.150 A 
ATOM      5  C4  UNL d   1       2.492  -1.918   0.386  0.00  0.00    -0.007 A 
ATOM      6  C5  UNL d   1       1.674  -0.801   0.546  0.00  0.00     0.039 A 
ENDROOT
BRANCH   4   7
ATOM      7  O   UNL d   1       2.759  -4.237   0.063  0.00  0.00    -0.526 OA
ATOM      8  H5  UNL d   1       2.222  -5.036  -0.069  0.00  0.00     0.418 HD
ENDBRANCH   4   7
TORSDOF 1
ENDMDL
