MODEL 1
REMARK minimizedAffinity 3.86217141
REMARK minimizedRMSD -1
REMARK  1 active torsions:
REMARK  status: ('A' for Active; 'I' for Inactive)
REMARK    1  A    between atoms: C3_4  and  O_7 
ROOT
ATOM      1  C   UNL d   1      -4.438   2.073   5.993  0.00  0.00    -0.033 A 
ATOM      2  C1  UNL d   1      -3.490   1.048   5.998  0.00  0.00     0.039 A 
ATOM      3  C2  UNL d   1      -2.509   0.997   5.005  0.00  0.00    -0.080 A 
ATOM      4  C3  UNL d   1      -2.488   1.976   4.015  0.00  0.00     0.150 A 
ATOM      5  C4  UNL d   1      -3.427   3.002   4.007  0.00  0.00    -0.007 A 
ATOM      6  C5  UNL d   1      -4.405   3.051   4.999  0.00  0.00     0.039 A 
ENDROOT
BRANCH   4   7
ATOM      7  O   UNL d   1      -1.553   1.966   3.023  0.00  0.00    -0.526 OA
ATOM      8  H5  UNL d   1      -0.989   1.183   3.140  0.00  0.00     0.418 HD
ENDBRANCH   4   7
TORSDOF 1
ENDMDL
