MODEL 1
REMARK minimizedAffinity -5.68330765
REMARK minimizedRMSD -1
REMARK  1 active torsions:
REMARK  status: ('A' for Active; 'I' for Inactive)
REMARK    1  A    between atoms: C3_4  and  O_7 
ROOT
ATOM      1  C   UNL d   1       0.411  -0.561   0.457  0.00  0.00    -0.033 A 
ATOM      2  C1  UNL d   1      -0.410  -1.685   0.341  0.00  0.00     0.039 A 
ATOM      3  C2  UNL d   1       0.146  -2.965   0.389  0.00  0.00    -0.080 A 
ATOM      4  C3  UNL d   1       1.520  -3.108   0.555  0.00  0.00     0.150 A 
ATOM      5  C4  UNL d   1       2.343  -1.993   0.676  0.00  0.00    -0.007 A 
ATOM      6  C5  UNL d   1       1.787  -0.715   0.627  0.00  0.00     0.039 A 
ENDROOT
BRANCH   4   7
ATOM      7  O   UNL d   1       2.108  -4.337   0.604  0.00  0.00    -0.526 OA
ATOM      8  H5  UNL d   1       1.421  -5.012   0.478  0.00  0.00     0.418 HD
ENDBRANCH   4   7
TORSDOF 1
ENDMDL
