MODEL 1
REMARK minimizedAffinity -5.2682476
REMARK minimizedRMSD -1
REMARK  0 active torsions:
REMARK  status: ('A' for Active; 'I' for Inactive)
ROOT
ATOM      1  C   UNL d   1       2.629  -2.236   0.307  0.00  0.00     0.078 C 
ATOM      2  C1  UNL d   1       1.417  -1.546   0.860  0.00  0.00    -0.077 A 
ATOM      3  C2  UNL d   1       1.096  -1.631   2.220  0.00  0.00    -0.001 A 
ATOM      4  C3  UNL d   1      -0.040  -0.992   2.719  0.00  0.00     0.003 A 
ATOM      5  C4  UNL d   1      -0.866  -0.265   1.863  0.00  0.00    -0.005 A 
ATOM      6  C5  UNL d   1      -0.556  -0.177   0.508  0.00  0.00     0.003 A 
ATOM      7  C6  UNL d   1       0.580  -0.815   0.008  0.00  0.00    -0.001 A 
ENDROOT
TORSDOF 0
ENDMDL
