MODEL 1
REMARK minimizedAffinity -4.86370373
REMARK minimizedRMSD -1
REMARK  0 active torsions:
REMARK  status: ('A' for Active; 'I' for Inactive)
ROOT
ATOM      1  C   UNL d   1      -2.360  -0.723   0.873  0.00  0.00     0.078 C 
ATOM      2  C1  UNL d   1      -0.893  -0.628   1.168  0.00  0.00    -0.077 A 
ATOM      3  C2  UNL d   1      -0.018   0.012   0.282  0.00  0.00    -0.001 A 
ATOM      4  C3  UNL d   1       1.347   0.084   0.564  0.00  0.00     0.003 A 
ATOM      5  C4  UNL d   1       1.850  -0.484   1.733  0.00  0.00    -0.005 A 
ATOM      6  C5  UNL d   1       0.988  -1.126   2.620  0.00  0.00     0.003 A 
ATOM      7  C6  UNL d   1      -0.377  -1.198   2.339  0.00  0.00    -0.001 A 
ENDROOT
TORSDOF 0
ENDMDL
