MODEL 1
REMARK minimizedAffinity -4.85749102
REMARK minimizedRMSD -1
REMARK  0 active torsions:
REMARK  status: ('A' for Active; 'I' for Inactive)
ROOT
ATOM      1  C   UNL d   1       1.887  -0.557   3.024  0.00  0.00     0.078 C 
ATOM      2  C1  UNL d   1       1.489  -0.458   1.582  0.00  0.00    -0.077 A 
ATOM      3  C2  UNL d   1       0.156  -0.232   1.216  0.00  0.00    -0.001 A 
ATOM      4  C3  UNL d   1      -0.202  -0.152  -0.131  0.00  0.00     0.003 A 
ATOM      5  C4  UNL d   1       0.767  -0.298  -1.122  0.00  0.00    -0.005 A 
ATOM      6  C5  UNL d   1       2.095  -0.526  -0.768  0.00  0.00     0.003 A 
ATOM      7  C6  UNL d   1       2.455  -0.606   0.579  0.00  0.00    -0.001 A 
ENDROOT
TORSDOF 0
ENDMDL
