MODEL 1
REMARK minimizedAffinity -4.91371822
REMARK minimizedRMSD -1
REMARK  0 active torsions:
REMARK  status: ('A' for Active; 'I' for Inactive)
ROOT
ATOM      1  C   UNL d   1       0.166   0.873  -0.856  0.00  0.00     0.078 C 
ATOM      2  C1  UNL d   1       0.468   0.156   0.425  0.00  0.00    -0.077 A 
ATOM      3  C2  UNL d   1      -0.562  -0.300   1.257  0.00  0.00    -0.001 A 
ATOM      4  C3  UNL d   1      -0.265  -0.958   2.452  0.00  0.00     0.003 A 
ATOM      5  C4  UNL d   1       1.061  -1.164   2.827  0.00  0.00    -0.005 A 
ATOM      6  C5  UNL d   1       2.093  -0.711   2.007  0.00  0.00     0.003 A 
ATOM      7  C6  UNL d   1       1.798  -0.053   0.812  0.00  0.00    -0.001 A 
ENDROOT
TORSDOF 0
ENDMDL
