MODEL 1
REMARK minimizedAffinity -4.17312956
REMARK minimizedRMSD -1
REMARK  0 active torsions:
REMARK  status: ('A' for Active; 'I' for Inactive)
ROOT
ATOM      1  C   UNL d   1       1.602  -0.471   2.807  0.00  0.00     0.078 C 
ATOM      2  C1  UNL d   1       0.744  -0.493   1.578  0.00  0.00    -0.077 A 
ATOM      3  C2  UNL d   1       1.316  -0.519   0.300  0.00  0.00    -0.001 A 
ATOM      4  C3  UNL d   1       0.505  -0.529  -0.836  0.00  0.00     0.003 A 
ATOM      5  C4  UNL d   1      -0.882  -0.512  -0.706  0.00  0.00    -0.005 A 
ATOM      6  C5  UNL d   1      -1.460  -0.484   0.562  0.00  0.00     0.003 A 
ATOM      7  C6  UNL d   1      -0.651  -0.474   1.699  0.00  0.00    -0.001 A 
ENDROOT
TORSDOF 0
ENDMDL
