MODEL 1
REMARK minimizedAffinity -4.18865013
REMARK minimizedRMSD -1
REMARK  0 active torsions:
REMARK  status: ('A' for Active; 'I' for Inactive)
ROOT
ATOM      1  C   UNL d   1      -2.054  -0.827   0.223  0.00  0.00     0.078 C 
ATOM      2  C1  UNL d   1      -0.724  -0.694   0.901  0.00  0.00    -0.077 A 
ATOM      3  C2  UNL d   1       0.444  -0.472   0.162  0.00  0.00    -0.001 A 
ATOM      4  C3  UNL d   1       1.677  -0.360   0.806  0.00  0.00     0.003 A 
ATOM      5  C4  UNL d   1       1.755  -0.469   2.193  0.00  0.00    -0.005 A 
ATOM      6  C5  UNL d   1       0.598  -0.692   2.937  0.00  0.00     0.003 A 
ATOM      7  C6  UNL d   1      -0.636  -0.805   2.295  0.00  0.00    -0.001 A 
ENDROOT
TORSDOF 0
ENDMDL
