MODEL 1
REMARK minimizedAffinity -4.28807926
REMARK minimizedRMSD -1
REMARK  0 active torsions:
REMARK  status: ('A' for Active; 'I' for Inactive)
ROOT
ATOM      1  C   UNL d   1       1.754  -0.493   2.647  0.00  0.00     0.078 C 
ATOM      2  C1  UNL d   1       0.809  -0.612   1.489  0.00  0.00    -0.077 A 
ATOM      3  C2  UNL d   1       1.284  -0.676   0.173  0.00  0.00    -0.001 A 
ATOM      4  C3  UNL d   1       0.393  -0.777  -0.896  0.00  0.00     0.003 A 
ATOM      5  C4  UNL d   1      -0.980  -0.812  -0.661  0.00  0.00    -0.005 A 
ATOM      6  C5  UNL d   1      -1.463  -0.747   0.645  0.00  0.00     0.003 A 
ATOM      7  C6  UNL d   1      -0.573  -0.646   1.715  0.00  0.00    -0.001 A 
ENDROOT
TORSDOF 0
ENDMDL
