MODEL 1
REMARK minimizedAffinity 2.05639029
REMARK minimizedRMSD -1
REMARK  1 active torsions:
REMARK  status: ('A' for Active; 'I' for Inactive)
REMARK    1  A    between atoms: C3_4  and  O_7 
ROOT
ATOM      1  C   UNL d   1       2.346   2.438  -0.832  0.00  0.00    -0.033 A 
ATOM      2  C1  UNL d   1       2.153   1.057  -0.769  0.00  0.00     0.039 A 
ATOM      3  C2  UNL d   1       3.162   0.231  -0.270  0.00  0.00    -0.080 A 
ATOM      4  C3  UNL d   1       4.358   0.799   0.162  0.00  0.00     0.150 A 
ATOM      5  C4  UNL d   1       4.555   2.175   0.106  0.00  0.00    -0.007 A 
ATOM      6  C5  UNL d   1       3.546   2.997  -0.393  0.00  0.00     0.039 A 
ENDROOT
BRANCH   4   7
ATOM      7  O   UNL d   1       5.374   0.033   0.653  0.00  0.00    -0.526 OA
ATOM      8  H5  UNL d   1       5.106  -0.900   0.605  0.00  0.00     0.418 HD
ENDBRANCH   4   7
TORSDOF 1
ENDMDL
