MODEL 1
REMARK minimizedAffinity 3.09973049
REMARK minimizedRMSD -1
REMARK  1 active torsions:
REMARK  status: ('A' for Active; 'I' for Inactive)
REMARK    1  A    between atoms: C3_4  and  O_7 
ROOT
ATOM      1  C   UNL d   1       0.453  -1.267   1.870  0.00  0.00    -0.033 A 
ATOM      2  C1  UNL d   1       0.675  -2.599   2.228  0.00  0.00     0.039 A 
ATOM      3  C2  UNL d   1      -0.184  -3.235   3.125  0.00  0.00    -0.080 A 
ATOM      4  C3  UNL d   1      -1.261  -2.530   3.657  0.00  0.00     0.150 A 
ATOM      5  C4  UNL d   1      -1.491  -1.205   3.302  0.00  0.00    -0.007 A 
ATOM      6  C5  UNL d   1      -0.631  -0.571   2.406  0.00  0.00     0.039 A 
ENDROOT
BRANCH   4   7
ATOM      7  O   UNL d   1      -2.124  -3.108   4.540  0.00  0.00    -0.526 OA
ATOM      8  H5  UNL d   1      -1.825  -4.016   4.714  0.00  0.00     0.418 HD
ENDBRANCH   4   7
TORSDOF 1
ENDMDL
