MODEL 1
REMARK minimizedAffinity 0.803549111
REMARK minimizedRMSD -1
REMARK  1 active torsions:
REMARK  status: ('A' for Active; 'I' for Inactive)
REMARK    1  A    between atoms: C3_4  and  O_7 
ROOT
ATOM      1  C   UNL d   1      -0.519  -1.754   2.648  0.00  0.00    -0.033 A 
ATOM      2  C1  UNL d   1      -0.112  -3.038   3.015  0.00  0.00     0.039 A 
ATOM      3  C2  UNL d   1       0.888  -3.689   2.292  0.00  0.00    -0.080 A 
ATOM      4  C3  UNL d   1       1.474  -3.046   1.205  0.00  0.00     0.150 A 
ATOM      5  C4  UNL d   1       1.077  -1.765   0.835  0.00  0.00    -0.007 A 
ATOM      6  C5  UNL d   1       0.077  -1.117   1.559  0.00  0.00     0.039 A 
ENDROOT
BRANCH   4   7
ATOM      7  O   UNL d   1       2.451  -3.644   0.465  0.00  0.00    -0.526 OA
ATOM      8  H5  UNL d   1       2.602  -4.536   0.819  0.00  0.00     0.418 HD
ENDBRANCH   4   7
TORSDOF 1
ENDMDL
