MODEL 1
REMARK minimizedAffinity 1.64790773
REMARK minimizedRMSD -1
REMARK  1 active torsions:
REMARK  status: ('A' for Active; 'I' for Inactive)
REMARK    1  A    between atoms: C3_4  and  O_7 
ROOT
ATOM      1  C   UNL d   1      -0.716  -1.187   2.664  0.00  0.00    -0.033 A 
ATOM      2  C1  UNL d   1      -0.263  -0.540   1.512  0.00  0.00     0.039 A 
ATOM      3  C2  UNL d   1       0.724  -1.130   0.721  0.00  0.00    -0.080 A 
ATOM      4  C3  UNL d   1       1.250  -2.365   1.092  0.00  0.00     0.150 A 
ATOM      5  C4  UNL d   1       0.801  -3.016   2.236  0.00  0.00    -0.007 A 
ATOM      6  C5  UNL d   1      -0.185  -2.425   3.025  0.00  0.00     0.039 A 
ENDROOT
BRANCH   4   7
ATOM      7  O   UNL d   1       2.219  -2.977   0.354  0.00  0.00    -0.526 OA
ATOM      8  H5  UNL d   1       2.451  -2.398  -0.391  0.00  0.00     0.418 HD
ENDBRANCH   4   7
TORSDOF 1
ENDMDL
