MODEL 1
REMARK minimizedAffinity 6.49727154
REMARK minimizedRMSD -1
REMARK  1 active torsions:
REMARK  status: ('A' for Active; 'I' for Inactive)
REMARK    1  A    between atoms: C3_4  and  O_7 
ROOT
ATOM      1  C   UNL d   1       5.337  -2.423   0.248  0.00  0.00    -0.033 A 
ATOM      2  C1  UNL d   1       6.000  -1.201   0.374  0.00  0.00     0.039 A 
ATOM      3  C2  UNL d   1       5.304  -0.005   0.187  0.00  0.00    -0.080 A 
ATOM      4  C3  UNL d   1       3.948  -0.045  -0.123  0.00  0.00     0.150 A 
ATOM      5  C4  UNL d   1       3.280  -1.259  -0.246  0.00  0.00    -0.007 A 
ATOM      6  C5  UNL d   1       3.976  -2.452  -0.060  0.00  0.00     0.039 A 
ENDROOT
BRANCH   4   7
ATOM      7  O   UNL d   1       3.228   1.096  -0.319  0.00  0.00    -0.526 OA
ATOM      8  H5  UNL d   1       3.826   1.857  -0.231  0.00  0.00     0.418 HD
ENDBRANCH   4   7
TORSDOF 1
ENDMDL
