MODEL 1
REMARK minimizedAffinity 3.02735257
REMARK minimizedRMSD -1
REMARK  1 active torsions:
REMARK  status: ('A' for Active; 'I' for Inactive)
REMARK    1  A    between atoms: C3_4  and  O_7 
ROOT
ATOM      1  C   UNL d   1      -0.740  -1.162   2.803  0.00  0.00    -0.033 A 
ATOM      2  C1  UNL d   1      -0.748   0.163   3.241  0.00  0.00     0.039 A 
ATOM      3  C2  UNL d   1      -1.895   0.944   3.088  0.00  0.00    -0.080 A 
ATOM      4  C3  UNL d   1      -3.027   0.388   2.498  0.00  0.00     0.150 A 
ATOM      5  C4  UNL d   1      -3.027  -0.933   2.064  0.00  0.00    -0.007 A 
ATOM      6  C5  UNL d   1      -1.881  -1.711   2.216  0.00  0.00     0.039 A 
ENDROOT
BRANCH   4   7
ATOM      7  O   UNL d   1      -4.168   1.113   2.324  0.00  0.00    -0.526 OA
ATOM      8  H5  UNL d   1      -4.011   2.016   2.645  0.00  0.00     0.418 HD
ENDBRANCH   4   7
TORSDOF 1
ENDMDL
