MODEL 1
REMARK minimizedAffinity 2.28900647
REMARK minimizedRMSD -1
REMARK  1 active torsions:
REMARK  status: ('A' for Active; 'I' for Inactive)
REMARK    1  A    between atoms: C3_4  and  O_7 
ROOT
ATOM      1  C   UNL d   1      -1.437  -3.105   3.602  0.00  0.00    -0.033 A 
ATOM      2  C1  UNL d   1      -0.749  -4.288   3.327  0.00  0.00     0.039 A 
ATOM      3  C2  UNL d   1       0.363  -4.271   2.484  0.00  0.00    -0.080 A 
ATOM      4  C3  UNL d   1       0.777  -3.066   1.924  0.00  0.00     0.150 A 
ATOM      5  C4  UNL d   1       0.099  -1.882   2.196  0.00  0.00    -0.007 A 
ATOM      6  C5  UNL d   1      -1.012  -1.901   3.038  0.00  0.00     0.039 A 
ENDROOT
BRANCH   4   7
ATOM      7  O   UNL d   1       1.855  -3.000   1.091  0.00  0.00    -0.526 OA
ATOM      8  H5  UNL d   1       2.206  -3.898   0.971  0.00  0.00     0.418 HD
ENDBRANCH   4   7
TORSDOF 1
ENDMDL
