MODEL 1
REMARK minimizedAffinity -1.42944825
REMARK minimizedRMSD -1
REMARK  1 active torsions:
REMARK  status: ('A' for Active; 'I' for Inactive)
REMARK    1  A    between atoms: C3_4  and  O_7 
ROOT
ATOM      1  C   UNL d   1      -0.361  -0.660   1.017  0.00  0.00    -0.033 A 
ATOM      2  C1  UNL d   1      -1.718  -0.332   0.995  0.00  0.00     0.039 A 
ATOM      3  C2  UNL d   1      -2.327   0.046  -0.204  0.00  0.00    -0.080 A 
ATOM      4  C3  UNL d   1      -1.569   0.090  -1.371  0.00  0.00     0.150 A 
ATOM      5  C4  UNL d   1      -0.218  -0.239  -1.356  0.00  0.00    -0.007 A 
ATOM      6  C5  UNL d   1       0.389  -0.615  -0.158  0.00  0.00     0.039 A 
ENDROOT
BRANCH   4   7
ATOM      7  O   UNL d   1      -2.118   0.458  -2.563  0.00  0.00    -0.526 OA
ATOM      8  H5  UNL d   1      -3.051   0.685  -2.416  0.00  0.00     0.418 HD
ENDBRANCH   4   7
TORSDOF 1
ENDMDL
