MODEL 1
REMARK minimizedAffinity 0.188549593
REMARK minimizedRMSD -1
REMARK  1 active torsions:
REMARK  status: ('A' for Active; 'I' for Inactive)
REMARK    1  A    between atoms: C3_4  and  O_7 
ROOT
ATOM      1  C   UNL d   1       2.998  -4.208   0.700  0.00  0.00    -0.033 A 
ATOM      2  C1  UNL d   1       2.395  -3.030   0.257  0.00  0.00     0.039 A 
ATOM      3  C2  UNL d   1       1.404  -2.418   1.028  0.00  0.00    -0.080 A 
ATOM      4  C3  UNL d   1       1.027  -2.995   2.238  0.00  0.00     0.150 A 
ATOM      5  C4  UNL d   1       1.627  -4.167   2.687  0.00  0.00    -0.007 A 
ATOM      6  C5  UNL d   1       2.616  -4.776   1.915  0.00  0.00     0.039 A 
ENDROOT
BRANCH   4   7
ATOM      7  O   UNL d   1       0.062  -2.437   3.023  0.00  0.00    -0.526 OA
ATOM      8  H5  UNL d   1      -0.283  -1.648   2.572  0.00  0.00     0.418 HD
ENDBRANCH   4   7
TORSDOF 1
ENDMDL
