MODEL 1
REMARK minimizedAffinity 10.8205471
REMARK minimizedRMSD -1
REMARK  0 active torsions:
REMARK  status: ('A' for Active; 'I' for Inactive)
ROOT
ATOM      1  O1  BZF d   1       0.985  -4.569   0.083  0.00  0.00    -0.204 OA
ATOM      2  C2  BZF d   1       2.237  -5.144  -0.018  0.00  0.00     0.174 A 
ATOM      3  C3  BZF d   1       3.192  -4.285   0.393  0.00  0.00    -0.012 A 
ATOM      4  C3A BZF d   1       2.486  -3.132   0.860  0.00  0.00    -0.107 A 
ATOM      5  C4  BZF d   1       2.883  -1.944   1.405  0.00  0.00     0.055 A 
ATOM      6  C5  BZF d   1       1.947  -1.000   1.686  0.00  0.00    -0.016 A 
ATOM      7  C6  BZF d   1       0.607  -1.208   1.431  0.00  0.00     0.022 A 
ATOM      8  C7  BZF d   1       0.164  -2.372   0.896  0.00  0.00     0.029 A 
ATOM      9  C7A BZF d   1       1.104  -3.341   0.642  0.00  0.00     0.058 A 
ENDROOT
TORSDOF 0
ENDMDL
