MODEL 1
REMARK minimizedAffinity 16.7891045
REMARK minimizedRMSD -1
REMARK  0 active torsions:
REMARK  status: ('A' for Active; 'I' for Inactive)
ROOT
ATOM      1  O1  BZF d   1       4.550   3.744  -5.289  0.00  0.00    -0.204 OA
ATOM      2  C2  BZF d   1       5.318   4.845  -5.619  0.00  0.00     0.174 A 
ATOM      3  C3  BZF d   1       4.536   5.876  -5.999  0.00  0.00    -0.012 A 
ATOM      4  C3A BZF d   1       3.193   5.420  -5.811  0.00  0.00    -0.107 A 
ATOM      5  C4  BZF d   1       1.970   5.998  -6.000  0.00  0.00     0.055 A 
ATOM      6  C5  BZF d   1       0.850   5.257  -5.792  0.00  0.00    -0.016 A 
ATOM      7  C6  BZF d   1       0.916   3.935  -5.403  0.00  0.00     0.022 A 
ATOM      8  C7  BZF d   1       2.106   3.320  -5.199  0.00  0.00     0.029 A 
ATOM      9  C7A BZF d   1       3.239   4.076  -5.375  0.00  0.00     0.058 A 
ENDROOT
TORSDOF 0
ENDMDL
