MODEL 1
REMARK minimizedAffinity 7.50692987
REMARK minimizedRMSD -1
REMARK  0 active torsions:
REMARK  status: ('A' for Active; 'I' for Inactive)
ROOT
ATOM      1  O1  BZF d   1       0.958  -3.518   0.657  0.00  0.00    -0.204 OA
ATOM      2  C2  BZF d   1       2.245  -3.157   0.309  0.00  0.00     0.174 A 
ATOM      3  C3  BZF d   1       2.615  -2.027   0.946  0.00  0.00    -0.012 A 
ATOM      4  C3A BZF d   1       1.521  -1.709   1.812  0.00  0.00    -0.107 A 
ATOM      5  C4  BZF d   1       1.298  -0.708   2.713  0.00  0.00     0.055 A 
ATOM      6  C5  BZF d   1       0.096  -0.642   3.343  0.00  0.00    -0.016 A 
ATOM      7  C6  BZF d   1      -0.906  -1.557   3.093  0.00  0.00     0.022 A 
ATOM      8  C7  BZF d   1      -0.729  -2.571   2.212  0.00  0.00     0.029 A 
ATOM      9  C7A BZF d   1       0.496  -2.659   1.598  0.00  0.00     0.058 A 
ENDROOT
TORSDOF 0
ENDMDL
