MODEL 1
REMARK minimizedAffinity 16.8147297
REMARK minimizedRMSD -1
REMARK  0 active torsions:
REMARK  status: ('A' for Active; 'I' for Inactive)
ROOT
ATOM      1  O1  BZF d   1       2.057   3.919  -4.901  0.00  0.00    -0.204 OA
ATOM      2  C2  BZF d   1       1.317   4.908  -5.520  0.00  0.00     0.174 A 
ATOM      3  C3  BZF d   1       2.121   5.878  -6.000  0.00  0.00    -0.012 A 
ATOM      4  C3A BZF d   1       3.454   5.425  -5.741  0.00  0.00    -0.107 A 
ATOM      5  C4  BZF d   1       4.689   5.946  -5.999  0.00  0.00     0.055 A 
ATOM      6  C5  BZF d   1       5.790   5.287  -5.551  0.00  0.00    -0.016 A 
ATOM      7  C6  BZF d   1       5.692   4.110  -4.838  0.00  0.00     0.022 A 
ATOM      8  C7  BZF d   1       4.489   3.552  -4.562  0.00  0.00     0.029 A 
ATOM      9  C7A BZF d   1       3.375   4.198  -5.042  0.00  0.00     0.058 A 
ENDROOT
TORSDOF 0
ENDMDL
