MODEL 1
REMARK minimizedAffinity 14.2288456
REMARK minimizedRMSD -1
REMARK  0 active torsions:
REMARK  status: ('A' for Active; 'I' for Inactive)
ROOT
ATOM      1  O1  BZF d   1       5.958  -4.873   5.977  0.00  0.00    -0.204 OA
ATOM      2  C2  BZF d   1       4.947  -5.814   6.000  0.00  0.00     0.174 A 
ATOM      3  C3  BZF d   1       3.737  -5.218   5.958  0.00  0.00    -0.012 A 
ATOM      4  C3A BZF d   1       4.011  -3.821   5.812  0.00  0.00    -0.107 A 
ATOM      5  C4  BZF d   1       3.218  -2.716   5.698  0.00  0.00     0.055 A 
ATOM      6  C5  BZF d   1       3.798  -1.489   5.644  0.00  0.00    -0.016 A 
ATOM      7  C6  BZF d   1       5.167  -1.330   5.709  0.00  0.00     0.022 A 
ATOM      8  C7  BZF d   1       5.996  -2.397   5.818  0.00  0.00     0.029 A 
ATOM      9  C7A BZF d   1       5.413  -3.640   5.838  0.00  0.00     0.058 A 
ENDROOT
TORSDOF 0
ENDMDL
