MODEL 1
REMARK minimizedAffinity 8.48598957
REMARK minimizedRMSD -1
REMARK  0 active torsions:
REMARK  status: ('A' for Active; 'I' for Inactive)
ROOT
ATOM      1  O1  BZF d   1       4.690  -1.973   5.165  0.00  0.00    -0.204 OA
ATOM      2  C2  BZF d   1       3.475  -1.823   4.525  0.00  0.00     0.174 A 
ATOM      3  C3  BZF d   1       2.925  -3.024   4.255  0.00  0.00    -0.012 A 
ATOM      4  C3A BZF d   1       3.811  -3.983   4.840  0.00  0.00    -0.107 A 
ATOM      5  C4  BZF d   1       3.798  -5.347   4.920  0.00  0.00     0.055 A 
ATOM      6  C5  BZF d   1       4.850  -5.984   5.496  0.00  0.00    -0.016 A 
ATOM      7  C6  BZF d   1       5.933  -5.292   5.997  0.00  0.00     0.022 A 
ATOM      8  C7  BZF d   1       5.989  -3.939   5.945  0.00  0.00     0.029 A 
ATOM      9  C7A BZF d   1       4.912  -3.289   5.393  0.00  0.00     0.058 A 
ENDROOT
TORSDOF 0
ENDMDL
