MODEL 1
REMARK minimizedAffinity 10.5614977
REMARK minimizedRMSD -1
REMARK  0 active torsions:
REMARK  status: ('A' for Active; 'I' for Inactive)
ROOT
ATOM      1  O1  BZF d   1       5.210   3.686  -5.827  0.00  0.00    -0.204 OA
ATOM      2  C2  BZF d   1       5.885   4.891  -5.798  0.00  0.00     0.174 A 
ATOM      3  C3  BZF d   1       5.022   5.925  -5.873  0.00  0.00    -0.012 A 
ATOM      4  C3A BZF d   1       3.720   5.330  -5.860  0.00  0.00    -0.107 A 
ATOM      5  C4  BZF d   1       2.454   5.841  -5.896  0.00  0.00     0.055 A 
ATOM      6  C5  BZF d   1       1.399   4.987  -5.944  0.00  0.00    -0.016 A 
ATOM      7  C6  BZF d   1       1.572   3.618  -5.962  0.00  0.00     0.022 A 
ATOM      8  C7  BZF d   1       2.809   3.065  -5.923  0.00  0.00     0.029 A 
ATOM      9  C7A BZF d   1       3.876   3.925  -5.841  0.00  0.00     0.058 A 
ENDROOT
TORSDOF 0
ENDMDL
