MODEL 1
REMARK minimizedAffinity 3.44066477
REMARK minimizedRMSD -1
REMARK  0 active torsions:
REMARK  status: ('A' for Active; 'I' for Inactive)
ROOT
ATOM      1  O1  BZF d   1       2.246   3.747  -5.321  0.00  0.00    -0.204 OA
ATOM      2  C2  BZF d   1       1.563   4.826  -5.846  0.00  0.00     0.174 A 
ATOM      3  C3  BZF d   1       2.385   5.885  -6.000  0.00  0.00    -0.012 A 
ATOM      4  C3A BZF d   1       3.682   5.410  -5.628  0.00  0.00    -0.107 A 
ATOM      5  C4  BZF d   1       4.917   5.991  -5.585  0.00  0.00     0.055 A 
ATOM      6  C5  BZF d   1       5.968   5.275  -5.104  0.00  0.00    -0.016 A 
ATOM      7  C6  BZF d   1       5.818   3.979  -4.654  0.00  0.00     0.022 A 
ATOM      8  C7  BZF d   1       4.613   3.359  -4.682  0.00  0.00     0.029 A 
ATOM      9  C7A BZF d   1       3.556   4.069  -5.198  0.00  0.00     0.058 A 
ENDROOT
TORSDOF 0
ENDMDL
