MODEL 1
REMARK minimizedAffinity 18.0216312
REMARK minimizedRMSD -1
REMARK  0 active torsions:
REMARK  status: ('A' for Active; 'I' for Inactive)
ROOT
ATOM      1  O1  BZF d   1      -2.687   3.498  -3.198  0.00  0.00    -0.204 OA
ATOM      2  C2  BZF d   1      -2.161   2.288  -2.789  0.00  0.00     0.174 A 
ATOM      3  C3  BZF d   1      -2.876   1.261  -3.292  0.00  0.00    -0.012 A 
ATOM      4  C3A BZF d   1      -3.859   1.866  -4.138  0.00  0.00    -0.107 A 
ATOM      5  C4  BZF d   1      -4.854   1.365  -4.928  0.00  0.00     0.055 A 
ATOM      6  C5  BZF d   1      -5.686   2.228  -5.569  0.00  0.00    -0.016 A 
ATOM      7  C6  BZF d   1      -5.555   3.595  -5.439  0.00  0.00     0.022 A 
ATOM      8  C7  BZF d   1      -4.580   4.138  -4.670  0.00  0.00     0.029 A 
ATOM      9  C7A BZF d   1      -3.717   3.270  -4.047  0.00  0.00     0.058 A 
ENDROOT
TORSDOF 0
ENDMDL
