MODEL 1
REMARK minimizedAffinity 8.56510162
REMARK minimizedRMSD -1
REMARK  0 active torsions:
REMARK  status: ('A' for Active; 'I' for Inactive)
ROOT
ATOM      1  O1  BZF d   1       4.803   2.931  -4.449  0.00  0.00    -0.204 OA
ATOM      2  C2  BZF d   1       5.999   3.381  -4.973  0.00  0.00     0.174 A 
ATOM      3  C3  BZF d   1       5.833   4.565  -5.597  0.00  0.00    -0.012 A 
ATOM      4  C3A BZF d   1       4.464   4.919  -5.375  0.00  0.00    -0.107 A 
ATOM      5  C4  BZF d   1       3.702   5.993  -5.734  0.00  0.00     0.055 A 
ATOM      6  C5  BZF d   1       2.379   5.998  -5.422  0.00  0.00    -0.016 A 
ATOM      7  C6  BZF d   1       1.786   4.945  -4.757  0.00  0.00     0.022 A 
ATOM      8  C7  BZF d   1       2.503   3.860  -4.375  0.00  0.00     0.029 A 
ATOM      9  C7A BZF d   1       3.846   3.866  -4.660  0.00  0.00     0.058 A 
ENDROOT
TORSDOF 0
ENDMDL
