MODEL 1
REMARK minimizedAffinity 9.94133854
REMARK minimizedRMSD -1
REMARK  1 active torsions:
REMARK  status: ('A' for Active; 'I' for Inactive)
REMARK    1  A    between atoms: C1_2  and  C2_3 
ROOT
ATOM      1  C2  UNL d   1      -3.751  -3.750  -1.739  0.00  0.00    -0.076 A 
ATOM      2  C3  UNL d   1      -4.291  -3.582  -3.026  0.00  0.00     0.004 A 
ATOM      3  C4  UNL d   1      -4.999  -4.610  -3.647  0.00  0.00    -0.003 A 
ATOM      4  C5  UNL d   1      -5.180  -5.822  -2.990  0.00  0.00     0.000 A 
ATOM      5  C6  UNL d   1      -4.666  -6.000  -1.706  0.00  0.00     0.000 A 
ATOM      6  C7  UNL d   1      -3.964  -4.968  -1.059  0.00  0.00    -0.073 A 
ATOM      7  C8  UNL d   1      -3.426  -5.217   0.323  0.00  0.00     0.078 C 
ENDROOT
BRANCH   1   8
ATOM      8  C1  UNL d   1      -2.968  -2.610  -1.128  0.00  0.00     0.053 C 
ATOM      9  C   UNL d   1      -1.879  -2.089  -2.052  0.00  0.00     0.018 C 
ENDBRANCH   1   8
TORSDOF 1
ENDMDL
