MODEL 1
REMARK minimizedAffinity 0.659609675
REMARK minimizedRMSD -1
REMARK  1 active torsions:
REMARK  status: ('A' for Active; 'I' for Inactive)
REMARK    1  A    between atoms: C1_2  and  C2_3 
ROOT
ATOM      1  C2  UNL d   1      -4.624  -4.573  -4.734  0.00  0.00    -0.076 A 
ATOM      2  C3  UNL d   1      -3.830  -4.254  -5.850  0.00  0.00     0.004 A 
ATOM      3  C4  UNL d   1      -2.552  -4.789  -5.998  0.00  0.00    -0.003 A 
ATOM      4  C5  UNL d   1      -2.046  -5.653  -5.033  0.00  0.00     0.000 A 
ATOM      5  C6  UNL d   1      -2.826  -5.994  -3.929  0.00  0.00     0.000 A 
ATOM      6  C7  UNL d   1      -4.123  -5.476  -3.772  0.00  0.00    -0.073 A 
ATOM      7  C8  UNL d   1      -4.918  -5.873  -2.558  0.00  0.00     0.078 C 
ENDROOT
BRANCH   1   8
ATOM      8  C1  UNL d   1      -5.992  -3.940  -4.613  0.00  0.00     0.053 C 
ATOM      9  C   UNL d   1      -5.999  -2.742  -3.676  0.00  0.00     0.018 C 
ENDBRANCH   1   8
TORSDOF 1
ENDMDL
