MODEL 1
REMARK minimizedAffinity 13.5591021
REMARK minimizedRMSD -1
REMARK  1 active torsions:
REMARK  status: ('A' for Active; 'I' for Inactive)
REMARK    1  A    between atoms: C1_2  and  C2_3 
ROOT
ATOM      1  C2  UNL d   1       3.851   0.826   1.359  0.00  0.00    -0.076 A 
ATOM      2  C3  UNL d   1       3.221   2.032   1.003  0.00  0.00     0.004 A 
ATOM      3  C4  UNL d   1       3.966   3.139   0.601  0.00  0.00    -0.003 A 
ATOM      4  C5  UNL d   1       5.354   3.058   0.547  0.00  0.00     0.000 A 
ATOM      5  C6  UNL d   1       5.994   1.865   0.880  0.00  0.00     0.000 A 
ATOM      6  C7  UNL d   1       5.257   0.734   1.272  0.00  0.00    -0.073 A 
ATOM      7  C8  UNL d   1       5.999  -0.525   1.626  0.00  0.00     0.078 C 
ENDROOT
BRANCH   1   8
ATOM      8  C1  UNL d   1       2.993  -0.332   1.814  0.00  0.00     0.053 C 
ATOM      9  C   UNL d   1       2.824  -0.375   3.325  0.00  0.00     0.018 C 
ENDBRANCH   1   8
TORSDOF 1
ENDMDL
