MODEL 1
REMARK minimizedAffinity 4.62009668
REMARK minimizedRMSD -1
REMARK  1 active torsions:
REMARK  status: ('A' for Active; 'I' for Inactive)
REMARK    1  A    between atoms: C1_2  and  C2_3 
ROOT
ATOM      1  C2  UNL d   1       4.736   1.215   0.524  0.00  0.00    -0.076 A 
ATOM      2  C3  UNL d   1       3.519   1.794   0.126  0.00  0.00     0.004 A 
ATOM      3  C4  UNL d   1       2.328   1.071   0.183  0.00  0.00    -0.003 A 
ATOM      4  C5  UNL d   1       2.336  -0.243   0.638  0.00  0.00     0.000 A 
ATOM      5  C6  UNL d   1       3.532  -0.827   1.053  0.00  0.00     0.000 A 
ATOM      6  C7  UNL d   1       4.738  -0.107   1.018  0.00  0.00    -0.073 A 
ATOM      7  C8  UNL d   1       6.000  -0.789   1.471  0.00  0.00     0.078 C 
ENDROOT
BRANCH   1   8
ATOM      8  C1  UNL d   1       6.000   2.038   0.415  0.00  0.00     0.053 C 
ATOM      9  C   UNL d   1       5.979   3.259   1.321  0.00  0.00     0.018 C 
ENDBRANCH   1   8
TORSDOF 1
ENDMDL
