MODEL 1
REMARK minimizedAffinity 11.0661964
REMARK minimizedRMSD -1
REMARK  1 active torsions:
REMARK  status: ('A' for Active; 'I' for Inactive)
REMARK    1  A    between atoms: C1_2  and  C2_3 
ROOT
ATOM      1  C2  UNL d   1       5.265   1.316   0.526  0.00  0.00    -0.076 A 
ATOM      2  C3  UNL d   1       5.999   0.189   0.935  0.00  0.00     0.004 A 
ATOM      3  C4  UNL d   1       5.381  -0.863   1.608  0.00  0.00    -0.003 A 
ATOM      4  C5  UNL d   1       4.019  -0.807   1.883  0.00  0.00     0.000 A 
ATOM      5  C6  UNL d   1       3.272   0.296   1.469  0.00  0.00     0.000 A 
ATOM      6  C7  UNL d   1       3.876   1.358   0.774  0.00  0.00    -0.073 A 
ATOM      7  C8  UNL d   1       3.024   2.525   0.357  0.00  0.00     0.078 C 
ENDROOT
BRANCH   1   8
ATOM      8  C1  UNL d   1       5.994   2.439  -0.177  0.00  0.00     0.053 C 
ATOM      9  C   UNL d   1       5.984   3.732   0.625  0.00  0.00     0.018 C 
ENDBRANCH   1   8
TORSDOF 1
ENDMDL
