MODEL 1
REMARK minimizedAffinity 7.22008657
REMARK minimizedRMSD -1
REMARK  1 active torsions:
REMARK  status: ('A' for Active; 'I' for Inactive)
REMARK    1  A    between atoms: C1_2  and  C2_3 
ROOT
ATOM      1  C2  UNL d   1      -5.440   4.507   3.210  0.00  0.00    -0.076 A 
ATOM      2  C3  UNL d   1      -5.991   5.548   3.976  0.00  0.00     0.004 A 
ATOM      3  C4  UNL d   1      -5.825   5.587   5.360  0.00  0.00    -0.003 A 
ATOM      4  C5  UNL d   1      -5.104   4.584   5.999  0.00  0.00     0.000 A 
ATOM      5  C6  UNL d   1      -4.535   3.552   5.253  0.00  0.00     0.000 A 
ATOM      6  C7  UNL d   1      -4.680   3.508   3.855  0.00  0.00    -0.073 A 
ATOM      7  C8  UNL d   1      -4.051   2.369   3.101  0.00  0.00     0.078 C 
ENDROOT
BRANCH   1   8
ATOM      8  C1  UNL d   1      -5.676   4.503   1.717  0.00  0.00     0.053 C 
ATOM      9  C   UNL d   1      -5.985   5.889   1.172  0.00  0.00     0.018 C 
ENDBRANCH   1   8
TORSDOF 1
ENDMDL
