MODEL 1
REMARK minimizedAffinity 6.61126184
REMARK minimizedRMSD -1
REMARK  1 active torsions:
REMARK  status: ('A' for Active; 'I' for Inactive)
REMARK    1  A    between atoms: C1_2  and  C2_3 
ROOT
ATOM      1  C2  UNL d   1      -5.547   4.581   2.559  0.00  0.00    -0.076 A 
ATOM      2  C3  UNL d   1      -6.000   5.740   3.213  0.00  0.00     0.004 A 
ATOM      3  C4  UNL d   1      -5.651   5.999   4.537  0.00  0.00    -0.003 A 
ATOM      4  C5  UNL d   1      -4.842   5.104   5.229  0.00  0.00     0.000 A 
ATOM      5  C6  UNL d   1      -4.370   3.958   4.590  0.00  0.00     0.000 A 
ATOM      6  C7  UNL d   1      -4.699   3.690   3.251  0.00  0.00    -0.073 A 
ATOM      7  C8  UNL d   1      -4.166   2.436   2.613  0.00  0.00     0.078 C 
ENDROOT
BRANCH   1   8
ATOM      8  C1  UNL d   1      -5.980   4.339   1.131  0.00  0.00     0.053 C 
ATOM      9  C   UNL d   1      -5.998   5.615   0.303  0.00  0.00     0.018 C 
ENDBRANCH   1   8
TORSDOF 1
ENDMDL
