MODEL 1
REMARK minimizedAffinity -0.721019983
REMARK minimizedRMSD -1
REMARK  1 active torsions:
REMARK  status: ('A' for Active; 'I' for Inactive)
REMARK    1  A    between atoms: C1_2  and  C2_3 
ROOT
ATOM      1  C2  UNL d   1      -3.581  -5.249  -4.618  0.00  0.00    -0.076 A 
ATOM      2  C3  UNL d   1      -2.652  -5.678  -3.653  0.00  0.00     0.004 A 
ATOM      3  C4  UNL d   1      -3.059  -5.999  -2.359  0.00  0.00    -0.003 A 
ATOM      4  C5  UNL d   1      -4.401  -5.897  -2.009  0.00  0.00     0.000 A 
ATOM      5  C6  UNL d   1      -5.338  -5.490  -2.958  0.00  0.00     0.000 A 
ATOM      6  C7  UNL d   1      -4.947  -5.178  -4.272  0.00  0.00    -0.073 A 
ATOM      7  C8  UNL d   1      -5.999  -4.738  -5.253  0.00  0.00     0.078 C 
ENDROOT
BRANCH   1   8
ATOM      8  C1  UNL d   1      -3.077  -4.888  -5.997  0.00  0.00     0.053 C 
ATOM      9  C   UNL d   1      -2.244  -3.616  -6.000  0.00  0.00     0.018 C 
ENDBRANCH   1   8
TORSDOF 1
ENDMDL
