MODEL 1
REMARK minimizedAffinity 14.8717794
REMARK minimizedRMSD -1
REMARK  1 active torsions:
REMARK  status: ('A' for Active; 'I' for Inactive)
REMARK    1  A    between atoms: C1_2  and  C2_3 
ROOT
ATOM      1  C2  UNL d   1       3.985   1.383   0.757  0.00  0.00    -0.076 A 
ATOM      2  C3  UNL d   1       2.734   2.020   0.841  0.00  0.00     0.004 A 
ATOM      3  C4  UNL d   1       1.649   1.392   1.449  0.00  0.00    -0.003 A 
ATOM      4  C5  UNL d   1       1.796   0.117   1.984  0.00  0.00     0.000 A 
ATOM      5  C6  UNL d   1       3.034  -0.523   1.925  0.00  0.00     0.000 A 
ATOM      6  C7  UNL d   1       4.143   0.103   1.330  0.00  0.00    -0.073 A 
ATOM      7  C8  UNL d   1       5.452  -0.635   1.288  0.00  0.00     0.078 C 
ENDROOT
BRANCH   1   8
ATOM      8  C1  UNL d   1       5.118   2.103   0.062  0.00  0.00     0.053 C 
ATOM      9  C   UNL d   1       5.381   1.563  -1.336  0.00  0.00     0.018 C 
ENDBRANCH   1   8
TORSDOF 1
ENDMDL
