MODEL 1
REMARK minimizedAffinity -1.83336294
REMARK minimizedRMSD -1
REMARK  1 active torsions:
REMARK  status: ('A' for Active; 'I' for Inactive)
REMARK    1  A    between atoms: C1_2  and  C2_3 
ROOT
ATOM      1  C2  UNL d   1       5.479   4.083   3.144  0.00  0.00    -0.076 A 
ATOM      2  C3  UNL d   1       6.000   3.524   4.324  0.00  0.00     0.004 A 
ATOM      3  C4  UNL d   1       5.900   4.196   5.541  0.00  0.00    -0.003 A 
ATOM      4  C5  UNL d   1       5.278   5.438   5.598  0.00  0.00     0.000 A 
ATOM      5  C6  UNL d   1       4.739   6.000   4.441  0.00  0.00     0.000 A 
ATOM      6  C7  UNL d   1       4.817   5.328   3.208  0.00  0.00    -0.073 A 
ATOM      7  C8  UNL d   1       4.224   5.983   1.991  0.00  0.00     0.078 C 
ENDROOT
BRANCH   1   8
ATOM      8  C1  UNL d   1       5.640   3.321   1.848  0.00  0.00     0.053 C 
ATOM      9  C   UNL d   1       4.313   3.078   1.146  0.00  0.00     0.018 C 
ENDBRANCH   1   8
TORSDOF 1
ENDMDL
