MODEL 1
REMARK minimizedAffinity -3.56272888
REMARK minimizedRMSD -1
REMARK  1 active torsions:
REMARK  status: ('A' for Active; 'I' for Inactive)
REMARK    1  A    between atoms: C1_2  and  C2_3 
ROOT
ATOM      1  C2  UNL d   1       3.194   4.894  -4.868  0.00  0.00    -0.077 A 
ATOM      2  C3  UNL d   1       3.849   3.787  -4.310  0.00  0.00     0.002 A 
ATOM      3  C4  UNL d   1       5.237   3.788  -4.162  0.00  0.00     0.002 A 
ATOM      4  C5  UNL d   1       5.982   4.895  -4.566  0.00  0.00    -0.004 A 
ATOM      5  C6  UNL d   1       5.340   5.999  -5.125  0.00  0.00     0.002 A 
ATOM      6  C7  UNL d   1       3.952   5.999  -5.274  0.00  0.00     0.002 A 
ENDROOT
BRANCH   1   7
ATOM      7  C1  UNL d   1       1.692   4.914  -4.983  0.00  0.00     0.055 C 
ATOM      8  C   UNL d   1       1.085   5.998  -4.105  0.00  0.00     0.019 C 
ENDBRANCH   1   7
TORSDOF 1
ENDMDL
