MODEL 1
REMARK minimizedAffinity 0.476339579
REMARK minimizedRMSD -1
REMARK  1 active torsions:
REMARK  status: ('A' for Active; 'I' for Inactive)
REMARK    1  A    between atoms: C1_2  and  C2_3 
ROOT
ATOM      1  C2  UNL d   1       2.150   5.441  -5.197  0.00  0.00    -0.077 A 
ATOM      2  C3  UNL d   1       3.315   5.980  -5.760  0.00  0.00     0.002 A 
ATOM      3  C4  UNL d   1       4.571   5.506  -5.376  0.00  0.00     0.002 A 
ATOM      4  C5  UNL d   1       4.673   4.488  -4.430  0.00  0.00    -0.004 A 
ATOM      5  C6  UNL d   1       3.520   3.946  -3.862  0.00  0.00     0.002 A 
ATOM      6  C7  UNL d   1       2.265   4.420  -4.245  0.00  0.00     0.002 A 
ENDROOT
BRANCH   1   7
ATOM      7  C1  UNL d   1       0.794   5.917  -5.647  0.00  0.00     0.055 C 
ATOM      8  C   UNL d   1      -0.180   5.997  -4.480  0.00  0.00     0.019 C 
ENDBRANCH   1   7
TORSDOF 1
ENDMDL
