MODEL 1
REMARK minimizedAffinity 7.76903725
REMARK minimizedRMSD -1
REMARK  1 active torsions:
REMARK  status: ('A' for Active; 'I' for Inactive)
REMARK    1  A    between atoms: C1_2  and  C2_3 
ROOT
ATOM      1  C2  UNL d   1       3.889   4.034  -4.141  0.00  0.00    -0.077 A 
ATOM      2  C3  UNL d   1       4.803   5.023  -4.532  0.00  0.00     0.002 A 
ATOM      3  C4  UNL d   1       4.434   6.000  -5.459  0.00  0.00     0.002 A 
ATOM      4  C5  UNL d   1       3.150   6.000  -5.999  0.00  0.00    -0.004 A 
ATOM      5  C6  UNL d   1       2.235   5.019  -5.619  0.00  0.00     0.002 A 
ATOM      6  C7  UNL d   1       2.602   4.041  -4.694  0.00  0.00     0.002 A 
ENDROOT
BRANCH   1   7
ATOM      7  C1  UNL d   1       4.270   3.009  -3.105  0.00  0.00     0.055 C 
ATOM      8  C   UNL d   1       3.081   2.639  -2.230  0.00  0.00     0.019 C 
ENDBRANCH   1   7
TORSDOF 1
ENDMDL
