MODEL 1
REMARK minimizedAffinity 2.33834386
REMARK minimizedRMSD -1
REMARK  1 active torsions:
REMARK  status: ('A' for Active; 'I' for Inactive)
REMARK    1  A    between atoms: C1_2  and  C2_3 
ROOT
ATOM      1  C2  UNL d   1       0.901   0.889   0.534  0.00  0.00    -0.077 A 
ATOM      2  C3  UNL d   1       1.385   0.048  -0.478  0.00  0.00     0.002 A 
ATOM      3  C4  UNL d   1       1.885   0.587  -1.665  0.00  0.00     0.002 A 
ATOM      4  C5  UNL d   1       1.910   1.968  -1.849  0.00  0.00    -0.004 A 
ATOM      5  C6  UNL d   1       1.429   2.813  -0.849  0.00  0.00     0.002 A 
ATOM      6  C7  UNL d   1       0.927   2.275   0.337  0.00  0.00     0.002 A 
ENDROOT
BRANCH   1   7
ATOM      7  C1  UNL d   1       0.406   0.311   1.834  0.00  0.00     0.055 C 
ATOM      8  C   UNL d   1       1.299   0.719   2.996  0.00  0.00     0.019 C 
ENDBRANCH   1   7
TORSDOF 1
ENDMDL
