MODEL 1
REMARK minimizedAffinity 3.50687981
REMARK minimizedRMSD -1
REMARK  1 active torsions:
REMARK  status: ('A' for Active; 'I' for Inactive)
REMARK    1  A    between atoms: C1_2  and  C2_3 
ROOT
ATOM      1  C2  UNL d   1      -0.597   0.906   0.333  0.00  0.00    -0.077 A 
ATOM      2  C3  UNL d   1       0.078   0.181   1.326  0.00  0.00     0.002 A 
ATOM      3  C4  UNL d   1       1.352   0.573   1.743  0.00  0.00     0.002 A 
ATOM      4  C5  UNL d   1       1.959   1.691   1.176  0.00  0.00    -0.004 A 
ATOM      5  C6  UNL d   1       1.297   2.417   0.186  0.00  0.00     0.002 A 
ATOM      6  C7  UNL d   1       0.024   2.026  -0.232  0.00  0.00     0.002 A 
ENDROOT
BRANCH   1   7
ATOM      7  C1  UNL d   1      -1.991   0.514  -0.082  0.00  0.00     0.055 C 
ATOM      8  C   UNL d   1      -1.966  -0.504  -1.213  0.00  0.00     0.019 C 
ENDBRANCH   1   7
TORSDOF 1
ENDMDL
