MODEL 1
REMARK minimizedAffinity 2.60477591
REMARK minimizedRMSD -1
REMARK  1 active torsions:
REMARK  status: ('A' for Active; 'I' for Inactive)
REMARK    1  A    between atoms: C1_2  and  C2_3 
ROOT
ATOM      1  C2  UNL d   1       4.176   4.153  -4.692  0.00  0.00    -0.077 A 
ATOM      2  C3  UNL d   1       2.906   3.560  -4.698  0.00  0.00     0.002 A 
ATOM      3  C4  UNL d   1       1.838   4.184  -5.346  0.00  0.00     0.002 A 
ATOM      4  C5  UNL d   1       2.030   5.401  -5.996  0.00  0.00    -0.004 A 
ATOM      5  C6  UNL d   1       3.289   6.000  -5.994  0.00  0.00     0.002 A 
ATOM      6  C7  UNL d   1       4.357   5.379  -5.346  0.00  0.00     0.002 A 
ENDROOT
BRANCH   1   7
ATOM      7  C1  UNL d   1       5.340   3.458  -4.036  0.00  0.00     0.055 C 
ATOM      8  C   UNL d   1       5.077   1.968  -3.877  0.00  0.00     0.019 C 
ENDBRANCH   1   7
TORSDOF 1
ENDMDL
