MODEL 1
REMARK minimizedAffinity 1.60199857
REMARK minimizedRMSD -1
REMARK  1 active torsions:
REMARK  status: ('A' for Active; 'I' for Inactive)
REMARK    1  A    between atoms: C1_2  and  C2_3 
ROOT
ATOM      1  C2  UNL d   1      -1.701   5.989  -3.327  0.00  0.00    -0.077 A 
ATOM      2  C3  UNL d   1      -2.132   5.994  -1.993  0.00  0.00     0.002 A 
ATOM      3  C4  UNL d   1      -3.496   5.999  -1.692  0.00  0.00     0.002 A 
ATOM      4  C5  UNL d   1      -4.438   5.995  -2.718  0.00  0.00    -0.004 A 
ATOM      5  C6  UNL d   1      -4.018   5.992  -4.048  0.00  0.00     0.002 A 
ATOM      6  C7  UNL d   1      -2.656   5.988  -4.351  0.00  0.00     0.002 A 
ENDROOT
BRANCH   1   7
ATOM      7  C1  UNL d   1      -0.231   5.934  -3.653  0.00  0.00     0.055 C 
ATOM      8  C   UNL d   1       0.002   5.931  -5.157  0.00  0.00     0.019 C 
ENDBRANCH   1   7
TORSDOF 1
ENDMDL
