MODEL 1
REMARK minimizedAffinity -4.25680351
REMARK minimizedRMSD -1
REMARK  1 active torsions:
REMARK  status: ('A' for Active; 'I' for Inactive)
REMARK    1  A    between atoms: C1_2  and  C2_3 
ROOT
ATOM      1  C2  UNL d   1      -0.085   5.999  -4.732  0.00  0.00    -0.077 A 
ATOM      2  C3  UNL d   1       0.023   5.998  -3.334  0.00  0.00     0.002 A 
ATOM      3  C4  UNL d   1      -1.124   6.000  -2.538  0.00  0.00     0.002 A 
ATOM      4  C5  UNL d   1      -2.386   5.997  -3.130  0.00  0.00    -0.004 A 
ATOM      5  C6  UNL d   1      -2.503   6.000  -4.519  0.00  0.00     0.002 A 
ATOM      6  C7  UNL d   1      -1.358   6.000  -5.317  0.00  0.00     0.002 A 
ENDROOT
BRANCH   1   7
ATOM      7  C1  UNL d   1       1.150   5.948  -5.593  0.00  0.00     0.055 C 
ATOM      8  C   UNL d   1       2.416   5.985  -4.748  0.00  0.00     0.019 C 
ENDBRANCH   1   7
TORSDOF 1
ENDMDL
