MODEL 1
REMARK minimizedAffinity -1.46857607
REMARK minimizedRMSD -1
REMARK  1 active torsions:
REMARK  status: ('A' for Active; 'I' for Inactive)
REMARK    1  A    between atoms: C1_2  and  C2_3 
ROOT
ATOM      1  C2  UNL d   1       2.850   4.933  -4.181  0.00  0.00    -0.077 A 
ATOM      2  C3  UNL d   1       4.057   5.634  -4.046  0.00  0.00     0.002 A 
ATOM      3  C4  UNL d   1       5.235   4.956  -3.726  0.00  0.00     0.002 A 
ATOM      4  C5  UNL d   1       5.218   3.575  -3.543  0.00  0.00    -0.004 A 
ATOM      5  C6  UNL d   1       4.023   2.870  -3.673  0.00  0.00     0.002 A 
ATOM      6  C7  UNL d   1       2.844   3.546  -3.992  0.00  0.00     0.002 A 
ENDROOT
BRANCH   1   7
ATOM      7  C1  UNL d   1       1.588   5.656  -4.575  0.00  0.00     0.055 C 
ATOM      8  C   UNL d   1       1.162   5.295  -5.990  0.00  0.00     0.019 C 
ENDBRANCH   1   7
TORSDOF 1
ENDMDL
