MODEL 1
REMARK minimizedAffinity -3.91092443
REMARK minimizedRMSD -1
REMARK  0 active torsions:
REMARK  status: ('A' for Active; 'I' for Inactive)
ROOT
ATOM      1  C   UNL d   1      -0.094  -0.138   2.962  0.00  0.00     0.020 A 
ATOM      2  C1  UNL d   1       1.239  -0.545   2.963  0.00  0.00     0.020 A 
ATOM      3  C2  UNL d   1       1.865  -0.891   1.764  0.00  0.00     0.034 A 
ATOM      4  C3  UNL d   1       1.158  -0.830   0.558  0.00  0.00     0.017 A 
ATOM      5  C4  UNL d   1      -0.181  -0.421   0.557  0.00  0.00     0.017 A 
ATOM      6  C5  UNL d   1      -0.803  -0.076   1.761  0.00  0.00     0.034 A 
ATOM      7 Cl   UNL d   1      -1.118  -0.320  -0.892  0.00  0.00    -0.070 Cl
ATOM      8 Cl1  UNL d   1       1.995  -1.272  -0.888  0.00  0.00    -0.070 Cl
ENDROOT
TORSDOF 0
ENDMDL
