MODEL 1
REMARK minimizedAffinity -3.15790415
REMARK minimizedRMSD -1
REMARK  0 active torsions:
REMARK  status: ('A' for Active; 'I' for Inactive)
ROOT
ATOM      1  C   UNL d   1      -1.496   0.181   2.255  0.00  0.00     0.020 A 
ATOM      2  C1  UNL d   1      -0.351  -0.337   2.858  0.00  0.00     0.020 A 
ATOM      3  C2  UNL d   1       0.756  -0.676   2.078  0.00  0.00     0.034 A 
ATOM      4  C3  UNL d   1       0.721  -0.497   0.690  0.00  0.00     0.017 A 
ATOM      5  C4  UNL d   1      -0.429   0.023   0.086  0.00  0.00     0.017 A 
ATOM      6  C5  UNL d   1      -1.535   0.361   0.872  0.00  0.00     0.034 A 
ATOM      7 Cl   UNL d   1      -0.548   0.272  -1.620  0.00  0.00    -0.070 Cl
ATOM      8 Cl1  UNL d   1       2.127  -0.938  -0.212  0.00  0.00    -0.070 Cl
ENDROOT
TORSDOF 0
ENDMDL
