MODEL 1
REMARK minimizedAffinity -3.17108583
REMARK minimizedRMSD -1
REMARK  0 active torsions:
REMARK  status: ('A' for Active; 'I' for Inactive)
ROOT
ATOM      1  C   UNL d   1      -1.293  -0.164   2.383  0.00  0.00     0.020 A 
ATOM      2  C1  UNL d   1      -0.335  -1.139   2.654  0.00  0.00     0.020 A 
ATOM      3  C2  UNL d   1       0.650  -1.432   1.708  0.00  0.00     0.034 A 
ATOM      4  C3  UNL d   1       0.679  -0.748   0.487  0.00  0.00     0.017 A 
ATOM      5  C4  UNL d   1      -0.284   0.231   0.216  0.00  0.00     0.017 A 
ATOM      6  C5  UNL d   1      -1.268   0.520   1.167  0.00  0.00     0.034 A 
ATOM      7 Cl   UNL d   1      -0.313   1.117  -1.268  0.00  0.00    -0.070 Cl
ATOM      8 Cl1  UNL d   1       1.925  -1.160  -0.636  0.00  0.00    -0.070 Cl
ENDROOT
TORSDOF 0
ENDMDL
