MODEL 1
REMARK minimizedAffinity -4.86753464
REMARK minimizedRMSD -1
REMARK  0 active torsions:
REMARK  status: ('A' for Active; 'I' for Inactive)
ROOT
ATOM      1  C   UNL d   1       1.146  -1.906   3.382  0.00  0.00     0.020 A 
ATOM      2  C1  UNL d   1       2.233  -1.785   2.517  0.00  0.00     0.020 A 
ATOM      3  C2  UNL d   1       2.067  -1.183   1.268  0.00  0.00     0.034 A 
ATOM      4  C3  UNL d   1       0.812  -0.701   0.880  0.00  0.00     0.017 A 
ATOM      5  C4  UNL d   1      -0.279  -0.823   1.748  0.00  0.00     0.017 A 
ATOM      6  C5  UNL d   1      -0.107  -1.426   2.998  0.00  0.00     0.034 A 
ATOM      7 Cl   UNL d   1      -1.858  -0.251   1.340  0.00  0.00    -0.070 Cl
ATOM      8 Cl1  UNL d   1       0.680   0.032  -0.680  0.00  0.00    -0.070 Cl
ENDROOT
TORSDOF 0
ENDMDL
