MODEL 1
REMARK minimizedAffinity -3.61539435
REMARK minimizedRMSD -1
REMARK  0 active torsions:
REMARK  status: ('A' for Active; 'I' for Inactive)
ROOT
ATOM      1  C   UNL d   1       2.133  -0.295   1.791  0.00  0.00     0.020 A 
ATOM      2  C1  UNL d   1       1.096  -0.478   2.705  0.00  0.00     0.020 A 
ATOM      3  C2  UNL d   1      -0.231  -0.420   2.275  0.00  0.00     0.034 A 
ATOM      4  C3  UNL d   1      -0.525  -0.179   0.928  0.00  0.00     0.017 A 
ATOM      5  C4  UNL d   1       0.517   0.004   0.012  0.00  0.00     0.017 A 
ATOM      6  C5  UNL d   1       1.844  -0.054   0.448  0.00  0.00     0.034 A 
ATOM      7 Cl   UNL d   1       0.233   0.306  -1.666  0.00  0.00    -0.070 Cl
ATOM      8 Cl1  UNL d   1      -2.189  -0.121   0.466  0.00  0.00    -0.070 Cl
ENDROOT
TORSDOF 0
ENDMDL
