MODEL 1
REMARK minimizedAffinity -3.65467572
REMARK minimizedRMSD -1
REMARK  0 active torsions:
REMARK  status: ('A' for Active; 'I' for Inactive)
ROOT
ATOM      1  C   UNL d   1      -0.036  -0.936   0.766  0.00  0.00     0.020 A 
ATOM      2  C1  UNL d   1      -1.385  -0.882   1.115  0.00  0.00     0.020 A 
ATOM      3  C2  UNL d   1      -2.340  -0.532   0.158  0.00  0.00     0.034 A 
ATOM      4  C3  UNL d   1      -1.948  -0.234  -1.152  0.00  0.00     0.017 A 
ATOM      5  C4  UNL d   1      -0.593  -0.289  -1.501  0.00  0.00     0.017 A 
ATOM      6  C5  UNL d   1       0.359  -0.640  -0.539  0.00  0.00     0.034 A 
ATOM      7 Cl   UNL d   1      -0.033   0.065  -3.097  0.00  0.00    -0.070 Cl
ATOM      8 Cl1  UNL d   1      -3.182   0.191  -2.283  0.00  0.00    -0.070 Cl
ENDROOT
TORSDOF 0
ENDMDL
