MODEL 1
REMARK minimizedAffinity -5.02613688
REMARK minimizedRMSD -1
REMARK  0 active torsions:
REMARK  status: ('A' for Active; 'I' for Inactive)
ROOT
ATOM      1  C   UNL d   1      -0.003  -0.495   3.147  0.00  0.00     0.020 A 
ATOM      2  C1  UNL d   1      -1.201   0.042   2.679  0.00  0.00     0.020 A 
ATOM      3  C2  UNL d   1      -1.427   0.153   1.305  0.00  0.00     0.034 A 
ATOM      4  C3  UNL d   1      -0.452  -0.273   0.395  0.00  0.00     0.017 A 
ATOM      5  C4  UNL d   1       0.750  -0.812   0.866  0.00  0.00     0.017 A 
ATOM      6  C5  UNL d   1       0.971  -0.921   2.243  0.00  0.00     0.034 A 
ATOM      7 Cl   UNL d   1       2.000  -1.360  -0.195  0.00  0.00    -0.070 Cl
ATOM      8 Cl1  UNL d   1      -0.799  -0.107  -1.290  0.00  0.00    -0.070 Cl
ENDROOT
TORSDOF 0
ENDMDL
