MODEL 1
REMARK minimizedAffinity -4.35246229
REMARK minimizedRMSD -1
REMARK  0 active torsions:
REMARK  status: ('A' for Active; 'I' for Inactive)
ROOT
ATOM      1  C   UNL d   1      -1.235   0.535   0.957  0.00  0.00     0.020 A 
ATOM      2  C1  UNL d   1      -0.709   1.246  -0.121  0.00  0.00     0.020 A 
ATOM      3  C2  UNL d   1      -0.029   0.573  -1.137  0.00  0.00     0.034 A 
ATOM      4  C3  UNL d   1       0.128  -0.817  -1.078  0.00  0.00     0.017 A 
ATOM      5  C4  UNL d   1      -0.400  -1.530   0.004  0.00  0.00     0.017 A 
ATOM      6  C5  UNL d   1      -1.080  -0.851   1.019  0.00  0.00     0.034 A 
ATOM      7 Cl   UNL d   1      -0.247  -3.246   0.146  0.00  0.00    -0.070 Cl
ATOM      8 Cl1  UNL d   1       0.981  -1.585  -2.370  0.00  0.00    -0.070 Cl
ENDROOT
TORSDOF 0
ENDMDL
