MODEL 1
REMARK minimizedAffinity -1.06145406
REMARK minimizedRMSD -1
REMARK  0 active torsions:
REMARK  status: ('A' for Active; 'I' for Inactive)
ROOT
ATOM      1  C   UNL d   1       2.136   3.544   1.479  0.00  0.00     0.020 A 
ATOM      2  C1  UNL d   1       2.559   4.026   0.241  0.00  0.00     0.020 A 
ATOM      3  C2  UNL d   1       2.136   3.400  -0.933  0.00  0.00     0.034 A 
ATOM      4  C3  UNL d   1       1.286   2.289  -0.872  0.00  0.00     0.017 A 
ATOM      5  C4  UNL d   1       0.862   1.807   0.371  0.00  0.00     0.017 A 
ATOM      6  C5  UNL d   1       1.289   2.437   1.544  0.00  0.00     0.034 A 
ATOM      7 Cl   UNL d   1      -0.187   0.442   0.526  0.00  0.00    -0.070 Cl
ATOM      8 Cl1  UNL d   1       0.802   1.565  -2.365  0.00  0.00    -0.070 Cl
ENDROOT
TORSDOF 0
ENDMDL
