MODEL 1
REMARK minimizedAffinity 1.31946707
REMARK minimizedRMSD -1
REMARK  0 active torsions:
REMARK  status: ('A' for Active; 'I' for Inactive)
ROOT
ATOM      1  C   UNL d   1      -0.422   0.959   0.867  0.00  0.00     0.020 A 
ATOM      2  C1  UNL d   1       0.201   1.575  -0.218  0.00  0.00     0.020 A 
ATOM      3  C2  UNL d   1       0.706   0.800  -1.264  0.00  0.00     0.034 A 
ATOM      4  C3  UNL d   1       0.589  -0.594  -1.228  0.00  0.00     0.017 A 
ATOM      5  C4  UNL d   1      -0.037  -1.211  -0.138  0.00  0.00     0.017 A 
ATOM      6  C5  UNL d   1      -0.540  -0.430   0.907  0.00  0.00     0.034 A 
ATOM      7 Cl   UNL d   1      -0.219  -2.926  -0.022  0.00  0.00    -0.070 Cl
ATOM      8 Cl1  UNL d   1       1.236  -1.490  -2.556  0.00  0.00    -0.070 Cl
ENDROOT
TORSDOF 0
ENDMDL
