MODEL 1
REMARK minimizedAffinity -4.14288712
REMARK minimizedRMSD -1
REMARK  0 active torsions:
REMARK  status: ('A' for Active; 'I' for Inactive)
ROOT
ATOM      1  C   UNL d   1       0.558  -2.667  -0.641  0.00  0.00     0.020 A 
ATOM      2  C1  UNL d   1      -0.299  -3.103   0.369  0.00  0.00     0.020 A 
ATOM      3  C2  UNL d   1      -0.955  -2.173   1.178  0.00  0.00     0.034 A 
ATOM      4  C3  UNL d   1      -0.756  -0.802   0.979  0.00  0.00     0.017 A 
ATOM      5  C4  UNL d   1       0.104  -0.365  -0.035  0.00  0.00     0.017 A 
ATOM      6  C5  UNL d   1       0.759  -1.301  -0.842  0.00  0.00     0.034 A 
ATOM      7 Cl   UNL d   1       0.401   1.310  -0.340  0.00  0.00    -0.070 Cl
ATOM      8 Cl1  UNL d   1      -1.600   0.291   2.017  0.00  0.00    -0.070 Cl
ENDROOT
TORSDOF 0
ENDMDL
