MODEL 1
REMARK minimizedAffinity -3.59254551
REMARK minimizedRMSD -1
REMARK  0 active torsions:
REMARK  status: ('A' for Active; 'I' for Inactive)
ROOT
ATOM      1  C   UNL d   1      -0.374  -2.958   0.664  0.00  0.00     0.020 A 
ATOM      2  C1  UNL d   1      -0.631  -1.860   1.485  0.00  0.00     0.020 A 
ATOM      3  C2  UNL d   1      -0.470  -0.565   0.989  0.00  0.00     0.034 A 
ATOM      4  C3  UNL d   1      -0.050  -0.364  -0.331  0.00  0.00     0.017 A 
ATOM      5  C4  UNL d   1       0.207  -1.466  -1.154  0.00  0.00     0.017 A 
ATOM      6  C5  UNL d   1       0.044  -2.761  -0.652  0.00  0.00     0.034 A 
ATOM      7 Cl   UNL d   1       0.728  -1.297  -2.794  0.00  0.00    -0.070 Cl
ATOM      8 Cl1  UNL d   1       0.128   1.266  -0.878  0.00  0.00    -0.070 Cl
ENDROOT
TORSDOF 0
ENDMDL
