MODEL 1
REMARK minimizedAffinity -5.38169432
REMARK minimizedRMSD -1
REMARK  0 active torsions:
REMARK  status: ('A' for Active; 'I' for Inactive)
ROOT
ATOM      1  C   UNL d   1       1.047  -2.754  -0.172  0.00  0.00     0.020 A 
ATOM      2  C1  UNL d   1       0.235  -3.090   0.911  0.00  0.00     0.020 A 
ATOM      3  C2  UNL d   1      -0.679  -2.161   1.413  0.00  0.00     0.034 A 
ATOM      4  C3  UNL d   1      -0.783  -0.892   0.832  0.00  0.00     0.017 A 
ATOM      5  C4  UNL d   1       0.032  -0.556  -0.255  0.00  0.00     0.017 A 
ATOM      6  C5  UNL d   1       0.945  -1.490  -0.753  0.00  0.00     0.034 A 
ATOM      7 Cl   UNL d   1      -0.040   0.990  -1.024  0.00  0.00    -0.070 Cl
ATOM      8 Cl1  UNL d   1      -1.936   0.207   1.504  0.00  0.00    -0.070 Cl
ENDROOT
TORSDOF 0
ENDMDL
