MODEL 1
REMARK minimizedAffinity -4.64256573
REMARK minimizedRMSD -1
REMARK  0 active torsions:
REMARK  status: ('A' for Active; 'I' for Inactive)
ROOT
ATOM      1  C   UNL d   1       0.649  -2.308  -0.199  0.00  0.00     0.020 A 
ATOM      2  C1  UNL d   1      -0.365  -2.903   0.550  0.00  0.00     0.020 A 
ATOM      3  C2  UNL d   1      -1.362  -2.113   1.127  0.00  0.00     0.034 A 
ATOM      4  C3  UNL d   1      -1.346  -0.724   0.956  0.00  0.00     0.017 A 
ATOM      5  C4  UNL d   1      -0.328  -0.128   0.203  0.00  0.00     0.017 A 
ATOM      6  C5  UNL d   1       0.667  -0.924  -0.372  0.00  0.00     0.034 A 
ATOM      7 Cl   UNL d   1      -0.242   1.579  -0.052  0.00  0.00    -0.070 Cl
ATOM      8 Cl1  UNL d   1      -2.611   0.191   1.697  0.00  0.00    -0.070 Cl
ENDROOT
TORSDOF 0
ENDMDL
