MODEL 1
REMARK minimizedAffinity -4.04807568
REMARK minimizedRMSD -1
REMARK  0 active torsions:
REMARK  status: ('A' for Active; 'I' for Inactive)
ROOT
ATOM      1  C   UNL d   1       1.129  -2.794  -0.061  0.00  0.00     0.020 A 
ATOM      2  C1  UNL d   1       0.212  -2.961   0.976  0.00  0.00     0.020 A 
ATOM      3  C2  UNL d   1      -0.712  -1.953   1.259  0.00  0.00     0.034 A 
ATOM      4  C3  UNL d   1      -0.722  -0.774   0.505  0.00  0.00     0.017 A 
ATOM      5  C4  UNL d   1       0.198  -0.608  -0.536  0.00  0.00     0.017 A 
ATOM      6  C5  UNL d   1       1.122  -1.620  -0.816  0.00  0.00     0.034 A 
ATOM      7 Cl   UNL d   1       0.247   0.818  -1.512  0.00  0.00    -0.070 Cl
ATOM      8 Cl1  UNL d   1      -1.893   0.430   0.910  0.00  0.00    -0.070 Cl
ENDROOT
TORSDOF 0
ENDMDL
