MODEL 1
REMARK minimizedAffinity -2.72364092
REMARK minimizedRMSD -1
REMARK  0 active torsions:
REMARK  status: ('A' for Active; 'I' for Inactive)
ROOT
ATOM      1  C   UNL d   1       0.813  -2.858  -0.427  0.00  0.00     0.020 A 
ATOM      2  C1  UNL d   1      -0.125  -3.247   0.529  0.00  0.00     0.020 A 
ATOM      3  C2  UNL d   1      -0.843  -2.280   1.236  0.00  0.00     0.034 A 
ATOM      4  C3  UNL d   1      -0.624  -0.920   0.988  0.00  0.00     0.017 A 
ATOM      5  C4  UNL d   1       0.317  -0.531   0.028  0.00  0.00     0.017 A 
ATOM      6  C5  UNL d   1       1.033  -1.503  -0.677  0.00  0.00     0.034 A 
ATOM      7 Cl   UNL d   1       0.642   1.128  -0.333  0.00  0.00    -0.070 Cl
ATOM      8 Cl1  UNL d   1      -1.548   0.221   1.899  0.00  0.00    -0.070 Cl
ENDROOT
TORSDOF 0
ENDMDL
