MODEL 1
REMARK minimizedAffinity -3.40602446
REMARK minimizedRMSD -1
REMARK  0 active torsions:
REMARK  status: ('A' for Active; 'I' for Inactive)
ROOT
ATOM      1  C   UNL d   1      -0.770  -1.500   1.894  0.00  0.00     0.020 A 
ATOM      2  C1  UNL d   1      -0.505  -2.619   1.106  0.00  0.00     0.020 A 
ATOM      3  C2  UNL d   1      -0.121  -2.459  -0.227  0.00  0.00     0.034 A 
ATOM      4  C3  UNL d   1      -0.000  -1.177  -0.776  0.00  0.00     0.017 A 
ATOM      5  C4  UNL d   1      -0.266  -0.054   0.017  0.00  0.00     0.017 A 
ATOM      6  C5  UNL d   1      -0.651  -0.221   1.351  0.00  0.00     0.034 A 
ATOM      7 Cl   UNL d   1      -0.139   1.559  -0.589  0.00  0.00    -0.070 Cl
ATOM      8 Cl1  UNL d   1       0.480  -1.053  -2.431  0.00  0.00    -0.070 Cl
ENDROOT
TORSDOF 0
ENDMDL
