MODEL 1
REMARK minimizedAffinity -1.56821537
REMARK minimizedRMSD -1
REMARK  0 active torsions:
REMARK  status: ('A' for Active; 'I' for Inactive)
ROOT
ATOM      1  C   UNL d   1       0.167  -1.453  -0.024  0.00  0.00     0.020 A 
ATOM      2  C1  UNL d   1       0.561  -0.739   1.107  0.00  0.00     0.020 A 
ATOM      3  C2  UNL d   1       0.646   0.654   1.058  0.00  0.00     0.034 A 
ATOM      4  C3  UNL d   1       0.338   1.337  -0.124  0.00  0.00     0.017 A 
ATOM      5  C4  UNL d   1      -0.057   0.619  -1.259  0.00  0.00     0.017 A 
ATOM      6  C5  UNL d   1      -0.141  -0.776  -1.204  0.00  0.00     0.034 A 
ATOM      7 Cl   UNL d   1      -0.453   1.392  -2.753  0.00  0.00    -0.070 Cl
ATOM      8 Cl1  UNL d   1       0.465   3.060  -0.113  0.00  0.00    -0.070 Cl
ENDROOT
TORSDOF 0
ENDMDL
