MODEL 1
REMARK minimizedAffinity -2.924196
REMARK minimizedRMSD -1
REMARK  0 active torsions:
REMARK  status: ('A' for Active; 'I' for Inactive)
ROOT
ATOM      1  C   UNL d   1       0.851  -1.475  -0.415  0.00  0.00     0.020 A 
ATOM      2  C1  UNL d   1      -0.085  -2.078   0.425  0.00  0.00     0.020 A 
ATOM      3  C2  UNL d   1      -1.054  -1.301   1.062  0.00  0.00     0.034 A 
ATOM      4  C3  UNL d   1      -1.091   0.083   0.861  0.00  0.00     0.017 A 
ATOM      5  C4  UNL d   1      -0.152   0.688   0.018  0.00  0.00     0.017 A 
ATOM      6  C5  UNL d   1       0.817  -0.094  -0.618  0.00  0.00     0.034 A 
ATOM      7 Cl   UNL d   1      -0.134   2.391  -0.279  0.00  0.00    -0.070 Cl
ATOM      8 Cl1  UNL d   1      -2.318   0.982   1.681  0.00  0.00    -0.070 Cl
ENDROOT
TORSDOF 0
ENDMDL
