MODEL 1
REMARK minimizedAffinity -1.81677198
REMARK minimizedRMSD -1
REMARK  0 active torsions:
REMARK  status: ('A' for Active; 'I' for Inactive)
ROOT
ATOM      1  C   UNL d   1       0.064  -2.831   0.548  0.00  0.00     0.020 A 
ATOM      2  C1  UNL d   1       1.065  -2.325  -0.281  0.00  0.00     0.020 A 
ATOM      3  C2  UNL d   1       1.091  -0.964  -0.594  0.00  0.00     0.034 A 
ATOM      4  C3  UNL d   1       0.114  -0.105  -0.078  0.00  0.00     0.017 A 
ATOM      5  C4  UNL d   1      -0.890  -0.613   0.754  0.00  0.00     0.017 A 
ATOM      6  C5  UNL d   1      -0.911  -1.977   1.064  0.00  0.00     0.034 A 
ATOM      7 Cl   UNL d   1      -2.129   0.385   1.429  0.00  0.00    -0.070 Cl
ATOM      8 Cl1  UNL d   1       0.208   1.567  -0.506  0.00  0.00    -0.070 Cl
ENDROOT
TORSDOF 0
ENDMDL
