MODEL 1
REMARK minimizedAffinity -2.60065746
REMARK minimizedRMSD -1
REMARK  0 active torsions:
REMARK  status: ('A' for Active; 'I' for Inactive)
ROOT
ATOM      1  C   UNL d   1      -0.680   0.272   1.645  0.00  0.00     0.020 A 
ATOM      2  C1  UNL d   1      -0.177   1.110   0.651  0.00  0.00     0.020 A 
ATOM      3  C2  UNL d   1       0.312   0.567  -0.539  0.00  0.00     0.034 A 
ATOM      4  C3  UNL d   1       0.298  -0.818  -0.738  0.00  0.00     0.017 A 
ATOM      5  C4  UNL d   1      -0.207  -1.659   0.260  0.00  0.00     0.017 A 
ATOM      6  C5  UNL d   1      -0.695  -1.110   1.450  0.00  0.00     0.034 A 
ATOM      7 Cl   UNL d   1      -0.257  -3.378   0.087  0.00  0.00    -0.070 Cl
ATOM      8 Cl1  UNL d   1       0.918  -1.421  -2.234  0.00  0.00    -0.070 Cl
ENDROOT
TORSDOF 0
ENDMDL
