MODEL 1
REMARK minimizedAffinity -1.11811328
REMARK minimizedRMSD -1
REMARK  0 active torsions:
REMARK  status: ('A' for Active; 'I' for Inactive)
ROOT
ATOM      1  C   UNL d   1       1.860   3.289  -0.048  0.00  0.00     0.020 A 
ATOM      2  C1  UNL d   1       0.877   3.675   0.862  0.00  0.00     0.020 A 
ATOM      3  C2  UNL d   1      -0.141   2.784   1.210  0.00  0.00     0.034 A 
ATOM      4  C3  UNL d   1      -0.177   1.502   0.648  0.00  0.00     0.017 A 
ATOM      5  C4  UNL d   1       0.811   1.116  -0.265  0.00  0.00     0.017 A 
ATOM      6  C5  UNL d   1       1.827   2.012  -0.610  0.00  0.00     0.034 A 
ATOM      7 Cl   UNL d   1       0.833  -0.448  -1.000  0.00  0.00    -0.070 Cl
ATOM      8 Cl1  UNL d   1      -1.464   0.452   1.125  0.00  0.00    -0.070 Cl
ENDROOT
TORSDOF 0
ENDMDL
