MODEL 1
REMARK minimizedAffinity -3.24000669
REMARK minimizedRMSD -1
REMARK  0 active torsions:
REMARK  status: ('A' for Active; 'I' for Inactive)
ROOT
ATOM      1  C   UNL d   1       0.842  -2.276  -0.058  0.00  0.00     0.020 A 
ATOM      2  C1  UNL d   1      -0.138  -2.699   0.839  0.00  0.00     0.020 A 
ATOM      3  C2  UNL d   1      -1.109  -1.800   1.287  0.00  0.00     0.034 A 
ATOM      4  C3  UNL d   1      -1.103  -0.475   0.836  0.00  0.00     0.017 A 
ATOM      5  C4  UNL d   1      -0.119  -0.052  -0.065  0.00  0.00     0.017 A 
ATOM      6  C5  UNL d   1       0.851  -0.956  -0.510  0.00  0.00     0.034 A 
ATOM      7 Cl   UNL d   1      -0.047   1.567  -0.665  0.00  0.00    -0.070 Cl
ATOM      8 Cl1  UNL d   1      -2.334   0.581   1.431  0.00  0.00    -0.070 Cl
ENDROOT
TORSDOF 0
ENDMDL
