MODEL 1
REMARK minimizedAffinity 1.60175872
REMARK minimizedRMSD -1
REMARK  0 active torsions:
REMARK  status: ('A' for Active; 'I' for Inactive)
ROOT
ATOM      1  C   UNL d   1      -2.014   3.637  -5.891  0.00  0.00     0.020 A 
ATOM      2  C1  UNL d   1      -1.845   5.021  -5.895  0.00  0.00     0.020 A 
ATOM      3  C2  UNL d   1      -0.561   5.568  -5.921  0.00  0.00     0.034 A 
ATOM      4  C3  UNL d   1       0.560   4.730  -5.943  0.00  0.00     0.017 A 
ATOM      5  C4  UNL d   1       0.390   3.341  -5.940  0.00  0.00     0.017 A 
ATOM      6  C5  UNL d   1      -0.899   2.799  -5.914  0.00  0.00     0.034 A 
ATOM      7 Cl   UNL d   1       1.725   2.243  -5.966  0.00  0.00    -0.070 Cl
ATOM      8 Cl1  UNL d   1       2.119   5.475  -5.975  0.00  0.00    -0.070 Cl
ENDROOT
TORSDOF 0
ENDMDL
