MODEL 1
REMARK minimizedAffinity 5.84148693
REMARK minimizedRMSD -1
REMARK  0 active torsions:
REMARK  status: ('A' for Active; 'I' for Inactive)
ROOT
ATOM      1  C   UNL d   1       1.353   2.438   0.452  0.00  0.00     0.020 A 
ATOM      2  C1  UNL d   1       1.500   1.895  -0.824  0.00  0.00     0.020 A 
ATOM      3  C2  UNL d   1       0.650   0.872  -1.249  0.00  0.00     0.034 A 
ATOM      4  C3  UNL d   1      -0.351   0.388  -0.399  0.00  0.00     0.017 A 
ATOM      5  C4  UNL d   1      -0.498   0.934   0.882  0.00  0.00     0.017 A 
ATOM      6  C5  UNL d   1       0.356   1.958   1.303  0.00  0.00     0.034 A 
ATOM      7 Cl   UNL d   1      -1.709   0.390   1.988  0.00  0.00    -0.070 Cl
ATOM      8 Cl1  UNL d   1      -1.366  -0.878  -0.991  0.00  0.00    -0.070 Cl
ENDROOT
TORSDOF 0
ENDMDL
