MODEL 1
REMARK minimizedAffinity 1.99931753
REMARK minimizedRMSD -1
REMARK  0 active torsions:
REMARK  status: ('A' for Active; 'I' for Inactive)
ROOT
ATOM      1  C   UNL d   1       3.136   3.433   2.289  0.00  0.00     0.020 A 
ATOM      2  C1  UNL d   1       3.703   3.948   1.125  0.00  0.00     0.020 A 
ATOM      3  C2  UNL d   1       3.085   3.731  -0.109  0.00  0.00     0.034 A 
ATOM      4  C3  UNL d   1       1.896   2.996  -0.180  0.00  0.00     0.017 A 
ATOM      5  C4  UNL d   1       1.327   2.479   0.990  0.00  0.00     0.017 A 
ATOM      6  C5  UNL d   1       1.951   2.699   2.222  0.00  0.00     0.034 A 
ATOM      7 Cl   UNL d   1      -0.138   1.562   0.981  0.00  0.00    -0.070 Cl
ATOM      8 Cl1  UNL d   1       1.185   2.766  -1.738  0.00  0.00    -0.070 Cl
ENDROOT
TORSDOF 0
ENDMDL
