MODEL 1
REMARK minimizedAffinity 5.59028053
REMARK minimizedRMSD -1
REMARK  0 active torsions:
REMARK  status: ('A' for Active; 'I' for Inactive)
ROOT
ATOM      1  C   UNL d   1       0.096   0.777   1.377  0.00  0.00     0.020 A 
ATOM      2  C1  UNL d   1      -0.127   0.002   0.240  0.00  0.00     0.020 A 
ATOM      3  C2  UNL d   1       0.219   0.494  -1.020  0.00  0.00     0.034 A 
ATOM      4  C3  UNL d   1       0.790   1.766  -1.146  0.00  0.00     0.017 A 
ATOM      5  C4  UNL d   1       1.014   2.544  -0.005  0.00  0.00     0.017 A 
ATOM      6  C5  UNL d   1       0.665   2.045   1.255  0.00  0.00     0.034 A 
ATOM      7 Cl   UNL d   1       1.714   4.122  -0.081  0.00  0.00    -0.070 Cl
ATOM      8 Cl1  UNL d   1       1.194   2.311  -2.736  0.00  0.00    -0.070 Cl
ENDROOT
TORSDOF 0
ENDMDL
