MODEL 1
REMARK minimizedAffinity 5.60983372
REMARK minimizedRMSD -1
REMARK  0 active torsions:
REMARK  status: ('A' for Active; 'I' for Inactive)
ROOT
ATOM      1  C   UNL d   1      -0.397   2.151  -5.984  0.00  0.00     0.020 A 
ATOM      2  C1  UNL d   1       0.243   3.390  -5.983  0.00  0.00     0.020 A 
ATOM      3  C2  UNL d   1      -0.510   4.565  -5.987  0.00  0.00     0.034 A 
ATOM      4  C3  UNL d   1      -1.909   4.504  -5.992  0.00  0.00     0.017 A 
ATOM      5  C4  UNL d   1      -2.550   3.261  -5.993  0.00  0.00     0.017 A 
ATOM      6  C5  UNL d   1      -1.791   2.087  -5.989  0.00  0.00     0.034 A 
ATOM      7 Cl   UNL d   1      -4.272   3.106  -5.999  0.00  0.00    -0.070 Cl
ATOM      8 Cl1  UNL d   1      -2.778   5.998  -5.997  0.00  0.00    -0.070 Cl
ENDROOT
TORSDOF 0
ENDMDL
