MODEL 1
REMARK minimizedAffinity -1.71751618
REMARK minimizedRMSD -1
REMARK  0 active torsions:
REMARK  status: ('A' for Active; 'I' for Inactive)
ROOT
ATOM      1  C   UNL d   1      -4.400   5.997  -5.980  0.00  0.00     0.020 A 
ATOM      2  C1  UNL d   1      -5.208   4.861  -5.984  0.00  0.00     0.020 A 
ATOM      3  C2  UNL d   1      -4.628   3.591  -5.990  0.00  0.00     0.034 A 
ATOM      4  C3  UNL d   1      -3.235   3.454  -5.992  0.00  0.00     0.017 A 
ATOM      5  C4  UNL d   1      -2.424   4.595  -5.987  0.00  0.00     0.017 A 
ATOM      6  C5  UNL d   1      -3.011   5.864  -5.981  0.00  0.00     0.034 A 
ATOM      7 Cl   UNL d   1      -0.698   4.506  -5.988  0.00  0.00    -0.070 Cl
ATOM      8 Cl1  UNL d   1      -2.585   1.853  -5.999  0.00  0.00    -0.070 Cl
ENDROOT
TORSDOF 0
ENDMDL
