MODEL 1
REMARK minimizedAffinity -0.580317616
REMARK minimizedRMSD -1
REMARK  0 active torsions:
REMARK  status: ('A' for Active; 'I' for Inactive)
ROOT
ATOM      1  C   UNL d   1      -0.009   1.920  -5.989  0.00  0.00     0.020 A 
ATOM      2  C1  UNL d   1       0.671   3.137  -5.996  0.00  0.00     0.020 A 
ATOM      3  C2  UNL d   1      -0.044   4.337  -5.999  0.00  0.00     0.034 A 
ATOM      4  C3  UNL d   1      -1.444   4.322  -5.995  0.00  0.00     0.017 A 
ATOM      5  C4  UNL d   1      -2.125   3.099  -5.989  0.00  0.00     0.017 A 
ATOM      6  C5  UNL d   1      -1.404   1.902  -5.985  0.00  0.00     0.034 A 
ATOM      7 Cl   UNL d   1      -3.851   3.001  -5.983  0.00  0.00    -0.070 Cl
ATOM      8 Cl1  UNL d   1      -2.264   5.843  -5.999  0.00  0.00    -0.070 Cl
ENDROOT
TORSDOF 0
ENDMDL
