MODEL 1
REMARK minimizedAffinity 6.99917936
REMARK minimizedRMSD -1
REMARK  0 active torsions:
REMARK  status: ('A' for Active; 'I' for Inactive)
ROOT
ATOM      1  C   UNL d   1       4.511   4.874  -5.999  0.00  0.00     0.020 A 
ATOM      2  C1  UNL d   1       5.280   3.712  -6.000  0.00  0.00     0.020 A 
ATOM      3  C2  UNL d   1       4.657   2.462  -6.000  0.00  0.00     0.034 A 
ATOM      4  C3  UNL d   1       3.260   2.372  -5.999  0.00  0.00     0.017 A 
ATOM      5  C4  UNL d   1       2.489   3.540  -5.999  0.00  0.00     0.017 A 
ATOM      6  C5  UNL d   1       3.118   4.788  -5.999  0.00  0.00     0.034 A 
ATOM      7 Cl   UNL d   1       0.761   3.509  -5.999  0.00  0.00    -0.070 Cl
ATOM      8 Cl1  UNL d   1       2.557   0.794  -6.000  0.00  0.00    -0.070 Cl
ENDROOT
TORSDOF 0
ENDMDL
