MODEL 1
REMARK minimizedAffinity 2.49264717
REMARK minimizedRMSD -1
REMARK  0 active torsions:
REMARK  status: ('A' for Active; 'I' for Inactive)
ROOT
ATOM      1  C   UNL d   1       1.825   3.078   1.966  0.00  0.00     0.020 A 
ATOM      2  C1  UNL d   1       2.206   3.673   0.764  0.00  0.00     0.020 A 
ATOM      3  C2  UNL d   1       1.703   3.188  -0.445  0.00  0.00     0.034 A 
ATOM      4  C3  UNL d   1       0.817   2.104  -0.455  0.00  0.00     0.017 A 
ATOM      5  C4  UNL d   1       0.436   1.507   0.752  0.00  0.00     0.017 A 
ATOM      6  C5  UNL d   1       0.942   1.997   1.960  0.00  0.00     0.034 A 
ATOM      7 Cl   UNL d   1      -0.653   0.167   0.820  0.00  0.00    -0.070 Cl
ATOM      8 Cl1  UNL d   1       0.235   1.556  -1.987  0.00  0.00    -0.070 Cl
ENDROOT
TORSDOF 0
ENDMDL
