MODEL 1
REMARK minimizedAffinity 6.59985971
REMARK minimizedRMSD -1
REMARK  0 active torsions:
REMARK  status: ('A' for Active; 'I' for Inactive)
ROOT
ATOM      1  C   UNL d   1       5.086   3.957  -6.000  0.00  0.00     0.020 A 
ATOM      2  C1  UNL d   1       4.334   5.131  -5.999  0.00  0.00     0.020 A 
ATOM      3  C2  UNL d   1       2.939   5.067  -5.997  0.00  0.00     0.034 A 
ATOM      4  C3  UNL d   1       2.292   3.826  -5.996  0.00  0.00     0.017 A 
ATOM      5  C4  UNL d   1       3.047   2.648  -5.997  0.00  0.00     0.017 A 
ATOM      6  C5  UNL d   1       4.444   2.718  -5.999  0.00  0.00     0.034 A 
ATOM      7 Cl   UNL d   1       2.320   1.080  -5.996  0.00  0.00    -0.070 Cl
ATOM      8 Cl1  UNL d   1       0.564   3.822  -5.993  0.00  0.00    -0.070 Cl
ENDROOT
TORSDOF 0
ENDMDL
