MODEL 1
REMARK minimizedAffinity 5.71757555
REMARK minimizedRMSD -1
REMARK  0 active torsions:
REMARK  status: ('A' for Active; 'I' for Inactive)
ROOT
ATOM      1  C   UNL d   1       3.448   4.106   1.176  0.00  0.00     0.020 A 
ATOM      2  C1  UNL d   1       2.917   3.610   2.366  0.00  0.00     0.020 A 
ATOM      3  C2  UNL d   1       1.774   2.809   2.340  0.00  0.00     0.034 A 
ATOM      4  C3  UNL d   1       1.157   2.502   1.121  0.00  0.00     0.017 A 
ATOM      5  C4  UNL d   1       1.690   3.001  -0.072  0.00  0.00     0.017 A 
ATOM      6  C5  UNL d   1       2.836   3.803  -0.040  0.00  0.00     0.034 A 
ATOM      7 Cl   UNL d   1       0.985   2.666  -1.614  0.00  0.00    -0.070 Cl
ATOM      8 Cl1  UNL d   1      -0.254   1.506   1.163  0.00  0.00    -0.070 Cl
ENDROOT
TORSDOF 0
ENDMDL
