MODEL 1
REMARK minimizedAffinity 12.7320127
REMARK minimizedRMSD -1
REMARK  0 active torsions:
REMARK  status: ('A' for Active; 'I' for Inactive)
ROOT
ATOM      1  C   UNL d   1       1.697   4.166  -5.993  0.00  0.00     0.020 A 
ATOM      2  C1  UNL d   1       1.366   2.812  -5.995  0.00  0.00     0.020 A 
ATOM      3  C2  UNL d   1       0.026   2.420  -5.996  0.00  0.00     0.034 A 
ATOM      4  C3  UNL d   1      -0.989   3.384  -5.995  0.00  0.00     0.017 A 
ATOM      5  C4  UNL d   1      -0.656   4.744  -5.994  0.00  0.00     0.017 A 
ATOM      6  C5  UNL d   1       0.687   5.130  -5.993  0.00  0.00     0.034 A 
ATOM      7 Cl   UNL d   1      -1.853   5.991  -5.993  0.00  0.00    -0.070 Cl
ATOM      8 Cl1  UNL d   1      -2.625   2.828  -5.997  0.00  0.00    -0.070 Cl
ENDROOT
TORSDOF 0
ENDMDL
