MODEL 1
REMARK minimizedAffinity 13.1537037
REMARK minimizedRMSD -1
REMARK  0 active torsions:
REMARK  status: ('A' for Active; 'I' for Inactive)
ROOT
ATOM      1  C   UNL d   1       0.637   2.888  -5.575  0.00  0.00     0.020 A 
ATOM      2  C1  UNL d   1      -0.160   1.783  -5.872  0.00  0.00     0.020 A 
ATOM      3  C2  UNL d   1      -1.543   1.933  -5.997  0.00  0.00     0.034 A 
ATOM      4  C3  UNL d   1      -2.133   3.190  -5.825  0.00  0.00     0.017 A 
ATOM      5  C4  UNL d   1      -1.332   4.299  -5.526  0.00  0.00     0.017 A 
ATOM      6  C5  UNL d   1       0.052   4.143  -5.402  0.00  0.00     0.034 A 
ATOM      7 Cl   UNL d   1      -1.988   5.882  -5.300  0.00  0.00    -0.070 Cl
ATOM      8 Cl1  UNL d   1      -3.849   3.303  -5.994  0.00  0.00    -0.070 Cl
ENDROOT
TORSDOF 0
ENDMDL
