MODEL 1
REMARK minimizedAffinity 8.16729355
REMARK minimizedRMSD -1
REMARK  0 active torsions:
REMARK  status: ('A' for Active; 'I' for Inactive)
ROOT
ATOM      1  C   UNL d   1       3.668   4.297   1.198  0.00  0.00     0.020 A 
ATOM      2  C1  UNL d   1       3.202   3.647   2.340  0.00  0.00     0.020 A 
ATOM      3  C2  UNL d   1       2.079   2.820   2.263  0.00  0.00     0.034 A 
ATOM      4  C3  UNL d   1       1.419   2.641   1.041  0.00  0.00     0.017 A 
ATOM      5  C4  UNL d   1       1.889   3.294  -0.104  0.00  0.00     0.017 A 
ATOM      6  C5  UNL d   1       3.013   4.121  -0.021  0.00  0.00     0.034 A 
ATOM      7 Cl   UNL d   1       1.128   3.122  -1.646  0.00  0.00    -0.070 Cl
ATOM      8 Cl1  UNL d   1       0.037   1.604   1.019  0.00  0.00    -0.070 Cl
ENDROOT
TORSDOF 0
ENDMDL
