MODEL 1
REMARK minimizedAffinity 6.819592
REMARK minimizedRMSD -1
REMARK  0 active torsions:
REMARK  status: ('A' for Active; 'I' for Inactive)
ROOT
ATOM      1  C   UNL d   1       0.853   3.774  -5.996  0.00  0.00     0.020 A 
ATOM      2  C1  UNL d   1       0.471   2.433  -5.997  0.00  0.00     0.020 A 
ATOM      3  C2  UNL d   1      -0.883   2.093  -5.998  0.00  0.00     0.034 A 
ATOM      4  C3  UNL d   1      -1.860   3.094  -5.998  0.00  0.00     0.017 A 
ATOM      5  C4  UNL d   1      -1.476   4.440  -5.998  0.00  0.00     0.017 A 
ATOM      6  C5  UNL d   1      -0.119   4.775  -5.997  0.00  0.00     0.034 A 
ATOM      7 Cl   UNL d   1      -2.625   5.732  -5.999  0.00  0.00    -0.070 Cl
ATOM      8 Cl1  UNL d   1      -3.516   2.601  -6.000  0.00  0.00    -0.070 Cl
ENDROOT
TORSDOF 0
ENDMDL
