MODEL 1
REMARK minimizedAffinity 7.35771561
REMARK minimizedRMSD -1
REMARK  0 active torsions:
REMARK  status: ('A' for Active; 'I' for Inactive)
ROOT
ATOM      1  C   UNL d   1      -2.960   1.406   1.627  0.00  0.00     0.020 A 
ATOM      2  C1  UNL d   1      -2.982   0.041   1.348  0.00  0.00     0.020 A 
ATOM      3  C2  UNL d   1      -1.798  -0.623   1.018  0.00  0.00     0.034 A 
ATOM      4  C3  UNL d   1      -0.588   0.079   0.967  0.00  0.00     0.017 A 
ATOM      5  C4  UNL d   1      -0.568   1.450   1.248  0.00  0.00     0.017 A 
ATOM      6  C5  UNL d   1      -1.756   2.109   1.577  0.00  0.00     0.034 A 
ATOM      7 Cl   UNL d   1       0.886   2.383   1.205  0.00  0.00    -0.070 Cl
ATOM      8 Cl1  UNL d   1       0.837  -0.806   0.552  0.00  0.00    -0.070 Cl
ENDROOT
TORSDOF 0
ENDMDL
