MODEL 1
REMARK minimizedAffinity -1.67158055
REMARK minimizedRMSD -1
REMARK  0 active torsions:
REMARK  status: ('A' for Active; 'I' for Inactive)
ROOT
ATOM      1  C   UNL d   1       1.137   2.701  -5.988  0.00  0.00     0.020 A 
ATOM      2  C1  UNL d   1       1.505   4.046  -5.987  0.00  0.00     0.020 A 
ATOM      3  C2  UNL d   1       0.523   5.038  -5.990  0.00  0.00     0.034 A 
ATOM      4  C3  UNL d   1      -0.832   4.688  -5.993  0.00  0.00     0.017 A 
ATOM      5  C4  UNL d   1      -1.200   3.338  -5.994  0.00  0.00     0.017 A 
ATOM      6  C5  UNL d   1      -0.213   2.348  -5.991  0.00  0.00     0.034 A 
ATOM      7 Cl   UNL d   1      -2.852   2.828  -5.998  0.00  0.00    -0.070 Cl
ATOM      8 Cl1  UNL d   1      -1.992   5.968  -5.996  0.00  0.00    -0.070 Cl
ENDROOT
TORSDOF 0
ENDMDL
