MODEL 1
REMARK minimizedAffinity -1.73254836
REMARK minimizedRMSD -1
REMARK  0 active torsions:
REMARK  status: ('A' for Active; 'I' for Inactive)
ROOT
ATOM      1  C1  BNZ d   1      -0.263   1.146  -0.806  0.00  0.00     0.000 A 
ATOM      2  C2  BNZ d   1       0.705   0.230  -1.118  0.00  0.00     0.000 A 
ATOM      3  C3  BNZ d   1       1.093  -0.716  -0.211  0.00  0.00     0.000 A 
ATOM      4  C4  BNZ d   1       0.542  -0.719   1.020  0.00  0.00     0.000 A 
ATOM      5  C5  BNZ d   1      -0.429   0.204   1.353  0.00  0.00     0.000 A 
ATOM      6  C6  BNZ d   1      -0.845   1.130   0.424  0.00  0.00     0.000 A 
ENDROOT
TORSDOF 0
ENDMDL
