MODEL 1
REMARK minimizedAffinity -2.46133733
REMARK minimizedRMSD -1
REMARK  0 active torsions:
REMARK  status: ('A' for Active; 'I' for Inactive)
ROOT
ATOM      1  C1  BNZ d   1      -0.913   1.618   0.049  0.00  0.00     0.000 A 
ATOM      2  C2  BNZ d   1       0.104   0.858  -0.464  0.00  0.00     0.000 A 
ATOM      3  C3  BNZ d   1       0.407  -0.361   0.077  0.00  0.00     0.000 A 
ATOM      4  C4  BNZ d   1      -0.278  -0.798   1.152  0.00  0.00     0.000 A 
ATOM      5  C5  BNZ d   1      -1.300  -0.039   1.686  0.00  0.00     0.000 A 
ATOM      6  C6  BNZ d   1      -1.629   1.170   1.116  0.00  0.00     0.000 A 
ENDROOT
TORSDOF 0
ENDMDL
