MODEL 1
REMARK minimizedAffinity -4.7931056
REMARK minimizedRMSD -1
REMARK  0 active torsions:
REMARK  status: ('A' for Active; 'I' for Inactive)
ROOT
ATOM      1  C1  BNZ d   1      -0.081   0.903  -0.263  0.00  0.00     0.000 A 
ATOM      2  C2  BNZ d   1      -0.713   2.052   0.132  0.00  0.00     0.000 A 
ATOM      3  C3  BNZ d   1      -1.296   2.142   1.366  0.00  0.00     0.000 A 
ATOM      4  C4  BNZ d   1      -1.280   1.071   2.185  0.00  0.00     0.000 A 
ATOM      5  C5  BNZ d   1      -0.655  -0.097   1.798  0.00  0.00     0.000 A 
ATOM      6  C6  BNZ d   1      -0.036  -0.171   0.571  0.00  0.00     0.000 A 
ENDROOT
TORSDOF 0
ENDMDL
