MODEL 1
REMARK minimizedAffinity -2.87039661
REMARK minimizedRMSD -1
REMARK  0 active torsions:
REMARK  status: ('A' for Active; 'I' for Inactive)
ROOT
ATOM      1  C1  BNZ d   1       0.139   0.980  -0.564  0.00  0.00     0.000 A 
ATOM      2  C2  BNZ d   1      -0.786   1.946  -0.271  0.00  0.00     0.000 A 
ATOM      3  C3  BNZ d   1      -1.558   1.858   0.854  0.00  0.00     0.000 A 
ATOM      4  C4  BNZ d   1      -1.433   0.785   1.662  0.00  0.00     0.000 A 
ATOM      5  C5  BNZ d   1      -0.511  -0.202   1.375  0.00  0.00     0.000 A 
ATOM      6  C6  BNZ d   1       0.292  -0.090   0.263  0.00  0.00     0.000 A 
ENDROOT
TORSDOF 0
ENDMDL
