MODEL 1
REMARK minimizedAffinity -4.6557045
REMARK minimizedRMSD -1
REMARK  0 active torsions:
REMARK  status: ('A' for Active; 'I' for Inactive)
ROOT
ATOM      1  C1  BNZ d   1      -0.587   0.717  -0.428  0.00  0.00     0.000 A 
ATOM      2  C2  BNZ d   1      -1.470   1.581   0.164  0.00  0.00     0.000 A 
ATOM      3  C3  BNZ d   1      -1.623   1.604   1.522  0.00  0.00     0.000 A 
ATOM      4  C4  BNZ d   1      -0.923   0.737   2.282  0.00  0.00     0.000 A 
ATOM      5  C5  BNZ d   1      -0.036  -0.146   1.700  0.00  0.00     0.000 A 
ATOM      6  C6  BNZ d   1       0.144  -0.139   0.336  0.00  0.00     0.000 A 
ENDROOT
TORSDOF 0
ENDMDL
