MODEL 1
REMARK minimizedAffinity -3.07809496
REMARK minimizedRMSD -1
REMARK  0 active torsions:
REMARK  status: ('A' for Active; 'I' for Inactive)
ROOT
ATOM      1  C1  BNZ d   1       2.038  -4.221  -0.756  0.00  0.00     0.000 A 
ATOM      2  C2  BNZ d   1       1.997  -2.862  -0.922  0.00  0.00     0.000 A 
ATOM      3  C3  BNZ d   1       1.112  -2.289  -1.791  0.00  0.00     0.000 A 
ATOM      4  C4  BNZ d   1       0.296  -3.076  -2.522  0.00  0.00     0.000 A 
ATOM      5  C5  BNZ d   1       0.331  -4.449  -2.373  0.00  0.00     0.000 A 
ATOM      6  C6  BNZ d   1       1.197  -5.019  -1.468  0.00  0.00     0.000 A 
ENDROOT
TORSDOF 0
ENDMDL
