MODEL 1
REMARK minimizedAffinity -3.51953721
REMARK minimizedRMSD -1
REMARK  0 active torsions:
REMARK  status: ('A' for Active; 'I' for Inactive)
ROOT
ATOM      1  C1  BNZ d   1      -1.171   0.836  -0.295  0.00  0.00     0.000 A 
ATOM      2  C2  BNZ d   1      -1.871   1.379   0.749  0.00  0.00     0.000 A 
ATOM      3  C3  BNZ d   1      -1.561   1.057   2.041  0.00  0.00     0.000 A 
ATOM      4  C4  BNZ d   1      -0.581   0.164   2.286  0.00  0.00     0.000 A 
ATOM      5  C5  BNZ d   1       0.128  -0.399   1.243  0.00  0.00     0.000 A 
ATOM      6  C6  BNZ d   1      -0.160  -0.043  -0.054  0.00  0.00     0.000 A 
ENDROOT
TORSDOF 0
ENDMDL
