MODEL 1
REMARK minimizedAffinity -4.80709839
REMARK minimizedRMSD -1
REMARK  0 active torsions:
REMARK  status: ('A' for Active; 'I' for Inactive)
ROOT
ATOM      1  C1  BNZ d   1      -1.067   0.895   2.122  0.00  0.00     0.000 A 
ATOM      2  C2  BNZ d   1      -0.173  -0.123   1.921  0.00  0.00     0.000 A 
ATOM      3  C3  BNZ d   1       0.439  -0.288   0.710  0.00  0.00     0.000 A 
ATOM      4  C4  BNZ d   1       0.127   0.539  -0.309  0.00  0.00     0.000 A 
ATOM      5  C5  BNZ d   1      -0.779   1.564  -0.125  0.00  0.00     0.000 A 
ATOM      6  C6  BNZ d   1      -1.364   1.751   1.106  0.00  0.00     0.000 A 
ENDROOT
TORSDOF 0
ENDMDL
