MODEL 1
REMARK minimizedAffinity -2.39860988
REMARK minimizedRMSD -1
REMARK  0 active torsions:
REMARK  status: ('A' for Active; 'I' for Inactive)
ROOT
ATOM      1  C1  BNZ d   1       0.752  -1.911  -0.871  0.00  0.00     0.000 A 
ATOM      2  C2  BNZ d   1       1.065  -3.186  -0.482  0.00  0.00     0.000 A 
ATOM      3  C3  BNZ d   1       1.138  -4.199  -1.396  0.00  0.00     0.000 A 
ATOM      4  C4  BNZ d   1       0.859  -3.945  -2.691  0.00  0.00     0.000 A 
ATOM      5  C5  BNZ d   1       0.532  -2.667  -3.098  0.00  0.00     0.000 A 
ATOM      6  C6  BNZ d   1       0.498  -1.641  -2.181  0.00  0.00     0.000 A 
ENDROOT
TORSDOF 0
ENDMDL
