MODEL 1
REMARK minimizedAffinity -1.47073388
REMARK minimizedRMSD -1
REMARK  0 active torsions:
REMARK  status: ('A' for Active; 'I' for Inactive)
ROOT
ATOM      1  C1  BNZ d   1       0.017   0.786   0.436  0.00  0.00     0.000 A 
ATOM      2  C2  BNZ d   1      -0.824   1.814   0.773  0.00  0.00     0.000 A 
ATOM      3  C3  BNZ d   1      -1.594   1.748   1.900  0.00  0.00     0.000 A 
ATOM      4  C4  BNZ d   1      -1.553   0.639   2.667  0.00  0.00     0.000 A 
ATOM      5  C5  BNZ d   1      -0.717  -0.409   2.336  0.00  0.00     0.000 A 
ATOM      6  C6  BNZ d   1       0.085  -0.323   1.222  0.00  0.00     0.000 A 
ENDROOT
TORSDOF 0
ENDMDL
