MODEL 1
REMARK minimizedAffinity -4.71180439
REMARK minimizedRMSD -1
REMARK  0 active torsions:
REMARK  status: ('A' for Active; 'I' for Inactive)
ROOT
ATOM      1  C1  BNZ d   1      -1.356   0.765   1.986  0.00  0.00     0.000 A 
ATOM      2  C2  BNZ d   1      -0.461  -0.247   1.760  0.00  0.00     0.000 A 
ATOM      3  C3  BNZ d   1       0.450  -0.162   0.745  0.00  0.00     0.000 A 
ATOM      4  C4  BNZ d   1       0.438   0.914  -0.069  0.00  0.00     0.000 A 
ATOM      5  C5  BNZ d   1      -0.465   1.937   0.139  0.00  0.00     0.000 A 
ATOM      6  C6  BNZ d   1      -1.354   1.867   1.187  0.00  0.00     0.000 A 
ENDROOT
TORSDOF 0
ENDMDL
