MODEL 1
REMARK minimizedAffinity -3.27791905
REMARK minimizedRMSD -1
REMARK  0 active torsions:
REMARK  status: ('A' for Active; 'I' for Inactive)
ROOT
ATOM      1  C1  BNZ d   1       0.384   0.237   0.119  0.00  0.00     0.000 A 
ATOM      2  C2  BNZ d   1       0.871  -1.015   0.387  0.00  0.00     0.000 A 
ATOM      3  C3  BNZ d   1       1.054  -1.924  -0.618  0.00  0.00     0.000 A 
ATOM      4  C4  BNZ d   1       0.713  -1.594  -1.880  0.00  0.00     0.000 A 
ATOM      5  C5  BNZ d   1       0.212  -0.340  -2.164  0.00  0.00     0.000 A 
ATOM      6  C6  BNZ d   1       0.066   0.586  -1.157  0.00  0.00     0.000 A 
ENDROOT
TORSDOF 0
ENDMDL
