MODEL 1
REMARK minimizedAffinity -3.60921073
REMARK minimizedRMSD -1
REMARK  0 active torsions:
REMARK  status: ('A' for Active; 'I' for Inactive)
ROOT
ATOM      1  C1  BNZ d   1       1.303  -3.496  -0.802  0.00  0.00     0.000 A 
ATOM      2  C2  BNZ d   1       1.112  -2.255  -1.349  0.00  0.00     0.000 A 
ATOM      3  C3  BNZ d   1       0.700  -2.118  -2.645  0.00  0.00     0.000 A 
ATOM      4  C4  BNZ d   1       0.518  -3.218  -3.403  0.00  0.00     0.000 A 
ATOM      5  C5  BNZ d   1       0.716  -4.476  -2.869  0.00  0.00     0.000 A 
ATOM      6  C6  BNZ d   1       1.093  -4.612  -1.553  0.00  0.00     0.000 A 
ENDROOT
TORSDOF 0
ENDMDL
