MODEL 1
REMARK minimizedAffinity -3.11287355
REMARK minimizedRMSD -1
REMARK  0 active torsions:
REMARK  status: ('A' for Active; 'I' for Inactive)
ROOT
ATOM      1  C1  BNZ d   1       0.430  -0.401   1.287  0.00  0.00     0.000 A 
ATOM      2  C2  BNZ d   1      -0.541   0.471   1.703  0.00  0.00     0.000 A 
ATOM      3  C3  BNZ d   1      -1.099   1.364   0.831  0.00  0.00     0.000 A 
ATOM      4  C4  BNZ d   1      -0.658   1.412  -0.442  0.00  0.00     0.000 A 
ATOM      5  C5  BNZ d   1       0.326   0.545  -0.874  0.00  0.00     0.000 A 
ATOM      6  C6  BNZ d   1       0.858  -0.379  -0.004  0.00  0.00     0.000 A 
ENDROOT
TORSDOF 0
ENDMDL
