MODEL 1
REMARK minimizedAffinity -4.95680857
REMARK minimizedRMSD -1
REMARK  0 active torsions:
REMARK  status: ('A' for Active; 'I' for Inactive)
ROOT
ATOM      1  C4' PXY d   1      -1.561   1.187   2.716  0.00  0.00     0.077 C 
ATOM      2  C1' PXY d   1       0.856   0.370  -2.471  0.00  0.00     0.077 C 
ATOM      3  C1  PXY d   1       0.211   0.588  -1.117  0.00  0.00    -0.082 A 
ATOM      4  C2  PXY d   1       0.973   0.806  -0.057  0.00  0.00     0.003 A 
ATOM      5  C3  PXY d   1       0.408   0.974   1.181  0.00  0.00     0.003 A 
ATOM      6  C4  PXY d   1      -0.954   0.971   1.327  0.00  0.00    -0.082 A 
ATOM      7  C5  PXY d   1      -1.738   0.760   0.249  0.00  0.00     0.003 A 
ATOM      8  C6  PXY d   1      -1.143   0.551  -0.992  0.00  0.00     0.003 A 
ENDROOT
TORSDOF 0
ENDMDL
