MODEL 1
REMARK minimizedAffinity -3.47709036
REMARK minimizedRMSD -1
REMARK  0 active torsions:
REMARK  status: ('A' for Active; 'I' for Inactive)
ROOT
ATOM      1  C4' PXY d   1       0.006  -1.333  -1.926  0.00  0.00     0.077 C 
ATOM      2  C1' PXY d   1      -0.751   1.873   2.824  0.00  0.00     0.077 C 
ATOM      3  C1  PXY d   1      -0.559   1.023   1.583  0.00  0.00    -0.082 A 
ATOM      4  C2  PXY d   1       0.470   1.253   0.784  0.00  0.00     0.003 A 
ATOM      5  C3  PXY d   1       0.640   0.515  -0.358  0.00  0.00     0.003 A 
ATOM      6  C4  PXY d   1      -0.222  -0.506  -0.658  0.00  0.00    -0.082 A 
ATOM      7  C5  PXY d   1      -1.268  -0.754   0.157  0.00  0.00     0.003 A 
ATOM      8  C6  PXY d   1      -1.447   0.034   1.290  0.00  0.00     0.003 A 
ENDROOT
TORSDOF 0
ENDMDL
