MODEL 1
REMARK minimizedAffinity -4.48828363
REMARK minimizedRMSD -1
REMARK  0 active torsions:
REMARK  status: ('A' for Active; 'I' for Inactive)
ROOT
ATOM      1  C4' PXY d   1       0.266  -0.579  -2.403  0.00  0.00     0.077 C 
ATOM      2  C1' PXY d   1      -1.312   1.045   2.916  0.00  0.00     0.077 C 
ATOM      3  C1  PXY d   1      -0.886   0.624   1.523  0.00  0.00    -0.082 A 
ATOM      4  C2  PXY d   1      -1.800   0.470   0.578  0.00  0.00     0.003 A 
ATOM      5  C3  PXY d   1      -1.436   0.058  -0.678  0.00  0.00     0.003 A 
ATOM      6  C4  PXY d   1      -0.117  -0.146  -0.985  0.00  0.00    -0.082 A 
ATOM      7  C5  PXY d   1       0.822   0.019  -0.029  0.00  0.00     0.003 A 
ATOM      8  C6  PXY d   1       0.427   0.397   1.251  0.00  0.00     0.003 A 
ENDROOT
TORSDOF 0
ENDMDL
