MODEL 1
REMARK minimizedAffinity -3.80366707
REMARK minimizedRMSD -1
REMARK  0 active torsions:
REMARK  status: ('A' for Active; 'I' for Inactive)
ROOT
ATOM      1  C4' PXY d   1       0.899  -0.584  -2.183  0.00  0.00     0.077 C 
ATOM      2  C1' PXY d   1      -1.436   0.994   2.864  0.00  0.00     0.077 C 
ATOM      3  C1  PXY d   1      -0.835   0.575   1.537  0.00  0.00    -0.082 A 
ATOM      4  C2  PXY d   1       0.473   0.400   1.437  0.00  0.00     0.003 A 
ATOM      5  C3  PXY d   1       1.036   0.052   0.236  0.00  0.00     0.003 A 
ATOM      6  C4  PXY d   1       0.248  -0.170  -0.861  0.00  0.00    -0.082 A 
ATOM      7  C5  PXY d   1      -1.088  -0.004  -0.764  0.00  0.00     0.003 A 
ATOM      8  C6  PXY d   1      -1.637   0.390   0.453  0.00  0.00     0.003 A 
ENDROOT
TORSDOF 0
ENDMDL
