MODEL 1
REMARK minimizedAffinity -3.20891261
REMARK minimizedRMSD -1
REMARK  0 active torsions:
REMARK  status: ('A' for Active; 'I' for Inactive)
ROOT
ATOM      1  C4' PXY d   1      -0.786   2.254   3.104  0.00  0.00     0.077 C 
ATOM      2  C1' PXY d   1       0.263  -1.030  -1.536  0.00  0.00     0.077 C 
ATOM      3  C1  PXY d   1      -0.025  -0.169  -0.323  0.00  0.00    -0.082 A 
ATOM      4  C2  PXY d   1       0.939   0.575   0.196  0.00  0.00     0.003 A 
ATOM      5  C3  PXY d   1       0.705   1.335   1.312  0.00  0.00     0.003 A 
ATOM      6  C4  PXY d   1      -0.544   1.376   1.873  0.00  0.00    -0.082 A 
ATOM      7  C5  PXY d   1      -1.536   0.629   1.344  0.00  0.00     0.003 A 
ATOM      8  C6  PXY d   1      -1.266  -0.168   0.235  0.00  0.00     0.003 A 
ENDROOT
TORSDOF 0
ENDMDL
