MODEL 1
REMARK minimizedAffinity -4.20980501
REMARK minimizedRMSD -1
REMARK  0 active torsions:
REMARK  status: ('A' for Active; 'I' for Inactive)
ROOT
ATOM      1  C4' PXY d   1       0.895  -0.736  -2.573  0.00  0.00     0.077 C 
ATOM      2  C1' PXY d   1      -1.631   0.422   2.495  0.00  0.00     0.077 C 
ATOM      3  C1  PXY d   1      -0.958   0.126   1.169  0.00  0.00    -0.082 A 
ATOM      4  C2  PXY d   1      -1.691  -0.248   0.133  0.00  0.00     0.003 A 
ATOM      5  C3  PXY d   1      -1.096  -0.550  -1.064  0.00  0.00     0.003 A 
ATOM      6  C4  PXY d   1       0.258  -0.418  -1.218  0.00  0.00    -0.082 A 
ATOM      7  C5  PXY d   1       1.011  -0.027  -0.169  0.00  0.00     0.003 A 
ATOM      8  C6  PXY d   1       0.393   0.236   1.050  0.00  0.00     0.003 A 
ENDROOT
TORSDOF 0
ENDMDL
