MODEL 1
REMARK minimizedAffinity -1.19957638
REMARK minimizedRMSD -1
REMARK  0 active torsions:
REMARK  status: ('A' for Active; 'I' for Inactive)
ROOT
ATOM      1  C4' PXY d   1      -0.760   1.120   3.013  0.00  0.00     0.077 C 
ATOM      2  C1' PXY d   1       0.152  -1.002  -2.286  0.00  0.00     0.077 C 
ATOM      3  C1  PXY d   1      -0.075  -0.449  -0.892  0.00  0.00    -0.082 A 
ATOM      4  C2  PXY d   1      -1.309  -0.330  -0.429  0.00  0.00     0.003 A 
ATOM      5  C3  PXY d   1      -1.534   0.198   0.816  0.00  0.00     0.003 A 
ATOM      6  C4  PXY d   1      -0.483   0.558   1.616  0.00  0.00    -0.082 A 
ATOM      7  C5  PXY d   1       0.779   0.429   1.155  0.00  0.00     0.003 A 
ATOM      8  C6  PXY d   1       0.985  -0.070  -0.128  0.00  0.00     0.003 A 
ENDROOT
TORSDOF 0
ENDMDL
