MODEL 1
REMARK minimizedAffinity -4.6256218
REMARK minimizedRMSD -1
REMARK  0 active torsions:
REMARK  status: ('A' for Active; 'I' for Inactive)
ROOT
ATOM      1  C4' PXY d   1       0.643  -1.067  -2.203  0.00  0.00     0.077 C 
ATOM      2  C1' PXY d   1      -0.979   1.444   2.745  0.00  0.00     0.077 C 
ATOM      3  C1  PXY d   1      -0.541   0.790   1.449  0.00  0.00    -0.082 A 
ATOM      4  C2  PXY d   1      -1.436   0.545   0.505  0.00  0.00     0.003 A 
ATOM      5  C3  PXY d   1      -1.063  -0.075  -0.659  0.00  0.00     0.003 A 
ATOM      6  C4  PXY d   1       0.248  -0.400  -0.882  0.00  0.00    -0.082 A 
ATOM      7  C5  PXY d   1       1.169  -0.144   0.071  0.00  0.00     0.003 A 
ATOM      8  C6  PXY d   1       0.763   0.449   1.263  0.00  0.00     0.003 A 
ENDROOT
TORSDOF 0
ENDMDL
