MODEL 1
REMARK minimizedAffinity -4.52777386
REMARK minimizedRMSD -1
REMARK  0 active torsions:
REMARK  status: ('A' for Active; 'I' for Inactive)
ROOT
ATOM      1  C4' PXY d   1      -3.146  -0.636  -0.442  0.00  0.00     0.077 C 
ATOM      2  C1' PXY d   1       1.603   1.025   2.406  0.00  0.00     0.077 C 
ATOM      3  C1  PXY d   1       0.363   0.592   1.648  0.00  0.00    -0.082 A 
ATOM      4  C2  PXY d   1      -0.810   0.591   2.259  0.00  0.00     0.003 A 
ATOM      5  C3  PXY d   1      -1.936   0.172   1.598  0.00  0.00     0.003 A 
ATOM      6  C4  PXY d   1      -1.869  -0.198   0.281  0.00  0.00    -0.082 A 
ATOM      7  C5  PXY d   1      -0.677  -0.189  -0.353  0.00  0.00     0.003 A 
ATOM      8  C6  PXY d   1       0.460   0.200   0.348  0.00  0.00     0.003 A 
ENDROOT
TORSDOF 0
ENDMDL
