MODEL 1
REMARK minimizedAffinity -4.16473722
REMARK minimizedRMSD -1
REMARK  0 active torsions:
REMARK  status: ('A' for Active; 'I' for Inactive)
ROOT
ATOM      1  C4' PXY d   1      -2.919  -0.178   0.352  0.00  0.00     0.077 C 
ATOM      2  C1' PXY d   1       2.595  -1.149   1.793  0.00  0.00     0.077 C 
ATOM      3  C1  PXY d   1       1.145  -0.895   1.428  0.00  0.00    -0.082 A 
ATOM      4  C2  PXY d   1       0.700  -1.248   0.233  0.00  0.00     0.003 A 
ATOM      5  C3  PXY d   1      -0.599  -0.996  -0.126  0.00  0.00     0.003 A 
ATOM      6  C4  PXY d   1      -1.466  -0.424   0.767  0.00  0.00    -0.082 A 
ATOM      7  C5  PXY d   1      -1.022  -0.070   1.992  0.00  0.00     0.003 A 
ATOM      8  C6  PXY d   1       0.311  -0.297   2.322  0.00  0.00     0.003 A 
ENDROOT
TORSDOF 0
ENDMDL
