MODEL 1
REMARK minimizedAffinity -2.13023686
REMARK minimizedRMSD -1
REMARK  0 active torsions:
REMARK  status: ('A' for Active; 'I' for Inactive)
ROOT
ATOM      1  C4' PXY d   1      -0.044  -0.930  -1.843  0.00  0.00     0.077 C 
ATOM      2  C1' PXY d   1      -0.470   1.793   3.238  0.00  0.00     0.077 C 
ATOM      3  C1  PXY d   1      -0.370   1.075   1.907  0.00  0.00    -0.082 A 
ATOM      4  C2  PXY d   1       0.819   0.753   1.425  0.00  0.00     0.003 A 
ATOM      5  C3  PXY d   1       0.929   0.132   0.208  0.00  0.00     0.003 A 
ATOM      6  C4  PXY d   1      -0.193  -0.212  -0.499  0.00  0.00    -0.082 A 
ATOM      7  C5  PXY d   1      -1.410   0.103  -0.008  0.00  0.00     0.003 A 
ATOM      8  C6  PXY d   1      -1.498   0.771   1.210  0.00  0.00     0.003 A 
ENDROOT
TORSDOF 0
ENDMDL
