MODEL 1
REMARK minimizedAffinity 1.04790974
REMARK minimizedRMSD -1
REMARK  1 active torsions:
REMARK  status: ('A' for Active; 'I' for Inactive)
REMARK    1  A    between atoms: C1_2  and  C2_3 
ROOT
ATOM      1  C2  UNL d   1       0.678  -3.350   1.882  0.00  0.00    -0.077 A 
ATOM      2  C3  UNL d   1       1.272  -2.377   1.066  0.00  0.00     0.002 A 
ATOM      3  C4  UNL d   1       1.682  -1.157   1.607  0.00  0.00     0.002 A 
ATOM      4  C5  UNL d   1       1.506  -0.900   2.965  0.00  0.00    -0.004 A 
ATOM      5  C6  UNL d   1       0.914  -1.860   3.784  0.00  0.00     0.002 A 
ATOM      6  C7  UNL d   1       0.503  -3.080   3.245  0.00  0.00     0.002 A 
ENDROOT
BRANCH   1   7
ATOM      7  C1  UNL d   1       0.280  -4.686   1.311  0.00  0.00     0.055 C 
ATOM      8  C   UNL d   1       0.452  -4.715  -0.200  0.00  0.00     0.019 C 
ENDBRANCH   1   7
TORSDOF 1
ENDMDL
