MODEL 1
REMARK minimizedAffinity -0.160005972
REMARK minimizedRMSD -1
REMARK  1 active torsions:
REMARK  status: ('A' for Active; 'I' for Inactive)
REMARK    1  A    between atoms: C1_2  and  C2_3 
ROOT
ATOM      1  C2  UNL d   1      -4.880  -4.931  -3.307  0.00  0.00    -0.077 A 
ATOM      2  C3  UNL d   1      -5.608  -6.000  -3.847  0.00  0.00     0.002 A 
ATOM      3  C4  UNL d   1      -5.999  -5.983  -5.187  0.00  0.00     0.002 A 
ATOM      4  C5  UNL d   1      -5.661  -4.903  -6.000  0.00  0.00    -0.004 A 
ATOM      5  C6  UNL d   1      -4.939  -3.834  -5.472  0.00  0.00     0.002 A 
ATOM      6  C7  UNL d   1      -4.549  -3.848  -4.132  0.00  0.00     0.002 A 
ENDROOT
BRANCH   1   7
ATOM      7  C1  UNL d   1      -4.415  -4.969  -1.875  0.00  0.00     0.055 C 
ATOM      8  C   UNL d   1      -4.667  -3.641  -1.176  0.00  0.00     0.019 C 
ENDBRANCH   1   7
TORSDOF 1
ENDMDL
