MODEL 1
REMARK minimizedAffinity 3.13031673
REMARK minimizedRMSD -1
REMARK  1 active torsions:
REMARK  status: ('A' for Active; 'I' for Inactive)
REMARK    1  A    between atoms: C1_2  and  C2_3 
ROOT
ATOM      1  C2  UNL d   1       1.415  -1.984   2.185  0.00  0.00    -0.077 A 
ATOM      2  C3  UNL d   1       2.700  -2.263   2.672  0.00  0.00     0.002 A 
ATOM      3  C4  UNL d   1       2.970  -3.481   3.297  0.00  0.00     0.002 A 
ATOM      4  C5  UNL d   1       1.961  -4.432   3.438  0.00  0.00    -0.004 A 
ATOM      5  C6  UNL d   1       0.679  -4.164   2.959  0.00  0.00     0.002 A 
ATOM      6  C7  UNL d   1       0.408  -2.946   2.335  0.00  0.00     0.002 A 
ENDROOT
BRANCH   1   7
ATOM      7  C1  UNL d   1       1.135  -0.690   1.467  0.00  0.00     0.055 C 
ATOM      8  C   UNL d   1       2.423   0.046   1.129  0.00  0.00     0.019 C 
ENDBRANCH   1   7
TORSDOF 1
ENDMDL
