MODEL 1
REMARK minimizedAffinity -1.70423496
REMARK minimizedRMSD -1
REMARK  1 active torsions:
REMARK  status: ('A' for Active; 'I' for Inactive)
REMARK    1  A    between atoms: C1_2  and  C2_3 
ROOT
ATOM      1  C2  UNL d   1      -5.323  -4.837  -4.269  0.00  0.00    -0.077 A 
ATOM      2  C3  UNL d   1      -5.996  -4.088  -3.293  0.00  0.00     0.002 A 
ATOM      3  C4  UNL d   1      -5.734  -4.296  -1.938  0.00  0.00     0.002 A 
ATOM      4  C5  UNL d   1      -4.795  -5.248  -1.546  0.00  0.00    -0.004 A 
ATOM      5  C6  UNL d   1      -4.122  -5.999  -2.508  0.00  0.00     0.002 A 
ATOM      6  C7  UNL d   1      -4.384  -5.794  -3.863  0.00  0.00     0.002 A 
ENDROOT
BRANCH   1   7
ATOM      7  C1  UNL d   1      -5.568  -4.581  -5.733  0.00  0.00     0.055 C 
ATOM      8  C   UNL d   1      -5.999  -3.142  -5.978  0.00  0.00     0.019 C 
ENDBRANCH   1   7
TORSDOF 1
ENDMDL
