MODEL 1
REMARK minimizedAffinity 8.05839252
REMARK minimizedRMSD -1
REMARK  1 active torsions:
REMARK  status: ('A' for Active; 'I' for Inactive)
REMARK    1  A    between atoms: C1_2  and  C2_3 
ROOT
ATOM      1  C2  UNL d   1       3.022  -3.207   3.966  0.00  0.00    -0.077 A 
ATOM      2  C3  UNL d   1       2.695  -1.939   3.464  0.00  0.00     0.002 A 
ATOM      3  C4  UNL d   1       1.591  -1.774   2.626  0.00  0.00     0.002 A 
ATOM      4  C5  UNL d   1       0.802  -2.872   2.286  0.00  0.00    -0.004 A 
ATOM      5  C6  UNL d   1       1.120  -4.137   2.778  0.00  0.00     0.002 A 
ATOM      6  C7  UNL d   1       2.224  -4.304   3.615  0.00  0.00     0.002 A 
ENDROOT
BRANCH   1   7
ATOM      7  C1  UNL d   1       4.183  -3.379   4.909  0.00  0.00     0.055 C 
ATOM      8  C   UNL d   1       5.510  -3.357   4.164  0.00  0.00     0.019 C 
ENDBRANCH   1   7
TORSDOF 1
ENDMDL
