MODEL 1
REMARK minimizedAffinity -3.47047806
REMARK minimizedRMSD -1
REMARK  1 active torsions:
REMARK  status: ('A' for Active; 'I' for Inactive)
REMARK    1  A    between atoms: C1_2  and  C2_3 
ROOT
ATOM      1  C2  UNL d   1      -5.301  -4.745  -4.182  0.00  0.00    -0.077 A 
ATOM      2  C3  UNL d   1      -5.999  -3.871  -3.336  0.00  0.00     0.002 A 
ATOM      3  C4  UNL d   1      -5.983  -4.063  -1.954  0.00  0.00     0.002 A 
ATOM      4  C5  UNL d   1      -5.267  -5.124  -1.404  0.00  0.00    -0.004 A 
ATOM      5  C6  UNL d   1      -4.571  -6.000  -2.236  0.00  0.00     0.002 A 
ATOM      6  C7  UNL d   1      -4.587  -5.811  -3.619  0.00  0.00     0.002 A 
ENDROOT
BRANCH   1   7
ATOM      7  C1  UNL d   1      -5.276  -4.511  -5.670  0.00  0.00     0.055 C 
ATOM      8  C   UNL d   1      -4.844  -3.090  -6.000  0.00  0.00     0.019 C 
ENDBRANCH   1   7
TORSDOF 1
ENDMDL
