MODEL 1
REMARK minimizedAffinity -4.01351929
REMARK minimizedRMSD -1
REMARK  2 active torsions:
REMARK  status: ('A' for Active; 'I' for Inactive)
REMARK    1  A    between atoms: C2'_3  and  C1'_4 
REMARK    2  A    between atoms: C1'_4  and  C1_5 
ROOT
ATOM      1  C1  I4B d   1       0.182   0.087   0.047  0.00  0.00    -0.075 A 
ATOM      2  C2  I4B d   1       0.566   0.161   1.363  0.00  0.00     0.003 A 
ATOM      3  C3  I4B d   1      -0.290   0.754   2.323  0.00  0.00     0.002 A 
ATOM      4  C4  I4B d   1      -1.490   1.302   1.917  0.00  0.00    -0.004 A 
ATOM      5  C5  I4B d   1      -1.888   1.205   0.587  0.00  0.00     0.002 A 
ATOM      6  C6  I4B d   1      -1.052   0.583  -0.352  0.00  0.00     0.003 A 
ENDROOT
BRANCH   1   7
ATOM      7  C1' I4B d   1       1.124  -0.516  -0.946  0.00  0.00     0.060 C 
BRANCH   7   8
ATOM      8  C2' I4B d   1       0.523  -1.821  -1.427  0.00  0.00    -0.013 C 
ATOM      9  C4' I4B d   1       0.429  -1.856  -2.930  0.00  0.00     0.013 C 
ATOM     10  C3' I4B d   1       1.376  -2.941  -0.912  0.00  0.00     0.013 C 
ENDBRANCH   7   8
ENDBRANCH   1   7
TORSDOF 2
ENDMDL
