MODEL 1
REMARK minimizedAffinity -5.61838007
REMARK minimizedRMSD -1
REMARK  2 active torsions:
REMARK  status: ('A' for Active; 'I' for Inactive)
REMARK    1  A    between atoms: C2'_3  and  C1'_4 
REMARK    2  A    between atoms: C1'_4  and  C1_5 
ROOT
ATOM      1  C1  I4B d   1      -1.084   0.986  -0.338  0.00  0.00    -0.075 A 
ATOM      2  C2  I4B d   1      -2.093   0.811   0.576  0.00  0.00     0.003 A 
ATOM      3  C3  I4B d   1      -2.663   1.929   1.231  0.00  0.00     0.002 A 
ATOM      4  C4  I4B d   1      -2.163   3.191   0.981  0.00  0.00    -0.004 A 
ATOM      5  C5  I4B d   1      -1.156   3.369   0.037  0.00  0.00     0.002 A 
ATOM      6  C6  I4B d   1      -0.621   2.261  -0.637  0.00  0.00     0.003 A 
ENDROOT
BRANCH   1   7
ATOM      7  C1' I4B d   1      -0.482  -0.221  -0.987  0.00  0.00     0.060 C 
BRANCH   7   8
ATOM      8  C2' I4B d   1       0.877  -0.459  -0.360  0.00  0.00    -0.013 C 
ATOM      9  C4' I4B d   1       0.799  -0.416   1.143  0.00  0.00     0.013 C 
ATOM     10  C3' I4B d   1       1.381  -1.787  -0.839  0.00  0.00     0.013 C 
ENDBRANCH   7   8
ENDBRANCH   1   7
TORSDOF 2
ENDMDL
