MODEL 1
REMARK minimizedAffinity -5.32808399
REMARK minimizedRMSD -1
REMARK  2 active torsions:
REMARK  status: ('A' for Active; 'I' for Inactive)
REMARK    1  A    between atoms: C2'_3  and  C1'_4 
REMARK    2  A    between atoms: C1'_4  and  C1_5 
ROOT
ATOM      1  C1  I4B d   1       0.222  -0.447  -0.116  0.00  0.00    -0.075 A 
ATOM      2  C2  I4B d   1       0.578  -0.120   1.169  0.00  0.00     0.003 A 
ATOM      3  C3  I4B d   1      -0.286   0.665   1.970  0.00  0.00     0.002 A 
ATOM      4  C4  I4B d   1      -1.465   1.141   1.433  0.00  0.00    -0.004 A 
ATOM      5  C5  I4B d   1      -1.835   0.789   0.138  0.00  0.00     0.002 A 
ATOM      6  C6  I4B d   1      -0.992  -0.020  -0.637  0.00  0.00     0.003 A 
ENDROOT
BRANCH   1   7
ATOM      7  C1' I4B d   1       1.173  -1.250  -0.945  0.00  0.00     0.060 C 
BRANCH   7   8
ATOM      8  C2' I4B d   1       0.397  -2.387  -1.577  0.00  0.00    -0.013 C 
ATOM      9  C4' I4B d   1       0.576  -2.405  -3.072  0.00  0.00     0.013 C 
ATOM     10  C3' I4B d   1       0.868  -3.670  -0.960  0.00  0.00     0.013 C 
ENDBRANCH   7   8
ENDBRANCH   1   7
TORSDOF 2
ENDMDL
