MODEL 1
REMARK minimizedAffinity -4.77550125
REMARK minimizedRMSD -1
REMARK  2 active torsions:
REMARK  status: ('A' for Active; 'I' for Inactive)
REMARK    1  A    between atoms: C2'_3  and  C1'_4 
REMARK    2  A    between atoms: C1'_4  and  C1_5 
ROOT
ATOM      1  C1  I4B d   1       0.188  -0.045   0.064  0.00  0.00    -0.075 A 
ATOM      2  C2  I4B d   1      -0.127  -0.348   1.365  0.00  0.00     0.003 A 
ATOM      3  C3  I4B d   1      -1.111   0.402   2.053  0.00  0.00     0.002 A 
ATOM      4  C4  I4B d   1      -1.714   1.471   1.423  0.00  0.00    -0.004 A 
ATOM      5  C5  I4B d   1      -1.410   1.763   0.097  0.00  0.00     0.002 A 
ATOM      6  C6  I4B d   1      -0.462   0.992  -0.592  0.00  0.00     0.003 A 
ENDROOT
BRANCH   1   7
ATOM      7  C1' I4B d   1       1.255  -0.837  -0.623  0.00  0.00     0.060 C 
BRANCH   7   8
ATOM      8  C2' I4B d   1       0.669  -2.183  -0.998  0.00  0.00    -0.013 C 
ATOM      9  C4' I4B d   1       0.323  -2.238  -2.463  0.00  0.00     0.013 C 
ATOM     10  C3' I4B d   1       1.670  -3.241  -0.639  0.00  0.00     0.013 C 
ENDBRANCH   7   8
ENDBRANCH   1   7
TORSDOF 2
ENDMDL
