MODEL 1
REMARK minimizedAffinity -4.26664019
REMARK minimizedRMSD -1
REMARK  2 active torsions:
REMARK  status: ('A' for Active; 'I' for Inactive)
REMARK    1  A    between atoms: C2'_3  and  C1'_4 
REMARK    2  A    between atoms: C1'_4  and  C1_5 
ROOT
ATOM      1  C1  I4B d   1       0.463  -1.625  -1.127  0.00  0.00    -0.075 A 
ATOM      2  C2  I4B d   1       0.601  -2.867  -0.559  0.00  0.00     0.003 A 
ATOM      3  C3  I4B d   1       0.311  -4.031  -1.311  0.00  0.00     0.002 A 
ATOM      4  C4  I4B d   1      -0.159  -3.907  -2.603  0.00  0.00    -0.004 A 
ATOM      5  C5  I4B d   1      -0.276  -2.648  -3.185  0.00  0.00     0.002 A 
ATOM      6  C6  I4B d   1       0.048  -1.500  -2.447  0.00  0.00     0.003 A 
ENDROOT
BRANCH   1   7
ATOM      7  C1' I4B d   1       0.746  -0.416  -0.293  0.00  0.00     0.060 C 
BRANCH   7   8
ATOM      8  C2' I4B d   1      -0.568   0.298  -0.046  0.00  0.00    -0.013 C 
ATOM      9  C4' I4B d   1      -1.143  -0.067   1.297  0.00  0.00     0.013 C 
ATOM     10  C3' I4B d   1      -0.318   1.773  -0.145  0.00  0.00     0.013 C 
ENDBRANCH   7   8
ENDBRANCH   1   7
TORSDOF 2
ENDMDL
