MODEL 1
REMARK minimizedAffinity -5.13593626
REMARK minimizedRMSD -1
REMARK  2 active torsions:
REMARK  status: ('A' for Active; 'I' for Inactive)
REMARK    1  A    between atoms: C2'_3  and  C1'_4 
REMARK    2  A    between atoms: C1'_4  and  C1_5 
ROOT
ATOM      1  C1  I4B d   1      -0.569   1.570   0.024  0.00  0.00    -0.075 A 
ATOM      2  C2  I4B d   1      -1.432   1.150   1.006  0.00  0.00     0.003 A 
ATOM      3  C3  I4B d   1      -2.380   2.048   1.554  0.00  0.00     0.002 A 
ATOM      4  C4  I4B d   1      -2.396   3.361   1.131  0.00  0.00    -0.004 A 
ATOM      5  C5  I4B d   1      -1.536   3.780   0.119  0.00  0.00     0.002 A 
ATOM      6  C6  I4B d   1      -0.625   2.876  -0.446  0.00  0.00     0.003 A 
ENDROOT
BRANCH   1   7
ATOM      7  C1' I4B d   1       0.441   0.605  -0.510  0.00  0.00     0.060 C 
BRANCH   7   8
ATOM      8  C2' I4B d   1       0.149  -0.756   0.090  0.00  0.00    -0.013 C 
ATOM      9  C4' I4B d   1       0.858  -1.848  -0.666  0.00  0.00     0.013 C 
ATOM     10  C3' I4B d   1       0.573  -0.729   1.528  0.00  0.00     0.013 C 
ENDBRANCH   7   8
ENDBRANCH   1   7
TORSDOF 2
ENDMDL
