MODEL 1
REMARK minimizedAffinity -4.23095179
REMARK minimizedRMSD -1
REMARK  2 active torsions:
REMARK  status: ('A' for Active; 'I' for Inactive)
REMARK    1  A    between atoms: C2'_3  and  C1'_4 
REMARK    2  A    between atoms: C1'_4  and  C1_5 
ROOT
ATOM      1  C1  I4B d   1       0.472  -0.628  -0.830  0.00  0.00    -0.075 A 
ATOM      2  C2  I4B d   1       1.168   0.505  -1.169  0.00  0.00     0.003 A 
ATOM      3  C3  I4B d   1       0.595   1.783  -0.959  0.00  0.00     0.002 A 
ATOM      4  C4  I4B d   1      -0.687   1.879  -0.457  0.00  0.00    -0.004 A 
ATOM      5  C5  I4B d   1      -1.382   0.729  -0.093  0.00  0.00     0.002 A 
ATOM      6  C6  I4B d   1      -0.795  -0.532  -0.268  0.00  0.00     0.003 A 
ENDROOT
BRANCH   1   7
ATOM      7  C1' I4B d   1       1.093  -1.963  -1.096  0.00  0.00     0.060 C 
BRANCH   7   8
ATOM      8  C2' I4B d   1       0.082  -2.809  -1.842  0.00  0.00    -0.013 C 
ATOM      9  C4' I4B d   1       0.253  -2.675  -3.333  0.00  0.00     0.013 C 
ATOM     10  C3' I4B d   1       0.255  -4.232  -1.403  0.00  0.00     0.013 C 
ENDBRANCH   7   8
ENDBRANCH   1   7
TORSDOF 2
ENDMDL
