MODEL 1
REMARK minimizedAffinity -3.61927676
REMARK minimizedRMSD -1
REMARK  2 active torsions:
REMARK  status: ('A' for Active; 'I' for Inactive)
REMARK    1  A    between atoms: C2'_3  and  C1'_4 
REMARK    2  A    between atoms: C1'_4  and  C1_5 
ROOT
ATOM      1  C1  I4B d   1       0.267  -0.001   0.091  0.00  0.00    -0.075 A 
ATOM      2  C2  I4B d   1       0.136   1.273  -0.403  0.00  0.00     0.003 A 
ATOM      3  C3  I4B d   1      -0.644   2.230   0.290  0.00  0.00     0.002 A 
ATOM      4  C4  I4B d   1      -1.313   1.858   1.438  0.00  0.00    -0.004 A 
ATOM      5  C5  I4B d   1      -1.161   0.572   1.950  0.00  0.00     0.002 A 
ATOM      6  C6  I4B d   1      -0.356  -0.360   1.279  0.00  0.00     0.003 A 
ENDROOT
BRANCH   1   7
ATOM      7  C1' I4B d   1       1.072  -0.996  -0.684  0.00  0.00     0.060 C 
BRANCH   7   8
ATOM      8  C2' I4B d   1       0.113  -1.845  -1.493  0.00  0.00    -0.013 C 
ATOM      9  C4' I4B d   1      -0.140  -1.241  -2.849  0.00  0.00     0.013 C 
ATOM     10  C3' I4B d   1       0.699  -3.220  -1.613  0.00  0.00     0.013 C 
ENDBRANCH   7   8
ENDBRANCH   1   7
TORSDOF 2
ENDMDL
