MODEL 1
REMARK minimizedAffinity -5.3088603
REMARK minimizedRMSD -1
REMARK  2 active torsions:
REMARK  status: ('A' for Active; 'I' for Inactive)
REMARK    1  A    between atoms: C2'_3  and  C1'_4 
REMARK    2  A    between atoms: C1'_4  and  C1_5 
ROOT
ATOM      1  C1  I4B d   1      -0.159   0.130   0.035  0.00  0.00    -0.075 A 
ATOM      2  C2  I4B d   1      -0.177   0.026   1.404  0.00  0.00     0.003 A 
ATOM      3  C3  I4B d   1      -1.039   0.849   2.169  0.00  0.00     0.002 A 
ATOM      4  C4  I4B d   1      -1.822   1.790   1.533  0.00  0.00    -0.004 A 
ATOM      5  C5  I4B d   1      -1.819   1.878   0.144  0.00  0.00     0.002 A 
ATOM      6  C6  I4B d   1      -0.991   1.034  -0.611  0.00  0.00     0.003 A 
ENDROOT
BRANCH   1   7
ATOM      7  C1' I4B d   1       0.787  -0.732  -0.740  0.00  0.00     0.060 C 
BRANCH   7   8
ATOM      8  C2' I4B d   1       0.101  -2.057  -1.005  0.00  0.00    -0.013 C 
ATOM      9  C4' I4B d   1      -0.380  -2.145  -2.429  0.00  0.00     0.013 C 
ATOM     10  C3' I4B d   1       1.075  -3.153  -0.693  0.00  0.00     0.013 C 
ENDBRANCH   7   8
ENDBRANCH   1   7
TORSDOF 2
ENDMDL
