MODEL 1
REMARK minimizedAffinity -4.2789855
REMARK minimizedRMSD -1
REMARK  2 active torsions:
REMARK  status: ('A' for Active; 'I' for Inactive)
REMARK    1  A    between atoms: C2'_3  and  C1'_4 
REMARK    2  A    between atoms: C1'_4  and  C1_5 
ROOT
ATOM      1  C1  I4B d   1      -0.942   1.389  -0.448  0.00  0.00    -0.075 A 
ATOM      2  C2  I4B d   1      -1.987   1.254   0.432  0.00  0.00     0.003 A 
ATOM      3  C3  I4B d   1      -2.586   2.400   1.008  0.00  0.00     0.002 A 
ATOM      4  C4  I4B d   1      -2.079   3.650   0.718  0.00  0.00    -0.004 A 
ATOM      5  C5  I4B d   1      -1.035   3.787  -0.192  0.00  0.00     0.002 A 
ATOM      6  C6  I4B d   1      -0.470   2.650  -0.789  0.00  0.00     0.003 A 
ENDROOT
BRANCH   1   7
ATOM      7  C1' I4B d   1      -0.311   0.155  -1.013  0.00  0.00     0.060 C 
BRANCH   7   8
ATOM      8  C2' I4B d   1       1.009  -0.061  -0.302  0.00  0.00    -0.013 C 
ATOM      9  C4' I4B d   1       0.799  -0.610   1.085  0.00  0.00     0.013 C 
ATOM     10  C3' I4B d   1       1.836  -0.995  -1.134  0.00  0.00     0.013 C 
ENDBRANCH   7   8
ENDBRANCH   1   7
TORSDOF 2
ENDMDL
