MODEL 1
REMARK minimizedAffinity -4.59796143
REMARK minimizedRMSD -1
REMARK  2 active torsions:
REMARK  status: ('A' for Active; 'I' for Inactive)
REMARK    1  A    between atoms: C2'_3  and  C1'_4 
REMARK    2  A    between atoms: C1'_4  and  C1_5 
ROOT
ATOM      1  C1  I4B d   1       0.015   0.651  -0.200  0.00  0.00    -0.075 A 
ATOM      2  C2  I4B d   1      -0.156   1.826  -0.887  0.00  0.00     0.003 A 
ATOM      3  C3  I4B d   1      -1.050   2.812  -0.402  0.00  0.00     0.002 A 
ATOM      4  C4  I4B d   1      -1.784   2.561   0.739  0.00  0.00    -0.004 A 
ATOM      5  C5  I4B d   1      -1.592   1.378   1.447  0.00  0.00     0.002 A 
ATOM      6  C6  I4B d   1      -0.678   0.422   0.982  0.00  0.00     0.003 A 
ENDROOT
BRANCH   1   7
ATOM      7  C1' I4B d   1       0.941  -0.382  -0.758  0.00  0.00     0.060 C 
BRANCH   7   8
ATOM      8  C2' I4B d   1       0.103  -1.428  -1.465  0.00  0.00    -0.013 C 
ATOM      9  C4' I4B d   1       0.008  -1.143  -2.941  0.00  0.00     0.013 C 
ATOM     10  C3' I4B d   1       0.725  -2.769  -1.211  0.00  0.00     0.013 C 
ENDBRANCH   7   8
ENDBRANCH   1   7
TORSDOF 2
ENDMDL
