MODEL 1
REMARK minimizedAffinity -2.41333818
REMARK minimizedRMSD -1
REMARK  2 active torsions:
REMARK  status: ('A' for Active; 'I' for Inactive)
REMARK    1  A    between atoms: C2'_3  and  C1'_4 
REMARK    2  A    between atoms: C1'_4  and  C1_5 
ROOT
ATOM      1  C1  I4B d   1      -0.102   1.063  -0.512  0.00  0.00    -0.075 A 
ATOM      2  C2  I4B d   1       0.047  -0.004   0.339  0.00  0.00     0.003 A 
ATOM      3  C3  I4B d   1       0.373  -1.283  -0.173  0.00  0.00     0.002 A 
ATOM      4  C4  I4B d   1       0.489  -1.461  -1.537  0.00  0.00    -0.004 A 
ATOM      5  C5  I4B d   1       0.360  -0.373  -2.396  0.00  0.00     0.002 A 
ATOM      6  C6  I4B d   1       0.075   0.899  -1.880  0.00  0.00     0.003 A 
ENDROOT
BRANCH   1   7
ATOM      7  C1' I4B d   1      -0.478   2.393   0.059  0.00  0.00     0.060 C 
BRANCH   7   8
ATOM      8  C2' I4B d   1      -1.303   2.149   1.306  0.00  0.00    -0.013 C 
ATOM      9  C4' I4B d   1      -0.470   2.308   2.551  0.00  0.00     0.013 C 
ATOM     10  C3' I4B d   1      -2.452   3.113   1.297  0.00  0.00     0.013 C 
ENDBRANCH   7   8
ENDBRANCH   1   7
TORSDOF 2
ENDMDL
