MODEL 1
REMARK minimizedAffinity -2.19357324
REMARK minimizedRMSD -1
REMARK  2 active torsions:
REMARK  status: ('A' for Active; 'I' for Inactive)
REMARK    1  A    between atoms: C2'_3  and  C1'_4 
REMARK    2  A    between atoms: C1'_4  and  C1_5 
ROOT
ATOM      1  C1  I4B d   1      -0.524   1.584   0.928  0.00  0.00    -0.075 A 
ATOM      2  C2  I4B d   1      -0.048   1.124  -0.274  0.00  0.00     0.003 A 
ATOM      3  C3  I4B d   1       0.465   2.032  -1.233  0.00  0.00     0.002 A 
ATOM      4  C4  I4B d   1       0.436   3.386  -0.969  0.00  0.00    -0.004 A 
ATOM      5  C5  I4B d   1      -0.026   3.849   0.259  0.00  0.00     0.002 A 
ATOM      6  C6  I4B d   1      -0.498   2.942   1.219  0.00  0.00     0.003 A 
ENDROOT
BRANCH   1   7
ATOM      7  C1' I4B d   1      -1.089   0.601   1.904  0.00  0.00     0.060 C 
BRANCH   7   8
ATOM      8  C2' I4B d   1      -0.456  -0.748   1.626  0.00  0.00    -0.013 C 
ATOM      9  C4' I4B d   1       1.041  -0.689   1.777  0.00  0.00     0.013 C 
ATOM     10  C3' I4B d   1      -1.057  -1.744   2.571  0.00  0.00     0.013 C 
ENDBRANCH   7   8
ENDBRANCH   1   7
TORSDOF 2
ENDMDL
