MODEL 1
REMARK minimizedAffinity -2.47340345
REMARK minimizedRMSD -1
REMARK  0 active torsions:
REMARK  status: ('A' for Active; 'I' for Inactive)
ROOT
ATOM      1  C   UNL d   1      -2.086   0.893   2.213  0.00  0.00    -0.002 A 
ATOM      2  C1  UNL d   1      -2.768   0.516   1.065  0.00  0.00     0.010 A 
ATOM      3  C2  UNL d   1      -2.080  -0.020  -0.026  0.00  0.00     0.041 A 
ATOM      4  C3  UNL d   1      -0.682  -0.173   0.059  0.00  0.00    -0.075 A 
ATOM      5  S   UNL d   1       0.369  -0.807  -1.151  0.00  0.00     0.015 SA
ATOM      6  C4  UNL d   1       1.748  -0.593  -0.172  0.00  0.00     0.022 A 
ATOM      7  C5  UNL d   1       1.432  -0.052   1.052  0.00  0.00     0.026 A 
ATOM      8  C6  UNL d   1       0.026   0.199   1.205  0.00  0.00    -0.082 A 
ATOM      9  C7  UNL d   1      -0.700   0.739   2.293  0.00  0.00     0.045 A 
ENDROOT
TORSDOF 0
ENDMDL
