MODEL 1
REMARK minimizedAffinity 0.42536366
REMARK minimizedRMSD -1
REMARK  0 active torsions:
REMARK  status: ('A' for Active; 'I' for Inactive)
ROOT
ATOM      1  C   UNL d   1      -0.425   0.082  -1.877  0.00  0.00    -0.002 A 
ATOM      2  C1  UNL d   1       0.800  -0.562  -1.783  0.00  0.00     0.010 A 
ATOM      3  C2  UNL d   1       1.442  -0.691  -0.550  0.00  0.00     0.041 A 
ATOM      4  C3  UNL d   1       0.825  -0.158   0.599  0.00  0.00    -0.075 A 
ATOM      5  S   UNL d   1       1.424  -0.199   2.215  0.00  0.00     0.015 SA
ATOM      6  C4  UNL d   1       0.067   0.637   2.819  0.00  0.00     0.022 A 
ATOM      7  C5  UNL d   1      -0.831   0.948   1.826  0.00  0.00     0.026 A 
ATOM      8  C6  UNL d   1      -0.410   0.494   0.530  0.00  0.00    -0.082 A 
ATOM      9  C7  UNL d   1      -1.035   0.610  -0.735  0.00  0.00     0.045 A 
ENDROOT
TORSDOF 0
ENDMDL
