MODEL 1
REMARK minimizedAffinity -4.25776386
REMARK minimizedRMSD -1
REMARK  0 active torsions:
REMARK  status: ('A' for Active; 'I' for Inactive)
ROOT
ATOM      1  C   UNL d   1      -1.524   0.772   2.697  0.00  0.00    -0.002 A 
ATOM      2  C1  UNL d   1      -0.178   0.816   3.031  0.00  0.00     0.010 A 
ATOM      3  C2  UNL d   1       0.797   0.452   2.101  0.00  0.00     0.041 A 
ATOM      4  C3  UNL d   1       0.393   0.039   0.816  0.00  0.00    -0.075 A 
ATOM      5  S   UNL d   1       1.410  -0.452  -0.486  0.00  0.00     0.015 SA
ATOM      6  C4  UNL d   1       0.082  -0.732  -1.517  0.00  0.00     0.022 A 
ATOM      7  C5  UNL d   1      -1.116  -0.462  -0.899  0.00  0.00     0.026 A 
ATOM      8  C6  UNL d   1      -0.957  -0.013   0.456  0.00  0.00    -0.082 A 
ATOM      9  C7  UNL d   1      -1.922   0.362   1.421  0.00  0.00     0.045 A 
ENDROOT
TORSDOF 0
ENDMDL
