MODEL 1
REMARK minimizedAffinity -2.30826831
REMARK minimizedRMSD -1
REMARK  0 active torsions:
REMARK  status: ('A' for Active; 'I' for Inactive)
ROOT
ATOM      1  C   UNL d   1      -2.016  -0.097   1.578  0.00  0.00    -0.002 A 
ATOM      2  C1  UNL d   1      -0.936   0.549   2.164  0.00  0.00     0.010 A 
ATOM      3  C2  UNL d   1       0.192   0.874   1.409  0.00  0.00     0.041 A 
ATOM      4  C3  UNL d   1       0.217   0.538   0.041  0.00  0.00    -0.075 A 
ATOM      5  S   UNL d   1       1.491   0.838  -1.081  0.00  0.00     0.015 SA
ATOM      6  C4  UNL d   1       0.632   0.117  -2.364  0.00  0.00     0.022 A 
ATOM      7  C5  UNL d   1      -0.598  -0.347  -1.964  0.00  0.00     0.026 A 
ATOM      8  C6  UNL d   1      -0.858  -0.112  -0.572  0.00  0.00    -0.082 A 
ATOM      9  C7  UNL d   1      -1.988  -0.429   0.221  0.00  0.00     0.045 A 
ENDROOT
TORSDOF 0
ENDMDL
