MODEL 1
REMARK minimizedAffinity -1.07358062
REMARK minimizedRMSD -1
REMARK  0 active torsions:
REMARK  status: ('A' for Active; 'I' for Inactive)
ROOT
ATOM      1  C   UNL d   1       1.147  -0.096  -5.347  0.00  0.00    -0.002 A 
ATOM      2  C1  UNL d   1       2.138   0.607  -4.676  0.00  0.00     0.010 A 
ATOM      3  C2  UNL d   1       2.157   0.651  -3.281  0.00  0.00     0.041 A 
ATOM      4  C3  UNL d   1       1.155  -0.031  -2.564  0.00  0.00    -0.075 A 
ATOM      5  S   UNL d   1       0.978  -0.118  -0.851  0.00  0.00     0.015 SA
ATOM      6  C4  UNL d   1      -0.417  -1.090  -0.969  0.00  0.00     0.022 A 
ATOM      7  C5  UNL d   1      -0.754  -1.352  -2.276  0.00  0.00     0.026 A 
ATOM      8  C6  UNL d   1       0.147  -0.747  -3.217  0.00  0.00    -0.082 A 
ATOM      9  C7  UNL d   1       0.154  -0.771  -4.632  0.00  0.00     0.045 A 
ENDROOT
TORSDOF 0
ENDMDL
