MODEL 1
REMARK minimizedAffinity 6.84131432
REMARK minimizedRMSD -1
REMARK  0 active torsions:
REMARK  status: ('A' for Active; 'I' for Inactive)
ROOT
ATOM      1  C   UNL d   1       2.691   0.764  -0.508  0.00  0.00     0.023 A 
ATOM      2  C1  UNL d   1       1.569   0.134   0.030  0.00  0.00     0.003 A 
ATOM      3  C2  UNL d   1       1.052   0.554   1.257  0.00  0.00     0.048 A 
ATOM      4  C3  UNL d   1       1.662   1.605   1.941  0.00  0.00     0.023 A 
ATOM      5  C4  UNL d   1       2.784   2.239   1.407  0.00  0.00     0.048 A 
ATOM      6  C5  UNL d   1       3.298   1.815   0.180  0.00  0.00     0.003 A 
ATOM      7  I   UNL d   1       0.894   2.232   3.768  0.00  0.00    -0.146 I 
ENDROOT
TORSDOF 0
ENDMDL
