MODEL 1
REMARK minimizedAffinity 12.8226461
REMARK minimizedRMSD -1
REMARK  0 active torsions:
REMARK  status: ('A' for Active; 'I' for Inactive)
ROOT
ATOM      1  C   UNL d   1      -0.303  -4.212   5.225  0.00  0.00     0.023 A 
ATOM      2  C1  UNL d   1      -0.796  -3.838   3.975  0.00  0.00     0.003 A 
ATOM      3  C2  UNL d   1      -0.582  -2.543   3.497  0.00  0.00     0.048 A 
ATOM      4  C3  UNL d   1       0.127  -1.628   4.275  0.00  0.00     0.023 A 
ATOM      5  C4  UNL d   1       0.622  -1.998   5.527  0.00  0.00     0.048 A 
ATOM      6  C5  UNL d   1       0.405  -3.294   6.000  0.00  0.00     0.003 A 
ATOM      7  I   UNL d   1       0.446   0.299   3.567  0.00  0.00    -0.146 I 
ENDROOT
TORSDOF 0
ENDMDL
