MODEL 1
REMARK minimizedAffinity 8.69548988
REMARK minimizedRMSD -1
REMARK  0 active torsions:
REMARK  status: ('A' for Active; 'I' for Inactive)
ROOT
ATOM      1  C   UNL d   1      -5.636   4.477  -2.468  0.00  0.00     0.023 A 
ATOM      2  C1  UNL d   1      -5.941   3.287  -3.130  0.00  0.00     0.003 A 
ATOM      3  C2  UNL d   1      -5.997   2.086  -2.420  0.00  0.00     0.048 A 
ATOM      4  C3  UNL d   1      -5.749   2.082  -1.048  0.00  0.00     0.023 A 
ATOM      5  C4  UNL d   1      -5.445   3.270  -0.381  0.00  0.00     0.048 A 
ATOM      6  C5  UNL d   1      -5.389   4.468  -1.095  0.00  0.00     0.003 A 
ATOM      7  I   UNL d   1      -5.833   0.296   0.011  0.00  0.00    -0.146 I 
ENDROOT
TORSDOF 0
ENDMDL
