MODEL 1
REMARK minimizedAffinity 16.6832676
REMARK minimizedRMSD -1
REMARK  0 active torsions:
REMARK  status: ('A' for Active; 'I' for Inactive)
ROOT
ATOM      1  C   UNL d   1       1.866   2.568   1.134  0.00  0.00     0.023 A 
ATOM      2  C1  UNL d   1       1.498   1.233   1.302  0.00  0.00     0.003 A 
ATOM      3  C2  UNL d   1       0.557   0.653   0.448  0.00  0.00     0.048 A 
ATOM      4  C3  UNL d   1      -0.011   1.414  -0.573  0.00  0.00     0.023 A 
ATOM      5  C4  UNL d   1       0.355   2.750  -0.746  0.00  0.00     0.048 A 
ATOM      6  C5  UNL d   1       1.295   3.326   0.111  0.00  0.00     0.003 A 
ATOM      7  I   UNL d   1      -1.411   0.554  -1.846  0.00  0.00    -0.146 I 
ENDROOT
TORSDOF 0
ENDMDL
