MODEL 1
REMARK minimizedAffinity 6.27159309
REMARK minimizedRMSD -1
REMARK  0 active torsions:
REMARK  status: ('A' for Active; 'I' for Inactive)
ROOT
ATOM      1  C   UNL d   1       1.397  -2.809  -0.133  0.00  0.00     0.023 A 
ATOM      2  C1  UNL d   1       1.513  -1.818  -1.108  0.00  0.00     0.003 A 
ATOM      3  C2  UNL d   1       2.026  -0.563  -0.771  0.00  0.00     0.048 A 
ATOM      4  C3  UNL d   1       2.421  -0.307   0.541  0.00  0.00     0.023 A 
ATOM      5  C4  UNL d   1       2.308  -1.296   1.519  0.00  0.00     0.048 A 
ATOM      6  C5  UNL d   1       1.793  -2.549   1.178  0.00  0.00     0.003 A 
ATOM      7  I   UNL d   1       3.185   1.559   1.044  0.00  0.00    -0.146 I 
ENDROOT
TORSDOF 0
ENDMDL
