MODEL 1
REMARK minimizedAffinity 6.11205244
REMARK minimizedRMSD -1
REMARK  0 active torsions:
REMARK  status: ('A' for Active; 'I' for Inactive)
ROOT
ATOM      1  C   UNL d   1      -5.506   4.194   1.414  0.00  0.00     0.023 A 
ATOM      2  C1  UNL d   1      -5.991   5.480   1.654  0.00  0.00     0.003 A 
ATOM      3  C2  UNL d   1      -5.986   6.000   2.950  0.00  0.00     0.048 A 
ATOM      4  C3  UNL d   1      -5.494   5.228   4.002  0.00  0.00     0.023 A 
ATOM      5  C4  UNL d   1      -5.007   3.941   3.767  0.00  0.00     0.048 A 
ATOM      6  C5  UNL d   1      -5.015   3.426   2.470  0.00  0.00     0.003 A 
ATOM      7  I   UNL d   1      -5.485   5.999   5.932  0.00  0.00    -0.146 I 
ENDROOT
TORSDOF 0
ENDMDL
