MODEL 1
REMARK minimizedAffinity 11.380846
REMARK minimizedRMSD -1
REMARK  0 active torsions:
REMARK  status: ('A' for Active; 'I' for Inactive)
ROOT
ATOM      1  C   UNL d   1       2.488   0.877  -1.116  0.00  0.00     0.023 A 
ATOM      2  C1  UNL d   1       2.249  -0.175  -0.232  0.00  0.00     0.003 A 
ATOM      3  C2  UNL d   1       3.256  -0.602   0.636  0.00  0.00     0.048 A 
ATOM      4  C3  UNL d   1       4.500   0.028   0.616  0.00  0.00     0.023 A 
ATOM      5  C4  UNL d   1       4.743   1.081  -0.267  0.00  0.00     0.048 A 
ATOM      6  C5  UNL d   1       3.734   1.504  -1.134  0.00  0.00     0.003 A 
ATOM      7  I   UNL d   1       6.000  -0.606   1.907  0.00  0.00    -0.146 I 
ENDROOT
TORSDOF 0
ENDMDL
