MODEL 1
REMARK minimizedAffinity 1.8090744
REMARK minimizedRMSD -1
REMARK  2 active torsions:
REMARK  status: ('A' for Active; 'I' for Inactive)
REMARK    1  A    between atoms: C1_2  and  C2_3 
REMARK    2  A    between atoms: C2_3  and  C3_4 
ROOT
ATOM      1  C3  UNL d   1      -0.731  -0.145   0.184  0.00  0.00    -0.075 A 
ATOM      2  C4  UNL d   1      -0.654   0.629   1.351  0.00  0.00     0.002 A 
ATOM      3  C5  UNL d   1       0.099   1.803   1.374  0.00  0.00     0.002 A 
ATOM      4  C6  UNL d   1       0.790   2.213   0.236  0.00  0.00    -0.004 A 
ATOM      5  C7  UNL d   1       0.734   1.444  -0.924  0.00  0.00     0.002 A 
ATOM      6  C8  UNL d   1      -0.022   0.270  -0.951  0.00  0.00     0.002 A 
ENDROOT
BRANCH   1   7
ATOM      7  C2  UNL d   1      -1.567  -1.402   0.144  0.00  0.00     0.056 C 
BRANCH   7   8
ATOM      8  C1  UNL d   1      -1.966  -1.841  -1.269  0.00  0.00     0.007 C 
ATOM      9  C   UNL d   1      -2.417  -3.293  -1.341  0.00  0.00     0.009 C 
ENDBRANCH   7   8
ENDBRANCH   1   7
TORSDOF 2
ENDMDL
