MODEL 1
REMARK minimizedAffinity -0.815319717
REMARK minimizedRMSD -1
REMARK  2 active torsions:
REMARK  status: ('A' for Active; 'I' for Inactive)
REMARK    1  A    between atoms: C1_2  and  C2_3 
REMARK    2  A    between atoms: C2_3  and  C3_4 
ROOT
ATOM      1  C3  UNL d   1       1.355   4.519  -5.990  0.00  0.00    -0.075 A 
ATOM      2  C4  UNL d   1       2.034   3.292  -6.000  0.00  0.00     0.002 A 
ATOM      3  C5  UNL d   1       3.428   3.254  -5.996  0.00  0.00     0.002 A 
ATOM      4  C6  UNL d   1       4.160   4.439  -5.993  0.00  0.00    -0.004 A 
ATOM      5  C7  UNL d   1       3.497   5.664  -6.000  0.00  0.00     0.002 A 
ATOM      6  C8  UNL d   1       2.101   5.705  -6.000  0.00  0.00     0.002 A 
ENDROOT
BRANCH   1   7
ATOM      7  C2  UNL d   1      -0.154   4.567  -5.965  0.00  0.00     0.056 C 
BRANCH   7   8
ATOM      8  C1  UNL d   1      -0.786   3.746  -4.836  0.00  0.00     0.007 C 
ATOM      9  C   UNL d   1      -1.889   4.491  -4.096  0.00  0.00     0.009 C 
ENDBRANCH   7   8
ENDBRANCH   1   7
TORSDOF 2
ENDMDL
