MODEL 1
REMARK minimizedAffinity -1.50776088
REMARK minimizedRMSD -1
REMARK  2 active torsions:
REMARK  status: ('A' for Active; 'I' for Inactive)
REMARK    1  A    between atoms: C1_2  and  C2_3 
REMARK    2  A    between atoms: C2_3  and  C3_4 
ROOT
ATOM      1  C3  UNL d   1       3.338   4.654  -5.999  0.00  0.00    -0.075 A 
ATOM      2  C4  UNL d   1       3.575   3.272  -5.999  0.00  0.00     0.002 A 
ATOM      3  C5  UNL d   1       4.879   2.777  -5.970  0.00  0.00     0.002 A 
ATOM      4  C6  UNL d   1       5.960   3.655  -5.952  0.00  0.00    -0.004 A 
ATOM      5  C7  UNL d   1       5.737   5.030  -5.968  0.00  0.00     0.002 A 
ATOM      6  C8  UNL d   1       4.433   5.528  -5.992  0.00  0.00     0.002 A 
ENDROOT
BRANCH   1   7
ATOM      7  C2  UNL d   1       1.928   5.196  -6.000  0.00  0.00     0.056 C 
BRANCH   7   8
ATOM      8  C1  UNL d   1       0.864   4.167  -5.604  0.00  0.00     0.007 C 
ATOM      9  C   UNL d   1      -0.547   4.581  -6.000  0.00  0.00     0.009 C 
ENDBRANCH   7   8
ENDBRANCH   1   7
TORSDOF 2
ENDMDL
