MODEL 1
REMARK minimizedAffinity 9.49854565
REMARK minimizedRMSD -1
REMARK  2 active torsions:
REMARK  status: ('A' for Active; 'I' for Inactive)
REMARK    1  A    between atoms: C1_2  and  C2_3 
REMARK    2  A    between atoms: C2_3  and  C3_4 
ROOT
ATOM      1  C3  UNL d   1      -0.834   4.164  -5.921  0.00  0.00    -0.075 A 
ATOM      2  C4  UNL d   1      -1.834   3.183  -5.966  0.00  0.00     0.002 A 
ATOM      3  C5  UNL d   1      -3.181   3.545  -5.988  0.00  0.00     0.002 A 
ATOM      4  C6  UNL d   1      -3.545   4.889  -5.955  0.00  0.00    -0.004 A 
ATOM      5  C7  UNL d   1      -2.560   5.872  -5.894  0.00  0.00     0.002 A 
ATOM      6  C8  UNL d   1      -1.211   5.513  -5.876  0.00  0.00     0.002 A 
ENDROOT
BRANCH   1   7
ATOM      7  C2  UNL d   1       0.627   3.780  -5.927  0.00  0.00     0.056 C 
BRANCH   7   8
ATOM      8  C1  UNL d   1       0.874   2.269  -5.995  0.00  0.00     0.007 C 
ATOM      9  C   UNL d   1       2.349   1.898  -5.925  0.00  0.00     0.009 C 
ENDBRANCH   7   8
ENDBRANCH   1   7
TORSDOF 2
ENDMDL
