MODEL 1
REMARK minimizedAffinity 4.44611979
REMARK minimizedRMSD -1
REMARK  2 active torsions:
REMARK  status: ('A' for Active; 'I' for Inactive)
REMARK    1  A    between atoms: C1_2  and  C2_3 
REMARK    2  A    between atoms: C2_3  and  C3_4 
ROOT
ATOM      1  C3  UNL d   1       2.476   3.627  -1.168  0.00  0.00    -0.075 A 
ATOM      2  C4  UNL d   1       3.874   3.733  -1.169  0.00  0.00     0.002 A 
ATOM      3  C5  UNL d   1       4.495   4.911  -0.753  0.00  0.00     0.002 A 
ATOM      4  C6  UNL d   1       3.728   5.999  -0.341  0.00  0.00    -0.004 A 
ATOM      5  C7  UNL d   1       2.338   5.910  -0.351  0.00  0.00     0.002 A 
ATOM      6  C8  UNL d   1       1.714   4.731  -0.763  0.00  0.00     0.002 A 
ENDROOT
BRANCH   1   7
ATOM      7  C2  UNL d   1       1.799   2.344  -1.588  0.00  0.00     0.056 C 
BRANCH   7   8
ATOM      8  C1  UNL d   1       2.654   1.456  -2.498  0.00  0.00     0.007 C 
ATOM      9  C   UNL d   1       2.957   0.092  -1.892  0.00  0.00     0.009 C 
ENDBRANCH   7   8
ENDBRANCH   1   7
TORSDOF 2
ENDMDL
