MODEL 1
REMARK minimizedAffinity -1.67544436
REMARK minimizedRMSD -1
REMARK  2 active torsions:
REMARK  status: ('A' for Active; 'I' for Inactive)
REMARK    1  A    between atoms: C1_2  and  C2_3 
REMARK    2  A    between atoms: C2_3  and  C3_4 
ROOT
ATOM      1  C3  UNL d   1      -0.590   2.629  -5.954  0.00  0.00    -0.075 A 
ATOM      2  C4  UNL d   1      -1.822   1.958  -5.938  0.00  0.00     0.002 A 
ATOM      3  C5  UNL d   1      -3.019   2.674  -5.965  0.00  0.00     0.002 A 
ATOM      4  C6  UNL d   1      -3.001   4.066  -5.999  0.00  0.00    -0.004 A 
ATOM      5  C7  UNL d   1      -1.783   4.744  -5.999  0.00  0.00     0.002 A 
ATOM      6  C8  UNL d   1      -0.584   4.030  -5.976  0.00  0.00     0.002 A 
ENDROOT
BRANCH   1   7
ATOM      7  C2  UNL d   1       0.709   1.859  -5.954  0.00  0.00     0.056 C 
BRANCH   7   8
ATOM      8  C1  UNL d   1       1.647   2.219  -4.797  0.00  0.00     0.007 C 
ATOM      9  C   UNL d   1       0.956   2.214  -3.440  0.00  0.00     0.009 C 
ENDBRANCH   7   8
ENDBRANCH   1   7
TORSDOF 2
ENDMDL
