MODEL 1
REMARK minimizedAffinity -1.30097187
REMARK minimizedRMSD -1
REMARK  2 active torsions:
REMARK  status: ('A' for Active; 'I' for Inactive)
REMARK    1  A    between atoms: C1_2  and  C2_3 
REMARK    2  A    between atoms: C2_3  and  C3_4 
ROOT
ATOM      1  C3  UNL d   1       0.378   3.550  -5.983  0.00  0.00    -0.075 A 
ATOM      2  C4  UNL d   1      -0.001   4.900  -5.954  0.00  0.00     0.002 A 
ATOM      3  C5  UNL d   1      -1.350   5.255  -5.913  0.00  0.00     0.002 A 
ATOM      4  C6  UNL d   1      -2.334   4.269  -5.910  0.00  0.00    -0.004 A 
ATOM      5  C7  UNL d   1      -1.968   2.926  -5.954  0.00  0.00     0.002 A 
ATOM      6  C8  UNL d   1      -0.620   2.567  -5.992  0.00  0.00     0.002 A 
ENDROOT
BRANCH   1   7
ATOM      7  C2  UNL d   1       1.837   3.158  -5.998  0.00  0.00     0.056 C 
BRANCH   7   8
ATOM      8  C1  UNL d   1       2.802   4.347  -5.999  0.00  0.00     0.007 C 
ATOM      9  C   UNL d   1       4.267   3.931  -5.975  0.00  0.00     0.009 C 
ENDBRANCH   7   8
ENDBRANCH   1   7
TORSDOF 2
ENDMDL
