MODEL 1
REMARK minimizedAffinity -0.937702596
REMARK minimizedRMSD -1
REMARK  2 active torsions:
REMARK  status: ('A' for Active; 'I' for Inactive)
REMARK    1  A    between atoms: C1_2  and  C2_3 
REMARK    2  A    between atoms: C2_3  and  C3_4 
ROOT
ATOM      1  C3  UNL d   1       0.520   4.666  -6.000  0.00  0.00    -0.075 A 
ATOM      2  C4  UNL d   1      -0.347   5.769  -5.995  0.00  0.00     0.002 A 
ATOM      3  C5  UNL d   1      -1.729   5.583  -5.968  0.00  0.00     0.002 A 
ATOM      4  C6  UNL d   1      -2.262   4.296  -5.956  0.00  0.00    -0.004 A 
ATOM      5  C7  UNL d   1      -1.410   3.193  -5.977  0.00  0.00     0.002 A 
ATOM      6  C8  UNL d   1      -0.027   3.376  -5.999  0.00  0.00     0.002 A 
ENDROOT
BRANCH   1   7
ATOM      7  C2  UNL d   1       2.017   4.861  -5.999  0.00  0.00     0.056 C 
BRANCH   7   8
ATOM      8  C1  UNL d   1       2.816   3.555  -5.926  0.00  0.00     0.007 C 
ATOM      9  C   UNL d   1       4.322   3.768  -6.000  0.00  0.00     0.009 C 
ENDBRANCH   7   8
ENDBRANCH   1   7
TORSDOF 2
ENDMDL
