MODEL 1
REMARK minimizedAffinity 1.5337013
REMARK minimizedRMSD -1
REMARK  2 active torsions:
REMARK  status: ('A' for Active; 'I' for Inactive)
REMARK    1  A    between atoms: C1_2  and  C2_3 
REMARK    2  A    between atoms: C2_3  and  C3_4 
ROOT
ATOM      1  C3  UNL d   1      -1.729   3.940  -5.997  0.00  0.00    -0.075 A 
ATOM      2  C4  UNL d   1      -1.830   5.338  -5.999  0.00  0.00     0.002 A 
ATOM      3  C5  UNL d   1      -3.080   5.958  -5.981  0.00  0.00     0.002 A 
ATOM      4  C6  UNL d   1      -4.242   5.190  -5.972  0.00  0.00    -0.004 A 
ATOM      5  C7  UNL d   1      -4.153   3.799  -5.986  0.00  0.00     0.002 A 
ATOM      6  C8  UNL d   1      -2.904   3.176  -6.000  0.00  0.00     0.002 A 
ENDROOT
BRANCH   1   7
ATOM      7  C2  UNL d   1      -0.379   3.263  -5.987  0.00  0.00     0.056 C 
BRANCH   7   8
ATOM      8  C1  UNL d   1       0.706   4.047  -5.241  0.00  0.00     0.007 C 
ATOM      9  C   UNL d   1       2.025   4.115  -5.999  0.00  0.00     0.009 C 
ENDBRANCH   7   8
ENDBRANCH   1   7
TORSDOF 2
ENDMDL
