MODEL 1
REMARK minimizedAffinity -0.832428634
REMARK minimizedRMSD -1
REMARK  2 active torsions:
REMARK  status: ('A' for Active; 'I' for Inactive)
REMARK    1  A    between atoms: C1_2  and  C2_3 
REMARK    2  A    between atoms: C2_3  and  C3_4 
ROOT
ATOM      1  C3  UNL d   1      -0.396   4.025  -5.992  0.00  0.00    -0.075 A 
ATOM      2  C4  UNL d   1      -0.973   5.303  -6.000  0.00  0.00     0.002 A 
ATOM      3  C5  UNL d   1      -2.360   5.454  -5.992  0.00  0.00     0.002 A 
ATOM      4  C6  UNL d   1      -3.186   4.332  -5.987  0.00  0.00    -0.004 A 
ATOM      5  C7  UNL d   1      -2.623   3.057  -5.995  0.00  0.00     0.002 A 
ATOM      6  C8  UNL d   1      -1.236   2.903  -5.998  0.00  0.00     0.002 A 
ENDROOT
BRANCH   1   7
ATOM      7  C2  UNL d   1       1.105   3.855  -5.970  0.00  0.00     0.056 C 
BRANCH   7   8
ATOM      8  C1  UNL d   1       1.566   2.394  -5.938  0.00  0.00     0.007 C 
ATOM      9  C   UNL d   1       3.081   2.242  -5.992  0.00  0.00     0.009 C 
ENDBRANCH   7   8
ENDBRANCH   1   7
TORSDOF 2
ENDMDL
