MODEL 1
REMARK minimizedAffinity -3.35911512
REMARK minimizedRMSD -1
REMARK  2 active torsions:
REMARK  status: ('A' for Active; 'I' for Inactive)
REMARK    1  A    between atoms: C1_2  and  C2_3 
REMARK    2  A    between atoms: C2_3  and  C3_4 
ROOT
ATOM      1  C3  UNL d   1       2.052   4.810  -5.962  0.00  0.00    -0.075 A 
ATOM      2  C4  UNL d   1       0.833   5.502  -5.922  0.00  0.00     0.002 A 
ATOM      3  C5  UNL d   1      -0.376   4.805  -5.895  0.00  0.00     0.002 A 
ATOM      4  C6  UNL d   1      -0.382   3.413  -5.917  0.00  0.00    -0.004 A 
ATOM      5  C7  UNL d   1       0.823   2.715  -5.973  0.00  0.00     0.002 A 
ATOM      6  C8  UNL d   1       2.034   3.409  -5.996  0.00  0.00     0.002 A 
ENDROOT
BRANCH   1   7
ATOM      7  C2  UNL d   1       3.365   5.557  -5.962  0.00  0.00     0.056 C 
BRANCH   7   8
ATOM      8  C1  UNL d   1       4.599   4.649  -5.997  0.00  0.00     0.007 C 
ATOM      9  C   UNL d   1       5.905   5.403  -5.782  0.00  0.00     0.009 C 
ENDBRANCH   7   8
ENDBRANCH   1   7
TORSDOF 2
ENDMDL
