MODEL 1
REMARK minimizedAffinity -1.43669975
REMARK minimizedRMSD -1
REMARK  2 active torsions:
REMARK  status: ('A' for Active; 'I' for Inactive)
REMARK    1  A    between atoms: C1_2  and  C2_3 
REMARK    2  A    between atoms: C2_3  and  C3_4 
ROOT
ATOM      1  C3  UNL d   1       0.791   3.735  -5.973  0.00  0.00    -0.075 A 
ATOM      2  C4  UNL d   1       1.225   5.068  -5.985  0.00  0.00     0.002 A 
ATOM      3  C5  UNL d   1       2.587   5.370  -5.997  0.00  0.00     0.002 A 
ATOM      4  C6  UNL d   1       3.530   4.345  -5.986  0.00  0.00    -0.004 A 
ATOM      5  C7  UNL d   1       3.111   3.017  -5.958  0.00  0.00     0.002 A 
ATOM      6  C8  UNL d   1       1.748   2.712  -5.951  0.00  0.00     0.002 A 
ENDROOT
BRANCH   1   7
ATOM      7  C2  UNL d   1      -0.682   3.401  -5.990  0.00  0.00     0.056 C 
BRANCH   7   8
ATOM      8  C1  UNL d   1      -1.600   4.626  -5.923  0.00  0.00     0.007 C 
ATOM      9  C   UNL d   1      -3.080   4.270  -5.950  0.00  0.00     0.009 C 
ENDBRANCH   7   8
ENDBRANCH   1   7
TORSDOF 2
ENDMDL
