MODEL 1
REMARK minimizedAffinity -0.668306828
REMARK minimizedRMSD -1
REMARK  2 active torsions:
REMARK  status: ('A' for Active; 'I' for Inactive)
REMARK    1  A    between atoms: C1_2  and  C2_3 
REMARK    2  A    between atoms: C2_3  and  C3_4 
ROOT
ATOM      1  C3  UNL d   1      -2.252   4.829  -5.959  0.00  0.00    -0.075 A 
ATOM      2  C4  UNL d   1      -3.023   6.000  -5.945  0.00  0.00     0.002 A 
ATOM      3  C5  UNL d   1      -4.417   5.930  -5.945  0.00  0.00     0.002 A 
ATOM      4  C6  UNL d   1      -5.055   4.692  -5.969  0.00  0.00    -0.004 A 
ATOM      5  C7  UNL d   1      -4.298   3.523  -6.000  0.00  0.00     0.002 A 
ATOM      6  C8  UNL d   1      -2.904   3.589  -5.996  0.00  0.00     0.002 A 
ENDROOT
BRANCH   1   7
ATOM      7  C2  UNL d   1      -0.743   4.897  -5.930  0.00  0.00     0.056 C 
BRANCH   7   8
ATOM      8  C1  UNL d   1      -0.062   3.543  -5.706  0.00  0.00     0.007 C 
ATOM      9  C   UNL d   1       0.046   3.161  -4.236  0.00  0.00     0.009 C 
ENDBRANCH   7   8
ENDBRANCH   1   7
TORSDOF 2
ENDMDL
