MODEL 1
REMARK minimizedAffinity 6.0740056
REMARK minimizedRMSD -1
REMARK  2 active torsions:
REMARK  status: ('A' for Active; 'I' for Inactive)
REMARK    1  A    between atoms: C1_2  and  C2_3 
REMARK    2  A    between atoms: C2_3  and  C3_4 
ROOT
ATOM      1  C3  UNL d   1      -0.564   3.335  -5.939  0.00  0.00    -0.075 A 
ATOM      2  C4  UNL d   1      -0.381   4.725  -5.973  0.00  0.00     0.002 A 
ATOM      3  C5  UNL d   1      -1.479   5.585  -5.931  0.00  0.00     0.002 A 
ATOM      4  C6  UNL d   1      -2.771   5.067  -5.865  0.00  0.00    -0.004 A 
ATOM      5  C7  UNL d   1      -2.965   3.688  -5.848  0.00  0.00     0.002 A 
ATOM      6  C8  UNL d   1      -1.868   2.825  -5.885  0.00  0.00     0.002 A 
ENDROOT
BRANCH   1   7
ATOM      7  C2  UNL d   1       0.622   2.399  -5.955  0.00  0.00     0.056 C 
BRANCH   7   8
ATOM      8  C1  UNL d   1       1.978   3.111  -5.988  0.00  0.00     0.007 C 
ATOM      9  C   UNL d   1       3.037   2.426  -5.135  0.00  0.00     0.009 C 
ENDBRANCH   7   8
ENDBRANCH   1   7
TORSDOF 2
ENDMDL
