MODEL 1
REMARK minimizedAffinity 2.06685686
REMARK minimizedRMSD -1
REMARK  1 active torsions:
REMARK  status: ('A' for Active; 'I' for Inactive)
REMARK    1  A    between atoms: N_2  and  C1_3 
ROOT
ATOM      1  C1  UNL d   1       0.653   2.855   0.724  0.00  0.00     0.143 A 
ATOM      2  C2  UNL d   1       0.046   1.983  -0.185  0.00  0.00    -0.057 A 
ATOM      3  C3  UNL d   1      -0.283   2.397  -1.481  0.00  0.00     0.033 A 
ATOM      4  C4  UNL d   1      -0.036   3.706  -1.883  0.00  0.00    -0.042 A 
ATOM      5  C5  UNL d   1       0.545   4.598  -0.988  0.00  0.00     0.033 A 
ATOM      6  C6  UNL d   1       0.877   4.176   0.302  0.00  0.00    -0.057 A 
ENDROOT
BRANCH   1   7
ATOM      7  N   UNL d   1       0.915   2.531   2.057  0.00  0.00    -0.732 N 
ATOM      8  C   UNL d   1       2.136   2.972   2.697  0.00  0.00     0.284 C 
ATOM      9  H3  UNL d   1       0.087   2.607   2.645  0.00  0.00     0.395 HD
ENDBRANCH   1   7
TORSDOF 1
ENDMDL
