MODEL 1
REMARK minimizedAffinity -1.33898127
REMARK minimizedRMSD -1
REMARK  1 active torsions:
REMARK  status: ('A' for Active; 'I' for Inactive)
REMARK    1  A    between atoms: N_2  and  C1_3 
ROOT
ATOM      1  C1  UNL d   1       0.802   3.549  -0.494  0.00  0.00     0.143 A 
ATOM      2  C2  UNL d   1      -0.140   2.804  -1.212  0.00  0.00    -0.057 A 
ATOM      3  C3  UNL d   1      -0.826   1.737  -0.620  0.00  0.00     0.033 A 
ATOM      4  C4  UNL d   1      -0.560   1.376   0.696  0.00  0.00    -0.042 A 
ATOM      5  C5  UNL d   1       0.390   2.086   1.422  0.00  0.00     0.033 A 
ATOM      6  C6  UNL d   1       1.067   3.155   0.827  0.00  0.00    -0.057 A 
ENDROOT
BRANCH   1   7
ATOM      7  N   UNL d   1       1.588   4.558  -1.056  0.00  0.00    -0.732 N 
ATOM      8  C   UNL d   1       1.075   5.378  -2.132  0.00  0.00     0.284 C 
ATOM      9  H3  UNL d   1       2.117   5.073  -0.356  0.00  0.00     0.395 HD
ENDBRANCH   1   7
TORSDOF 1
ENDMDL
