MODEL 1
REMARK minimizedAffinity -0.132825777
REMARK minimizedRMSD -1
REMARK  0 active torsions:
REMARK  status: ('A' for Active; 'I' for Inactive)
ROOT
ATOM      1  C1  DEN d   1       0.188  -2.174  -1.037  0.00  0.00     0.130 A 
ATOM      2  C2  DEN d   1       1.528  -2.630  -0.681  0.00  0.00    -0.031 A 
ATOM      3  C3  DEN d   1       2.211  -1.530   0.029  0.00  0.00     0.027 A 
ATOM      4  C4  DEN d   1       1.326   0.822   0.611  0.00  0.00     0.027 A 
ATOM      5  C5  DEN d   1       0.249   1.674   0.504  0.00  0.00    -0.003 A 
ATOM      6  C6  DEN d   1      -0.902   1.318  -0.148  0.00  0.00     0.001 A 
ATOM      7  C7  DEN d   1      -1.020   0.061  -0.680  0.00  0.00     0.017 A 
ATOM      8  C8  DEN d   1       0.064  -0.801  -0.583  0.00  0.00    -0.094 A 
ATOM      9  C9  DEN d   1       1.215  -0.427   0.091  0.00  0.00    -0.072 A 
ENDROOT
TORSDOF 0
ENDMDL
