MODEL 1
REMARK minimizedAffinity -3.63220334
REMARK minimizedRMSD -1
REMARK  0 active torsions:
REMARK  status: ('A' for Active; 'I' for Inactive)
ROOT
ATOM      1  C1  DEN d   1       1.661   1.405   1.352  0.00  0.00     0.130 A 
ATOM      2  C2  DEN d   1       0.723   1.945   0.372  0.00  0.00    -0.031 A 
ATOM      3  C3  DEN d   1       0.359   0.858  -0.559  0.00  0.00     0.027 A 
ATOM      4  C4  DEN d   1       1.149  -1.597  -0.575  0.00  0.00     0.027 A 
ATOM      5  C5  DEN d   1       1.955  -2.521   0.053  0.00  0.00    -0.003 A 
ATOM      6  C6  DEN d   1       2.738  -2.195   1.129  0.00  0.00     0.001 A 
ATOM      7  C7  DEN d   1       2.699  -0.924   1.637  0.00  0.00     0.017 A 
ATOM      8  C8  DEN d   1       1.895   0.015   1.005  0.00  0.00    -0.094 A 
ATOM      9  C9  DEN d   1       1.101  -0.337  -0.074  0.00  0.00    -0.072 A 
ENDROOT
TORSDOF 0
ENDMDL
