MODEL 1
REMARK minimizedAffinity -3.4362824
REMARK minimizedRMSD -1
REMARK  0 active torsions:
REMARK  status: ('A' for Active; 'I' for Inactive)
ROOT
ATOM      1  C1  DEN d   1      -0.182   1.008   0.681  0.00  0.00     0.130 A 
ATOM      2  C2  DEN d   1      -1.477   0.789   0.043  0.00  0.00    -0.031 A 
ATOM      3  C3  DEN d   1      -1.425  -0.507  -0.663  0.00  0.00     0.027 A 
ATOM      4  C4  DEN d   1       0.524  -2.189  -0.825  0.00  0.00     0.027 A 
ATOM      5  C5  DEN d   1       1.828  -2.435  -0.457  0.00  0.00    -0.003 A 
ATOM      6  C6  DEN d   1       2.559  -1.542   0.282  0.00  0.00     0.001 A 
ATOM      7  C7  DEN d   1       1.976  -0.381   0.714  0.00  0.00     0.017 A 
ATOM      8  C8  DEN d   1       0.663  -0.123   0.341  0.00  0.00    -0.094 A 
ATOM      9  C9  DEN d   1      -0.063  -1.044  -0.395  0.00  0.00    -0.072 A 
ENDROOT
TORSDOF 0
ENDMDL
