MODEL 1
REMARK minimizedAffinity -4.42878532
REMARK minimizedRMSD -1
REMARK  1 active torsions:
REMARK  status: ('A' for Active; 'I' for Inactive)
REMARK    1  A    between atoms: N_2  and  C1_3 
ROOT
ATOM      1  C1  UNL d   1      -0.165  -0.107  -0.063  0.00  0.00     0.143 A 
ATOM      2  C2  UNL d   1      -1.510   0.275  -0.001  0.00  0.00    -0.057 A 
ATOM      3  C3  UNL d   1      -2.033   0.910   1.132  0.00  0.00     0.033 A 
ATOM      4  C4  UNL d   1      -1.225   1.150   2.238  0.00  0.00    -0.042 A 
ATOM      5  C5  UNL d   1       0.109   0.757   2.209  0.00  0.00     0.033 A 
ATOM      6  C6  UNL d   1       0.627   0.129   1.072  0.00  0.00    -0.057 A 
ENDROOT
BRANCH   1   7
ATOM      7  N   UNL d   1       0.390  -0.830  -1.121  0.00  0.00    -0.732 N 
ATOM      8  C   UNL d   1       0.767  -0.165  -2.350  0.00  0.00     0.284 C 
ATOM      9  H3  UNL d   1       1.058  -1.530  -0.805  0.00  0.00     0.395 HD
ENDBRANCH   1   7
TORSDOF 1
ENDMDL
