MODEL 1
REMARK minimizedAffinity -5.07125378
REMARK minimizedRMSD -1
REMARK  1 active torsions:
REMARK  status: ('A' for Active; 'I' for Inactive)
REMARK    1  A    between atoms: N_2  and  C1_3 
ROOT
ATOM      1  C1  UNL d   1      -0.259   0.649   0.313  0.00  0.00     0.143 A 
ATOM      2  C2  UNL d   1       0.611   0.466   1.394  0.00  0.00    -0.057 A 
ATOM      3  C3  UNL d   1       0.246   0.843   2.692  0.00  0.00     0.033 A 
ATOM      4  C4  UNL d   1      -0.989   1.438   2.928  0.00  0.00    -0.042 A 
ATOM      5  C5  UNL d   1      -1.859   1.653   1.865  0.00  0.00     0.033 A 
ATOM      6  C6  UNL d   1      -1.491   1.268   0.572  0.00  0.00    -0.057 A 
ENDROOT
BRANCH   1   7
ATOM      7  N   UNL d   1       0.085   0.386  -1.015  0.00  0.00    -0.732 N 
ATOM      8  C   UNL d   1       0.311   1.470  -1.947  0.00  0.00     0.284 C 
ATOM      9  H3  UNL d   1       0.749  -0.381  -1.100  0.00  0.00     0.395 HD
ENDBRANCH   1   7
TORSDOF 1
ENDMDL
