MODEL 1
REMARK minimizedAffinity -2.85722065
REMARK minimizedRMSD -1
REMARK  1 active torsions:
REMARK  status: ('A' for Active; 'I' for Inactive)
REMARK    1  A    between atoms: N_2  and  C1_3 
ROOT
ATOM      1  C1  UNL d   1      -0.035   0.031   0.038  0.00  0.00     0.143 A 
ATOM      2  C2  UNL d   1      -1.282   0.354   0.584  0.00  0.00    -0.057 A 
ATOM      3  C3  UNL d   1      -1.473   0.420   1.970  0.00  0.00     0.033 A 
ATOM      4  C4  UNL d   1      -0.423   0.136   2.837  0.00  0.00    -0.042 A 
ATOM      5  C5  UNL d   1       0.819  -0.211   2.317  0.00  0.00     0.033 A 
ATOM      6  C6  UNL d   1       1.005  -0.269   0.932  0.00  0.00    -0.057 A 
ENDROOT
BRANCH   1   7
ATOM      7  N   UNL d   1       0.193  -0.147  -1.328  0.00  0.00    -0.732 N 
ATOM      8  C   UNL d   1       1.366   0.419  -1.960  0.00  0.00     0.284 C 
ATOM      9  H3  UNL d   1      -0.033  -1.089  -1.640  0.00  0.00     0.395 HD
ENDBRANCH   1   7
TORSDOF 1
ENDMDL
