MODEL 1
REMARK minimizedAffinity -1.61762619
REMARK minimizedRMSD -1
REMARK  1 active torsions:
REMARK  status: ('A' for Active; 'I' for Inactive)
REMARK    1  A    between atoms: N_2  and  C1_3 
ROOT
ATOM      1  C1  UNL d   1       0.943   0.172  -2.021  0.00  0.00     0.143 A 
ATOM      2  C2  UNL d   1       0.494  -1.075  -1.573  0.00  0.00    -0.057 A 
ATOM      3  C3  UNL d   1      -0.299  -1.192  -0.425  0.00  0.00     0.033 A 
ATOM      4  C4  UNL d   1      -0.635  -0.063   0.313  0.00  0.00    -0.042 A 
ATOM      5  C5  UNL d   1      -0.180   1.185  -0.100  0.00  0.00     0.033 A 
ATOM      6  C6  UNL d   1       0.606   1.296  -1.250  0.00  0.00    -0.057 A 
ENDROOT
BRANCH   1   7
ATOM      7  N   UNL d   1       1.816   0.343  -3.098  0.00  0.00    -0.732 N 
ATOM      8  C   UNL d   1       1.315   0.372  -4.456  0.00  0.00     0.284 C 
ATOM      9  H3  UNL d   1       2.537   1.035  -2.907  0.00  0.00     0.395 HD
ENDBRANCH   1   7
TORSDOF 1
ENDMDL
