MODEL 1
REMARK minimizedAffinity -4.8835988
REMARK minimizedRMSD -1
REMARK  0 active torsions:
REMARK  status: ('A' for Active; 'I' for Inactive)
ROOT
ATOM      1  C1  DEN d   1      -2.167   0.457   2.339  0.00  0.00     0.130 A 
ATOM      2  C2  DEN d   1      -2.249   1.881   2.652  0.00  0.00    -0.031 A 
ATOM      3  C3  DEN d   1      -1.291   2.595   1.785  0.00  0.00     0.027 A 
ATOM      4  C4  DEN d   1       0.300   1.641  -0.007  0.00  0.00     0.027 A 
ATOM      5  C5  DEN d   1       0.735   0.488  -0.622  0.00  0.00    -0.003 A 
ATOM      6  C6  DEN d   1       0.261  -0.749  -0.273  0.00  0.00     0.001 A 
ATOM      7  C7  DEN d   1      -0.709  -0.859   0.688  0.00  0.00     0.017 A 
ATOM      8  C8  DEN d   1      -1.147   0.298   1.318  0.00  0.00    -0.094 A 
ATOM      9  C9  DEN d   1      -0.665   1.541   0.942  0.00  0.00    -0.072 A 
ENDROOT
TORSDOF 0
ENDMDL
