MODEL 1
REMARK minimizedAffinity -2.28591847
REMARK minimizedRMSD -1
REMARK  0 active torsions:
REMARK  status: ('A' for Active; 'I' for Inactive)
ROOT
ATOM      1  C1  DEN d   1      -2.263  -0.527   1.838  0.00  0.00     0.130 A 
ATOM      2  C2  DEN d   1      -2.790   0.055   3.069  0.00  0.00    -0.031 A 
ATOM      3  C3  DEN d   1      -2.207   1.402   3.224  0.00  0.00     0.027 A 
ATOM      4  C4  DEN d   1      -0.550   2.640   1.682  0.00  0.00     0.027 A 
ATOM      5  C5  DEN d   1       0.191   2.546   0.525  0.00  0.00    -0.003 A 
ATOM      6  C6  DEN d   1       0.192   1.418  -0.252  0.00  0.00     0.001 A 
ATOM      7  C7  DEN d   1      -0.598   0.354   0.096  0.00  0.00     0.017 A 
ATOM      8  C8  DEN d   1      -1.342   0.438   1.265  0.00  0.00    -0.094 A 
ATOM      9  C9  DEN d   1      -1.339   1.592   2.030  0.00  0.00    -0.072 A 
ENDROOT
TORSDOF 0
ENDMDL
