MODEL 1
REMARK minimizedAffinity -1.12512755
REMARK minimizedRMSD -1
REMARK  0 active torsions:
REMARK  status: ('A' for Active; 'I' for Inactive)
ROOT
ATOM      1  C1  DEN d   1      -0.892   0.211   0.227  0.00  0.00     0.130 A 
ATOM      2  C2  DEN d   1      -0.720   1.422  -0.571  0.00  0.00    -0.031 A 
ATOM      3  C3  DEN d   1       0.391   1.191  -1.516  0.00  0.00     0.027 A 
ATOM      4  C4  DEN d   1       1.851  -0.913  -1.821  0.00  0.00     0.027 A 
ATOM      5  C5  DEN d   1       2.089  -2.191  -1.364  0.00  0.00    -0.003 A 
ATOM      6  C6  DEN d   1       1.378  -2.740  -0.331  0.00  0.00     0.001 A 
ATOM      7  C7  DEN d   1       0.364  -2.026   0.251  0.00  0.00     0.017 A 
ATOM      8  C8  DEN d   1       0.123  -0.735  -0.199  0.00  0.00    -0.094 A 
ATOM      9  C9  DEN d   1       0.845  -0.202  -1.254  0.00  0.00    -0.072 A 
ENDROOT
TORSDOF 0
ENDMDL
