MODEL 1
REMARK minimizedAffinity -4.00331163
REMARK minimizedRMSD -1
REMARK  0 active torsions:
REMARK  status: ('A' for Active; 'I' for Inactive)
ROOT
ATOM      1  C1  DEN d   1      -1.013  -0.188  -0.053  0.00  0.00     0.130 A 
ATOM      2  C2  DEN d   1       0.021   0.582  -0.737  0.00  0.00    -0.031 A 
ATOM      3  C3  DEN d   1       0.428   1.690   0.150  0.00  0.00     0.027 A 
ATOM      4  C4  DEN d   1      -0.436   2.282   2.507  0.00  0.00     0.027 A 
ATOM      5  C5  DEN d   1      -1.321   1.927   3.500  0.00  0.00    -0.003 A 
ATOM      6  C6  DEN d   1      -2.182   0.870   3.366  0.00  0.00     0.001 A 
ATOM      7  C7  DEN d   1      -2.146   0.104   2.231  0.00  0.00     0.017 A 
ATOM      8  C8  DEN d   1      -1.261   0.461   1.222  0.00  0.00    -0.094 A 
ATOM      9  C9  DEN d   1      -0.390   1.525   1.381  0.00  0.00    -0.072 A 
ENDROOT
TORSDOF 0
ENDMDL
