MODEL 1
REMARK minimizedAffinity -4.48622179
REMARK minimizedRMSD -1
REMARK  0 active torsions:
REMARK  status: ('A' for Active; 'I' for Inactive)
ROOT
ATOM      1  C1  DEN d   1      -0.611   1.328  -0.796  0.00  0.00     0.130 A 
ATOM      2  C2  DEN d   1      -1.292   1.134   0.481  0.00  0.00    -0.031 A 
ATOM      3  C3  DEN d   1      -0.802  -0.127   1.073  0.00  0.00     0.027 A 
ATOM      4  C4  DEN d   1       0.939  -1.787   0.144  0.00  0.00     0.027 A 
ATOM      5  C5  DEN d   1       1.782  -2.055  -0.912  0.00  0.00    -0.003 A 
ATOM      6  C6  DEN d   1       1.861  -1.240  -2.010  0.00  0.00     0.001 A 
ATOM      7  C7  DEN d   1       1.116  -0.091  -2.056  0.00  0.00     0.017 A 
ATOM      8  C8  DEN d   1       0.258   0.183  -0.999  0.00  0.00    -0.094 A 
ATOM      9  C9  DEN d   1       0.202  -0.648   0.107  0.00  0.00    -0.072 A 
ENDROOT
TORSDOF 0
ENDMDL
