MODEL 1
REMARK minimizedAffinity -6.0141902
REMARK minimizedRMSD -1
REMARK  0 active torsions:
REMARK  status: ('A' for Active; 'I' for Inactive)
ROOT
ATOM      1  C1  DEN d   1      -0.979   1.175   0.065  0.00  0.00     0.130 A 
ATOM      2  C2  DEN d   1      -0.506   2.307  -0.727  0.00  0.00    -0.031 A 
ATOM      3  C3  DEN d   1       0.619   1.841  -1.562  0.00  0.00     0.027 A 
ATOM      4  C4  DEN d   1       1.665  -0.512  -1.709  0.00  0.00     0.027 A 
ATOM      5  C5  DEN d   1       1.610  -1.798  -1.218  0.00  0.00    -0.003 A 
ATOM      6  C6  DEN d   1       0.717  -2.172  -0.249  0.00  0.00     0.001 A 
ATOM      7  C7  DEN d   1      -0.188  -1.260   0.229  0.00  0.00     0.017 A 
ATOM      8  C8  DEN d   1      -0.132   0.040  -0.256  0.00  0.00    -0.094 A 
ATOM      9  C9  DEN d   1       0.770   0.395  -1.244  0.00  0.00    -0.072 A 
ENDROOT
TORSDOF 0
ENDMDL
