MODEL 1
REMARK minimizedAffinity -3.0445466
REMARK minimizedRMSD -1
REMARK  0 active torsions:
REMARK  status: ('A' for Active; 'I' for Inactive)
ROOT
ATOM      1  C1  DEN d   1       5.150  -0.406   4.753  0.00  0.00     0.130 A 
ATOM      2  C2  DEN d   1       5.817  -0.031   5.997  0.00  0.00    -0.031 A 
ATOM      3  C3  DEN d   1       5.998   1.435   5.993  0.00  0.00     0.027 A 
ATOM      4  C4  DEN d   1       5.310   3.151   4.195  0.00  0.00     0.027 A 
ATOM      5  C5  DEN d   1       4.725   3.307   2.958  0.00  0.00    -0.003 A 
ATOM      6  C6  DEN d   1       4.275   2.242   2.224  0.00  0.00     0.001 A 
ATOM      7  C7  DEN d   1       4.361   0.976   2.740  0.00  0.00     0.017 A 
ATOM      8  C8  DEN d   1       4.957   0.810   3.983  0.00  0.00    -0.094 A 
ATOM      9  C9  DEN d   1       5.395   1.901   4.716  0.00  0.00    -0.072 A 
ENDROOT
TORSDOF 0
ENDMDL
