MODEL 1
REMARK minimizedAffinity -3.89394999
REMARK minimizedRMSD -1
REMARK  0 active torsions:
REMARK  status: ('A' for Active; 'I' for Inactive)
ROOT
ATOM      1  C1  DEN d   1      -0.489  -0.679   0.039  0.00  0.00     0.130 A 
ATOM      2  C2  DEN d   1       0.247   0.133  -0.927  0.00  0.00    -0.031 A 
ATOM      3  C3  DEN d   1       0.086   1.551  -0.547  0.00  0.00     0.027 A 
ATOM      4  C4  DEN d   1      -1.219   2.561   1.435  0.00  0.00     0.027 A 
ATOM      5  C5  DEN d   1      -2.014   2.269   2.522  0.00  0.00    -0.003 A 
ATOM      6  C6  DEN d   1      -2.381   0.987   2.834  0.00  0.00     0.001 A 
ATOM      7  C7  DEN d   1      -1.915  -0.056   2.078  0.00  0.00     0.017 A 
ATOM      8  C8  DEN d   1      -1.120   0.232   0.976  0.00  0.00    -0.094 A 
ATOM      9  C9  DEN d   1      -0.750   1.533   0.684  0.00  0.00    -0.072 A 
ENDROOT
TORSDOF 0
ENDMDL
