MODEL 1
REMARK minimizedAffinity -0.985803187
REMARK minimizedRMSD -1
REMARK  0 active torsions:
REMARK  status: ('A' for Active; 'I' for Inactive)
ROOT
ATOM      1  C1  DEN d   1       1.102  -1.403  -0.491  0.00  0.00     0.130 A 
ATOM      2  C2  DEN d   1      -0.356  -1.389  -0.572  0.00  0.00    -0.031 A 
ATOM      3  C3  DEN d   1      -0.814  -0.008  -0.320  0.00  0.00     0.027 A 
ATOM      4  C4  DEN d   1       0.586   2.100   0.181  0.00  0.00     0.027 A 
ATOM      5  C5  DEN d   1       1.864   2.582   0.362  0.00  0.00    -0.003 A 
ATOM      6  C6  DEN d   1       2.965   1.769   0.306  0.00  0.00     0.001 A 
ATOM      7  C7  DEN d   1       2.814   0.439   0.018  0.00  0.00     0.017 A 
ATOM      8  C8  DEN d   1       1.528  -0.056  -0.159  0.00  0.00    -0.094 A 
ATOM      9  C9  DEN d   1       0.428   0.784  -0.111  0.00  0.00    -0.072 A 
ENDROOT
TORSDOF 0
ENDMDL
