MODEL 1
REMARK minimizedAffinity -4.65343428
REMARK minimizedRMSD -1
REMARK  0 active torsions:
REMARK  status: ('A' for Active; 'I' for Inactive)
ROOT
ATOM      1  C1  DEN d   1       1.694  -1.444  -1.371  0.00  0.00     0.130 A 
ATOM      2  C2  DEN d   1       3.061  -0.960  -1.199  0.00  0.00    -0.031 A 
ATOM      3  C3  DEN d   1       2.998   0.363  -0.546  0.00  0.00     0.027 A 
ATOM      4  C4  DEN d   1       0.927   1.699   0.215  0.00  0.00     0.027 A 
ATOM      5  C5  DEN d   1      -0.449   1.702   0.271  0.00  0.00    -0.003 A 
ATOM      6  C6  DEN d   1      -1.202   0.680  -0.243  0.00  0.00     0.001 A 
ATOM      7  C7  DEN d   1      -0.582  -0.409  -0.796  0.00  0.00     0.017 A 
ATOM      8  C8  DEN d   1       0.805  -0.416  -0.862  0.00  0.00    -0.094 A 
ATOM      9  C9  DEN d   1       1.549   0.621  -0.325  0.00  0.00    -0.072 A 
ENDROOT
TORSDOF 0
ENDMDL
