MODEL 1
REMARK minimizedAffinity -3.40282679
REMARK minimizedRMSD -1
REMARK  0 active torsions:
REMARK  status: ('A' for Active; 'I' for Inactive)
ROOT
ATOM      1  C1  DEN d   1       1.171  -1.030   1.286  0.00  0.00     0.130 A 
ATOM      2  C2  DEN d   1       1.505  -1.590  -0.021  0.00  0.00    -0.031 A 
ATOM      3  C3  DEN d   1       0.646  -0.938  -1.029  0.00  0.00     0.027 A 
ATOM      4  C4  DEN d   1      -1.155   0.878  -0.697  0.00  0.00     0.027 A 
ATOM      5  C5  DEN d   1      -1.803   1.659   0.234  0.00  0.00    -0.003 A 
ATOM      6  C6  DEN d   1      -1.531   1.575   1.574  0.00  0.00     0.001 A 
ATOM      7  C7  DEN d   1      -0.555   0.723   2.016  0.00  0.00     0.017 A 
ATOM      8  C8  DEN d   1       0.098  -0.074   1.084  0.00  0.00    -0.094 A 
ATOM      9  C9  DEN d   1      -0.183   0.035  -0.267  0.00  0.00    -0.072 A 
ENDROOT
TORSDOF 0
ENDMDL
