MODEL 1
REMARK minimizedAffinity -2.03700709
REMARK minimizedRMSD -1
REMARK  0 active torsions:
REMARK  status: ('A' for Active; 'I' for Inactive)
ROOT
ATOM      1  C1  DEN d   1       0.476   1.260  -1.099  0.00  0.00     0.130 A 
ATOM      2  C2  DEN d   1      -0.590   1.739  -0.224  0.00  0.00    -0.031 A 
ATOM      3  C3  DEN d   1      -1.127   0.580   0.519  0.00  0.00     0.027 A 
ATOM      4  C4  DEN d   1      -0.411  -1.895   0.401  0.00  0.00     0.027 A 
ATOM      5  C5  DEN d   1       0.443  -2.788  -0.206  0.00  0.00    -0.003 A 
ATOM      6  C6  DEN d   1       1.337  -2.405  -1.170  0.00  0.00     0.001 A 
ATOM      7  C7  DEN d   1       1.429  -1.084  -1.524  0.00  0.00     0.017 A 
ATOM      8  C8  DEN d   1       0.566  -0.178  -0.921  0.00  0.00    -0.094 A 
ATOM      9  C9  DEN d   1      -0.322  -0.584   0.060  0.00  0.00    -0.072 A 
ENDROOT
TORSDOF 0
ENDMDL
