MODEL 1
REMARK minimizedAffinity -5.21134758
REMARK minimizedRMSD -1
REMARK  0 active torsions:
REMARK  status: ('A' for Active; 'I' for Inactive)
ROOT
ATOM      1  C1  DEN d   1       0.522   1.661   0.741  0.00  0.00     0.130 A 
ATOM      2  C2  DEN d   1      -0.850   1.376   1.152  0.00  0.00    -0.031 A 
ATOM      3  C3  DEN d   1      -1.143  -0.033   0.819  0.00  0.00     0.027 A 
ATOM      4  C4  DEN d   1       0.389  -1.791  -0.284  0.00  0.00     0.027 A 
ATOM      5  C5  DEN d   1       1.638  -2.013  -0.821  0.00  0.00    -0.003 A 
ATOM      6  C6  DEN d   1       2.583  -1.025  -0.905  0.00  0.00     0.001 A 
ATOM      7  C7  DEN d   1       2.309   0.220  -0.404  0.00  0.00     0.017 A 
ATOM      8  C8  DEN d   1       1.050   0.454   0.133  0.00  0.00    -0.094 A 
ATOM      9  C9  DEN d   1       0.112  -0.561   0.220  0.00  0.00    -0.072 A 
ENDROOT
TORSDOF 0
ENDMDL
