MODEL 1
REMARK minimizedAffinity 0.772577703
REMARK minimizedRMSD -1
REMARK  0 active torsions:
REMARK  status: ('A' for Active; 'I' for Inactive)
ROOT
ATOM      1  C1  DEN d   1      -0.884  -0.551  -1.519  0.00  0.00     0.130 A 
ATOM      2  C2  DEN d   1       0.045   0.119  -0.613  0.00  0.00    -0.031 A 
ATOM      3  C3  DEN d   1       0.952  -0.902  -0.052  0.00  0.00     0.027 A 
ATOM      4  C4  DEN d   1       1.013  -3.441  -0.500  0.00  0.00     0.027 A 
ATOM      5  C5  DEN d   1       0.414  -4.474  -1.186  0.00  0.00    -0.003 A 
ATOM      6  C6  DEN d   1      -0.671  -4.279  -1.999  0.00  0.00     0.001 A 
ATOM      7  C7  DEN d   1      -1.164  -3.014  -2.181  0.00  0.00     0.017 A 
ATOM      8  C8  DEN d   1      -0.571  -1.968  -1.486  0.00  0.00    -0.094 A 
ATOM      9  C9  DEN d   1       0.533  -2.184  -0.679  0.00  0.00    -0.072 A 
ENDROOT
TORSDOF 0
ENDMDL
