MODEL 1
REMARK minimizedAffinity -3.25363851
REMARK minimizedRMSD -1
REMARK  0 active torsions:
REMARK  status: ('A' for Active; 'I' for Inactive)
ROOT
ATOM      1  C1  DEN d   1       0.846  -0.675   1.960  0.00  0.00     0.130 A 
ATOM      2  C2  DEN d   1       0.312   0.461   2.707  0.00  0.00    -0.031 A 
ATOM      3  C3  DEN d   1      -0.205   1.444   1.734  0.00  0.00     0.027 A 
ATOM      4  C4  DEN d   1      -0.236   1.317  -0.842  0.00  0.00     0.027 A 
ATOM      5  C5  DEN d   1       0.116   0.553  -1.932  0.00  0.00    -0.003 A 
ATOM      6  C6  DEN d   1       0.761  -0.649  -1.804  0.00  0.00     0.001 A 
ATOM      7  C7  DEN d   1       1.034  -1.143  -0.556  0.00  0.00     0.017 A 
ATOM      8  C8  DEN d   1       0.689  -0.374   0.548  0.00  0.00    -0.094 A 
ATOM      9  C9  DEN d   1       0.027   0.832   0.398  0.00  0.00    -0.072 A 
ENDROOT
TORSDOF 0
ENDMDL
