MODEL 1
REMARK minimizedAffinity -3.31597161
REMARK minimizedRMSD -1
REMARK  0 active torsions:
REMARK  status: ('A' for Active; 'I' for Inactive)
ROOT
ATOM      1  C1  DEN d   1      -0.230   3.766   0.155  0.00  0.00     0.130 A 
ATOM      2  C2  DEN d   1      -0.418   3.747  -1.293  0.00  0.00    -0.031 A 
ATOM      3  C3  DEN d   1      -0.427   2.337  -1.734  0.00  0.00     0.027 A 
ATOM      4  C4  DEN d   1      -0.174   0.194  -0.321  0.00  0.00     0.027 A 
ATOM      5  C5  DEN d   1       0.019  -0.295   0.952  0.00  0.00    -0.003 A 
ATOM      6  C6  DEN d   1       0.176   0.530   2.035  0.00  0.00     0.001 A 
ATOM      7  C7  DEN d   1       0.097   1.887   1.871  0.00  0.00     0.017 A 
ATOM      8  C8  DEN d   1      -0.091   2.388   0.590  0.00  0.00    -0.094 A 
ATOM      9  C9  DEN d   1      -0.259   1.538  -0.490  0.00  0.00    -0.072 A 
ENDROOT
TORSDOF 0
ENDMDL
