MODEL 1
REMARK minimizedAffinity -4.14003134
REMARK minimizedRMSD -1
REMARK  0 active torsions:
REMARK  status: ('A' for Active; 'I' for Inactive)
ROOT
ATOM      1  C1  DEN d   1      -1.541   2.058   0.748  0.00  0.00     0.130 A 
ATOM      2  C2  DEN d   1      -0.888   2.558   1.954  0.00  0.00    -0.031 A 
ATOM      3  C3  DEN d   1       0.304   1.725   2.207  0.00  0.00     0.027 A 
ATOM      4  C4  DEN d   1       1.200  -0.279   0.851  0.00  0.00     0.027 A 
ATOM      5  C5  DEN d   1       0.977  -1.081  -0.245  0.00  0.00    -0.003 A 
ATOM      6  C6  DEN d   1      -0.110  -0.917  -1.062  0.00  0.00     0.001 A 
ATOM      7  C7  DEN d   1      -0.992   0.103  -0.820  0.00  0.00     0.017 A 
ATOM      8  C8  DEN d   1      -0.778   0.911   0.288  0.00  0.00    -0.094 A 
ATOM      9  C9  DEN d   1       0.333   0.737   1.095  0.00  0.00    -0.072 A 
ENDROOT
TORSDOF 0
ENDMDL
