MODEL 1
REMARK minimizedAffinity -5.31144571
REMARK minimizedRMSD -1
REMARK  0 active torsions:
REMARK  status: ('A' for Active; 'I' for Inactive)
ROOT
ATOM      1  C1  DEN d   1       0.941  -0.100   1.456  0.00  0.00     0.130 A 
ATOM      2  C2  DEN d   1       1.266  -0.740   0.184  0.00  0.00    -0.031 A 
ATOM      3  C3  DEN d   1       0.564  -0.008  -0.889  0.00  0.00     0.027 A 
ATOM      4  C4  DEN d   1      -0.984   2.047  -0.705  0.00  0.00     0.027 A 
ATOM      5  C5  DEN d   1      -1.568   2.938   0.168  0.00  0.00    -0.003 A 
ATOM      6  C6  DEN d   1      -1.385   2.859   1.523  0.00  0.00     0.001 A 
ATOM      7  C7  DEN d   1      -0.562   1.894   2.042  0.00  0.00     0.017 A 
ATOM      8  C8  DEN d   1       0.024   0.988   1.168  0.00  0.00    -0.094 A 
ATOM      9  C9  DEN d   1      -0.163   1.092  -0.200  0.00  0.00    -0.072 A 
ENDROOT
TORSDOF 0
ENDMDL
