MODEL 1
REMARK minimizedAffinity -4.58025074
REMARK minimizedRMSD -1
REMARK  0 active torsions:
REMARK  status: ('A' for Active; 'I' for Inactive)
ROOT
ATOM      1  C1  DEN d   1       0.258  -0.037   1.199  0.00  0.00     0.130 A 
ATOM      2  C2  DEN d   1       0.506  -0.666  -0.095  0.00  0.00    -0.031 A 
ATOM      3  C3  DEN d   1       0.099   0.284  -1.150  0.00  0.00     0.027 A 
ATOM      4  C4  DEN d   1      -0.880   2.658  -0.906  0.00  0.00     0.027 A 
ATOM      5  C5  DEN d   1      -1.282   3.619  -0.005  0.00  0.00    -0.003 A 
ATOM      6  C6  DEN d   1      -1.231   3.418   1.349  0.00  0.00     0.001 A 
ATOM      7  C7  DEN d   1      -0.725   2.244   1.842  0.00  0.00     0.017 A 
ATOM      8  C8  DEN d   1      -0.325   1.267   0.940  0.00  0.00    -0.094 A 
ATOM      9  C9  DEN d   1      -0.373   1.494  -0.425  0.00  0.00    -0.072 A 
ENDROOT
TORSDOF 0
ENDMDL
