MODEL 1
REMARK minimizedAffinity -6.65788651
REMARK minimizedRMSD -1
REMARK  0 active torsions:
REMARK  status: ('A' for Active; 'I' for Inactive)
ROOT
ATOM      1  C1  DEN d   1       0.873  -0.127   0.936  0.00  0.00     0.130 A 
ATOM      2  C2  DEN d   1       0.984  -0.599  -0.442  0.00  0.00    -0.031 A 
ATOM      3  C3  DEN d   1       0.216   0.322  -1.303  0.00  0.00     0.027 A 
ATOM      4  C4  DEN d   1      -1.122   2.426  -0.643  0.00  0.00     0.027 A 
ATOM      5  C5  DEN d   1      -1.518   3.220   0.411  0.00  0.00    -0.003 A 
ATOM      6  C6  DEN d   1      -1.175   2.937   1.707  0.00  0.00     0.001 A 
ATOM      7  C7  DEN d   1      -0.377   1.857   1.978  0.00  0.00     0.017 A 
ATOM      8  C8  DEN d   1       0.020   1.048   0.921  0.00  0.00    -0.094 A 
ATOM      9  C9  DEN d   1      -0.326   1.358  -0.383  0.00  0.00    -0.072 A 
ENDROOT
TORSDOF 0
ENDMDL
