MODEL 1
REMARK minimizedAffinity -5.23626328
REMARK minimizedRMSD -1
REMARK  0 active torsions:
REMARK  status: ('A' for Active; 'I' for Inactive)
ROOT
ATOM      1  C1  DEN d   1       0.375  -0.207  -0.894  0.00  0.00     0.130 A 
ATOM      2  C2  DEN d   1       0.495  -0.956   0.354  0.00  0.00    -0.031 A 
ATOM      3  C3  DEN d   1       0.180  -0.039   1.468  0.00  0.00     0.027 A 
ATOM      4  C4  DEN d   1      -0.482   2.452   1.382  0.00  0.00     0.027 A 
ATOM      5  C5  DEN d   1      -0.704   3.526   0.550  0.00  0.00    -0.003 A 
ATOM      6  C6  DEN d   1      -0.550   3.441  -0.809  0.00  0.00     0.001 A 
ATOM      7  C7  DEN d   1      -0.207   2.244  -1.379  0.00  0.00     0.017 A 
ATOM      8  C8  DEN d   1       0.026   1.158  -0.546  0.00  0.00    -0.094 A 
ATOM      9  C9  DEN d   1      -0.147   1.261   0.824  0.00  0.00    -0.072 A 
ENDROOT
TORSDOF 0
ENDMDL
