MODEL 1
REMARK minimizedAffinity -1.06437504
REMARK minimizedRMSD -1
REMARK  0 active torsions:
REMARK  status: ('A' for Active; 'I' for Inactive)
ROOT
ATOM      1  C   UNL d   1       0.916  -0.276  -1.092  0.00  0.00     0.020 A 
ATOM      2  C1  UNL d   1       2.137   0.314  -1.416  0.00  0.00     0.020 A 
ATOM      3  C2  UNL d   1       2.496   0.486  -2.755  0.00  0.00     0.034 A 
ATOM      4  C3  UNL d   1       1.633   0.067  -3.774  0.00  0.00     0.017 A 
ATOM      5  C4  UNL d   1       0.408  -0.525  -3.447  0.00  0.00     0.017 A 
ATOM      6  C5  UNL d   1       0.053  -0.694  -2.105  0.00  0.00     0.034 A 
ATOM      7 Cl   UNL d   1      -0.710  -1.067  -4.650  0.00  0.00    -0.070 Cl
ATOM      8 Cl1  UNL d   1       2.141   0.310  -5.407  0.00  0.00    -0.070 Cl
ENDROOT
TORSDOF 0
ENDMDL
