MODEL 1
REMARK minimizedAffinity 1.9156574
REMARK minimizedRMSD -1
REMARK  0 active torsions:
REMARK  status: ('A' for Active; 'I' for Inactive)
ROOT
ATOM      1  C   UNL d   1       1.104  -0.636  -1.315  0.00  0.00     0.020 A 
ATOM      2  C1  UNL d   1      -0.177  -0.103  -1.173  0.00  0.00     0.020 A 
ATOM      3  C2  UNL d   1      -0.641   0.271   0.089  0.00  0.00     0.034 A 
ATOM      4  C3  UNL d   1       0.175   0.113   1.215  0.00  0.00     0.017 A 
ATOM      5  C4  UNL d   1       1.461  -0.422   1.072  0.00  0.00     0.017 A 
ATOM      6  C5  UNL d   1       1.921  -0.795  -0.195  0.00  0.00     0.034 A 
ATOM      7 Cl   UNL d   1       2.526  -0.648   2.414  0.00  0.00    -0.070 Cl
ATOM      8 Cl1  UNL d   1      -0.464   0.597   2.746  0.00  0.00    -0.070 Cl
ENDROOT
TORSDOF 0
ENDMDL
