MODEL 1
REMARK minimizedAffinity -2.22561336
REMARK minimizedRMSD -1
REMARK  0 active torsions:
REMARK  status: ('A' for Active; 'I' for Inactive)
ROOT
ATOM      1  C   UNL d   1      -1.341  -0.071  -0.460  0.00  0.00     0.020 A 
ATOM      2  C1  UNL d   1      -0.055  -0.425  -0.865  0.00  0.00     0.020 A 
ATOM      3  C2  UNL d   1       1.032  -0.189  -0.021  0.00  0.00     0.034 A 
ATOM      4  C3  UNL d   1       0.835   0.403   1.232  0.00  0.00     0.017 A 
ATOM      5  C4  UNL d   1      -0.457   0.758   1.637  0.00  0.00     0.017 A 
ATOM      6  C5  UNL d   1      -1.542   0.519   0.788  0.00  0.00     0.034 A 
ATOM      7 Cl   UNL d   1      -0.779   1.492   3.169  0.00  0.00    -0.070 Cl
ATOM      8 Cl1  UNL d   1       2.225   0.665   2.225  0.00  0.00    -0.070 Cl
ENDROOT
TORSDOF 0
ENDMDL
