MODEL 1
REMARK minimizedAffinity -4.12965679
REMARK minimizedRMSD -1
REMARK  0 active torsions:
REMARK  status: ('A' for Active; 'I' for Inactive)
ROOT
ATOM      1  C   UNL d   1       0.673   0.715   2.565  0.00  0.00     0.020 A 
ATOM      2  C1  UNL d   1      -0.617   1.020   2.998  0.00  0.00     0.020 A 
ATOM      3  C2  UNL d   1      -1.689   0.946   2.106  0.00  0.00     0.034 A 
ATOM      4  C3  UNL d   1      -1.473   0.567   0.777  0.00  0.00     0.017 A 
ATOM      5  C4  UNL d   1      -0.178   0.260   0.343  0.00  0.00     0.017 A 
ATOM      6  C5  UNL d   1       0.891   0.336   1.240  0.00  0.00     0.034 A 
ATOM      7 Cl   UNL d   1       0.166  -0.216  -1.283  0.00  0.00    -0.070 Cl
ATOM      8 Cl1  UNL d   1      -2.845   0.496  -0.271  0.00  0.00    -0.070 Cl
ENDROOT
TORSDOF 0
ENDMDL
