MODEL 1
REMARK minimizedAffinity -4.38235521
REMARK minimizedRMSD -1
REMARK  0 active torsions:
REMARK  status: ('A' for Active; 'I' for Inactive)
ROOT
ATOM      1  C   UNL d   1      -1.613   1.115   2.801  0.00  0.00     0.020 A 
ATOM      2  C1  UNL d   1      -0.308   1.556   2.588  0.00  0.00     0.020 A 
ATOM      3  C2  UNL d   1       0.368   1.199   1.419  0.00  0.00     0.034 A 
ATOM      4  C3  UNL d   1      -0.262   0.399   0.459  0.00  0.00     0.017 A 
ATOM      5  C4  UNL d   1      -1.572  -0.043   0.673  0.00  0.00     0.017 A 
ATOM      6  C5  UNL d   1      -2.244   0.317   1.846  0.00  0.00     0.034 A 
ATOM      7 Cl   UNL d   1      -2.415  -1.033  -0.466  0.00  0.00    -0.070 Cl
ATOM      8 Cl1  UNL d   1       0.634  -0.004  -0.963  0.00  0.00    -0.070 Cl
ENDROOT
TORSDOF 0
ENDMDL
