MODEL 1
REMARK minimizedAffinity -4.12439919
REMARK minimizedRMSD -1
REMARK  0 active torsions:
REMARK  status: ('A' for Active; 'I' for Inactive)
ROOT
ATOM      1  C   UNL d   1      -1.155   0.929   2.786  0.00  0.00     0.020 A 
ATOM      2  C1  UNL d   1       0.205   0.898   2.480  0.00  0.00     0.020 A 
ATOM      3  C2  UNL d   1       0.633   0.383   1.255  0.00  0.00     0.034 A 
ATOM      4  C3  UNL d   1      -0.299  -0.104   0.331  0.00  0.00     0.017 A 
ATOM      5  C4  UNL d   1      -1.664  -0.073   0.639  0.00  0.00     0.017 A 
ATOM      6  C5  UNL d   1      -2.087   0.444   1.868  0.00  0.00     0.034 A 
ATOM      7 Cl   UNL d   1      -2.873  -0.655  -0.449  0.00  0.00    -0.070 Cl
ATOM      8 Cl1  UNL d   1       0.302  -0.726  -1.165  0.00  0.00    -0.070 Cl
ENDROOT
TORSDOF 0
ENDMDL
