MODEL 1
REMARK minimizedAffinity -3.17223525
REMARK minimizedRMSD -1
REMARK  0 active torsions:
REMARK  status: ('A' for Active; 'I' for Inactive)
ROOT
ATOM      1  C   UNL d   1      -2.235   0.426   0.736  0.00  0.00     0.020 A 
ATOM      2  C1  UNL d   1      -1.687   0.824   1.954  0.00  0.00     0.020 A 
ATOM      3  C2  UNL d   1      -0.312   0.713   2.171  0.00  0.00     0.034 A 
ATOM      4  C3  UNL d   1       0.520   0.203   1.168  0.00  0.00     0.017 A 
ATOM      5  C4  UNL d   1      -0.031  -0.196  -0.055  0.00  0.00     0.017 A 
ATOM      6  C5  UNL d   1      -1.409  -0.083  -0.267  0.00  0.00     0.034 A 
ATOM      7 Cl   UNL d   1       0.932  -0.835  -1.341  0.00  0.00    -0.070 Cl
ATOM      8 Cl1  UNL d   1       2.211   0.094   1.505  0.00  0.00    -0.070 Cl
ENDROOT
TORSDOF 0
ENDMDL
