MODEL 1
REMARK minimizedAffinity -3.34691811
REMARK minimizedRMSD -1
REMARK  0 active torsions:
REMARK  status: ('A' for Active; 'I' for Inactive)
ROOT
ATOM      1  C   UNL d   1       0.544   1.617   1.092  0.00  0.00     0.020 A 
ATOM      2  C1  UNL d   1      -0.070   2.135   2.231  0.00  0.00     0.020 A 
ATOM      3  C2  UNL d   1      -1.157   1.470   2.802  0.00  0.00     0.034 A 
ATOM      4  C3  UNL d   1      -1.634   0.284   2.233  0.00  0.00     0.017 A 
ATOM      5  C4  UNL d   1      -1.018  -0.235   1.089  0.00  0.00     0.017 A 
ATOM      6  C5  UNL d   1       0.071   0.434   0.522  0.00  0.00     0.034 A 
ATOM      7 Cl   UNL d   1      -1.550  -1.694   0.330  0.00  0.00    -0.070 Cl
ATOM      8 Cl1  UNL d   1      -2.983  -0.485   2.992  0.00  0.00    -0.070 Cl
ENDROOT
TORSDOF 0
ENDMDL
