MODEL 1
REMARK minimizedAffinity 11.5599499
REMARK minimizedRMSD -1
REMARK  0 active torsions:
REMARK  status: ('A' for Active; 'I' for Inactive)
ROOT
ATOM      1  C   UNL d   1      -0.534   0.871  -1.274  0.00  0.00     0.077 C 
ATOM      2  C1  UNL d   1      -0.106   1.271   0.107  0.00  0.00    -0.074 A 
ATOM      3  C2  UNL d   1      -0.872   0.925   1.225  0.00  0.00    -0.005 A 
ATOM      4  C3  UNL d   1      -0.456   1.295   2.504  0.00  0.00     0.006 A 
ATOM      5  C4  UNL d   1       0.727   2.014   2.678  0.00  0.00    -0.005 A 
ATOM      6  C5  UNL d   1       1.506   2.368   1.572  0.00  0.00    -0.074 A 
ATOM      7  C6  UNL d   1       2.786   3.132   1.742  0.00  0.00     0.077 C 
ATOM      8  C7  UNL d   1       1.085   1.986   0.290  0.00  0.00    -0.001 A 
ENDROOT
TORSDOF 0
ENDMDL
