MODEL 1
REMARK minimizedAffinity 6.11847544
REMARK minimizedRMSD -1
REMARK  0 active torsions:
REMARK  status: ('A' for Active; 'I' for Inactive)
ROOT
ATOM      1  C   UNL d   1      -3.672   2.100   2.073  0.00  0.00     0.077 C 
ATOM      2  C1  UNL d   1      -2.174   2.049   2.116  0.00  0.00    -0.074 A 
ATOM      3  C2  UNL d   1      -1.406   2.616   1.094  0.00  0.00    -0.005 A 
ATOM      4  C3  UNL d   1      -0.013   2.569   1.152  0.00  0.00     0.006 A 
ATOM      5  C4  UNL d   1       0.625   1.956   2.231  0.00  0.00    -0.005 A 
ATOM      6  C5  UNL d   1      -0.127   1.384   3.262  0.00  0.00    -0.074 A 
ATOM      7  C6  UNL d   1       0.543   0.729   4.434  0.00  0.00     0.077 C 
ATOM      8  C7  UNL d   1      -1.526   1.441   3.200  0.00  0.00    -0.001 A 
ENDROOT
TORSDOF 0
ENDMDL
