MODEL 1
REMARK minimizedAffinity -4.33759975
REMARK minimizedRMSD -1
REMARK  0 active torsions:
REMARK  status: ('A' for Active; 'I' for Inactive)
ROOT
ATOM      1  C   UNL d   1       2.672  -1.934  -0.071  0.00  0.00     0.077 C 
ATOM      2  C1  UNL d   1       1.546  -0.943  -0.040  0.00  0.00    -0.074 A 
ATOM      3  C2  UNL d   1       0.234  -1.336  -0.325  0.00  0.00    -0.005 A 
ATOM      4  C3  UNL d   1      -0.804  -0.405  -0.283  0.00  0.00     0.006 A 
ATOM      5  C4  UNL d   1      -0.541   0.926   0.043  0.00  0.00    -0.005 A 
ATOM      6  C5  UNL d   1       0.764   1.337   0.332  0.00  0.00    -0.074 A 
ATOM      7  C6  UNL d   1       1.062   2.762   0.694  0.00  0.00     0.077 C 
ATOM      8  C7  UNL d   1       1.801   0.394   0.294  0.00  0.00    -0.001 A 
ENDROOT
TORSDOF 0
ENDMDL
