MODEL 1
REMARK minimizedAffinity 1.27554369
REMARK minimizedRMSD -1
REMARK  0 active torsions:
REMARK  status: ('A' for Active; 'I' for Inactive)
ROOT
ATOM      1  C   UNL d   1       1.382   2.298  -0.377  0.00  0.00     0.077 C 
ATOM      2  C1  UNL d   1       0.466   1.946   0.758  0.00  0.00    -0.074 A 
ATOM      3  C2  UNL d   1       0.972   1.434   1.957  0.00  0.00    -0.005 A 
ATOM      4  C3  UNL d   1       0.108   1.120   3.007  0.00  0.00     0.006 A 
ATOM      5  C4  UNL d   1      -1.267   1.314   2.868  0.00  0.00    -0.005 A 
ATOM      6  C5  UNL d   1      -1.790   1.826   1.676  0.00  0.00    -0.074 A 
ATOM      7  C6  UNL d   1      -3.264   2.050   1.514  0.00  0.00     0.077 C 
ATOM      8  C7  UNL d   1      -0.915   2.146   0.629  0.00  0.00    -0.001 A 
ENDROOT
TORSDOF 0
ENDMDL
