MODEL 1
REMARK minimizedAffinity 5.91068029
REMARK minimizedRMSD -1
REMARK  0 active torsions:
REMARK  status: ('A' for Active; 'I' for Inactive)
ROOT
ATOM      1  C   UNL d   1       1.194   2.394  -0.157  0.00  0.00     0.077 C 
ATOM      2  C1  UNL d   1       0.409   2.082   1.082  0.00  0.00    -0.074 A 
ATOM      3  C2  UNL d   1       1.051   1.689   2.261  0.00  0.00    -0.005 A 
ATOM      4  C3  UNL d   1       0.308   1.411   3.408  0.00  0.00     0.006 A 
ATOM      5  C4  UNL d   1      -1.083   1.524   3.389  0.00  0.00    -0.005 A 
ATOM      6  C5  UNL d   1      -1.742   1.917   2.220  0.00  0.00    -0.074 A 
ATOM      7  C6  UNL d   1      -3.236   2.052   2.185  0.00  0.00     0.077 C 
ATOM      8  C7  UNL d   1      -0.988   2.201   1.073  0.00  0.00    -0.001 A 
ENDROOT
TORSDOF 0
ENDMDL
