MODEL 1
REMARK minimizedAffinity -2.65365601
REMARK minimizedRMSD -1
REMARK  0 active torsions:
REMARK  status: ('A' for Active; 'I' for Inactive)
ROOT
ATOM      1  C   UNL d   1      -3.476   0.651   0.539  0.00  0.00     0.077 C 
ATOM      2  C1  UNL d   1      -1.984   0.605   0.393  0.00  0.00    -0.074 A 
ATOM      3  C2  UNL d   1      -1.187   1.672   0.818  0.00  0.00    -0.005 A 
ATOM      4  C3  UNL d   1       0.200   1.611   0.685  0.00  0.00     0.006 A 
ATOM      5  C4  UNL d   1       0.803   0.484   0.126  0.00  0.00    -0.005 A 
ATOM      6  C5  UNL d   1       0.023  -0.594  -0.304  0.00  0.00    -0.074 A 
ATOM      7  C6  UNL d   1       0.656  -1.817  -0.898  0.00  0.00     0.077 C 
ATOM      8  C7  UNL d   1      -1.370  -0.528  -0.160  0.00  0.00    -0.001 A 
ENDROOT
TORSDOF 0
ENDMDL
