MODEL 1
REMARK minimizedAffinity 6.10085011
REMARK minimizedRMSD -1
REMARK  0 active torsions:
REMARK  status: ('A' for Active; 'I' for Inactive)
ROOT
ATOM      1  C   UNL d   1       1.826  -1.625   0.833  0.00  0.00     0.077 C 
ATOM      2  C1  UNL d   1       0.845  -1.229  -0.230  0.00  0.00    -0.074 A 
ATOM      3  C2  UNL d   1       0.395   0.091  -0.337  0.00  0.00    -0.005 A 
ATOM      4  C3  UNL d   1      -0.509   0.447  -1.337  0.00  0.00     0.006 A 
ATOM      5  C4  UNL d   1      -0.973  -0.512  -2.239  0.00  0.00    -0.005 A 
ATOM      6  C5  UNL d   1      -0.534  -1.836  -2.148  0.00  0.00    -0.074 A 
ATOM      7  C6  UNL d   1      -1.014  -2.877  -3.115  0.00  0.00     0.077 C 
ATOM      8  C7  UNL d   1       0.381  -2.184  -1.145  0.00  0.00    -0.001 A 
ENDROOT
TORSDOF 0
ENDMDL
