MODEL 1
REMARK minimizedAffinity -2.55929017
REMARK minimizedRMSD -1
REMARK  0 active torsions:
REMARK  status: ('A' for Active; 'I' for Inactive)
ROOT
ATOM      1  C   UNL d   1      -0.795  -2.978  -1.742  0.00  0.00     0.077 C 
ATOM      2  C1  UNL d   1       0.178  -1.912  -1.332  0.00  0.00    -0.074 A 
ATOM      3  C2  UNL d   1       1.513  -2.225  -1.058  0.00  0.00    -0.005 A 
ATOM      4  C3  UNL d   1       2.409  -1.222  -0.687  0.00  0.00     0.006 A 
ATOM      5  C4  UNL d   1       1.978   0.102  -0.585  0.00  0.00    -0.005 A 
ATOM      6  C5  UNL d   1       0.647   0.434  -0.856  0.00  0.00    -0.074 A 
ATOM      7  C6  UNL d   1       0.170   1.853  -0.762  0.00  0.00     0.077 C 
ATOM      8  C7  UNL d   1      -0.245  -0.579  -1.235  0.00  0.00    -0.001 A 
ENDROOT
TORSDOF 0
ENDMDL
