MODEL 1
REMARK minimizedAffinity 3.31092596
REMARK minimizedRMSD -1
REMARK  0 active torsions:
REMARK  status: ('A' for Active; 'I' for Inactive)
ROOT
ATOM      1  C   UNL d   1       4.206  -2.347  -3.659  0.00  0.00     0.077 C 
ATOM      2  C1  UNL d   1       3.833  -1.336  -2.616  0.00  0.00    -0.074 A 
ATOM      3  C2  UNL d   1       4.611  -0.192  -2.412  0.00  0.00    -0.005 A 
ATOM      4  C3  UNL d   1       4.246   0.744  -1.444  0.00  0.00     0.006 A 
ATOM      5  C4  UNL d   1       3.101   0.545  -0.671  0.00  0.00    -0.005 A 
ATOM      6  C5  UNL d   1       2.311  -0.593  -0.861  0.00  0.00    -0.074 A 
ATOM      7  C6  UNL d   1       1.072  -0.816  -0.046  0.00  0.00     0.077 C 
ATOM      8  C7  UNL d   1       2.680  -1.525  -1.840  0.00  0.00    -0.001 A 
ENDROOT
TORSDOF 0
ENDMDL
