MODEL 1
REMARK minimizedAffinity 3.73250151
REMARK minimizedRMSD -1
REMARK  0 active torsions:
REMARK  status: ('A' for Active; 'I' for Inactive)
ROOT
ATOM      1  C   UNL d   1       1.859   1.005  -0.157  0.00  0.00     0.077 C 
ATOM      2  C1  UNL d   1       1.240   1.620   1.063  0.00  0.00    -0.074 A 
ATOM      3  C2  UNL d   1       1.204   0.928   2.278  0.00  0.00    -0.005 A 
ATOM      4  C3  UNL d   1       0.633   1.517   3.406  0.00  0.00     0.006 A 
ATOM      5  C4  UNL d   1       0.093   2.802   3.331  0.00  0.00    -0.005 A 
ATOM      6  C5  UNL d   1       0.120   3.509   2.125  0.00  0.00    -0.074 A 
ATOM      7  C6  UNL d   1      -0.447   4.894   2.030  0.00  0.00     0.077 C 
ATOM      8  C7  UNL d   1       0.702   2.914   0.998  0.00  0.00    -0.001 A 
ENDROOT
TORSDOF 0
ENDMDL
