MODEL 1
REMARK minimizedAffinity 1.62339365
REMARK minimizedRMSD -1
REMARK  0 active torsions:
REMARK  status: ('A' for Active; 'I' for Inactive)
ROOT
ATOM      1  C   UNL d   1       1.464  -2.874  -1.187  0.00  0.00     0.077 C 
ATOM      2  C1  UNL d   1       0.590  -1.787  -0.635  0.00  0.00    -0.074 A 
ATOM      3  C2  UNL d   1      -0.705  -2.065  -0.185  0.00  0.00    -0.005 A 
ATOM      4  C3  UNL d   1      -1.503  -1.046   0.335  0.00  0.00     0.006 A 
ATOM      5  C4  UNL d   1      -1.015   0.259   0.411  0.00  0.00    -0.005 A 
ATOM      6  C5  UNL d   1       0.278   0.555  -0.033  0.00  0.00    -0.074 A 
ATOM      7  C6  UNL d   1       0.821   1.951   0.051  0.00  0.00     0.077 C 
ATOM      8  C7  UNL d   1       1.076  -0.475  -0.548  0.00  0.00    -0.001 A 
ENDROOT
TORSDOF 0
ENDMDL
