MODEL 1
REMARK minimizedAffinity 2.19834828
REMARK minimizedRMSD -1
REMARK  2 active torsions:
REMARK  status: ('A' for Active; 'I' for Inactive)
REMARK    1  A    between atoms: C2'_3  and  C1'_4 
REMARK    2  A    between atoms: C1'_4  and  C1_5 
ROOT
ATOM      1  C1  I4B d   1       1.283   2.947  -1.356  0.00  0.00    -0.075 A 
ATOM      2  C2  I4B d   1       0.903   2.079  -2.349  0.00  0.00     0.003 A 
ATOM      3  C3  I4B d   1       1.115   0.687  -2.198  0.00  0.00     0.002 A 
ATOM      4  C4  I4B d   1       1.752   0.215  -1.069  0.00  0.00    -0.004 A 
ATOM      5  C5  I4B d   1       2.116   1.094  -0.053  0.00  0.00     0.002 A 
ATOM      6  C6  I4B d   1       1.869   2.468  -0.191  0.00  0.00     0.003 A 
ENDROOT
BRANCH   1   7
ATOM      7  C1' I4B d   1       1.075   4.414  -1.562  0.00  0.00     0.060 C 
BRANCH   7   8
ATOM      8  C2' I4B d   1       2.153   5.151  -0.794  0.00  0.00    -0.013 C 
ATOM      9  C4' I4B d   1       2.993   6.000  -1.712  0.00  0.00     0.013 C 
ATOM     10  C3' I4B d   1       1.483   5.988   0.255  0.00  0.00     0.013 C 
ENDBRANCH   7   8
ENDBRANCH   1   7
TORSDOF 2
ENDMDL
