MODEL 1
REMARK minimizedAffinity 2.50805783
REMARK minimizedRMSD -1
REMARK  2 active torsions:
REMARK  status: ('A' for Active; 'I' for Inactive)
REMARK    1  A    between atoms: C2'_3  and  C1'_4 
REMARK    2  A    between atoms: C1'_4  and  C1_5 
ROOT
ATOM      1  C1  I4B d   1      -2.509   0.819   4.074  0.00  0.00    -0.075 A 
ATOM      2  C2  I4B d   1      -1.955   2.034   3.755  0.00  0.00     0.003 A 
ATOM      3  C3  I4B d   1      -2.314   2.686   2.550  0.00  0.00     0.002 A 
ATOM      4  C4  I4B d   1      -3.186   2.069   1.677  0.00  0.00    -0.004 A 
ATOM      5  C5  I4B d   1      -3.764   0.848   2.013  0.00  0.00     0.002 A 
ATOM      6  C6  I4B d   1      -3.433   0.224   3.224  0.00  0.00     0.003 A 
ENDROOT
BRANCH   1   7
ATOM      7  C1' I4B d   1      -2.083   0.142   5.338  0.00  0.00     0.060 C 
BRANCH   7   8
ATOM      8  C2' I4B d   1      -0.949  -0.805   5.001  0.00  0.00    -0.013 C 
ATOM      9  C4' I4B d   1      -1.390  -1.853   4.013  0.00  0.00     0.013 C 
ATOM     10  C3' I4B d   1       0.188   0.008   4.458  0.00  0.00     0.013 C 
ENDBRANCH   7   8
ENDBRANCH   1   7
TORSDOF 2
ENDMDL
