MODEL 1
REMARK minimizedAffinity 4.56902885
REMARK minimizedRMSD -1
REMARK  2 active torsions:
REMARK  status: ('A' for Active; 'I' for Inactive)
REMARK    1  A    between atoms: C2'_3  and  C1'_4 
REMARK    2  A    between atoms: C1'_4  and  C1_5 
ROOT
ATOM      1  C1  I4B d   1      -2.615  -3.319   4.383  0.00  0.00    -0.075 A 
ATOM      2  C2  I4B d   1      -2.989  -3.602   5.673  0.00  0.00     0.003 A 
ATOM      3  C3  I4B d   1      -3.515  -4.875   5.999  0.00  0.00     0.002 A 
ATOM      4  C4  I4B d   1      -3.697  -5.811   5.002  0.00  0.00    -0.004 A 
ATOM      5  C5  I4B d   1      -3.296  -5.531   3.699  0.00  0.00     0.002 A 
ATOM      6  C6  I4B d   1      -2.740  -4.281   3.390  0.00  0.00     0.003 A 
ENDROOT
BRANCH   1   7
ATOM      7  C1' I4B d   1      -2.093  -1.953   4.067  0.00  0.00     0.060 C 
BRANCH   7   8
ATOM      8  C2' I4B d   1      -0.579  -2.013   4.100  0.00  0.00    -0.013 C 
ATOM      9  C4' I4B d   1      -0.027  -2.569   2.814  0.00  0.00     0.013 C 
ATOM     10  C3' I4B d   1      -0.067  -0.626   4.354  0.00  0.00     0.013 C 
ENDBRANCH   7   8
ENDBRANCH   1   7
TORSDOF 2
ENDMDL
