MODEL 1
REMARK minimizedAffinity 4.97268009
REMARK minimizedRMSD -1
REMARK  2 active torsions:
REMARK  status: ('A' for Active; 'I' for Inactive)
REMARK    1  A    between atoms: C2'_3  and  C1'_4 
REMARK    2  A    between atoms: C1'_4  and  C1_5 
ROOT
ATOM      1  C1  I4B d   1       0.220   1.581   0.861  0.00  0.00    -0.075 A 
ATOM      2  C2  I4B d   1       1.276   0.946   1.466  0.00  0.00     0.003 A 
ATOM      3  C3  I4B d   1       2.044  -0.003   0.748  0.00  0.00     0.002 A 
ATOM      4  C4  I4B d   1       1.691  -0.322  -0.547  0.00  0.00    -0.004 A 
ATOM      5  C5  I4B d   1       0.634   0.339  -1.167  0.00  0.00     0.002 A 
ATOM      6  C6  I4B d   1      -0.099   1.305  -0.463  0.00  0.00     0.003 A 
ENDROOT
BRANCH   1   7
ATOM      7  C1' I4B d   1      -0.590   2.553   1.658  0.00  0.00     0.060 C 
BRANCH   7   8
ATOM      8  C2' I4B d   1      -2.024   2.066   1.672  0.00  0.00    -0.013 C 
ATOM      9  C4' I4B d   1      -2.716   2.443   2.955  0.00  0.00     0.013 C 
ATOM     10  C3' I4B d   1      -2.725   2.657   0.485  0.00  0.00     0.013 C 
ENDBRANCH   7   8
ENDBRANCH   1   7
TORSDOF 2
ENDMDL
