MODEL 1
REMARK minimizedAffinity -5.57200384
REMARK minimizedRMSD -1
REMARK  2 active torsions:
REMARK  status: ('A' for Active; 'I' for Inactive)
REMARK    1  A    between atoms: C2'_3  and  C1'_4 
REMARK    2  A    between atoms: C1'_4  and  C1_5 
ROOT
ATOM      1  C1  I4B d   1       0.836   1.865  -0.610  0.00  0.00    -0.075 A 
ATOM      2  C2  I4B d   1       1.282   2.885  -1.413  0.00  0.00     0.003 A 
ATOM      3  C3  I4B d   1       1.671   4.121  -0.844  0.00  0.00     0.002 A 
ATOM      4  C4  I4B d   1       1.552   4.311   0.517  0.00  0.00    -0.004 A 
ATOM      5  C5  I4B d   1       1.121   3.268   1.332  0.00  0.00     0.002 A 
ATOM      6  C6  I4B d   1       0.772   2.033   0.767  0.00  0.00     0.003 A 
ENDROOT
BRANCH   1   7
ATOM      7  C1' I4B d   1       0.401   0.583  -1.248  0.00  0.00     0.060 C 
BRANCH   7   8
ATOM      8  C2' I4B d   1       1.643  -0.229  -1.557  0.00  0.00    -0.013 C 
ATOM      9  C4' I4B d   1       1.901  -1.259  -0.490  0.00  0.00     0.013 C 
ATOM     10  C3' I4B d   1       1.452  -0.874  -2.898  0.00  0.00     0.013 C 
ENDBRANCH   7   8
ENDBRANCH   1   7
TORSDOF 2
ENDMDL
