MODEL 1
REMARK minimizedAffinity -0.920733213
REMARK minimizedRMSD -1
REMARK  2 active torsions:
REMARK  status: ('A' for Active; 'I' for Inactive)
REMARK    1  A    between atoms: C2'_3  and  C1'_4 
REMARK    2  A    between atoms: C1'_4  and  C1_5 
ROOT
ATOM      1  C1  I4B d   1      -5.319   0.051   3.335  0.00  0.00    -0.075 A 
ATOM      2  C2  I4B d   1      -4.024   0.243   2.924  0.00  0.00     0.003 A 
ATOM      3  C3  I4B d   1      -3.361   1.463   3.201  0.00  0.00     0.002 A 
ATOM      4  C4  I4B d   1      -4.043   2.477   3.843  0.00  0.00    -0.004 A 
ATOM      5  C5  I4B d   1      -5.349   2.272   4.280  0.00  0.00     0.002 A 
ATOM      6  C6  I4B d   1      -5.987   1.047   4.035  0.00  0.00     0.003 A 
ENDROOT
BRANCH   1   7
ATOM      7  C1' I4B d   1      -5.999  -1.237   2.997  0.00  0.00     0.060 C 
BRANCH   7   8
ATOM      8  C2' I4B d   1      -5.304  -2.346   3.760  0.00  0.00    -0.013 C 
ATOM      9  C4' I4B d   1      -5.998  -2.627   5.067  0.00  0.00     0.013 C 
ATOM     10  C3' I4B d   1      -5.282  -3.565   2.886  0.00  0.00     0.013 C 
ENDBRANCH   7   8
ENDBRANCH   1   7
TORSDOF 2
ENDMDL
