MODEL 1
REMARK minimizedAffinity 1.61985326
REMARK minimizedRMSD -1
REMARK  2 active torsions:
REMARK  status: ('A' for Active; 'I' for Inactive)
REMARK    1  A    between atoms: C2'_3  and  C1'_4 
REMARK    2  A    between atoms: C1'_4  and  C1_5 
ROOT
ATOM      1  C1  I4B d   1       1.093   1.825   0.591  0.00  0.00    -0.075 A 
ATOM      2  C2  I4B d   1       0.762   0.645  -0.029  0.00  0.00     0.003 A 
ATOM      3  C3  I4B d   1       0.731   0.567  -1.442  0.00  0.00     0.002 A 
ATOM      4  C4  I4B d   1       0.986   1.697  -2.191  0.00  0.00    -0.004 A 
ATOM      5  C5  I4B d   1       1.343   2.886  -1.562  0.00  0.00     0.002 A 
ATOM      6  C6  I4B d   1       1.409   2.948  -0.163  0.00  0.00     0.003 A 
ENDROOT
BRANCH   1   7
ATOM      7  C1' I4B d   1       1.084   1.881   2.085  0.00  0.00     0.060 C 
BRANCH   7   8
ATOM      8  C2' I4B d   1      -0.161   1.167   2.572  0.00  0.00    -0.013 C 
ATOM      9  C4' I4B d   1       0.094   0.452   3.873  0.00  0.00     0.013 C 
ATOM     10  C3' I4B d   1      -1.252   2.185   2.718  0.00  0.00     0.013 C 
ENDBRANCH   7   8
ENDBRANCH   1   7
TORSDOF 2
ENDMDL
