MODEL 1
REMARK minimizedAffinity -3.7198894
REMARK minimizedRMSD -1
REMARK  2 active torsions:
REMARK  status: ('A' for Active; 'I' for Inactive)
REMARK    1  A    between atoms: C2'_3  and  C1'_4 
REMARK    2  A    between atoms: C1'_4  and  C1_5 
ROOT
ATOM      1  C1  I4B d   1       1.050   2.357  -0.913  0.00  0.00    -0.075 A 
ATOM      2  C2  I4B d   1       0.793   1.295  -1.743  0.00  0.00     0.003 A 
ATOM      3  C3  I4B d   1       0.785  -0.025  -1.230  0.00  0.00     0.002 A 
ATOM      4  C4  I4B d   1       1.087  -0.240   0.099  0.00  0.00    -0.004 A 
ATOM      5  C5  I4B d   1       1.326   0.840   0.944  0.00  0.00     0.002 A 
ATOM      6  C6  I4B d   1       1.295   2.148   0.438  0.00  0.00     0.003 A 
ENDROOT
BRANCH   1   7
ATOM      7  C1' I4B d   1       1.083   3.735  -1.494  0.00  0.00     0.060 C 
BRANCH   7   8
ATOM      8  C2' I4B d   1       1.939   4.602  -0.593  0.00  0.00    -0.013 C 
ATOM      9  C4' I4B d   1       2.107   5.984  -1.165  0.00  0.00     0.013 C 
ATOM     10  C3' I4B d   1       1.287   4.650   0.757  0.00  0.00     0.013 C 
ENDBRANCH   7   8
ENDBRANCH   1   7
TORSDOF 2
ENDMDL
