MODEL 1
REMARK minimizedAffinity 1.51145005
REMARK minimizedRMSD -1
REMARK  2 active torsions:
REMARK  status: ('A' for Active; 'I' for Inactive)
REMARK    1  A    between atoms: C2'_3  and  C1'_4 
REMARK    2  A    between atoms: C1'_4  and  C1_5 
ROOT
ATOM      1  C1  I4B d   1       1.623   2.816  -0.605  0.00  0.00    -0.075 A 
ATOM      2  C2  I4B d   1       2.061   1.852   0.268  0.00  0.00     0.003 A 
ATOM      3  C3  I4B d   1       2.206   0.512  -0.164  0.00  0.00     0.002 A 
ATOM      4  C4  I4B d   1       1.856   0.172  -1.455  0.00  0.00    -0.004 A 
ATOM      5  C5  I4B d   1       1.434   1.155  -2.346  0.00  0.00     0.002 A 
ATOM      6  C6  I4B d   1       1.328   2.488  -1.922  0.00  0.00     0.003 A 
ENDROOT
BRANCH   1   7
ATOM      7  C1' I4B d   1       1.450   4.216  -0.106  0.00  0.00     0.060 C 
BRANCH   7   8
ATOM      8  C2' I4B d   1       2.112   5.150  -1.098  0.00  0.00    -0.013 C 
ATOM      9  C4' I4B d   1       1.094   6.000  -1.811  0.00  0.00     0.013 C 
ATOM     10  C3' I4B d   1       3.096   5.999  -0.349  0.00  0.00     0.013 C 
ENDBRANCH   7   8
ENDBRANCH   1   7
TORSDOF 2
ENDMDL
