MODEL 1
REMARK minimizedAffinity -1.51942563
REMARK minimizedRMSD -1
REMARK  0 active torsions:
REMARK  status: ('A' for Active; 'I' for Inactive)
ROOT
ATOM      1  C   UNL d   1       1.829  -0.252   0.789  0.00  0.00     0.172 C 
ATOM      2  N   UNL d   1       0.948   0.559   1.596  0.00  0.00    -0.070 N 
ATOM      3  C1  UNL d   1       1.155   1.870   1.933  0.00  0.00    -0.004 A 
ATOM      4  C2  UNL d   1       0.092   2.280   2.708  0.00  0.00    -0.047 A 
ATOM      5  C3  UNL d   1      -0.785   1.177   2.842  0.00  0.00    -0.047 A 
ATOM      6  C4  UNL d   1      -0.230   0.125   2.144  0.00  0.00    -0.004 A 
ENDROOT
TORSDOF 0
ENDMDL
