MODEL 1
REMARK minimizedAffinity -2.8695159
REMARK minimizedRMSD -1
REMARK  0 active torsions:
REMARK  status: ('A' for Active; 'I' for Inactive)
ROOT
ATOM      1  C   UNL d   1       0.851   0.135  -0.161  0.00  0.00     0.172 C 
ATOM      2  N   UNL d   1       1.306   0.695  -1.412  0.00  0.00    -0.070 N 
ATOM      3  C1  UNL d   1       0.624   0.657  -2.598  0.00  0.00    -0.004 A 
ATOM      4  C2  UNL d   1       1.390   1.298  -3.547  0.00  0.00    -0.047 A 
ATOM      5  C3  UNL d   1       2.575   1.737  -2.908  0.00  0.00    -0.047 A 
ATOM      6  C4  UNL d   1       2.496   1.351  -1.587  0.00  0.00    -0.004 A 
ENDROOT
TORSDOF 0
ENDMDL
