MODEL 1
REMARK minimizedAffinity 2.01677442
REMARK minimizedRMSD -1
REMARK  0 active torsions:
REMARK  status: ('A' for Active; 'I' for Inactive)
ROOT
ATOM      1  C   UNL d   1      -1.076  -0.774  -0.377  0.00  0.00     0.172 C 
ATOM      2  N   UNL d   1       0.328  -0.461  -0.245  0.00  0.00    -0.070 N 
ATOM      3  C1  UNL d   1       0.965   0.610  -0.813  0.00  0.00    -0.004 A 
ATOM      4  C2  UNL d   1       2.293   0.553  -0.449  0.00  0.00    -0.047 A 
ATOM      5  C3  UNL d   1       2.460  -0.592   0.366  0.00  0.00    -0.047 A 
ATOM      6  C4  UNL d   1       1.228  -1.201   0.476  0.00  0.00    -0.004 A 
ENDROOT
TORSDOF 0
ENDMDL
