MODEL 1
REMARK minimizedAffinity -3.9365809
REMARK minimizedRMSD -1
REMARK  0 active torsions:
REMARK  status: ('A' for Active; 'I' for Inactive)
ROOT
ATOM      1  C   UNL d   1       1.801  -0.713   2.073  0.00  0.00     0.172 C 
ATOM      2  N   UNL d   1       0.792   0.316   1.978  0.00  0.00    -0.070 N 
ATOM      3  C1  UNL d   1       0.622   1.173   0.923  0.00  0.00    -0.004 A 
ATOM      4  C2  UNL d   1      -0.442   1.998   1.217  0.00  0.00    -0.047 A 
ATOM      5  C3  UNL d   1      -0.928   1.625   2.492  0.00  0.00    -0.047 A 
ATOM      6  C4  UNL d   1      -0.146   0.581   2.941  0.00  0.00    -0.004 A 
ENDROOT
TORSDOF 0
ENDMDL
