MODEL 1
REMARK minimizedAffinity 2.19015622
REMARK minimizedRMSD -1
REMARK  0 active torsions:
REMARK  status: ('A' for Active; 'I' for Inactive)
ROOT
ATOM      1  C   UNL d   1       1.740  -0.455   1.172  0.00  0.00     0.172 C 
ATOM      2  N   UNL d   1       0.387  -0.353   0.677  0.00  0.00    -0.070 N 
ATOM      3  C1  UNL d   1      -0.661   0.235   1.333  0.00  0.00    -0.004 A 
ATOM      4  C2  UNL d   1      -1.776   0.126   0.530  0.00  0.00    -0.047 A 
ATOM      5  C3  UNL d   1      -1.384  -0.551  -0.649  0.00  0.00    -0.047 A 
ATOM      6  C4  UNL d   1      -0.040  -0.836  -0.532  0.00  0.00    -0.004 A 
ENDROOT
TORSDOF 0
ENDMDL
