MODEL 1
REMARK minimizedAffinity 0.903551638
REMARK minimizedRMSD -1
REMARK  0 active torsions:
REMARK  status: ('A' for Active; 'I' for Inactive)
ROOT
ATOM      1  C   UNL d   1      -3.450  -2.147  -0.364  0.00  0.00     0.172 C 
ATOM      2  N   UNL d   1      -2.538  -1.115   0.072  0.00  0.00    -0.070 N 
ATOM      3  C1  UNL d   1      -1.174  -1.154  -0.045  0.00  0.00    -0.004 A 
ATOM      4  C2  UNL d   1      -0.672   0.015   0.486  0.00  0.00    -0.047 A 
ATOM      5  C3  UNL d   1      -1.772   0.781   0.938  0.00  0.00    -0.047 A 
ATOM      6  C4  UNL d   1      -2.915   0.058   0.670  0.00  0.00    -0.004 A 
ENDROOT
TORSDOF 0
ENDMDL
