MODEL 1
REMARK minimizedAffinity 3.03327703
REMARK minimizedRMSD -1
REMARK  0 active torsions:
REMARK  status: ('A' for Active; 'I' for Inactive)
ROOT
ATOM      1  C   UNL d   1      -0.602  -1.048  -4.878  0.00  0.00     0.172 C 
ATOM      2  N   UNL d   1       0.291   0.040  -4.556  0.00  0.00    -0.070 N 
ATOM      3  C1  UNL d   1       1.611   0.121  -4.912  0.00  0.00    -0.004 A 
ATOM      4  C2  UNL d   1       2.109   1.307  -4.418  0.00  0.00    -0.047 A 
ATOM      5  C3  UNL d   1       1.052   1.962  -3.742  0.00  0.00    -0.047 A 
ATOM      6  C4  UNL d   1      -0.062   1.155  -3.843  0.00  0.00    -0.004 A 
ENDROOT
TORSDOF 0
ENDMDL
