MODEL 1
REMARK minimizedAffinity -3.1404829
REMARK minimizedRMSD -1
REMARK  0 active torsions:
REMARK  status: ('A' for Active; 'I' for Inactive)
ROOT
ATOM      1  C   UNL d   1      -1.470  -0.332  -0.007  0.00  0.00     0.172 C 
ATOM      2  N   UNL d   1      -0.745   0.104   1.163  0.00  0.00    -0.070 N 
ATOM      3  C1  UNL d   1      -1.261   0.213   2.427  0.00  0.00    -0.004 A 
ATOM      4  C2  UNL d   1      -0.255   0.658   3.257  0.00  0.00    -0.047 A 
ATOM      5  C3  UNL d   1       0.905   0.824   2.464  0.00  0.00    -0.047 A 
ATOM      6  C4  UNL d   1       0.574   0.474   1.173  0.00  0.00    -0.004 A 
ENDROOT
TORSDOF 0
ENDMDL
