MODEL 1
REMARK minimizedAffinity 8.88495159
REMARK minimizedRMSD -1
REMARK  0 active torsions:
REMARK  status: ('A' for Active; 'I' for Inactive)
ROOT
ATOM      1  C   UNL d   1       5.344   4.732  -1.520  0.00  0.00    -0.002 A 
ATOM      2  C1  UNL d   1       5.641   5.937  -2.139  0.00  0.00     0.010 A 
ATOM      3  C2  UNL d   1       5.855   5.993  -3.518  0.00  0.00     0.041 A 
ATOM      4  C3  UNL d   1       5.762   4.806  -4.271  0.00  0.00    -0.075 A 
ATOM      5  S   UNL d   1       5.984   4.634  -5.972  0.00  0.00     0.015 SA
ATOM      6  C4  UNL d   1       5.688   2.957  -5.916  0.00  0.00     0.022 A 
ATOM      7  C5  UNL d   1       5.425   2.521  -4.639  0.00  0.00     0.026 A 
ATOM      8  C6  UNL d   1       5.463   3.580  -3.670  0.00  0.00    -0.082 A 
ATOM      9  C7  UNL d   1       5.253   3.556  -2.270  0.00  0.00     0.045 A 
ENDROOT
TORSDOF 0
ENDMDL
