MODEL 1
REMARK minimizedAffinity 10.2670259
REMARK minimizedRMSD -1
REMARK  0 active torsions:
REMARK  status: ('A' for Active; 'I' for Inactive)
ROOT
ATOM      1  C   UNL d   1       2.079  -2.497   4.075  0.00  0.00    -0.002 A 
ATOM      2  C1  UNL d   1       2.967  -1.460   4.327  0.00  0.00     0.010 A 
ATOM      3  C2  UNL d   1       4.204  -1.713   4.922  0.00  0.00     0.041 A 
ATOM      4  C3  UNL d   1       4.538  -3.038   5.262  0.00  0.00    -0.075 A 
ATOM      5  S   UNL d   1       5.998  -3.586   5.999  0.00  0.00     0.015 SA
ATOM      6  C4  UNL d   1       5.478  -5.209   5.996  0.00  0.00     0.022 A 
ATOM      7  C5  UNL d   1       4.224  -5.348   5.450  0.00  0.00     0.026 A 
ATOM      8  C6  UNL d   1       3.662  -4.099   5.018  0.00  0.00    -0.082 A 
ATOM      9  C7  UNL d   1       2.415  -3.810   4.413  0.00  0.00     0.045 A 
ENDROOT
TORSDOF 0
ENDMDL
