MODEL 1
REMARK minimizedAffinity 8.38276863
REMARK minimizedRMSD -1
REMARK  0 active torsions:
REMARK  status: ('A' for Active; 'I' for Inactive)
ROOT
ATOM      1  C   UNL d   1      -1.165  -3.061  -2.459  0.00  0.00    -0.002 A 
ATOM      2  C1  UNL d   1      -0.892  -3.733  -3.642  0.00  0.00     0.010 A 
ATOM      3  C2  UNL d   1       0.347  -3.592  -4.270  0.00  0.00     0.041 A 
ATOM      4  C3  UNL d   1       1.318  -2.757  -3.682  0.00  0.00    -0.075 A 
ATOM      5  S   UNL d   1       2.905  -2.433  -4.271  0.00  0.00     0.015 SA
ATOM      6  C4  UNL d   1       3.259  -1.396  -2.966  0.00  0.00     0.022 A 
ATOM      7  C5  UNL d   1       2.203  -1.288  -2.092  0.00  0.00     0.026 A 
ATOM      8  C6  UNL d   1       1.067  -2.071  -2.490  0.00  0.00    -0.082 A 
ATOM      9  C7  UNL d   1      -0.199  -2.234  -1.879  0.00  0.00     0.045 A 
ENDROOT
TORSDOF 0
ENDMDL
