MODEL 1
REMARK minimizedAffinity 9.72021484
REMARK minimizedRMSD -1
REMARK  0 active torsions:
REMARK  status: ('A' for Active; 'I' for Inactive)
ROOT
ATOM      1  C   UNL d   1      -0.582  -1.556  -0.430  0.00  0.00    -0.002 A 
ATOM      2  C1  UNL d   1       0.776  -1.336  -0.613  0.00  0.00     0.010 A 
ATOM      3  C2  UNL d   1       1.469  -1.985  -1.637  0.00  0.00     0.041 A 
ATOM      4  C3  UNL d   1       0.767  -2.865  -2.483  0.00  0.00    -0.075 A 
ATOM      5  S   UNL d   1       1.407  -3.770  -3.804  0.00  0.00     0.015 SA
ATOM      6  C4  UNL d   1      -0.107  -4.468  -4.157  0.00  0.00     0.022 A 
ATOM      7  C5  UNL d   1      -1.088  -4.033  -3.298  0.00  0.00     0.026 A 
ATOM      8  C6  UNL d   1      -0.601  -3.102  -2.319  0.00  0.00    -0.082 A 
ATOM      9  C7  UNL d   1      -1.275  -2.430  -1.272  0.00  0.00     0.045 A 
ENDROOT
TORSDOF 0
ENDMDL
