MODEL 1
REMARK minimizedAffinity 0.685953915
REMARK minimizedRMSD -1
REMARK  0 active torsions:
REMARK  status: ('A' for Active; 'I' for Inactive)
ROOT
ATOM      1  C   UNL d   1       3.904  -0.751   5.651  0.00  0.00    -0.002 A 
ATOM      2  C1  UNL d   1       5.255  -0.749   5.968  0.00  0.00     0.010 A 
ATOM      3  C2  UNL d   1       5.979  -1.943   6.000  0.00  0.00     0.041 A 
ATOM      4  C3  UNL d   1       5.316  -3.150   5.702  0.00  0.00    -0.075 A 
ATOM      5  S   UNL d   1       6.000  -4.732   5.678  0.00  0.00     0.015 SA
ATOM      6  C4  UNL d   1       4.515  -5.448   5.245  0.00  0.00     0.022 A 
ATOM      7  C5  UNL d   1       3.511  -4.517   5.118  0.00  0.00     0.026 A 
ATOM      8  C6  UNL d   1       3.956  -3.177   5.379  0.00  0.00    -0.082 A 
ATOM      9  C7  UNL d   1       3.250  -1.951   5.356  0.00  0.00     0.045 A 
ENDROOT
TORSDOF 0
ENDMDL
