MODEL 1
REMARK minimizedAffinity 3.68034649
REMARK minimizedRMSD -1
REMARK  0 active torsions:
REMARK  status: ('A' for Active; 'I' for Inactive)
ROOT
ATOM      1  C   UNL d   1       5.557  -2.607   1.248  0.00  0.00    -0.002 A 
ATOM      2  C1  UNL d   1       4.775  -1.471   1.398  0.00  0.00     0.010 A 
ATOM      3  C2  UNL d   1       4.416  -1.019   2.669  0.00  0.00     0.041 A 
ATOM      4  C3  UNL d   1       4.862  -1.734   3.798  0.00  0.00    -0.075 A 
ATOM      5  S   UNL d   1       4.547  -1.366   5.453  0.00  0.00     0.015 SA
ATOM      6  C4  UNL d   1       5.444  -2.708   5.999  0.00  0.00     0.022 A 
ATOM      7  C5  UNL d   1       5.978  -3.430   4.958  0.00  0.00     0.026 A 
ATOM      8  C6  UNL d   1       5.652  -2.880   3.672  0.00  0.00    -0.082 A 
ATOM      9  C7  UNL d   1       5.998  -3.314   2.370  0.00  0.00     0.045 A 
ENDROOT
TORSDOF 0
ENDMDL
