MODEL 1
REMARK minimizedAffinity 3.91297793
REMARK minimizedRMSD -1
REMARK  0 active torsions:
REMARK  status: ('A' for Active; 'I' for Inactive)
ROOT
ATOM      1  C   UNL d   1      -0.741  -6.000  -2.854  0.00  0.00    -0.002 A 
ATOM      2  C1  UNL d   1      -1.237  -5.909  -4.146  0.00  0.00     0.010 A 
ATOM      3  C2  UNL d   1      -0.974  -4.785  -4.931  0.00  0.00     0.041 A 
ATOM      4  C3  UNL d   1      -0.193  -3.744  -4.391  0.00  0.00    -0.075 A 
ATOM      5  S   UNL d   1       0.260  -2.273  -5.167  0.00  0.00     0.015 SA
ATOM      6  C4  UNL d   1       1.124  -1.731  -3.802  0.00  0.00     0.022 A 
ATOM      7  C5  UNL d   1       1.079  -2.638  -2.769  0.00  0.00     0.026 A 
ATOM      8  C6  UNL d   1       0.319  -3.813  -3.092  0.00  0.00    -0.082 A 
ATOM      9  C7  UNL d   1       0.033  -4.965  -2.321  0.00  0.00     0.045 A 
ENDROOT
TORSDOF 0
ENDMDL
