MODEL 1
REMARK minimizedAffinity 7.48105383
REMARK minimizedRMSD -1
REMARK  0 active torsions:
REMARK  status: ('A' for Active; 'I' for Inactive)
ROOT
ATOM      1  C   UNL d   1       5.741   4.047  -1.159  0.00  0.00    -0.002 A 
ATOM      2  C1  UNL d   1       5.271   5.352  -1.198  0.00  0.00     0.010 A 
ATOM      3  C2  UNL d   1       5.051   5.992  -2.420  0.00  0.00     0.041 A 
ATOM      4  C3  UNL d   1       5.312   5.289  -3.613  0.00  0.00    -0.075 A 
ATOM      5  S   UNL d   1       5.115   5.869  -5.225  0.00  0.00     0.015 SA
ATOM      6  C4  UNL d   1       5.649   4.398  -5.899  0.00  0.00     0.022 A 
ATOM      7  C5  UNL d   1       5.974   3.476  -4.932  0.00  0.00     0.026 A 
ATOM      8  C6  UNL d   1       5.784   3.974  -3.599  0.00  0.00    -0.082 A 
ATOM      9  C7  UNL d   1       5.998   3.354  -2.344  0.00  0.00     0.045 A 
ENDROOT
TORSDOF 0
ENDMDL
