MODEL 1
REMARK minimizedAffinity 3.99103451
REMARK minimizedRMSD -1
REMARK  0 active torsions:
REMARK  status: ('A' for Active; 'I' for Inactive)
ROOT
ATOM      1  C   UNL d   1       4.200   4.894  -1.276  0.00  0.00    -0.002 A 
ATOM      2  C1  UNL d   1       5.374   5.634  -1.270  0.00  0.00     0.010 A 
ATOM      3  C2  UNL d   1       5.997   5.987  -2.469  0.00  0.00     0.041 A 
ATOM      4  C3  UNL d   1       5.414   5.581  -3.685  0.00  0.00    -0.075 A 
ATOM      5  S   UNL d   1       5.999   5.898  -5.275  0.00  0.00     0.015 SA
ATOM      6  C4  UNL d   1       4.705   5.059  -6.000  0.00  0.00     0.022 A 
ATOM      7  C5  UNL d   1       3.838   4.542  -5.066  0.00  0.00     0.026 A 
ATOM      8  C6  UNL d   1       4.232   4.835  -3.717  0.00  0.00    -0.082 A 
ATOM      9  C7  UNL d   1       3.625   4.492  -2.484  0.00  0.00     0.045 A 
ENDROOT
TORSDOF 0
ENDMDL
