MODEL 1
REMARK minimizedAffinity 10.2223511
REMARK minimizedRMSD -1
REMARK  0 active torsions:
REMARK  status: ('A' for Active; 'I' for Inactive)
ROOT
ATOM      1  C   UNL d   1       5.998   4.484  -4.820  0.00  0.00    -0.002 A 
ATOM      2  C1  UNL d   1       5.932   4.019  -3.514  0.00  0.00     0.010 A 
ATOM      3  C2  UNL d   1       4.778   4.209  -2.750  0.00  0.00     0.041 A 
ATOM      4  C3  UNL d   1       3.681   4.879  -3.328  0.00  0.00    -0.075 A 
ATOM      5  S   UNL d   1       2.165   5.224  -2.583  0.00  0.00     0.015 SA
ATOM      6  C4  UNL d   1       1.570   5.996  -3.981  0.00  0.00     0.022 A 
ATOM      7  C5  UNL d   1       2.492   5.999  -5.000  0.00  0.00     0.026 A 
ATOM      8  C6  UNL d   1       3.724   5.355  -4.641  0.00  0.00    -0.082 A 
ATOM      9  C7  UNL d   1       4.908   5.147  -5.389  0.00  0.00     0.045 A 
ENDROOT
TORSDOF 0
ENDMDL
