MODEL 1
REMARK minimizedAffinity 1.23555791
REMARK minimizedRMSD -1
REMARK  0 active torsions:
REMARK  status: ('A' for Active; 'I' for Inactive)
ROOT
ATOM      1  C   UNL d   1       4.735  -1.716   5.999  0.00  0.00    -0.002 A 
ATOM      2  C1  UNL d   1       5.563  -2.825   5.903  0.00  0.00     0.010 A 
ATOM      3  C2  UNL d   1       6.000  -3.279   4.657  0.00  0.00     0.041 A 
ATOM      4  C3  UNL d   1       5.588  -2.591   3.498  0.00  0.00    -0.075 A 
ATOM      5  S   UNL d   1       5.999  -2.966   1.866  0.00  0.00     0.015 SA
ATOM      6  C4  UNL d   1       5.086  -1.661   1.258  0.00  0.00     0.022 A 
ATOM      7  C5  UNL d   1       4.475  -0.947   2.262  0.00  0.00     0.026 A 
ATOM      8  C6  UNL d   1       4.755  -1.471   3.569  0.00  0.00    -0.082 A 
ATOM      9  C7  UNL d   1       4.328  -1.036   4.847  0.00  0.00     0.045 A 
ENDROOT
TORSDOF 0
ENDMDL
