MODEL 1
REMARK minimizedAffinity 5.88996029
REMARK minimizedRMSD -1
REMARK  0 active torsions:
REMARK  status: ('A' for Active; 'I' for Inactive)
ROOT
ATOM      1  C   UNL d   1      -2.168  -2.623  -0.487  0.00  0.00    -0.002 A 
ATOM      2  C1  UNL d   1      -1.060  -1.892  -0.083  0.00  0.00     0.010 A 
ATOM      3  C2  UNL d   1       0.046  -1.757  -0.924  0.00  0.00     0.041 A 
ATOM      4  C3  UNL d   1       0.020  -2.374  -2.190  0.00  0.00    -0.075 A 
ATOM      5  S   UNL d   1       1.260  -2.344  -3.387  0.00  0.00     0.015 SA
ATOM      6  C4  UNL d   1       0.348  -3.300  -4.463  0.00  0.00     0.022 A 
ATOM      7  C5  UNL d   1      -0.876  -3.644  -3.938  0.00  0.00     0.026 A 
ATOM      8  C6  UNL d   1      -1.085  -3.115  -2.619  0.00  0.00    -0.082 A 
ATOM      9  C7  UNL d   1      -2.191  -3.234  -1.743  0.00  0.00     0.045 A 
ENDROOT
TORSDOF 0
ENDMDL
