MODEL 1
REMARK minimizedAffinity 10.4030428
REMARK minimizedRMSD -1
REMARK  0 active torsions:
REMARK  status: ('A' for Active; 'I' for Inactive)
ROOT
ATOM      1  C   UNL d   1       2.983   5.785  -4.989  0.00  0.00    -0.002 A 
ATOM      2  C1  UNL d   1       2.072   5.979  -3.960  0.00  0.00     0.010 A 
ATOM      3  C2  UNL d   1       2.455   5.797  -2.629  0.00  0.00     0.041 A 
ATOM      4  C3  UNL d   1       3.782   5.415  -2.348  0.00  0.00    -0.075 A 
ATOM      5  S   UNL d   1       4.476   5.136  -0.795  0.00  0.00     0.015 SA
ATOM      6  C4  UNL d   1       5.997   4.754  -1.461  0.00  0.00     0.022 A 
ATOM      7  C5  UNL d   1       5.994   4.832  -2.833  0.00  0.00     0.026 A 
ATOM      8  C6  UNL d   1       4.717   5.215  -3.367  0.00  0.00    -0.082 A 
ATOM      9  C7  UNL d   1       4.298   5.407  -4.706  0.00  0.00     0.045 A 
ENDROOT
TORSDOF 0
ENDMDL
