MODEL 1
REMARK minimizedAffinity 8.69176769
REMARK minimizedRMSD -1
REMARK  0 active torsions:
REMARK  status: ('A' for Active; 'I' for Inactive)
ROOT
ATOM      1  C   UNL d   1       5.994   4.151  -1.097  0.00  0.00    -0.002 A 
ATOM      2  C1  UNL d   1       5.346   5.362  -0.895  0.00  0.00     0.010 A 
ATOM      3  C2  UNL d   1       4.688   6.000  -1.949  0.00  0.00     0.041 A 
ATOM      4  C3  UNL d   1       4.691   5.393  -3.221  0.00  0.00    -0.075 A 
ATOM      5  S   UNL d   1       3.950   5.990  -4.659  0.00  0.00     0.015 SA
ATOM      6  C4  UNL d   1       4.475   4.652  -5.574  0.00  0.00     0.022 A 
ATOM      7  C5  UNL d   1       5.200   3.762  -4.817  0.00  0.00     0.026 A 
ATOM      8  C6  UNL d   1       5.335   4.174  -3.448  0.00  0.00    -0.082 A 
ATOM      9  C7  UNL d   1       5.994   3.553  -2.360  0.00  0.00     0.045 A 
ENDROOT
TORSDOF 0
ENDMDL
