MODEL 1
REMARK minimizedAffinity 9.83343124
REMARK minimizedRMSD -1
REMARK  0 active torsions:
REMARK  status: ('A' for Active; 'I' for Inactive)
ROOT
ATOM      1  C   UNL d   1      -0.007  -2.868  -3.507  0.00  0.00    -0.002 A 
ATOM      2  C1  UNL d   1       0.915  -1.988  -2.958  0.00  0.00     0.010 A 
ATOM      3  C2  UNL d   1       0.772  -1.539  -1.643  0.00  0.00     0.041 A 
ATOM      4  C3  UNL d   1      -0.323  -1.995  -0.883  0.00  0.00    -0.075 A 
ATOM      5  S   UNL d   1      -0.700  -1.581   0.748  0.00  0.00     0.015 SA
ATOM      6  C4  UNL d   1      -2.093  -2.562   0.753  0.00  0.00     0.022 A 
ATOM      7  C5  UNL d   1      -2.282  -3.198  -0.451  0.00  0.00     0.026 A 
ATOM      8  C6  UNL d   1      -1.264  -2.882  -1.414  0.00  0.00    -0.082 A 
ATOM      9  C7  UNL d   1      -1.092  -3.318  -2.750  0.00  0.00     0.045 A 
ENDROOT
TORSDOF 0
ENDMDL
