MODEL 1
REMARK minimizedAffinity 3.38130426
REMARK minimizedRMSD -1
REMARK  0 active torsions:
REMARK  status: ('A' for Active; 'I' for Inactive)
ROOT
ATOM      1  C   UNL d   1       0.396  -3.508  -3.599  0.00  0.00    -0.002 A 
ATOM      2  C1  UNL d   1       1.278  -2.479  -3.302  0.00  0.00     0.010 A 
ATOM      3  C2  UNL d   1       1.094  -1.691  -2.164  0.00  0.00     0.041 A 
ATOM      4  C3  UNL d   1      -0.003  -1.958  -1.321  0.00  0.00    -0.075 A 
ATOM      5  S   UNL d   1      -0.428  -1.125   0.127  0.00  0.00     0.015 SA
ATOM      6  C4  UNL d   1      -1.790  -2.115   0.386  0.00  0.00     0.022 A 
ATOM      7  C5  UNL d   1      -1.933  -3.063  -0.599  0.00  0.00     0.026 A 
ATOM      8  C6  UNL d   1      -0.905  -2.989  -1.599  0.00  0.00    -0.082 A 
ATOM      9  C7  UNL d   1      -0.691  -3.770  -2.760  0.00  0.00     0.045 A 
ENDROOT
TORSDOF 0
ENDMDL
