MODEL 1
REMARK minimizedAffinity 1.49946678
REMARK minimizedRMSD -1
REMARK  0 active torsions:
REMARK  status: ('A' for Active; 'I' for Inactive)
ROOT
ATOM      1  C   UNL d   1       3.911   4.409  -5.845  0.00  0.00    -0.002 A 
ATOM      2  C1  UNL d   1       5.278   4.627  -5.945  0.00  0.00     0.010 A 
ATOM      3  C2  UNL d   1       6.000   5.121  -4.857  0.00  0.00     0.041 A 
ATOM      4  C3  UNL d   1       5.319   5.392  -3.654  0.00  0.00    -0.075 A 
ATOM      5  S   UNL d   1       5.997   6.000  -2.190  0.00  0.00     0.015 SA
ATOM      6  C4  UNL d   1       4.489   5.983  -1.396  0.00  0.00     0.022 A 
ATOM      7  C5  UNL d   1       3.482   5.528  -2.213  0.00  0.00     0.026 A 
ATOM      8  C6  UNL d   1       3.943   5.179  -3.528  0.00  0.00    -0.082 A 
ATOM      9  C7  UNL d   1       3.239   4.679  -4.649  0.00  0.00     0.045 A 
ENDROOT
TORSDOF 0
ENDMDL
