MODEL 1
REMARK minimizedAffinity -2.04112267
REMARK minimizedRMSD -1
REMARK  0 active torsions:
REMARK  status: ('A' for Active; 'I' for Inactive)
ROOT
ATOM      1  C   UNL d   1       1.394   3.201  -4.712  0.00  0.00     0.023 A 
ATOM      2  C1  UNL d   1       2.158   2.203  -4.107  0.00  0.00     0.003 A 
ATOM      3  C2  UNL d   1       1.807   1.723  -2.844  0.00  0.00     0.048 A 
ATOM      4  C3  UNL d   1       0.691   2.244  -2.191  0.00  0.00     0.023 A 
ATOM      5  C4  UNL d   1      -0.077   3.243  -2.793  0.00  0.00     0.048 A 
ATOM      6  C5  UNL d   1       0.278   3.720  -4.056  0.00  0.00     0.003 A 
ATOM      7  I   UNL d   1       0.166   1.531  -0.311  0.00  0.00    -0.146 I 
ENDROOT
TORSDOF 0
ENDMDL
