MODEL 1
REMARK minimizedAffinity -2.87480664
REMARK minimizedRMSD -1
REMARK  0 active torsions:
REMARK  status: ('A' for Active; 'I' for Inactive)
ROOT
ATOM      1  C   UNL d   1       2.865   2.789  -3.647  0.00  0.00     0.023 A 
ATOM      2  C1  UNL d   1       1.510   2.549  -3.878  0.00  0.00     0.003 A 
ATOM      3  C2  UNL d   1       0.678   2.170  -2.823  0.00  0.00     0.048 A 
ATOM      4  C3  UNL d   1       1.206   2.033  -1.540  0.00  0.00     0.023 A 
ATOM      5  C4  UNL d   1       2.561   2.274  -1.304  0.00  0.00     0.048 A 
ATOM      6  C5  UNL d   1       3.390   2.651  -2.362  0.00  0.00     0.003 A 
ATOM      7  I   UNL d   1      -0.031   1.469   0.033  0.00  0.00    -0.146 I 
ENDROOT
TORSDOF 0
ENDMDL
