MODEL 1
REMARK minimizedAffinity -0.820639908
REMARK minimizedRMSD -1
REMARK  0 active torsions:
REMARK  status: ('A' for Active; 'I' for Inactive)
ROOT
ATOM      1  C   UNL d   1      -1.013  -2.289   0.988  0.00  0.00     0.023 A 
ATOM      2  C1  UNL d   1       0.329  -2.078   0.673  0.00  0.00     0.003 A 
ATOM      3  C2  UNL d   1       0.722  -0.899   0.036  0.00  0.00     0.048 A 
ATOM      4  C3  UNL d   1      -0.233   0.065  -0.283  0.00  0.00     0.023 A 
ATOM      5  C4  UNL d   1      -1.577  -0.140   0.031  0.00  0.00     0.048 A 
ATOM      6  C5  UNL d   1      -1.966  -1.321   0.667  0.00  0.00     0.003 A 
ATOM      7  I   UNL d   1       0.349   1.821  -1.231  0.00  0.00    -0.146 I 
ENDROOT
TORSDOF 0
ENDMDL
