MODEL 1
REMARK minimizedAffinity 2.14955091
REMARK minimizedRMSD -1
REMARK  0 active torsions:
REMARK  status: ('A' for Active; 'I' for Inactive)
ROOT
ATOM      1  C   UNL d   1       3.674   3.768   2.168  0.00  0.00     0.023 A 
ATOM      2  C1  UNL d   1       3.598   2.417   1.832  0.00  0.00     0.003 A 
ATOM      3  C2  UNL d   1       3.659   2.024   0.493  0.00  0.00     0.048 A 
ATOM      4  C3  UNL d   1       3.797   2.988  -0.505  0.00  0.00     0.023 A 
ATOM      5  C4  UNL d   1       3.874   4.342  -0.173  0.00  0.00     0.048 A 
ATOM      6  C5  UNL d   1       3.812   4.730   1.166  0.00  0.00     0.003 A 
ATOM      7  I   UNL d   1       3.887   2.406  -2.498  0.00  0.00    -0.146 I 
ENDROOT
TORSDOF 0
ENDMDL
