MODEL 1
REMARK minimizedAffinity 3.65844727
REMARK minimizedRMSD -1
REMARK  0 active torsions:
REMARK  status: ('A' for Active; 'I' for Inactive)
ROOT
ATOM      1  C   UNL d   1      -2.231  -0.595   1.063  0.00  0.00     0.023 A 
ATOM      2  C1  UNL d   1      -2.101  -1.498   0.008  0.00  0.00     0.003 A 
ATOM      3  C2  UNL d   1      -1.348  -1.156  -1.117  0.00  0.00     0.048 A 
ATOM      4  C3  UNL d   1      -0.727   0.091  -1.181  0.00  0.00     0.023 A 
ATOM      5  C4  UNL d   1      -0.853   0.997  -0.127  0.00  0.00     0.048 A 
ATOM      6  C5  UNL d   1      -1.608   0.651   0.995  0.00  0.00     0.003 A 
ATOM      7  I   UNL d   1       0.395   0.602  -2.854  0.00  0.00    -0.146 I 
ENDROOT
TORSDOF 0
ENDMDL
