MODEL 1
REMARK minimizedAffinity -2.39227128
REMARK minimizedRMSD -1
REMARK  0 active torsions:
REMARK  status: ('A' for Active; 'I' for Inactive)
ROOT
ATOM      1  C   UNL d   1       0.058   1.758  -0.066  0.00  0.00     0.023 A 
ATOM      2  C1  UNL d   1       0.842   0.615  -0.228  0.00  0.00     0.003 A 
ATOM      3  C2  UNL d   1       0.330  -0.639   0.109  0.00  0.00     0.048 A 
ATOM      4  C3  UNL d   1      -0.969  -0.744   0.606  0.00  0.00     0.023 A 
ATOM      5  C4  UNL d   1      -1.758   0.396   0.769  0.00  0.00     0.048 A 
ATOM      6  C5  UNL d   1      -1.241   1.648   0.432  0.00  0.00     0.003 A 
ATOM      7  I   UNL d   1      -1.734  -2.610   1.108  0.00  0.00    -0.146 I 
ENDROOT
TORSDOF 0
ENDMDL
