MODEL 1
REMARK minimizedAffinity -2.59574938
REMARK minimizedRMSD -1
REMARK  0 active torsions:
REMARK  status: ('A' for Active; 'I' for Inactive)
ROOT
ATOM      1  C   UNL d   1       0.289  -3.090   0.501  0.00  0.00     0.023 A 
ATOM      2  C1  UNL d   1      -1.097  -2.934   0.531  0.00  0.00     0.003 A 
ATOM      3  C2  UNL d   1      -1.657  -1.655   0.574  0.00  0.00     0.048 A 
ATOM      4  C3  UNL d   1      -0.824  -0.537   0.586  0.00  0.00     0.023 A 
ATOM      5  C4  UNL d   1       0.563  -0.687   0.555  0.00  0.00     0.048 A 
ATOM      6  C5  UNL d   1       1.118  -1.968   0.513  0.00  0.00     0.003 A 
ATOM      7  I   UNL d   1      -1.655   1.368   0.649  0.00  0.00    -0.146 I 
ENDROOT
TORSDOF 0
ENDMDL
