MODEL 1
REMARK minimizedAffinity -1.20605385
REMARK minimizedRMSD -1
REMARK  0 active torsions:
REMARK  status: ('A' for Active; 'I' for Inactive)
ROOT
ATOM      1  C   UNL d   1      -0.509  -0.566  -0.011  0.00  0.00     0.023 A 
ATOM      2  C1  UNL d   1      -0.695   0.803  -0.201  0.00  0.00     0.003 A 
ATOM      3  C2  UNL d   1       0.130   1.507  -1.081  0.00  0.00     0.048 A 
ATOM      4  C3  UNL d   1       1.139   0.834  -1.769  0.00  0.00     0.023 A 
ATOM      5  C4  UNL d   1       1.329  -0.536  -1.583  0.00  0.00     0.048 A 
ATOM      6  C5  UNL d   1       0.502  -1.235  -0.702  0.00  0.00     0.003 A 
ATOM      7  I   UNL d   1       2.369   1.878  -3.079  0.00  0.00    -0.146 I 
ENDROOT
TORSDOF 0
ENDMDL
