MODEL 1
REMARK minimizedAffinity -3.20209074
REMARK minimizedRMSD -1
REMARK  0 active torsions:
REMARK  status: ('A' for Active; 'I' for Inactive)
ROOT
ATOM      1  C   UNL d   1      -1.225  -2.930   1.230  0.00  0.00     0.023 A 
ATOM      2  C1  UNL d   1       0.076  -2.554   1.566  0.00  0.00     0.003 A 
ATOM      3  C2  UNL d   1       0.579  -1.322   1.144  0.00  0.00     0.048 A 
ATOM      4  C3  UNL d   1      -0.224  -0.469   0.388  0.00  0.00     0.023 A 
ATOM      5  C4  UNL d   1      -1.526  -0.840   0.050  0.00  0.00     0.048 A 
ATOM      6  C5  UNL d   1      -2.025  -2.074   0.473  0.00  0.00     0.003 A 
ATOM      7  I   UNL d   1       0.523   1.366  -0.240  0.00  0.00    -0.146 I 
ENDROOT
TORSDOF 0
ENDMDL
