MODEL 1
REMARK minimizedAffinity -1.58012223
REMARK minimizedRMSD -1
REMARK  0 active torsions:
REMARK  status: ('A' for Active; 'I' for Inactive)
ROOT
ATOM      1  C   UNL d   1      -0.620  -0.569  -0.318  0.00  0.00     0.023 A 
ATOM      2  C1  UNL d   1      -0.151   0.741  -0.422  0.00  0.00     0.003 A 
ATOM      3  C2  UNL d   1       1.085   1.087   0.129  0.00  0.00     0.048 A 
ATOM      4  C3  UNL d   1       1.846   0.118   0.781  0.00  0.00     0.023 A 
ATOM      5  C4  UNL d   1       1.381  -1.194   0.886  0.00  0.00     0.048 A 
ATOM      6  C5  UNL d   1       0.145  -1.535   0.335  0.00  0.00     0.003 A 
ATOM      7  I   UNL d   1       3.686   0.630   1.602  0.00  0.00    -0.146 I 
ENDROOT
TORSDOF 0
ENDMDL
