MODEL 1
REMARK minimizedAffinity -4.63350248
REMARK minimizedRMSD -1
REMARK  0 active torsions:
REMARK  status: ('A' for Active; 'I' for Inactive)
ROOT
ATOM      1  C   UNL d   1      -1.287  -1.783   0.533  0.00  0.00     0.023 A 
ATOM      2  C1  UNL d   1      -0.257  -2.520   1.118  0.00  0.00     0.003 A 
ATOM      3  C2  UNL d   1       0.966  -1.909   1.403  0.00  0.00     0.048 A 
ATOM      4  C3  UNL d   1       1.152  -0.561   1.101  0.00  0.00     0.023 A 
ATOM      5  C4  UNL d   1       0.124   0.181   0.516  0.00  0.00     0.048 A 
ATOM      6  C5  UNL d   1      -1.096  -0.434   0.232  0.00  0.00     0.003 A 
ATOM      7  I   UNL d   1       2.971   0.351   1.525  0.00  0.00    -0.146 I 
ENDROOT
TORSDOF 0
ENDMDL
