MODEL 1
REMARK minimizedAffinity -0.219677836
REMARK minimizedRMSD -1
REMARK  1 active torsions:
REMARK  status: ('A' for Active; 'I' for Inactive)
REMARK    1  A    between atoms: C1_2  and  C2_3 
ROOT
ATOM      1  C2  UNL d   1       2.498   5.301   5.498  0.00  0.00    -0.073 A 
ATOM      2  C3  UNL d   1       3.602   6.000   6.000  0.00  0.00    -0.002 A 
ATOM      3  C4  UNL d   1       4.896   5.531   5.772  0.00  0.00     0.004 A 
ATOM      4  C5  UNL d   1       5.100   4.364   5.035  0.00  0.00    -0.004 A 
ATOM      5  C6  UNL d   1       4.010   3.658   4.515  0.00  0.00    -0.075 A 
ATOM      6  C7  UNL d   1       4.213   2.401   3.722  0.00  0.00     0.076 C 
ATOM      7  C8  UNL d   1       2.714   4.134   4.751  0.00  0.00     0.001 A 
ENDROOT
BRANCH   1   8
ATOM      8  C1  UNL d   1       1.099   5.807   5.736  0.00  0.00     0.053 C 
ATOM      9  C   UNL d   1       0.320   5.963   4.440  0.00  0.00     0.018 C 
ENDBRANCH   1   8
TORSDOF 1
ENDMDL
