MODEL 1
REMARK minimizedAffinity -4.42205286
REMARK minimizedRMSD -1
REMARK  1 active torsions:
REMARK  status: ('A' for Active; 'I' for Inactive)
REMARK    1  A    between atoms: C1_2  and  C2_3 
ROOT
ATOM      1  C2  UNL d   1       2.678   5.208   4.306  0.00  0.00    -0.073 A 
ATOM      2  C3  UNL d   1       2.702   3.808   4.303  0.00  0.00    -0.002 A 
ATOM      3  C4  UNL d   1       3.784   3.123   3.750  0.00  0.00     0.004 A 
ATOM      4  C5  UNL d   1       4.856   3.828   3.202  0.00  0.00    -0.004 A 
ATOM      5  C6  UNL d   1       4.856   5.226   3.207  0.00  0.00    -0.075 A 
ATOM      6  C7  UNL d   1       6.000   5.999   2.619  0.00  0.00     0.076 C 
ATOM      7  C8  UNL d   1       3.764   5.908   3.761  0.00  0.00     0.001 A 
ENDROOT
BRANCH   1   8
ATOM      8  C1  UNL d   1       1.514   5.952   4.907  0.00  0.00     0.053 C 
ATOM      9  C   UNL d   1       0.309   5.970   3.981  0.00  0.00     0.018 C 
ENDBRANCH   1   8
TORSDOF 1
ENDMDL
