MODEL 1
REMARK minimizedAffinity 1.96168256
REMARK minimizedRMSD -1
REMARK  1 active torsions:
REMARK  status: ('A' for Active; 'I' for Inactive)
REMARK    1  A    between atoms: C1_2  and  C2_3 
ROOT
ATOM      1  C2  UNL d   1       4.483   2.413   0.881  0.00  0.00    -0.073 A 
ATOM      2  C3  UNL d   1       4.920   2.765  -0.401  0.00  0.00    -0.002 A 
ATOM      3  C4  UNL d   1       4.561   1.991  -1.505  0.00  0.00     0.004 A 
ATOM      4  C5  UNL d   1       3.756   0.864  -1.340  0.00  0.00    -0.004 A 
ATOM      5  C6  UNL d   1       3.300   0.503  -0.069  0.00  0.00    -0.075 A 
ATOM      6  C7  UNL d   1       2.436  -0.709   0.126  0.00  0.00     0.076 C 
ATOM      7  C8  UNL d   1       3.667   1.283   1.036  0.00  0.00     0.001 A 
ENDROOT
BRANCH   1   8
ATOM      8  C1  UNL d   1       4.863   3.249   2.076  0.00  0.00     0.053 C 
ATOM      9  C   UNL d   1       3.860   3.113   3.210  0.00  0.00     0.018 C 
ENDBRANCH   1   8
TORSDOF 1
ENDMDL
