MODEL 1
REMARK minimizedAffinity 1.40385985
REMARK minimizedRMSD -1
REMARK  1 active torsions:
REMARK  status: ('A' for Active; 'I' for Inactive)
REMARK    1  A    between atoms: C1_2  and  C2_3 
ROOT
ATOM      1  C2  UNL d   1       0.655   3.794   2.243  0.00  0.00    -0.073 A 
ATOM      2  C3  UNL d   1       0.454   5.178   2.316  0.00  0.00    -0.002 A 
ATOM      3  C4  UNL d   1       1.421   6.000   2.897  0.00  0.00     0.004 A 
ATOM      4  C5  UNL d   1       2.598   5.450   3.403  0.00  0.00    -0.004 A 
ATOM      5  C6  UNL d   1       2.822   4.071   3.329  0.00  0.00    -0.075 A 
ATOM      6  C7  UNL d   1       4.082   3.464   3.871  0.00  0.00     0.076 C 
ATOM      7  C8  UNL d   1       1.845   3.252   2.746  0.00  0.00     0.001 A 
ENDROOT
BRANCH   1   8
ATOM      8  C1  UNL d   1      -0.383   2.903   1.611  0.00  0.00     0.053 C 
ATOM      9  C   UNL d   1      -0.042   1.430   1.768  0.00  0.00     0.018 C 
ENDBRANCH   1   8
TORSDOF 1
ENDMDL
