MODEL 1
REMARK minimizedAffinity 11.9165001
REMARK minimizedRMSD -1
REMARK  1 active torsions:
REMARK  status: ('A' for Active; 'I' for Inactive)
REMARK    1  A    between atoms: C1_2  and  C2_3 
ROOT
ATOM      1  C2  UNL d   1       1.860   1.040  -0.110  0.00  0.00    -0.073 A 
ATOM      2  C3  UNL d   1       0.791   1.787  -0.619  0.00  0.00    -0.002 A 
ATOM      3  C4  UNL d   1      -0.438   1.800   0.041  0.00  0.00     0.004 A 
ATOM      4  C5  UNL d   1      -0.609   1.073   1.219  0.00  0.00    -0.004 A 
ATOM      5  C6  UNL d   1       0.450   0.330   1.751  0.00  0.00    -0.075 A 
ATOM      6  C7  UNL d   1       0.281  -0.458   3.016  0.00  0.00     0.076 C 
ATOM      7  C8  UNL d   1       1.680   0.320   1.080  0.00  0.00     0.001 A 
ENDROOT
BRANCH   1   8
ATOM      8  C1  UNL d   1       3.191   1.028  -0.816  0.00  0.00     0.053 C 
ATOM      9  C   UNL d   1       3.617  -0.378  -1.205  0.00  0.00     0.018 C 
ENDBRANCH   1   8
TORSDOF 1
ENDMDL
