MODEL 1
REMARK minimizedAffinity 2.59766936
REMARK minimizedRMSD -1
REMARK  1 active torsions:
REMARK  status: ('A' for Active; 'I' for Inactive)
REMARK    1  A    between atoms: C1_2  and  C2_3 
ROOT
ATOM      1  C2  UNL d   1       1.695   5.986   3.657  0.00  0.00    -0.073 A 
ATOM      2  C3  UNL d   1       1.964   5.956   5.030  0.00  0.00    -0.002 A 
ATOM      3  C4  UNL d   1       0.918   5.943   5.953  0.00  0.00     0.004 A 
ATOM      4  C5  UNL d   1      -0.406   5.953   5.514  0.00  0.00    -0.004 A 
ATOM      5  C6  UNL d   1      -0.695   5.971   4.146  0.00  0.00    -0.075 A 
ATOM      6  C7  UNL d   1      -2.114   5.984   3.657  0.00  0.00     0.076 C 
ATOM      7  C8  UNL d   1       0.361   5.986   3.225  0.00  0.00     0.001 A 
ENDROOT
BRANCH   1   8
ATOM      8  C1  UNL d   1       2.821   5.993   2.656  0.00  0.00     0.053 C 
ATOM      9  C   UNL d   1       4.184   6.000   3.331  0.00  0.00     0.018 C 
ENDBRANCH   1   8
TORSDOF 1
ENDMDL
