MODEL 1
REMARK minimizedAffinity 3.84601116
REMARK minimizedRMSD -1
REMARK  1 active torsions:
REMARK  status: ('A' for Active; 'I' for Inactive)
REMARK    1  A    between atoms: C1_2  and  C2_3 
ROOT
ATOM      1  C2  UNL d   1       3.993   0.819  -1.358  0.00  0.00    -0.073 A 
ATOM      2  C3  UNL d   1       3.155   1.659  -0.618  0.00  0.00    -0.002 A 
ATOM      3  C4  UNL d   1       2.205   1.119   0.251  0.00  0.00     0.004 A 
ATOM      4  C5  UNL d   1       2.088  -0.263   0.392  0.00  0.00    -0.004 A 
ATOM      5  C6  UNL d   1       2.925  -1.119  -0.331  0.00  0.00    -0.075 A 
ATOM      6  C7  UNL d   1       2.811  -2.609  -0.192  0.00  0.00     0.076 C 
ATOM      7  C8  UNL d   1       3.875  -0.570  -1.203  0.00  0.00     0.001 A 
ENDROOT
BRANCH   1   8
ATOM      8  C1  UNL d   1       5.025   1.397  -2.292  0.00  0.00     0.053 C 
ATOM      9  C   UNL d   1       5.428   2.807  -1.893  0.00  0.00     0.018 C 
ENDBRANCH   1   8
TORSDOF 1
ENDMDL
