MODEL 1
REMARK minimizedAffinity 4.12603474
REMARK minimizedRMSD -1
REMARK  1 active torsions:
REMARK  status: ('A' for Active; 'I' for Inactive)
REMARK    1  A    between atoms: C1_2  and  C2_3 
ROOT
ATOM      1  C2  UNL d   1       2.130  -1.936  -0.104  0.00  0.00    -0.073 A 
ATOM      2  C3  UNL d   1       1.366  -1.438   0.958  0.00  0.00    -0.002 A 
ATOM      3  C4  UNL d   1       1.514  -0.114   1.373  0.00  0.00     0.004 A 
ATOM      4  C5  UNL d   1       2.421   0.726   0.729  0.00  0.00    -0.004 A 
ATOM      5  C6  UNL d   1       3.186   0.251  -0.342  0.00  0.00    -0.075 A 
ATOM      6  C7  UNL d   1       4.168   1.142  -1.044  0.00  0.00     0.076 C 
ATOM      7  C8  UNL d   1       3.033  -1.080  -0.751  0.00  0.00     0.001 A 
ENDROOT
BRANCH   1   8
ATOM      8  C1  UNL d   1       1.969  -3.363  -0.560  0.00  0.00     0.053 C 
ATOM      9  C   UNL d   1       0.601  -3.924  -0.205  0.00  0.00     0.018 C 
ENDBRANCH   1   8
TORSDOF 1
ENDMDL
