MODEL 1
REMARK minimizedAffinity -1.09260368
REMARK minimizedRMSD -1
REMARK  0 active torsions:
REMARK  status: ('A' for Active; 'I' for Inactive)
ROOT
ATOM      1  C1  DEN d   1       0.880  -4.096  -2.838  0.00  0.00     0.130 A 
ATOM      2  C2  DEN d   1       1.482  -4.631  -1.620  0.00  0.00    -0.031 A 
ATOM      3  C3  DEN d   1       2.949  -4.595  -1.781  0.00  0.00     0.027 A 
ATOM      4  C4  DEN d   1       4.341  -3.762  -3.787  0.00  0.00     0.027 A 
ATOM      5  C5  DEN d   1       4.275  -3.230  -5.055  0.00  0.00    -0.003 A 
ATOM      6  C6  DEN d   1       3.082  -2.983  -5.682  0.00  0.00     0.001 A 
ATOM      7  C7  DEN d   1       1.906  -3.226  -5.023  0.00  0.00     0.017 A 
ATOM      8  C8  DEN d   1       1.965  -3.770  -3.747  0.00  0.00    -0.094 A 
ATOM      9  C9  DEN d   1       3.180  -4.001  -3.125  0.00  0.00    -0.072 A 
ENDROOT
TORSDOF 0
ENDMDL
