MODEL 1
REMARK minimizedAffinity 8.59292793
REMARK minimizedRMSD -1
REMARK  0 active torsions:
REMARK  status: ('A' for Active; 'I' for Inactive)
ROOT
ATOM      1  C1  DEN d   1      -5.994  -4.191  -5.844  0.00  0.00     0.130 A 
ATOM      2  C2  DEN d   1      -5.988  -5.109  -4.708  0.00  0.00    -0.031 A 
ATOM      3  C3  DEN d   1      -5.843  -4.309  -3.475  0.00  0.00     0.027 A 
ATOM      4  C4  DEN d   1      -5.633  -1.751  -3.216  0.00  0.00     0.027 A 
ATOM      5  C5  DEN d   1      -5.576  -0.555  -3.897  0.00  0.00    -0.003 A 
ATOM      6  C6  DEN d   1      -5.619  -0.490  -5.265  0.00  0.00     0.001 A 
ATOM      7  C7  DEN d   1      -5.768  -1.640  -5.994  0.00  0.00     0.017 A 
ATOM      8  C8  DEN d   1      -5.819  -2.850  -5.315  0.00  0.00    -0.094 A 
ATOM      9  C9  DEN d   1      -5.787  -2.894  -3.932  0.00  0.00    -0.072 A 
ENDROOT
TORSDOF 0
ENDMDL
