MODEL 1
REMARK minimizedAffinity -3.46486402
REMARK minimizedRMSD -1
REMARK  0 active torsions:
REMARK  status: ('A' for Active; 'I' for Inactive)
ROOT
ATOM      1  C   UNL d   1       1.664  -2.627  -5.251  0.00  0.00     0.078 C 
ATOM      2  C1  UNL d   1       3.143  -2.849  -5.358  0.00  0.00    -0.077 A 
ATOM      3  C2  UNL d   1       3.658  -4.025  -5.916  0.00  0.00    -0.001 A 
ATOM      4  C3  UNL d   1       5.037  -4.222  -6.000  0.00  0.00     0.003 A 
ATOM      5  C4  UNL d   1       5.913  -3.247  -5.526  0.00  0.00    -0.005 A 
ATOM      6  C5  UNL d   1       5.410  -2.074  -4.967  0.00  0.00     0.003 A 
ATOM      7  C6  UNL d   1       4.031  -1.876  -4.882  0.00  0.00    -0.001 A 
ENDROOT
TORSDOF 0
ENDMDL
