MODEL 1
REMARK minimizedAffinity 5.32298565
REMARK minimizedRMSD -1
REMARK  0 active torsions:
REMARK  status: ('A' for Active; 'I' for Inactive)
ROOT
ATOM      1  C   UNL d   1       5.194  -5.995  -5.963  0.00  0.00     0.078 C 
ATOM      2  C1  UNL d   1       4.932  -4.521  -5.892  0.00  0.00    -0.077 A 
ATOM      3  C2  UNL d   1       3.631  -4.014  -5.999  0.00  0.00    -0.001 A 
ATOM      4  C3  UNL d   1       3.402  -2.638  -5.940  0.00  0.00     0.003 A 
ATOM      5  C4  UNL d   1       4.470  -1.758  -5.776  0.00  0.00    -0.005 A 
ATOM      6  C5  UNL d   1       5.768  -2.253  -5.671  0.00  0.00     0.003 A 
ATOM      7  C6  UNL d   1       5.999  -3.628  -5.729  0.00  0.00    -0.001 A 
ENDROOT
TORSDOF 0
ENDMDL
