MODEL 1
REMARK minimizedAffinity 1.92924321
REMARK minimizedRMSD -1
REMARK  0 active torsions:
REMARK  status: ('A' for Active; 'I' for Inactive)
ROOT
ATOM      1  C   UNL d   1       5.986   0.584  -5.753  0.00  0.00     0.078 C 
ATOM      2  C1  UNL d   1       5.797  -0.791  -5.187  0.00  0.00    -0.077 A 
ATOM      3  C2  UNL d   1       5.431  -0.976  -3.849  0.00  0.00    -0.001 A 
ATOM      4  C3  UNL d   1       5.267  -2.263  -3.333  0.00  0.00     0.003 A 
ATOM      5  C4  UNL d   1       5.469  -3.375  -4.149  0.00  0.00    -0.005 A 
ATOM      6  C5  UNL d   1       5.836  -3.201  -5.481  0.00  0.00     0.003 A 
ATOM      7  C6  UNL d   1       6.000  -1.915  -5.999  0.00  0.00    -0.001 A 
ENDROOT
TORSDOF 0
ENDMDL
