MODEL 1
REMARK minimizedAffinity -1.25572252
REMARK minimizedRMSD -1
REMARK  0 active torsions:
REMARK  status: ('A' for Active; 'I' for Inactive)
ROOT
ATOM      1  C   UNL d   1      -2.703   1.135  -3.592  0.00  0.00     0.078 C 
ATOM      2  C1  UNL d   1      -3.822   2.095  -3.316  0.00  0.00    -0.077 A 
ATOM      3  C2  UNL d   1      -3.836   3.370  -3.893  0.00  0.00    -0.001 A 
ATOM      4  C3  UNL d   1      -4.879   4.257  -3.620  0.00  0.00     0.003 A 
ATOM      5  C4  UNL d   1      -5.915   3.878  -2.768  0.00  0.00    -0.005 A 
ATOM      6  C5  UNL d   1      -5.908   2.611  -2.188  0.00  0.00     0.003 A 
ATOM      7  C6  UNL d   1      -4.866   1.723  -2.460  0.00  0.00    -0.001 A 
ENDROOT
TORSDOF 0
ENDMDL
