MODEL 1
REMARK minimizedAffinity -0.124568276
REMARK minimizedRMSD -1
REMARK  0 active torsions:
REMARK  status: ('A' for Active; 'I' for Inactive)
ROOT
ATOM      1  C   UNL d   1       1.462  -2.166  -5.399  0.00  0.00     0.078 C 
ATOM      2  C1  UNL d   1       2.789  -2.831  -5.615  0.00  0.00    -0.077 A 
ATOM      3  C2  UNL d   1       2.879  -4.215  -5.808  0.00  0.00    -0.001 A 
ATOM      4  C3  UNL d   1       4.121  -4.822  -5.999  0.00  0.00     0.003 A 
ATOM      5  C4  UNL d   1       5.283  -4.053  -5.998  0.00  0.00    -0.005 A 
ATOM      6  C5  UNL d   1       5.204  -2.675  -5.804  0.00  0.00     0.003 A 
ATOM      7  C6  UNL d   1       3.962  -2.067  -5.613  0.00  0.00    -0.001 A 
ENDROOT
TORSDOF 0
ENDMDL
