MODEL 1
REMARK minimizedAffinity 6.32972002
REMARK minimizedRMSD -1
REMARK  0 active torsions:
REMARK  status: ('A' for Active; 'I' for Inactive)
ROOT
ATOM      1  C   UNL d   1      -4.500   3.299  -3.109  0.00  0.00     0.078 C 
ATOM      2  C1  UNL d   1      -3.455   2.232  -2.972  0.00  0.00    -0.077 A 
ATOM      3  C2  UNL d   1      -2.162   2.541  -2.531  0.00  0.00    -0.001 A 
ATOM      4  C3  UNL d   1      -1.197   1.540  -2.417  0.00  0.00     0.003 A 
ATOM      5  C4  UNL d   1      -1.513   0.223  -2.745  0.00  0.00    -0.005 A 
ATOM      6  C5  UNL d   1      -2.796  -0.094  -3.187  0.00  0.00     0.003 A 
ATOM      7  C6  UNL d   1      -3.763   0.906  -3.301  0.00  0.00    -0.001 A 
ENDROOT
TORSDOF 0
ENDMDL
