MODEL 1
REMARK minimizedAffinity 3.27644181
REMARK minimizedRMSD -1
REMARK  0 active torsions:
REMARK  status: ('A' for Active; 'I' for Inactive)
ROOT
ATOM      1  C   UNL d   1       4.459  -5.944  -4.385  0.00  0.00     0.078 C 
ATOM      2  C1  UNL d   1       4.846  -4.521  -4.658  0.00  0.00    -0.077 A 
ATOM      3  C2  UNL d   1       5.639  -4.189  -5.763  0.00  0.00    -0.001 A 
ATOM      4  C3  UNL d   1       5.999  -2.861  -5.999  0.00  0.00     0.003 A 
ATOM      5  C4  UNL d   1       5.572  -1.856  -5.134  0.00  0.00    -0.005 A 
ATOM      6  C5  UNL d   1       4.785  -2.177  -4.031  0.00  0.00     0.003 A 
ATOM      7  C6  UNL d   1       4.423  -3.504  -3.793  0.00  0.00    -0.001 A 
ENDROOT
TORSDOF 0
ENDMDL
