MODEL 1
REMARK minimizedAffinity 1.01055002
REMARK minimizedRMSD -1
REMARK  0 active torsions:
REMARK  status: ('A' for Active; 'I' for Inactive)
ROOT
ATOM      1  C   UNL d   1      -5.006   4.199  -3.059  0.00  0.00     0.078 C 
ATOM      2  C1  UNL d   1      -4.121   2.996  -2.917  0.00  0.00    -0.077 A 
ATOM      3  C2  UNL d   1      -3.528   2.679  -1.690  0.00  0.00    -0.001 A 
ATOM      4  C3  UNL d   1      -2.699   1.562  -1.574  0.00  0.00     0.003 A 
ATOM      5  C4  UNL d   1      -2.455   0.754  -2.683  0.00  0.00    -0.005 A 
ATOM      6  C5  UNL d   1      -3.039   1.064  -3.910  0.00  0.00     0.003 A 
ATOM      7  C6  UNL d   1      -3.868   2.180  -4.027  0.00  0.00    -0.001 A 
ENDROOT
TORSDOF 0
ENDMDL
