MODEL 1
REMARK minimizedAffinity 0.260167241
REMARK minimizedRMSD -1
REMARK  0 active torsions:
REMARK  status: ('A' for Active; 'I' for Inactive)
ROOT
ATOM      1  C   UNL d   1       2.753  -2.742  -4.209  0.00  0.00     0.078 C 
ATOM      2  C1  UNL d   1       3.784  -3.748  -4.626  0.00  0.00    -0.077 A 
ATOM      3  C2  UNL d   1       4.762  -3.426  -5.575  0.00  0.00    -0.001 A 
ATOM      4  C3  UNL d   1       5.710  -4.376  -5.961  0.00  0.00     0.003 A 
ATOM      5  C4  UNL d   1       5.687  -5.653  -5.404  0.00  0.00    -0.005 A 
ATOM      6  C5  UNL d   1       4.716  -5.983  -4.461  0.00  0.00     0.003 A 
ATOM      7  C6  UNL d   1       3.768  -5.034  -4.074  0.00  0.00    -0.001 A 
ENDROOT
TORSDOF 0
ENDMDL
