MODEL 1
REMARK minimizedAffinity 8.63560009
REMARK minimizedRMSD -1
REMARK  0 active torsions:
REMARK  status: ('A' for Active; 'I' for Inactive)
ROOT
ATOM      1  C   UNL d   1      -1.450   0.431  -2.962  0.00  0.00     0.078 C 
ATOM      2  C1  UNL d   1      -2.289   1.672  -3.029  0.00  0.00    -0.077 A 
ATOM      3  C2  UNL d   1      -3.038   2.097  -1.925  0.00  0.00    -0.001 A 
ATOM      4  C3  UNL d   1      -3.822   3.248  -2.005  0.00  0.00     0.003 A 
ATOM      5  C4  UNL d   1      -3.865   3.985  -3.187  0.00  0.00    -0.005 A 
ATOM      6  C5  UNL d   1      -3.125   3.570  -4.291  0.00  0.00     0.003 A 
ATOM      7  C6  UNL d   1      -2.340   2.418  -4.214  0.00  0.00    -0.001 A 
ENDROOT
TORSDOF 0
ENDMDL
