MODEL 1
REMARK minimizedAffinity 10.6295691
REMARK minimizedRMSD -1
REMARK  0 active torsions:
REMARK  status: ('A' for Active; 'I' for Inactive)
ROOT
ATOM      1  C   UNL d   1      -4.386   3.676  -3.082  0.00  0.00     0.078 C 
ATOM      2  C1  UNL d   1      -3.525   2.510  -2.700  0.00  0.00    -0.077 A 
ATOM      3  C2  UNL d   1      -2.646   2.588  -1.613  0.00  0.00    -0.001 A 
ATOM      4  C3  UNL d   1      -1.843   1.497  -1.274  0.00  0.00     0.003 A 
ATOM      5  C4  UNL d   1      -1.910   0.321  -2.019  0.00  0.00    -0.005 A 
ATOM      6  C5  UNL d   1      -2.781   0.235  -3.104  0.00  0.00     0.003 A 
ATOM      7  C6  UNL d   1      -3.584   1.324  -3.443  0.00  0.00    -0.001 A 
ENDROOT
TORSDOF 0
ENDMDL
