MODEL 1
REMARK minimizedAffinity 4.79158258
REMARK minimizedRMSD -1
REMARK  0 active torsions:
REMARK  status: ('A' for Active; 'I' for Inactive)
ROOT
ATOM      1  C   UNL d   1      -2.324   0.292  -2.912  0.00  0.00     0.078 C 
ATOM      2  C1  UNL d   1      -3.150   1.544  -2.921  0.00  0.00    -0.077 A 
ATOM      3  C2  UNL d   1      -3.922   1.906  -1.811  0.00  0.00    -0.001 A 
ATOM      4  C3  UNL d   1      -4.694   3.069  -1.837  0.00  0.00     0.003 A 
ATOM      5  C4  UNL d   1      -4.702   3.878  -2.972  0.00  0.00    -0.005 A 
ATOM      6  C5  UNL d   1      -3.939   3.524  -4.082  0.00  0.00     0.003 A 
ATOM      7  C6  UNL d   1      -3.167   2.362  -4.058  0.00  0.00    -0.001 A 
ENDROOT
TORSDOF 0
ENDMDL
