MODEL 1
REMARK minimizedAffinity 0.868319154
REMARK minimizedRMSD -1
REMARK  0 active torsions:
REMARK  status: ('A' for Active; 'I' for Inactive)
ROOT
ATOM      1  C   UNL d   1       2.772  -2.615  -4.447  0.00  0.00     0.078 C 
ATOM      2  C1  UNL d   1       3.742  -3.681  -4.861  0.00  0.00    -0.077 A 
ATOM      3  C2  UNL d   1       3.544  -5.018  -4.493  0.00  0.00    -0.001 A 
ATOM      4  C3  UNL d   1       4.460  -5.998  -4.877  0.00  0.00     0.003 A 
ATOM      5  C4  UNL d   1       5.580  -5.653  -5.630  0.00  0.00    -0.005 A 
ATOM      6  C5  UNL d   1       5.786  -4.325  -6.000  0.00  0.00     0.003 A 
ATOM      7  C6  UNL d   1       4.872  -3.343  -5.616  0.00  0.00    -0.001 A 
ENDROOT
TORSDOF 0
ENDMDL
