MODEL 1
REMARK minimizedAffinity 6.72445631
REMARK minimizedRMSD -1
REMARK  3 active torsions:
REMARK  status: ('A' for Active; 'I' for Inactive)
REMARK    1  A    between atoms: C3'_2  and  C2'_3 
REMARK    2  A    between atoms: C2'_3  and  C1'_4 
REMARK    3  A    between atoms: C1'_4  and  C1_5 
ROOT
ATOM      1  C1  N4B d   1      -1.660   4.526  -1.713  0.00  0.00    -0.075 A 
ATOM      2  C2  N4B d   1      -1.181   3.452  -0.932  0.00  0.00     0.002 A 
ATOM      3  C3  N4B d   1       0.081   3.504  -0.394  0.00  0.00     0.002 A 
ATOM      4  C4  N4B d   1       0.886   4.608  -0.637  0.00  0.00    -0.004 A 
ATOM      5  C5  N4B d   1       0.405   5.652  -1.371  0.00  0.00     0.002 A 
ATOM      6  C6  N4B d   1      -0.863   5.615  -1.916  0.00  0.00     0.002 A 
ENDROOT
BRANCH   1   7
ATOM      7  C1' N4B d   1      -3.001   4.477  -2.394  0.00  0.00     0.057 C 
BRANCH   7   8
ATOM      8  C2' N4B d   1      -3.370   3.022  -2.669  0.00  0.00     0.009 C 
BRANCH   8   9
ATOM      9  C3' N4B d   1      -4.795   2.708  -2.247  0.00  0.00     0.004 C 
ATOM     10  C4' N4B d   1      -4.946   1.320  -1.699  0.00  0.00     0.003 C 
ENDBRANCH   8   9
ENDBRANCH   7   8
ENDBRANCH   1   7
TORSDOF 3
ENDMDL
