MODEL 1
REMARK minimizedAffinity 9.28968334
REMARK minimizedRMSD -1
REMARK  3 active torsions:
REMARK  status: ('A' for Active; 'I' for Inactive)
REMARK    1  A    between atoms: C3'_2  and  C2'_3 
REMARK    2  A    between atoms: C2'_3  and  C1'_4 
REMARK    3  A    between atoms: C1'_4  and  C1_5 
ROOT
ATOM      1  C1  N4B d   1      -2.144   5.274  -1.257  0.00  0.00    -0.075 A 
ATOM      2  C2  N4B d   1      -2.048   5.668   0.096  0.00  0.00     0.002 A 
ATOM      3  C3  N4B d   1      -3.182   5.996   0.797  0.00  0.00     0.002 A 
ATOM      4  C4  N4B d   1      -4.416   5.956   0.165  0.00  0.00    -0.004 A 
ATOM      5  C5  N4B d   1      -4.503   5.549  -1.135  0.00  0.00     0.002 A 
ATOM      6  C6  N4B d   1      -3.372   5.213  -1.851  0.00  0.00     0.002 A 
ENDROOT
BRANCH   1   7
ATOM      7  C1' N4B d   1      -0.924   4.988  -2.089  0.00  0.00     0.057 C 
BRANCH   7   8
ATOM      8  C2' N4B d   1       0.002   4.053  -1.317  0.00  0.00     0.009 C 
BRANCH   8   9
ATOM      9  C3' N4B d   1      -0.666   2.727  -0.999  0.00  0.00     0.004 C 
ATOM     10  C4' N4B d   1      -0.447   2.290   0.418  0.00  0.00     0.003 C 
ENDBRANCH   8   9
ENDBRANCH   7   8
ENDBRANCH   1   7
TORSDOF 3
ENDMDL
