MODEL 1
REMARK minimizedAffinity 6.41972876
REMARK minimizedRMSD -1
REMARK  3 active torsions:
REMARK  status: ('A' for Active; 'I' for Inactive)
REMARK    1  A    between atoms: C3'_2  and  C2'_3 
REMARK    2  A    between atoms: C2'_3  and  C1'_4 
REMARK    3  A    between atoms: C1'_4  and  C1_5 
ROOT
ATOM      1  C1  N4B d   1      -1.218   4.727  -1.894  0.00  0.00    -0.075 A 
ATOM      2  C2  N4B d   1      -0.885   3.531  -1.220  0.00  0.00     0.002 A 
ATOM      3  C3  N4B d   1       0.423   3.270  -0.891  0.00  0.00     0.002 A 
ATOM      4  C4  N4B d   1       1.412   4.176  -1.241  0.00  0.00    -0.004 A 
ATOM      5  C5  N4B d   1       1.079   5.341  -1.869  0.00  0.00     0.002 A 
ATOM      6  C6  N4B d   1      -0.231   5.618  -2.202  0.00  0.00     0.002 A 
ENDROOT
BRANCH   1   7
ATOM      7  C1' N4B d   1      -2.622   5.016  -2.350  0.00  0.00     0.057 C 
BRANCH   7   8
ATOM      8  C2' N4B d   1      -3.146   3.824  -3.144  0.00  0.00     0.009 C 
BRANCH   8   9
ATOM      9  C3' N4B d   1      -4.628   3.589  -2.904  0.00  0.00     0.004 C 
ATOM     10  C4' N4B d   1      -4.903   2.295  -2.197  0.00  0.00     0.003 C 
ENDBRANCH   8   9
ENDBRANCH   7   8
ENDBRANCH   1   7
TORSDOF 3
ENDMDL
