MODEL 1
REMARK minimizedAffinity 7.66294241
REMARK minimizedRMSD -1
REMARK  3 active torsions:
REMARK  status: ('A' for Active; 'I' for Inactive)
REMARK    1  A    between atoms: C3'_2  and  C2'_3 
REMARK    2  A    between atoms: C2'_3  and  C1'_4 
REMARK    3  A    between atoms: C1'_4  and  C1_5 
ROOT
ATOM      1  C1  N4B d   1      -0.686   4.233  -1.442  0.00  0.00    -0.075 A 
ATOM      2  C2  N4B d   1      -1.233   3.589  -0.310  0.00  0.00     0.002 A 
ATOM      3  C3  N4B d   1      -0.414   2.900   0.550  0.00  0.00     0.002 A 
ATOM      4  C4  N4B d   1       0.946   2.825   0.290  0.00  0.00    -0.004 A 
ATOM      5  C5  N4B d   1       1.470   3.471  -0.792  0.00  0.00     0.002 A 
ATOM      6  C6  N4B d   1       0.659   4.171  -1.662  0.00  0.00     0.002 A 
ENDROOT
BRANCH   1   7
ATOM      7  C1' N4B d   1      -1.553   4.926  -2.457  0.00  0.00     0.057 C 
BRANCH   7   8
ATOM      8  C2' N4B d   1      -2.919   4.248  -2.495  0.00  0.00     0.009 C 
BRANCH   8   9
ATOM      9  C3' N4B d   1      -3.420   4.059  -3.917  0.00  0.00     0.004 C 
ATOM     10  C4' N4B d   1      -4.237   2.813  -4.084  0.00  0.00     0.003 C 
ENDBRANCH   8   9
ENDBRANCH   7   8
ENDBRANCH   1   7
TORSDOF 3
ENDMDL
