MODEL 1
REMARK minimizedAffinity 2.29103279
REMARK minimizedRMSD -1
REMARK  3 active torsions:
REMARK  status: ('A' for Active; 'I' for Inactive)
REMARK    1  A    between atoms: C3'_2  and  C2'_3 
REMARK    2  A    between atoms: C2'_3  and  C1'_4 
REMARK    3  A    between atoms: C1'_4  and  C1_5 
ROOT
ATOM      1  C1  N4B d   1      -1.804   5.930  -0.473  0.00  0.00    -0.075 A 
ATOM      2  C2  N4B d   1      -3.097   5.943  -1.041  0.00  0.00     0.002 A 
ATOM      3  C3  N4B d   1      -4.203   5.980  -0.229  0.00  0.00     0.002 A 
ATOM      4  C4  N4B d   1      -4.043   5.987   1.149  0.00  0.00    -0.004 A 
ATOM      5  C5  N4B d   1      -2.790   6.000   1.689  0.00  0.00     0.002 A 
ATOM      6  C6  N4B d   1      -1.669   5.966   0.884  0.00  0.00     0.002 A 
ENDROOT
BRANCH   1   7
ATOM      7  C1' N4B d   1      -0.566   5.802  -1.319  0.00  0.00     0.057 C 
BRANCH   7   8
ATOM      8  C2' N4B d   1       0.338   4.726  -0.724  0.00  0.00     0.009 C 
BRANCH   8   9
ATOM      9  C3' N4B d   1      -0.339   3.367  -0.697  0.00  0.00     0.004 C 
ATOM     10  C4' N4B d   1       0.007   2.570   0.526  0.00  0.00     0.003 C 
ENDBRANCH   8   9
ENDBRANCH   7   8
ENDBRANCH   1   7
TORSDOF 3
ENDMDL
