MODEL 1
REMARK minimizedAffinity 8.77859592
REMARK minimizedRMSD -1
REMARK  0 active torsions:
REMARK  status: ('A' for Active; 'I' for Inactive)
ROOT
ATOM      1  C   UNL d   1      -3.714  -2.888   4.666  0.00  0.00     0.078 C 
ATOM      2  C1  UNL d   1      -3.662  -1.404   4.460  0.00  0.00    -0.077 A 
ATOM      3  C2  UNL d   1      -3.887  -0.843   3.197  0.00  0.00    -0.001 A 
ATOM      4  C3  UNL d   1      -3.826   0.540   3.017  0.00  0.00     0.003 A 
ATOM      5  C4  UNL d   1      -3.539   1.373   4.096  0.00  0.00    -0.005 A 
ATOM      6  C5  UNL d   1      -3.311   0.824   5.357  0.00  0.00     0.003 A 
ATOM      7  C6  UNL d   1      -3.372  -0.558   5.538  0.00  0.00    -0.001 A 
ENDROOT
TORSDOF 0
ENDMDL
