MODEL 1
REMARK minimizedAffinity 6.37742424
REMARK minimizedRMSD -1
REMARK  0 active torsions:
REMARK  status: ('A' for Active; 'I' for Inactive)
ROOT
ATOM      1  C   UNL d   1      -3.836  -3.100   5.107  0.00  0.00     0.078 C 
ATOM      2  C1  UNL d   1      -3.860  -1.713   4.538  0.00  0.00    -0.077 A 
ATOM      3  C2  UNL d   1      -4.067  -1.499   3.170  0.00  0.00    -0.001 A 
ATOM      4  C3  UNL d   1      -4.078  -0.203   2.652  0.00  0.00     0.003 A 
ATOM      5  C4  UNL d   1      -3.881   0.889   3.495  0.00  0.00    -0.005 A 
ATOM      6  C5  UNL d   1      -3.673   0.685   4.858  0.00  0.00     0.003 A 
ATOM      7  C6  UNL d   1      -3.662  -0.610   5.377  0.00  0.00    -0.001 A 
ENDROOT
TORSDOF 0
ENDMDL
