MODEL 1
REMARK minimizedAffinity 7.4381566
REMARK minimizedRMSD -1
REMARK  0 active torsions:
REMARK  status: ('A' for Active; 'I' for Inactive)
ROOT
ATOM      1  C   UNL d   1      -3.032   0.886   2.282  0.00  0.00     0.078 C 
ATOM      2  C1  UNL d   1      -3.484   1.485   3.581  0.00  0.00    -0.077 A 
ATOM      3  C2  UNL d   1      -2.878   1.124   4.790  0.00  0.00    -0.001 A 
ATOM      4  C3  UNL d   1      -3.315   1.682   5.993  0.00  0.00     0.003 A 
ATOM      5  C4  UNL d   1      -4.361   2.603   5.997  0.00  0.00    -0.005 A 
ATOM      6  C5  UNL d   1      -4.971   2.966   4.799  0.00  0.00     0.003 A 
ATOM      7  C6  UNL d   1      -4.536   2.409   3.596  0.00  0.00    -0.001 A 
ENDROOT
TORSDOF 0
ENDMDL
