MODEL 1
REMARK minimizedAffinity 12.6490784
REMARK minimizedRMSD -1
REMARK  0 active torsions:
REMARK  status: ('A' for Active; 'I' for Inactive)
ROOT
ATOM      1  C   UNL d   1      -5.949   3.346   3.008  0.00  0.00     0.078 C 
ATOM      2  C1  UNL d   1      -4.965   2.477   3.733  0.00  0.00    -0.077 A 
ATOM      3  C2  UNL d   1      -4.698   2.671   5.094  0.00  0.00    -0.001 A 
ATOM      4  C3  UNL d   1      -3.772   1.861   5.754  0.00  0.00     0.003 A 
ATOM      5  C4  UNL d   1      -3.104   0.853   5.060  0.00  0.00    -0.005 A 
ATOM      6  C5  UNL d   1      -3.362   0.655   3.705  0.00  0.00     0.003 A 
ATOM      7  C6  UNL d   1      -4.288   1.463   3.044  0.00  0.00    -0.001 A 
ENDROOT
TORSDOF 0
ENDMDL
