MODEL 1
REMARK minimizedAffinity 10.0254478
REMARK minimizedRMSD -1
REMARK  0 active torsions:
REMARK  status: ('A' for Active; 'I' for Inactive)
ROOT
ATOM      1  C   UNL d   1       0.278  -3.065  -3.081  0.00  0.00     0.078 C 
ATOM      2  C1  UNL d   1       1.163  -2.219  -2.216  0.00  0.00    -0.077 A 
ATOM      3  C2  UNL d   1       1.426  -0.882  -2.540  0.00  0.00    -0.001 A 
ATOM      4  C3  UNL d   1       2.260  -0.110  -1.730  0.00  0.00     0.003 A 
ATOM      5  C4  UNL d   1       2.839  -0.665  -0.591  0.00  0.00    -0.005 A 
ATOM      6  C5  UNL d   1       2.585  -1.995  -0.261  0.00  0.00     0.003 A 
ATOM      7  C6  UNL d   1       1.752  -2.769  -1.070  0.00  0.00    -0.001 A 
ENDROOT
TORSDOF 0
ENDMDL
