MODEL 1
REMARK minimizedAffinity 14.1633253
REMARK minimizedRMSD -1
REMARK  0 active torsions:
REMARK  status: ('A' for Active; 'I' for Inactive)
ROOT
ATOM      1  C   UNL d   1      -2.688   1.142   2.336  0.00  0.00     0.078 C 
ATOM      2  C1  UNL d   1      -3.339   1.659   3.584  0.00  0.00    -0.077 A 
ATOM      3  C2  UNL d   1      -2.949   1.196   4.846  0.00  0.00    -0.001 A 
ATOM      4  C3  UNL d   1      -3.570   1.680   5.999  0.00  0.00     0.003 A 
ATOM      5  C4  UNL d   1      -4.586   2.628   5.901  0.00  0.00    -0.005 A 
ATOM      6  C5  UNL d   1      -4.983   3.093   4.649  0.00  0.00     0.003 A 
ATOM      7  C6  UNL d   1      -4.363   2.611   3.495  0.00  0.00    -0.001 A 
ENDROOT
TORSDOF 0
ENDMDL
