MODEL 1
REMARK minimizedAffinity 3.84887147
REMARK minimizedRMSD -1
REMARK  0 active torsions:
REMARK  status: ('A' for Active; 'I' for Inactive)
ROOT
ATOM      1  C   UNL d   1       2.048  -0.048  -1.408  0.00  0.00     0.078 C 
ATOM      2  C1  UNL d   1       1.969  -1.545  -1.455  0.00  0.00    -0.077 A 
ATOM      3  C2  UNL d   1       2.536  -2.329  -0.443  0.00  0.00    -0.001 A 
ATOM      4  C3  UNL d   1       2.464  -3.721  -0.505  0.00  0.00     0.003 A 
ATOM      5  C4  UNL d   1       1.826  -4.342  -1.577  0.00  0.00    -0.005 A 
ATOM      6  C5  UNL d   1       1.261  -3.570  -2.590  0.00  0.00     0.003 A 
ATOM      7  C6  UNL d   1       1.332  -2.177  -2.530  0.00  0.00    -0.001 A 
ENDROOT
TORSDOF 0
ENDMDL
