MODEL 1
REMARK minimizedAffinity 8.80503941
REMARK minimizedRMSD -1
REMARK  0 active torsions:
REMARK  status: ('A' for Active; 'I' for Inactive)
ROOT
ATOM      1  C   UNL d   1      -6.000   3.002   3.838  0.00  0.00     0.078 C 
ATOM      2  C1  UNL d   1      -4.960   2.012   4.272  0.00  0.00    -0.077 A 
ATOM      3  C2  UNL d   1      -4.479   1.038   3.388  0.00  0.00    -0.001 A 
ATOM      4  C3  UNL d   1      -3.518   0.117   3.808  0.00  0.00     0.003 A 
ATOM      5  C4  UNL d   1      -3.031   0.159   5.113  0.00  0.00    -0.005 A 
ATOM      6  C5  UNL d   1      -3.505   1.123   6.000  0.00  0.00     0.003 A 
ATOM      7  C6  UNL d   1      -4.466   2.045   5.582  0.00  0.00    -0.001 A 
ENDROOT
TORSDOF 0
ENDMDL
