MODEL 1
REMARK minimizedAffinity 2.74904203
REMARK minimizedRMSD -1
REMARK  0 active torsions:
REMARK  status: ('A' for Active; 'I' for Inactive)
ROOT
ATOM      1  C   UNL d   1       2.804  -0.357  -1.128  0.00  0.00     0.078 C 
ATOM      2  C1  UNL d   1       2.340  -1.741  -1.473  0.00  0.00    -0.077 A 
ATOM      3  C2  UNL d   1       1.865  -2.044  -2.755  0.00  0.00    -0.001 A 
ATOM      4  C3  UNL d   1       1.428  -3.334  -3.059  0.00  0.00     0.003 A 
ATOM      5  C4  UNL d   1       1.461  -4.332  -2.086  0.00  0.00    -0.005 A 
ATOM      6  C5  UNL d   1       1.930  -4.039  -0.807  0.00  0.00     0.003 A 
ATOM      7  C6  UNL d   1       2.368  -2.750  -0.501  0.00  0.00    -0.001 A 
ENDROOT
TORSDOF 0
ENDMDL
