MODEL 1
REMARK minimizedAffinity 4.55273342
REMARK minimizedRMSD -1
REMARK  0 active torsions:
REMARK  status: ('A' for Active; 'I' for Inactive)
ROOT
ATOM      1  C   UNL d   1       2.616  -0.638  -0.615  0.00  0.00     0.078 C 
ATOM      2  C1  UNL d   1       2.094  -1.962  -1.088  0.00  0.00    -0.077 A 
ATOM      3  C2  UNL d   1       1.374  -2.067  -2.285  0.00  0.00    -0.001 A 
ATOM      4  C3  UNL d   1       0.885  -3.304  -2.709  0.00  0.00     0.003 A 
ATOM      5  C4  UNL d   1       1.110  -4.445  -1.941  0.00  0.00    -0.005 A 
ATOM      6  C5  UNL d   1       1.823  -4.350  -0.748  0.00  0.00     0.003 A 
ATOM      7  C6  UNL d   1       2.313  -3.114  -0.323  0.00  0.00    -0.001 A 
ENDROOT
TORSDOF 0
ENDMDL
