MODEL 1
REMARK minimizedAffinity 14.8800421
REMARK minimizedRMSD -1
REMARK  0 active torsions:
REMARK  status: ('A' for Active; 'I' for Inactive)
ROOT
ATOM      1  C   UNL d   1      -1.730   1.478   2.778  0.00  0.00     0.078 C 
ATOM      2  C1  UNL d   1      -3.219   1.428   2.955  0.00  0.00    -0.077 A 
ATOM      3  C2  UNL d   1      -3.910   2.491   3.548  0.00  0.00    -0.001 A 
ATOM      4  C3  UNL d   1      -5.295   2.427   3.715  0.00  0.00     0.003 A 
ATOM      5  C4  UNL d   1      -5.999   1.301   3.292  0.00  0.00    -0.005 A 
ATOM      6  C5  UNL d   1      -5.319   0.238   2.702  0.00  0.00     0.003 A 
ATOM      7  C6  UNL d   1      -3.935   0.300   2.534  0.00  0.00    -0.001 A 
ENDROOT
TORSDOF 0
ENDMDL
