MODEL 1
REMARK minimizedAffinity 8.67988205
REMARK minimizedRMSD -1
REMARK  0 active torsions:
REMARK  status: ('A' for Active; 'I' for Inactive)
ROOT
ATOM      1  C   UNL d   1       0.617  -3.847  -3.094  0.00  0.00     0.078 C 
ATOM      2  C1  UNL d   1       1.336  -3.005  -2.082  0.00  0.00    -0.077 A 
ATOM      3  C2  UNL d   1       1.960  -3.587  -0.972  0.00  0.00    -0.001 A 
ATOM      4  C3  UNL d   1       2.617  -2.790  -0.033  0.00  0.00     0.003 A 
ATOM      5  C4  UNL d   1       2.655  -1.407  -0.194  0.00  0.00    -0.005 A 
ATOM      6  C5  UNL d   1       2.035  -0.818  -1.294  0.00  0.00     0.003 A 
ATOM      7  C6  UNL d   1       1.377  -1.613  -2.234  0.00  0.00    -0.001 A 
ENDROOT
TORSDOF 0
ENDMDL
