MODEL 1
REMARK minimizedAffinity 14.5222101
REMARK minimizedRMSD -1
REMARK  0 active torsions:
REMARK  status: ('A' for Active; 'I' for Inactive)
ROOT
ATOM      1  C   UNL d   1      -4.169  -2.802   4.898  0.00  0.00     0.078 C 
ATOM      2  C1  UNL d   1      -3.934  -1.389   4.456  0.00  0.00    -0.077 A 
ATOM      3  C2  UNL d   1      -3.493  -0.415   5.360  0.00  0.00    -0.001 A 
ATOM      4  C3  UNL d   1      -3.287   0.900   4.937  0.00  0.00     0.003 A 
ATOM      5  C4  UNL d   1      -3.522   1.252   3.610  0.00  0.00    -0.005 A 
ATOM      6  C5  UNL d   1      -3.964   0.291   2.703  0.00  0.00     0.003 A 
ATOM      7  C6  UNL d   1      -4.170  -1.024   3.124  0.00  0.00    -0.001 A 
ENDROOT
TORSDOF 0
ENDMDL
