MODEL 1
REMARK minimizedAffinity 10.4171028
REMARK minimizedRMSD -1
REMARK  0 active torsions:
REMARK  status: ('A' for Active; 'I' for Inactive)
ROOT
ATOM      1  C   UNL d   1      -1.843   1.884  -4.867  0.00  0.00     0.078 C 
ATOM      2  C1  UNL d   1      -2.276   3.314  -4.991  0.00  0.00    -0.077 A 
ATOM      3  C2  UNL d   1      -3.285   3.687  -5.888  0.00  0.00    -0.001 A 
ATOM      4  C3  UNL d   1      -3.671   5.024  -6.000  0.00  0.00     0.003 A 
ATOM      5  C4  UNL d   1      -3.053   5.999  -5.219  0.00  0.00    -0.005 A 
ATOM      6  C5  UNL d   1      -2.047   5.637  -4.326  0.00  0.00     0.003 A 
ATOM      7  C6  UNL d   1      -1.659   4.301  -4.212  0.00  0.00    -0.001 A 
ENDROOT
TORSDOF 0
ENDMDL
