MODEL 1
REMARK minimizedAffinity 5.25875902
REMARK minimizedRMSD -1
REMARK  0 active torsions:
REMARK  status: ('A' for Active; 'I' for Inactive)
ROOT
ATOM      1  C   UNL d   1      -1.280   2.263  -4.511  0.00  0.00     0.078 C 
ATOM      2  C1  UNL d   1      -2.008   3.559  -4.709  0.00  0.00    -0.077 A 
ATOM      3  C2  UNL d   1      -2.832   3.760  -5.823  0.00  0.00    -0.001 A 
ATOM      4  C3  UNL d   1      -3.496   4.975  -6.000  0.00  0.00     0.003 A 
ATOM      5  C4  UNL d   1      -3.340   6.000  -5.068  0.00  0.00    -0.005 A 
ATOM      6  C5  UNL d   1      -2.520   5.810  -3.958  0.00  0.00     0.003 A 
ATOM      7  C6  UNL d   1      -1.855   4.596  -3.779  0.00  0.00    -0.001 A 
ENDROOT
TORSDOF 0
ENDMDL
