MODEL 1
REMARK minimizedAffinity 7.8630352
REMARK minimizedRMSD -1
REMARK  0 active torsions:
REMARK  status: ('A' for Active; 'I' for Inactive)
ROOT
ATOM      1  C   UNL d   1       4.180   1.212  -0.174  0.00  0.00     0.078 C 
ATOM      2  C1  UNL d   1       3.434  -0.073  -0.378  0.00  0.00    -0.077 A 
ATOM      3  C2  UNL d   1       3.849  -1.255   0.249  0.00  0.00    -0.001 A 
ATOM      4  C3  UNL d   1       3.151  -2.446   0.043  0.00  0.00     0.003 A 
ATOM      5  C4  UNL d   1       2.034  -2.467  -0.791  0.00  0.00    -0.005 A 
ATOM      6  C5  UNL d   1       1.615  -1.297  -1.421  0.00  0.00     0.003 A 
ATOM      7  C6  UNL d   1       2.312  -0.105  -1.216  0.00  0.00    -0.001 A 
ENDROOT
TORSDOF 0
ENDMDL
