MODEL 1
REMARK minimizedAffinity 15.4080791
REMARK minimizedRMSD -1
REMARK  0 active torsions:
REMARK  status: ('A' for Active; 'I' for Inactive)
ROOT
ATOM      1  C   UNL d   1      -5.229  -1.911   1.881  0.00  0.00     0.078 C 
ATOM      2  C1  UNL d   1      -4.189  -0.880   2.204  0.00  0.00    -0.077 A 
ATOM      3  C2  UNL d   1      -3.948  -0.488   3.526  0.00  0.00    -0.001 A 
ATOM      4  C3  UNL d   1      -2.983   0.479   3.811  0.00  0.00     0.003 A 
ATOM      5  C4  UNL d   1      -2.253   1.064   2.778  0.00  0.00    -0.005 A 
ATOM      6  C5  UNL d   1      -2.487   0.682   1.459  0.00  0.00     0.003 A 
ATOM      7  C6  UNL d   1      -3.452  -0.285   1.172  0.00  0.00    -0.001 A 
ENDROOT
TORSDOF 0
ENDMDL
