MODEL 1
REMARK minimizedAffinity 15.8385944
REMARK minimizedRMSD -1
REMARK  0 active torsions:
REMARK  status: ('A' for Active; 'I' for Inactive)
ROOT
ATOM      1  C   UNL d   1      -0.288  -3.727  -3.611  0.00  0.00     0.078 C 
ATOM      2  C1  UNL d   1       0.715  -3.412  -2.542  0.00  0.00    -0.077 A 
ATOM      3  C2  UNL d   1       1.117  -4.387  -1.621  0.00  0.00    -0.001 A 
ATOM      4  C3  UNL d   1       2.045  -4.077  -0.625  0.00  0.00     0.003 A 
ATOM      5  C4  UNL d   1       2.578  -2.792  -0.540  0.00  0.00    -0.005 A 
ATOM      6  C5  UNL d   1       2.183  -1.815  -1.452  0.00  0.00     0.003 A 
ATOM      7  C6  UNL d   1       1.255  -2.123  -2.448  0.00  0.00    -0.001 A 
ENDROOT
TORSDOF 0
ENDMDL
