MODEL 1
REMARK minimizedAffinity 13.3366718
REMARK minimizedRMSD -1
REMARK  0 active torsions:
REMARK  status: ('A' for Active; 'I' for Inactive)
ROOT
ATOM      1  C   UNL d   1      -3.594  -3.473  -4.045  0.00  0.00     0.078 C 
ATOM      2  C1  UNL d   1      -2.403  -4.132  -3.416  0.00  0.00    -0.077 A 
ATOM      3  C2  UNL d   1      -1.108  -3.653  -3.648  0.00  0.00    -0.001 A 
ATOM      4  C3  UNL d   1      -0.008  -4.282  -3.063  0.00  0.00     0.003 A 
ATOM      5  C4  UNL d   1      -0.191  -5.393  -2.243  0.00  0.00    -0.005 A 
ATOM      6  C5  UNL d   1      -1.476  -5.878  -2.008  0.00  0.00     0.003 A 
ATOM      7  C6  UNL d   1      -2.578  -5.251  -2.592  0.00  0.00    -0.001 A 
ENDROOT
TORSDOF 0
ENDMDL
