MODEL 1
REMARK minimizedAffinity 13.4769897
REMARK minimizedRMSD -1
REMARK  0 active torsions:
REMARK  status: ('A' for Active; 'I' for Inactive)
ROOT
ATOM      1  C   UNL d   1      -2.906   0.417   2.547  0.00  0.00     0.078 C 
ATOM      2  C1  UNL d   1      -1.485   0.877   2.414  0.00  0.00    -0.077 A 
ATOM      3  C2  UNL d   1      -0.463  -0.024   2.087  0.00  0.00    -0.001 A 
ATOM      4  C3  UNL d   1       0.857   0.416   1.976  0.00  0.00     0.003 A 
ATOM      5  C4  UNL d   1       1.168   1.757   2.192  0.00  0.00    -0.005 A 
ATOM      6  C5  UNL d   1       0.159   2.660   2.520  0.00  0.00     0.003 A 
ATOM      7  C6  UNL d   1      -1.162   2.222   2.631  0.00  0.00    -0.001 A 
ENDROOT
TORSDOF 0
ENDMDL
