MODEL 1
REMARK minimizedAffinity 8.60921001
REMARK minimizedRMSD -1
REMARK  1 active torsions:
REMARK  status: ('A' for Active; 'I' for Inactive)
REMARK    1  A    between atoms: C3_4  and  O_7 
ROOT
ATOM      1  C   UNL d   1       2.032  -2.548  -2.037  0.00  0.00    -0.033 A 
ATOM      2  C1  UNL d   1       1.471  -3.767  -2.420  0.00  0.00     0.039 A 
ATOM      3  C2  UNL d   1       1.821  -4.941  -1.749  0.00  0.00    -0.080 A 
ATOM      4  C3  UNL d   1       2.731  -4.881  -0.697  0.00  0.00     0.150 A 
ATOM      5  C4  UNL d   1       3.291  -3.669  -0.308  0.00  0.00    -0.007 A 
ATOM      6  C5  UNL d   1       2.941  -2.498  -0.980  0.00  0.00     0.039 A 
ENDROOT
BRANCH   4   7
ATOM      7  O   UNL d   1       3.107  -6.000  -0.015  0.00  0.00    -0.526 OA
ATOM      8  H5  UNL d   1       2.661  -6.767  -0.413  0.00  0.00     0.418 HD
ENDBRANCH   4   7
TORSDOF 1
ENDMDL
