MODEL 1
REMARK minimizedAffinity -0.168100491
REMARK minimizedRMSD -1
REMARK  1 active torsions:
REMARK  status: ('A' for Active; 'I' for Inactive)
REMARK    1  A    between atoms: C3_4  and  O_7 
ROOT
ATOM      1  C   UNL d   1      -3.010  -5.261  -5.998  0.00  0.00    -0.033 A 
ATOM      2  C1  UNL d   1      -2.639  -3.915  -5.992  0.00  0.00     0.039 A 
ATOM      3  C2  UNL d   1      -3.617  -2.919  -5.991  0.00  0.00    -0.080 A 
ATOM      4  C3  UNL d   1      -4.961  -3.282  -5.995  0.00  0.00     0.150 A 
ATOM      5  C4  UNL d   1      -5.338  -4.621  -5.998  0.00  0.00    -0.007 A 
ATOM      6  C5  UNL d   1      -4.359  -5.614  -6.000  0.00  0.00     0.039 A 
ENDROOT
BRANCH   4   7
ATOM      7  O   UNL d   1      -5.952  -2.346  -6.000  0.00  0.00    -0.526 OA
ATOM      8  H5  UNL d   1      -5.543  -1.465  -6.026  0.00  0.00     0.418 HD
ENDBRANCH   4   7
TORSDOF 1
ENDMDL
