MODEL 1
REMARK minimizedAffinity 7.23091984
REMARK minimizedRMSD -1
REMARK  1 active torsions:
REMARK  status: ('A' for Active; 'I' for Inactive)
REMARK    1  A    between atoms: C3_4  and  O_7 
ROOT
ATOM      1  C   UNL d   1       2.561  -1.819  -1.002  0.00  0.00    -0.033 A 
ATOM      2  C1  UNL d   1       3.653  -2.312  -0.285  0.00  0.00     0.039 A 
ATOM      3  C2  UNL d   1       4.516  -1.431   0.370  0.00  0.00    -0.080 A 
ATOM      4  C3  UNL d   1       4.276  -0.061   0.301  0.00  0.00     0.150 A 
ATOM      5  C4  UNL d   1       3.188   0.437  -0.409  0.00  0.00    -0.007 A 
ATOM      6  C5  UNL d   1       2.328  -0.445  -1.063  0.00  0.00     0.039 A 
ENDROOT
BRANCH   4   7
ATOM      7  O   UNL d   1       5.093   0.837   0.919  0.00  0.00    -0.526 OA
ATOM      8  H5  UNL d   1       5.818   0.351   1.346  0.00  0.00     0.418 HD
ENDBRANCH   4   7
TORSDOF 1
ENDMDL
