MODEL 1
REMARK minimizedAffinity 9.15367413
REMARK minimizedRMSD -1
REMARK  1 active torsions:
REMARK  status: ('A' for Active; 'I' for Inactive)
REMARK    1  A    between atoms: C3_4  and  O_7 
ROOT
ATOM      1  C   UNL d   1       2.672  -2.882  -0.099  0.00  0.00    -0.033 A 
ATOM      2  C1  UNL d   1       2.405  -1.853  -1.005  0.00  0.00     0.039 A 
ATOM      3  C2  UNL d   1       1.787  -2.137  -2.224  0.00  0.00    -0.080 A 
ATOM      4  C3  UNL d   1       1.441  -3.451  -2.525  0.00  0.00     0.150 A 
ATOM      5  C4  UNL d   1       1.700  -4.480  -1.626  0.00  0.00    -0.007 A 
ATOM      6  C5  UNL d   1       2.318  -4.195  -0.409  0.00  0.00     0.039 A 
ENDROOT
BRANCH   4   7
ATOM      7  O   UNL d   1       0.840  -3.778  -3.705  0.00  0.00    -0.526 OA
ATOM      8  H5  UNL d   1       0.750  -2.970  -4.238  0.00  0.00     0.418 HD
ENDBRANCH   4   7
TORSDOF 1
ENDMDL
