MODEL 1
REMARK minimizedAffinity -2.07113242
REMARK minimizedRMSD -1
REMARK  1 active torsions:
REMARK  status: ('A' for Active; 'I' for Inactive)
REMARK    1  A    between atoms: C3_4  and  O_7 
ROOT
ATOM      1  C   UNL d   1       3.522  -5.068  -0.417  0.00  0.00    -0.033 A 
ATOM      2  C1  UNL d   1       3.163  -3.724  -0.540  0.00  0.00     0.039 A 
ATOM      3  C2  UNL d   1       2.361  -3.309  -1.605  0.00  0.00    -0.080 A 
ATOM      4  C3  UNL d   1       1.924  -4.246  -2.537  0.00  0.00     0.150 A 
ATOM      5  C4  UNL d   1       2.275  -5.587  -2.418  0.00  0.00    -0.007 A 
ATOM      6  C5  UNL d   1       3.077  -5.999  -1.355  0.00  0.00     0.039 A 
ENDROOT
BRANCH   4   7
ATOM      7  O   UNL d   1       1.144  -3.888  -3.596  0.00  0.00    -0.526 OA
ATOM      8  H5  UNL d   1       1.006  -2.926  -3.565  0.00  0.00     0.418 HD
ENDBRANCH   4   7
TORSDOF 1
ENDMDL
