MODEL 1
REMARK minimizedAffinity 11.0752163
REMARK minimizedRMSD -1
REMARK  1 active torsions:
REMARK  status: ('A' for Active; 'I' for Inactive)
REMARK    1  A    between atoms: C3_4  and  O_7 
ROOT
ATOM      1  C   UNL d   1       2.470  -0.758  -0.695  0.00  0.00    -0.033 A 
ATOM      2  C1  UNL d   1       1.294  -1.511  -0.724  0.00  0.00     0.039 A 
ATOM      3  C2  UNL d   1       1.311  -2.851  -0.333  0.00  0.00    -0.080 A 
ATOM      4  C3  UNL d   1       2.508  -3.425   0.085  0.00  0.00     0.150 A 
ATOM      5  C4  UNL d   1       3.682  -2.680   0.121  0.00  0.00    -0.007 A 
ATOM      6  C5  UNL d   1       3.664  -1.343  -0.271  0.00  0.00     0.039 A 
ENDROOT
BRANCH   4   7
ATOM      7  O   UNL d   1       2.575  -4.731   0.472  0.00  0.00    -0.526 OA
ATOM      8  H5  UNL d   1       1.694  -5.128   0.368  0.00  0.00     0.418 HD
ENDBRANCH   4   7
TORSDOF 1
ENDMDL
