MODEL 1
REMARK minimizedAffinity 1.29029572
REMARK minimizedRMSD -1
REMARK  1 active torsions:
REMARK  status: ('A' for Active; 'I' for Inactive)
REMARK    1  A    between atoms: C3_4  and  O_7 
ROOT
ATOM      1  C   UNL d   1      -4.419   3.916  -6.000  0.00  0.00    -0.033 A 
ATOM      2  C1  UNL d   1      -3.476   3.208  -5.252  0.00  0.00     0.039 A 
ATOM      3  C2  UNL d   1      -2.517   3.894  -4.505  0.00  0.00    -0.080 A 
ATOM      4  C3  UNL d   1      -2.512   5.286  -4.514  0.00  0.00     0.150 A 
ATOM      5  C4  UNL d   1      -3.450   5.998  -5.254  0.00  0.00    -0.007 A 
ATOM      6  C5  UNL d   1      -4.407   5.311  -5.999  0.00  0.00     0.039 A 
ENDROOT
BRANCH   4   7
ATOM      7  O   UNL d   1      -1.592   6.000  -3.804  0.00  0.00    -0.526 OA
ATOM      8  H5  UNL d   1      -0.990   5.376  -3.365  0.00  0.00     0.418 HD
ENDBRANCH   4   7
TORSDOF 1
ENDMDL
