MODEL 1
REMARK minimizedAffinity 4.92969227
REMARK minimizedRMSD -1
REMARK  1 active torsions:
REMARK  status: ('A' for Active; 'I' for Inactive)
REMARK    1  A    between atoms: C3_4  and  O_7 
ROOT
ATOM      1  C   UNL d   1      -1.242  -5.550  -3.383  0.00  0.00    -0.033 A 
ATOM      2  C1  UNL d   1      -1.457  -6.000  -4.687  0.00  0.00     0.039 A 
ATOM      3  C2  UNL d   1      -2.354  -5.327  -5.520  0.00  0.00    -0.080 A 
ATOM      4  C3  UNL d   1      -3.027  -4.208  -5.038  0.00  0.00     0.150 A 
ATOM      5  C4  UNL d   1      -2.814  -3.752  -3.741  0.00  0.00    -0.007 A 
ATOM      6  C5  UNL d   1      -1.919  -4.426  -2.910  0.00  0.00     0.039 A 
ENDROOT
BRANCH   4   7
ATOM      7  O   UNL d   1      -3.915  -3.522  -5.812  0.00  0.00    -0.526 OA
ATOM      8  H5  UNL d   1      -3.981  -3.968  -6.673  0.00  0.00     0.418 HD
ENDBRANCH   4   7
TORSDOF 1
ENDMDL
