MODEL 1
REMARK minimizedAffinity 11.1376791
REMARK minimizedRMSD -1
REMARK  1 active torsions:
REMARK  status: ('A' for Active; 'I' for Inactive)
REMARK    1  A    between atoms: C3_4  and  O_7 
ROOT
ATOM      1  C   UNL d   1      -2.801   0.272   2.721  0.00  0.00    -0.033 A 
ATOM      2  C1  UNL d   1      -2.558   1.578   3.149  0.00  0.00     0.039 A 
ATOM      3  C2  UNL d   1      -3.624   2.413   3.489  0.00  0.00    -0.080 A 
ATOM      4  C3  UNL d   1      -4.927   1.930   3.397  0.00  0.00     0.150 A 
ATOM      5  C4  UNL d   1      -5.176   0.628   2.975  0.00  0.00    -0.007 A 
ATOM      6  C5  UNL d   1      -4.109  -0.204   2.635  0.00  0.00     0.039 A 
ENDROOT
BRANCH   4   7
ATOM      7  O   UNL d   1      -6.000   2.708   3.714  0.00  0.00    -0.526 OA
ATOM      8  H5  UNL d   1      -5.677   3.591   3.962  0.00  0.00     0.418 HD
ENDBRANCH   4   7
TORSDOF 1
ENDMDL
