MODEL 1
REMARK minimizedAffinity 3.87328386
REMARK minimizedRMSD -1
REMARK  1 active torsions:
REMARK  status: ('A' for Active; 'I' for Inactive)
REMARK    1  A    between atoms: C3_4  and  O_7 
ROOT
ATOM      1  C   UNL d   1       4.278   0.572  -0.802  0.00  0.00    -0.033 A 
ATOM      2  C1  UNL d   1       5.104  -0.367  -0.183  0.00  0.00     0.039 A 
ATOM      3  C2  UNL d   1       4.623  -1.648   0.094  0.00  0.00    -0.080 A 
ATOM      4  C3  UNL d   1       3.315  -1.977  -0.254  0.00  0.00     0.150 A 
ATOM      5  C4  UNL d   1       2.488  -1.047  -0.875  0.00  0.00    -0.007 A 
ATOM      6  C5  UNL d   1       2.970   0.232  -1.150  0.00  0.00     0.039 A 
ENDROOT
BRANCH   4   7
ATOM      7  O   UNL d   1       2.799  -3.212   0.001  0.00  0.00    -0.526 OA
ATOM      8  H5  UNL d   1       3.475  -3.740   0.459  0.00  0.00     0.418 HD
ENDBRANCH   4   7
TORSDOF 1
ENDMDL
