MODEL 1
REMARK minimizedAffinity 9.29422379
REMARK minimizedRMSD -1
REMARK  1 active torsions:
REMARK  status: ('A' for Active; 'I' for Inactive)
REMARK    1  A    between atoms: C3_4  and  O_7 
ROOT
ATOM      1  C   UNL d   1      -5.897  -2.865  -5.999  0.00  0.00    -0.033 A 
ATOM      2  C1  UNL d   1      -5.568  -4.222  -5.999  0.00  0.00     0.039 A 
ATOM      3  C2  UNL d   1      -4.229  -4.617  -5.998  0.00  0.00    -0.080 A 
ATOM      4  C3  UNL d   1      -3.230  -3.647  -5.994  0.00  0.00     0.150 A 
ATOM      5  C4  UNL d   1      -3.551  -2.294  -5.990  0.00  0.00    -0.007 A 
ATOM      6  C5  UNL d   1      -4.889  -1.901  -5.993  0.00  0.00     0.039 A 
ENDROOT
BRANCH   4   7
ATOM      7  O   UNL d   1      -1.909  -3.984  -5.997  0.00  0.00    -0.526 OA
ATOM      8  H5  UNL d   1      -1.839  -4.953  -6.030  0.00  0.00     0.418 HD
ENDBRANCH   4   7
TORSDOF 1
ENDMDL
