MODEL 1
REMARK minimizedAffinity 15.9439039
REMARK minimizedRMSD -1
REMARK  1 active torsions:
REMARK  status: ('A' for Active; 'I' for Inactive)
REMARK    1  A    between atoms: C3_4  and  O_7 
ROOT
ATOM      1  C   UNL d   1      -2.241  -3.036  -4.065  0.00  0.00    -0.033 A 
ATOM      2  C1  UNL d   1      -3.288  -3.680  -3.403  0.00  0.00     0.039 A 
ATOM      3  C2  UNL d   1      -4.520  -3.848  -4.037  0.00  0.00    -0.080 A 
ATOM      4  C3  UNL d   1      -4.692  -3.367  -5.333  0.00  0.00     0.150 A 
ATOM      5  C4  UNL d   1      -3.652  -2.728  -6.000  0.00  0.00    -0.007 A 
ATOM      6  C5  UNL d   1      -2.423  -2.561  -5.364  0.00  0.00     0.039 A 
ENDROOT
BRANCH   4   7
ATOM      7  O   UNL d   1      -5.878  -3.503  -5.991  0.00  0.00    -0.526 OA
ATOM      8  H5  UNL d   1      -6.512  -3.938  -5.397  0.00  0.00     0.418 HD
ENDBRANCH   4   7
TORSDOF 1
ENDMDL
