MODEL 1
REMARK minimizedAffinity 5.09036446
REMARK minimizedRMSD -1
REMARK  1 active torsions:
REMARK  status: ('A' for Active; 'I' for Inactive)
REMARK    1  A    between atoms: C3_4  and  O_7 
ROOT
ATOM      1  C   UNL d   1       5.066  -3.911   0.430  0.00  0.00    -0.033 A 
ATOM      2  C1  UNL d   1       3.750  -4.128   0.018  0.00  0.00     0.039 A 
ATOM      3  C2  UNL d   1       2.779  -3.147   0.230  0.00  0.00    -0.080 A 
ATOM      4  C3  UNL d   1       3.137  -1.955   0.854  0.00  0.00     0.150 A 
ATOM      5  C4  UNL d   1       4.448  -1.730   1.264  0.00  0.00    -0.007 A 
ATOM      6  C5  UNL d   1       5.415  -2.711   1.052  0.00  0.00     0.039 A 
ENDROOT
BRANCH   4   7
ATOM      7  O   UNL d   1       2.224  -0.970   1.087  0.00  0.00    -0.526 OA
ATOM      8  H5  UNL d   1       1.355  -1.277   0.777  0.00  0.00     0.418 HD
ENDBRANCH   4   7
TORSDOF 1
ENDMDL
