MODEL 1
REMARK minimizedAffinity 9.68024254
REMARK minimizedRMSD -1
REMARK  1 active torsions:
REMARK  status: ('A' for Active; 'I' for Inactive)
REMARK    1  A    between atoms: C3_4  and  O_7 
ROOT
ATOM      1  C   UNL d   1      -3.882  -2.235  -5.989  0.00  0.00    -0.033 A 
ATOM      2  C1  UNL d   1      -5.275  -2.323  -5.997  0.00  0.00     0.039 A 
ATOM      3  C2  UNL d   1      -5.898  -3.573  -5.999  0.00  0.00    -0.080 A 
ATOM      4  C3  UNL d   1      -5.116  -4.726  -5.993  0.00  0.00     0.150 A 
ATOM      5  C4  UNL d   1      -3.728  -4.645  -5.981  0.00  0.00    -0.007 A 
ATOM      6  C5  UNL d   1      -3.108  -3.396  -5.979  0.00  0.00     0.039 A 
ENDROOT
BRANCH   4   7
ATOM      7  O   UNL d   1      -5.678  -5.968  -6.000  0.00  0.00    -0.526 OA
ATOM      8  H5  UNL d   1      -6.644  -5.868  -6.037  0.00  0.00     0.418 HD
ENDBRANCH   4   7
TORSDOF 1
ENDMDL
