MODEL 1
REMARK minimizedAffinity 17.4191952
REMARK minimizedRMSD -1
REMARK  1 active torsions:
REMARK  status: ('A' for Active; 'I' for Inactive)
REMARK    1  A    between atoms: C3_4  and  O_7 
ROOT
ATOM      1  C   UNL d   1      -3.011   1.123   4.989  0.00  0.00    -0.033 A 
ATOM      2  C1  UNL d   1      -3.270   0.934   3.630  0.00  0.00     0.039 A 
ATOM      3  C2  UNL d   1      -4.272   1.673   2.998  0.00  0.00    -0.080 A 
ATOM      4  C3  UNL d   1      -5.007   2.597   3.735  0.00  0.00     0.150 A 
ATOM      5  C4  UNL d   1      -4.752   2.794   5.089  0.00  0.00    -0.007 A 
ATOM      6  C5  UNL d   1      -3.752   2.054   5.718  0.00  0.00     0.039 A 
ENDROOT
BRANCH   4   7
ATOM      7  O   UNL d   1      -5.998   3.338   3.163  0.00  0.00    -0.526 OA
ATOM      8  H5  UNL d   1      -6.080   3.075   2.232  0.00  0.00     0.418 HD
ENDBRANCH   4   7
TORSDOF 1
ENDMDL
