MODEL 1
REMARK minimizedAffinity -4.28935862
REMARK minimizedRMSD -1
REMARK  0 active torsions:
REMARK  status: ('A' for Active; 'I' for Inactive)
ROOT
ATOM      1  C   UNL d   1      -0.372  -3.094   0.113  0.00  0.00     0.020 A 
ATOM      2  C1  UNL d   1       0.640  -2.617  -0.719  0.00  0.00     0.020 A 
ATOM      3  C2  UNL d   1       0.910  -1.248  -0.774  0.00  0.00     0.034 A 
ATOM      4  C3  UNL d   1       0.168  -0.352   0.004  0.00  0.00     0.017 A 
ATOM      5  C4  UNL d   1      -0.847  -0.832   0.839  0.00  0.00     0.017 A 
ATOM      6  C5  UNL d   1      -1.113  -2.204   0.891  0.00  0.00     0.034 A 
ATOM      7 Cl   UNL d   1      -1.805   0.212   1.829  0.00  0.00    -0.070 Cl
ATOM      8 Cl1  UNL d   1       0.557   1.328  -0.114  0.00  0.00    -0.070 Cl
ENDROOT
TORSDOF 0
ENDMDL
