MODEL 1
REMARK minimizedAffinity -3.84364128
REMARK minimizedRMSD -1
REMARK  0 active torsions:
REMARK  status: ('A' for Active; 'I' for Inactive)
ROOT
ATOM      1  C   UNL d   1       0.889  -2.643   0.245  0.00  0.00     0.020 A 
ATOM      2  C1  UNL d   1      -0.423  -2.980   0.578  0.00  0.00     0.020 A 
ATOM      3  C2  UNL d   1      -1.380  -1.977   0.748  0.00  0.00     0.034 A 
ATOM      4  C3  UNL d   1      -1.028  -0.633   0.584  0.00  0.00     0.017 A 
ATOM      5  C4  UNL d   1       0.289  -0.295   0.249  0.00  0.00     0.017 A 
ATOM      6  C5  UNL d   1       1.243  -1.303   0.081  0.00  0.00     0.034 A 
ATOM      7 Cl   UNL d   1       0.799   1.342   0.030  0.00  0.00    -0.070 Cl
ATOM      8 Cl1  UNL d   1      -2.263   0.554   0.808  0.00  0.00    -0.070 Cl
ENDROOT
TORSDOF 0
ENDMDL
