MODEL 1
REMARK minimizedAffinity -3.57798767
REMARK minimizedRMSD -1
REMARK  0 active torsions:
REMARK  status: ('A' for Active; 'I' for Inactive)
ROOT
ATOM      1  C   UNL d   1      -0.043  -3.016   1.261  0.00  0.00     0.020 A 
ATOM      2  C1  UNL d   1      -1.047  -2.064   1.437  0.00  0.00     0.020 A 
ATOM      3  C2  UNL d   1      -0.979  -0.844   0.760  0.00  0.00     0.034 A 
ATOM      4  C3  UNL d   1       0.095  -0.573  -0.096  0.00  0.00     0.017 A 
ATOM      5  C4  UNL d   1       1.101  -1.529  -0.272  0.00  0.00     0.017 A 
ATOM      6  C5  UNL d   1       1.028  -2.749   0.408  0.00  0.00     0.034 A 
ATOM      7 Cl   UNL d   1       2.457  -1.267  -1.312  0.00  0.00    -0.070 Cl
ATOM      8 Cl1  UNL d   1       0.114   0.956  -0.901  0.00  0.00    -0.070 Cl
ENDROOT
TORSDOF 0
ENDMDL
