MODEL 1
REMARK minimizedAffinity -2.01000857
REMARK minimizedRMSD -1
REMARK  0 active torsions:
REMARK  status: ('A' for Active; 'I' for Inactive)
ROOT
ATOM      1  C   UNL d   1      -1.085  -1.292   0.633  0.00  0.00     0.020 A 
ATOM      2  C1  UNL d   1       0.066  -1.981   0.252  0.00  0.00     0.020 A 
ATOM      3  C2  UNL d   1       1.210  -1.275  -0.126  0.00  0.00     0.034 A 
ATOM      4  C3  UNL d   1       1.206   0.124  -0.124  0.00  0.00     0.017 A 
ATOM      5  C4  UNL d   1       0.051   0.815   0.259  0.00  0.00     0.017 A 
ATOM      6  C5  UNL d   1      -1.092   0.104   0.637  0.00  0.00     0.034 A 
ATOM      7 Cl   UNL d   1      -0.030   2.542   0.287  0.00  0.00    -0.070 Cl
ATOM      8 Cl1  UNL d   1       2.657   0.932  -0.602  0.00  0.00    -0.070 Cl
ENDROOT
TORSDOF 0
ENDMDL
