MODEL 1
REMARK minimizedAffinity -2.63866329
REMARK minimizedRMSD -1
REMARK  0 active torsions:
REMARK  status: ('A' for Active; 'I' for Inactive)
ROOT
ATOM      1  C   UNL d   1      -0.114   1.287  -0.417  0.00  0.00     0.020 A 
ATOM      2  C1  UNL d   1      -0.118   0.701   0.848  0.00  0.00     0.020 A 
ATOM      3  C2  UNL d   1       0.001  -0.684   0.976  0.00  0.00     0.034 A 
ATOM      4  C3  UNL d   1       0.124  -1.488  -0.163  0.00  0.00     0.017 A 
ATOM      5  C4  UNL d   1       0.127  -0.899  -1.432  0.00  0.00     0.017 A 
ATOM      6  C5  UNL d   1       0.008   0.489  -1.555  0.00  0.00     0.034 A 
ATOM      7 Cl   UNL d   1       0.275  -1.826  -2.884  0.00  0.00    -0.070 Cl
ATOM      8 Cl1  UNL d   1       0.267  -3.195   0.070  0.00  0.00    -0.070 Cl
ENDROOT
TORSDOF 0
ENDMDL
