MODEL 1
REMARK minimizedAffinity -2.33303285
REMARK minimizedRMSD -1
REMARK  0 active torsions:
REMARK  status: ('A' for Active; 'I' for Inactive)
ROOT
ATOM      1  C   UNL d   1       0.894  -2.443  -0.774  0.00  0.00     0.020 A 
ATOM      2  C1  UNL d   1       0.111  -2.953   0.261  0.00  0.00     0.020 A 
ATOM      3  C2  UNL d   1      -0.742  -2.107   0.973  0.00  0.00     0.034 A 
ATOM      4  C3  UNL d   1      -0.812  -0.746   0.653  0.00  0.00     0.017 A 
ATOM      5  C4  UNL d   1      -0.024  -0.235  -0.385  0.00  0.00     0.017 A 
ATOM      6  C5  UNL d   1       0.827  -1.087  -1.096  0.00  0.00     0.034 A 
ATOM      7 Cl   UNL d   1      -0.057   1.432  -0.839  0.00  0.00    -0.070 Cl
ATOM      8 Cl1  UNL d   1      -1.887   0.242   1.576  0.00  0.00    -0.070 Cl
ENDROOT
TORSDOF 0
ENDMDL
