MODEL 1
REMARK minimizedAffinity -2.33636761
REMARK minimizedRMSD -1
REMARK  0 active torsions:
REMARK  status: ('A' for Active; 'I' for Inactive)
ROOT
ATOM      1  C   UNL d   1      -0.745   0.822   0.432  0.00  0.00     0.020 A 
ATOM      2  C1  UNL d   1      -0.212   1.328  -0.753  0.00  0.00     0.020 A 
ATOM      3  C2  UNL d   1       0.496   0.488  -1.615  0.00  0.00     0.034 A 
ATOM      4  C3  UNL d   1       0.674  -0.863  -1.292  0.00  0.00     0.017 A 
ATOM      5  C4  UNL d   1       0.139  -1.369  -0.102  0.00  0.00     0.017 A 
ATOM      6  C5  UNL d   1      -0.569  -0.524   0.757  0.00  0.00     0.034 A 
ATOM      7 Cl   UNL d   1       0.318  -3.024   0.363  0.00  0.00    -0.070 Cl
ATOM      8 Cl1  UNL d   1       1.561  -1.844  -2.404  0.00  0.00    -0.070 Cl
ENDROOT
TORSDOF 0
ENDMDL
