MODEL 1
REMARK minimizedAffinity -3.78305531
REMARK minimizedRMSD -1
REMARK  0 active torsions:
REMARK  status: ('A' for Active; 'I' for Inactive)
ROOT
ATOM      1  C   UNL d   1      -0.068   1.607  -0.468  0.00  0.00     0.020 A 
ATOM      2  C1  UNL d   1      -0.268   1.101   0.815  0.00  0.00     0.020 A 
ATOM      3  C2  UNL d   1      -0.470  -0.269   1.002  0.00  0.00     0.034 A 
ATOM      4  C3  UNL d   1      -0.472  -1.136  -0.096  0.00  0.00     0.017 A 
ATOM      5  C4  UNL d   1      -0.270  -0.627  -1.384  0.00  0.00     0.017 A 
ATOM      6  C5  UNL d   1      -0.069   0.745  -1.565  0.00  0.00     0.034 A 
ATOM      7 Cl   UNL d   1      -0.259  -1.635  -2.788  0.00  0.00    -0.070 Cl
ATOM      8 Cl1  UNL d   1      -0.727  -2.818   0.209  0.00  0.00    -0.070 Cl
ENDROOT
TORSDOF 0
ENDMDL
