MODEL 1
REMARK minimizedAffinity -2.65956068
REMARK minimizedRMSD -1
REMARK  0 active torsions:
REMARK  status: ('A' for Active; 'I' for Inactive)
ROOT
ATOM      1  C   UNL d   1       0.789  -0.654  -1.512  0.00  0.00     0.020 A 
ATOM      2  C1  UNL d   1       0.344   0.429  -0.756  0.00  0.00     0.020 A 
ATOM      3  C2  UNL d   1      -0.244   0.215   0.492  0.00  0.00     0.034 A 
ATOM      4  C3  UNL d   1      -0.389  -1.086   0.988  0.00  0.00     0.017 A 
ATOM      5  C4  UNL d   1       0.057  -2.173   0.228  0.00  0.00     0.017 A 
ATOM      6  C5  UNL d   1       0.645  -1.953  -1.022  0.00  0.00     0.034 A 
ATOM      7 Cl   UNL d   1      -0.088  -3.807   0.772  0.00  0.00    -0.070 Cl
ATOM      8 Cl1  UNL d   1      -1.126  -1.278   2.539  0.00  0.00    -0.070 Cl
ENDROOT
TORSDOF 0
ENDMDL
