MODEL 1
REMARK minimizedAffinity -4.08582449
REMARK minimizedRMSD -1
REMARK  0 active torsions:
REMARK  status: ('A' for Active; 'I' for Inactive)
ROOT
ATOM      1  C   UNL d   1       1.328  -2.592   0.424  0.00  0.00     0.020 A 
ATOM      2  C1  UNL d   1       0.024  -3.079   0.502  0.00  0.00     0.020 A 
ATOM      3  C2  UNL d   1      -1.053  -2.191   0.514  0.00  0.00     0.034 A 
ATOM      4  C3  UNL d   1      -0.830  -0.811   0.448  0.00  0.00     0.017 A 
ATOM      5  C4  UNL d   1       0.480  -0.323   0.370  0.00  0.00     0.017 A 
ATOM      6  C5  UNL d   1       1.555  -1.216   0.357  0.00  0.00     0.034 A 
ATOM      7 Cl   UNL d   1       0.835   1.366   0.285  0.00  0.00    -0.070 Cl
ATOM      8 Cl1  UNL d   1      -2.209   0.228   0.467  0.00  0.00    -0.070 Cl
ENDROOT
TORSDOF 0
ENDMDL
