MODEL 1
REMARK minimizedAffinity -3.92232394
REMARK minimizedRMSD -1
REMARK  0 active torsions:
REMARK  status: ('A' for Active; 'I' for Inactive)
ROOT
ATOM      1  C   UNL d   1      -0.210  -3.081  -0.073  0.00  0.00     0.020 A 
ATOM      2  C1  UNL d   1      -0.390  -2.466   1.165  0.00  0.00     0.020 A 
ATOM      3  C2  UNL d   1      -0.314  -1.076   1.272  0.00  0.00     0.034 A 
ATOM      4  C3  UNL d   1      -0.057  -0.296   0.138  0.00  0.00     0.017 A 
ATOM      5  C4  UNL d   1       0.124  -0.914  -1.104  0.00  0.00     0.017 A 
ATOM      6  C5  UNL d   1       0.047  -2.307  -1.205  0.00  0.00     0.034 A 
ATOM      7 Cl   UNL d   1       0.444  -0.018  -2.547  0.00  0.00    -0.070 Cl
ATOM      8 Cl1  UNL d   1       0.023   1.418   0.344  0.00  0.00    -0.070 Cl
ENDROOT
TORSDOF 0
ENDMDL
