MODEL 1
REMARK minimizedAffinity -3.41257167
REMARK minimizedRMSD -1
REMARK  0 active torsions:
REMARK  status: ('A' for Active; 'I' for Inactive)
ROOT
ATOM      1  C   UNL d   1       1.190  -3.048   0.103  0.00  0.00     0.020 A 
ATOM      2  C1  UNL d   1       1.651  -1.743   0.271  0.00  0.00     0.020 A 
ATOM      3  C2  UNL d   1       0.748  -0.712   0.535  0.00  0.00     0.034 A 
ATOM      4  C3  UNL d   1      -0.622  -0.983   0.631  0.00  0.00     0.017 A 
ATOM      5  C4  UNL d   1      -1.084  -2.294   0.463  0.00  0.00     0.017 A 
ATOM      6  C5  UNL d   1      -0.175  -3.323   0.199  0.00  0.00     0.034 A 
ATOM      7 Cl   UNL d   1      -2.759  -2.706   0.568  0.00  0.00    -0.070 Cl
ATOM      8 Cl1  UNL d   1      -1.683   0.341   0.960  0.00  0.00    -0.070 Cl
ENDROOT
TORSDOF 0
ENDMDL
