MODEL 1
REMARK minimizedAffinity -3.23116803
REMARK minimizedRMSD -1
REMARK  0 active torsions:
REMARK  status: ('A' for Active; 'I' for Inactive)
ROOT
ATOM      1  C   UNL d   1       0.948  -0.015  -1.946  0.00  0.00     0.020 A 
ATOM      2  C1  UNL d   1       0.185   1.011  -1.389  0.00  0.00     0.020 A 
ATOM      3  C2  UNL d   1      -0.533   0.787  -0.213  0.00  0.00     0.034 A 
ATOM      4  C3  UNL d   1      -0.491  -0.466   0.410  0.00  0.00     0.017 A 
ATOM      5  C4  UNL d   1       0.275  -1.495  -0.150  0.00  0.00     0.017 A 
ATOM      6  C5  UNL d   1       0.993  -1.265  -1.327  0.00  0.00     0.034 A 
ATOM      7 Cl   UNL d   1       0.377  -3.067   0.561  0.00  0.00    -0.070 Cl
ATOM      8 Cl1  UNL d   1      -1.404  -0.673   1.863  0.00  0.00    -0.070 Cl
ENDROOT
TORSDOF 0
ENDMDL
