MODEL 1
REMARK minimizedAffinity -1.58403242
REMARK minimizedRMSD -1
REMARK  0 active torsions:
REMARK  status: ('A' for Active; 'I' for Inactive)
ROOT
ATOM      1  C   UNL d   1      -0.150   4.008   1.721  0.00  0.00     0.020 A 
ATOM      2  C1  UNL d   1       1.161   4.355   2.046  0.00  0.00     0.020 A 
ATOM      3  C2  UNL d   1       2.229   3.726   1.403  0.00  0.00     0.034 A 
ATOM      4  C3  UNL d   1       1.989   2.748   0.431  0.00  0.00     0.017 A 
ATOM      5  C4  UNL d   1       0.672   2.401   0.106  0.00  0.00     0.017 A 
ATOM      6  C5  UNL d   1      -0.394   3.033   0.753  0.00  0.00     0.034 A 
ATOM      7 Cl   UNL d   1       0.297   1.203  -1.083  0.00  0.00    -0.070 Cl
ATOM      8 Cl1  UNL d   1       3.357   2.012  -0.324  0.00  0.00    -0.070 Cl
ENDROOT
TORSDOF 0
ENDMDL
