MODEL 1
REMARK minimizedAffinity -1.48988557
REMARK minimizedRMSD -1
REMARK  0 active torsions:
REMARK  status: ('A' for Active; 'I' for Inactive)
ROOT
ATOM      1  C   UNL d   1       0.074  -2.878   0.482  0.00  0.00     0.020 A 
ATOM      2  C1  UNL d   1       1.119  -2.294  -0.233  0.00  0.00     0.020 A 
ATOM      3  C2  UNL d   1       1.148  -0.911  -0.423  0.00  0.00     0.034 A 
ATOM      4  C3  UNL d   1       0.130  -0.107   0.102  0.00  0.00     0.017 A 
ATOM      5  C4  UNL d   1      -0.919  -0.693   0.820  0.00  0.00     0.017 A 
ATOM      6  C5  UNL d   1      -0.943  -2.079   1.008  0.00  0.00     0.034 A 
ATOM      7 Cl   UNL d   1      -2.210   0.234   1.499  0.00  0.00    -0.070 Cl
ATOM      8 Cl1  UNL d   1       0.230   1.596  -0.171  0.00  0.00    -0.070 Cl
ENDROOT
TORSDOF 0
ENDMDL
