MODEL 1
REMARK minimizedAffinity -3.54308486
REMARK minimizedRMSD -1
REMARK  0 active torsions:
REMARK  status: ('A' for Active; 'I' for Inactive)
ROOT
ATOM      1  C   UNL d   1       0.698  -1.897  -0.127  0.00  0.00     0.020 A 
ATOM      2  C1  UNL d   1      -0.100  -2.498   0.846  0.00  0.00     0.020 A 
ATOM      3  C2  UNL d   1      -1.006  -1.728   1.579  0.00  0.00     0.034 A 
ATOM      4  C3  UNL d   1      -1.115  -0.353   1.340  0.00  0.00     0.017 A 
ATOM      5  C4  UNL d   1      -0.314   0.249   0.364  0.00  0.00     0.017 A 
ATOM      6  C5  UNL d   1       0.592  -0.527  -0.367  0.00  0.00     0.034 A 
ATOM      7 Cl   UNL d   1      -0.392   1.939   0.013  0.00  0.00    -0.070 Cl
ATOM      8 Cl1  UNL d   1      -2.257   0.538   2.284  0.00  0.00    -0.070 Cl
ENDROOT
TORSDOF 0
ENDMDL
