MODEL 1
REMARK minimizedAffinity 0.32625097
REMARK minimizedRMSD -1
REMARK  0 active torsions:
REMARK  status: ('A' for Active; 'I' for Inactive)
ROOT
ATOM      1  C   UNL d   1       5.669  -1.237   4.150  0.00  0.00    -0.002 A 
ATOM      2  C1  UNL d   1       5.885  -1.470   5.501  0.00  0.00     0.010 A 
ATOM      3  C2  UNL d   1       5.998  -2.774   5.988  0.00  0.00     0.041 A 
ATOM      4  C3  UNL d   1       5.891  -3.850   5.085  0.00  0.00    -0.075 A 
ATOM      5  S   UNL d   1       5.998  -5.531   5.454  0.00  0.00     0.015 SA
ATOM      6  C4  UNL d   1       5.760  -5.979   3.827  0.00  0.00     0.022 A 
ATOM      7  C5  UNL d   1       5.601  -4.886   3.009  0.00  0.00     0.026 A 
ATOM      8  C6  UNL d   1       5.674  -3.641   3.720  0.00  0.00    -0.082 A 
ATOM      9  C7  UNL d   1       5.563  -2.307   3.258  0.00  0.00     0.045 A 
ENDROOT
TORSDOF 0
ENDMDL
