MODEL 1
REMARK minimizedAffinity 1.17137957
REMARK minimizedRMSD -1
REMARK  0 active torsions:
REMARK  status: ('A' for Active; 'I' for Inactive)
ROOT
ATOM      1  C   UNL d   1       1.870  -5.908   1.567  0.00  0.00    -0.002 A 
ATOM      2  C1  UNL d   1       1.312  -5.969   2.836  0.00  0.00     0.010 A 
ATOM      3  C2  UNL d   1       2.127  -6.000   3.969  0.00  0.00     0.041 A 
ATOM      4  C3  UNL d   1       3.526  -5.967   3.804  0.00  0.00    -0.075 A 
ATOM      5  S   UNL d   1       4.720  -5.994   5.046  0.00  0.00     0.015 SA
ATOM      6  C4  UNL d   1       5.999  -5.925   3.922  0.00  0.00     0.022 A 
ATOM      7  C5  UNL d   1       5.544  -5.882   2.625  0.00  0.00     0.026 A 
ATOM      8  C6  UNL d   1       4.111  -5.905   2.536  0.00  0.00    -0.082 A 
ATOM      9  C7  UNL d   1       3.258  -5.875   1.407  0.00  0.00     0.045 A 
ENDROOT
TORSDOF 0
ENDMDL
