MODEL 1
REMARK minimizedAffinity 7.13414478
REMARK minimizedRMSD -1
REMARK  0 active torsions:
REMARK  status: ('A' for Active; 'I' for Inactive)
ROOT
ATOM      1  C   UNL d   1       5.984  -1.026   3.997  0.00  0.00    -0.002 A 
ATOM      2  C1  UNL d   1       5.985  -1.131   5.381  0.00  0.00     0.010 A 
ATOM      3  C2  UNL d   1       5.988  -2.384   5.997  0.00  0.00     0.041 A 
ATOM      4  C3  UNL d   1       5.992  -3.540   5.192  0.00  0.00    -0.075 A 
ATOM      5  S   UNL d   1       5.996  -5.179   5.727  0.00  0.00     0.015 SA
ATOM      6  C4  UNL d   1       5.998  -5.778   4.131  0.00  0.00     0.022 A 
ATOM      7  C5  UNL d   1       5.995  -4.765   3.201  0.00  0.00     0.026 A 
ATOM      8  C6  UNL d   1       5.992  -3.459   3.797  0.00  0.00    -0.082 A 
ATOM      9  C7  UNL d   1       5.988  -2.175   3.202  0.00  0.00     0.045 A 
ENDROOT
TORSDOF 0
ENDMDL
