MODEL 1
REMARK minimizedAffinity 20.1260033
REMARK minimizedRMSD -1
REMARK  0 active torsions:
REMARK  status: ('A' for Active; 'I' for Inactive)
ROOT
ATOM      1  C   UNL d   1       5.913  -5.981   4.856  0.00  0.00    -0.002 A 
ATOM      2  C1  UNL d   1       6.000  -5.147   5.962  0.00  0.00     0.010 A 
ATOM      3  C2  UNL d   1       5.921  -3.761   5.815  0.00  0.00     0.041 A 
ATOM      4  C3  UNL d   1       5.751  -3.221   4.525  0.00  0.00    -0.075 A 
ATOM      5  S   UNL d   1       5.628  -1.554   4.104  0.00  0.00     0.015 SA
ATOM      6  C4  UNL d   1       5.456  -1.909   2.445  0.00  0.00     0.022 A 
ATOM      7  C5  UNL d   1       5.490  -3.261   2.201  0.00  0.00     0.026 A 
ATOM      8  C6  UNL d   1       5.660  -4.040   3.396  0.00  0.00    -0.082 A 
ATOM      9  C7  UNL d   1       5.744  -5.441   3.578  0.00  0.00     0.045 A 
ENDROOT
TORSDOF 0
ENDMDL
