MODEL 1
REMARK minimizedAffinity 1.8427068
REMARK minimizedRMSD -1
REMARK  0 active torsions:
REMARK  status: ('A' for Active; 'I' for Inactive)
ROOT
ATOM      1  C   UNL d   1       5.827  -5.997   4.215  0.00  0.00    -0.002 A 
ATOM      2  C1  UNL d   1       5.345  -5.998   5.516  0.00  0.00     0.010 A 
ATOM      3  C2  UNL d   1       3.972  -5.998   5.765  0.00  0.00     0.041 A 
ATOM      4  C3  UNL d   1       3.081  -5.999   4.673  0.00  0.00    -0.075 A 
ATOM      5  S   UNL d   1       1.358  -6.000   4.736  0.00  0.00     0.015 SA
ATOM      6  C4  UNL d   1       1.222  -6.000   3.038  0.00  0.00     0.022 A 
ATOM      7  C5  UNL d   1       2.450  -5.998   2.421  0.00  0.00     0.026 A 
ATOM      8  C6  UNL d   1       3.543  -5.998   3.353  0.00  0.00    -0.082 A 
ATOM      9  C7  UNL d   1       4.941  -5.997   3.134  0.00  0.00     0.045 A 
ENDROOT
TORSDOF 0
ENDMDL
