MODEL 1
REMARK minimizedAffinity 1.38370633
REMARK minimizedRMSD -1
REMARK  0 active torsions:
REMARK  status: ('A' for Active; 'I' for Inactive)
ROOT
ATOM      1  C   UNL d   1      -5.980   4.890   3.720  0.00  0.00    -0.002 A 
ATOM      2  C1  UNL d   1      -5.242   4.503   2.611  0.00  0.00     0.010 A 
ATOM      3  C2  UNL d   1      -3.850   4.612   2.610  0.00  0.00     0.041 A 
ATOM      4  C3  UNL d   1      -3.205   5.120   3.755  0.00  0.00    -0.075 A 
ATOM      5  S   UNL d   1      -1.511   5.343   3.982  0.00  0.00     0.015 SA
ATOM      6  C4  UNL d   1      -1.727   5.956   5.557  0.00  0.00     0.022 A 
ATOM      7  C5  UNL d   1      -3.053   5.997   5.918  0.00  0.00     0.026 A 
ATOM      8  C6  UNL d   1      -3.927   5.516   4.885  0.00  0.00    -0.082 A 
ATOM      9  C7  UNL d   1      -5.337   5.393   4.855  0.00  0.00     0.045 A 
ENDROOT
TORSDOF 0
ENDMDL
