MODEL 1
REMARK minimizedAffinity 8.80285931
REMARK minimizedRMSD -1
REMARK  0 active torsions:
REMARK  status: ('A' for Active; 'I' for Inactive)
ROOT
ATOM      1  C   UNL d   1      -1.737   0.371   0.356  0.00  0.00    -0.002 A 
ATOM      2  C1  UNL d   1      -2.933   0.858   0.864  0.00  0.00     0.010 A 
ATOM      3  C2  UNL d   1      -2.941   1.707   1.972  0.00  0.00     0.041 A 
ATOM      4  C3  UNL d   1      -1.714   2.064   2.565  0.00  0.00    -0.075 A 
ATOM      5  S   UNL d   1      -1.479   3.091   3.930  0.00  0.00     0.015 SA
ATOM      6  C4  UNL d   1       0.214   2.909   3.870  0.00  0.00     0.022 A 
ATOM      7  C5  UNL d   1       0.608   2.087   2.841  0.00  0.00     0.026 A 
ATOM      8  C6  UNL d   1      -0.496   1.587   2.071  0.00  0.00    -0.082 A 
ATOM      9  C7  UNL d   1      -0.522   0.727   0.947  0.00  0.00     0.045 A 
ENDROOT
TORSDOF 0
ENDMDL
