MODEL 1
REMARK minimizedAffinity 15.5526552
REMARK minimizedRMSD -1
REMARK  0 active torsions:
REMARK  status: ('A' for Active; 'I' for Inactive)
ROOT
ATOM      1  C   UNL d   1      -1.866   0.519   0.614  0.00  0.00    -0.002 A 
ATOM      2  C1  UNL d   1      -2.936   1.114   1.268  0.00  0.00     0.010 A 
ATOM      3  C2  UNL d   1      -2.718   2.018   2.310  0.00  0.00     0.041 A 
ATOM      4  C3  UNL d   1      -1.394   2.318   2.686  0.00  0.00    -0.075 A 
ATOM      5  S   UNL d   1      -0.886   3.395   3.932  0.00  0.00     0.015 SA
ATOM      6  C4  UNL d   1       0.763   3.092   3.626  0.00  0.00     0.022 A 
ATOM      7  C5  UNL d   1       0.940   2.193   2.601  0.00  0.00     0.026 A 
ATOM      8  C6  UNL d   1      -0.300   1.732   2.042  0.00  0.00    -0.082 A 
ATOM      9  C7  UNL d   1      -0.554   0.819   0.990  0.00  0.00     0.045 A 
ENDROOT
TORSDOF 0
ENDMDL
