MODEL 1
REMARK minimizedAffinity 7.74983931
REMARK minimizedRMSD -1
REMARK  0 active torsions:
REMARK  status: ('A' for Active; 'I' for Inactive)
ROOT
ATOM      1  C   UNL d   1      -3.244  -2.905   0.040  0.00  0.00    -0.002 A 
ATOM      2  C1  UNL d   1      -2.242  -1.965   0.234  0.00  0.00     0.010 A 
ATOM      3  C2  UNL d   1      -0.978  -2.356   0.680  0.00  0.00     0.041 A 
ATOM      4  C3  UNL d   1      -0.735  -3.721   0.929  0.00  0.00    -0.075 A 
ATOM      5  S   UNL d   1       0.736  -4.432   1.479  0.00  0.00     0.015 SA
ATOM      6  C4  UNL d   1       0.069  -6.000   1.470  0.00  0.00     0.022 A 
ATOM      7  C5  UNL d   1      -1.243  -6.000   1.060  0.00  0.00     0.026 A 
ATOM      8  C6  UNL d   1      -1.728  -4.686   0.740  0.00  0.00    -0.082 A 
ATOM      9  C7  UNL d   1      -3.000  -4.258   0.288  0.00  0.00     0.045 A 
ENDROOT
TORSDOF 0
ENDMDL
