MODEL 1
REMARK minimizedAffinity 9.08361053
REMARK minimizedRMSD -1
REMARK  0 active torsions:
REMARK  status: ('A' for Active; 'I' for Inactive)
ROOT
ATOM      1  C   UNL d   1       1.232   0.685   1.865  0.00  0.00    -0.002 A 
ATOM      2  C1  UNL d   1       0.940  -0.597   2.310  0.00  0.00     0.010 A 
ATOM      3  C2  UNL d   1      -0.323  -1.152   2.098  0.00  0.00     0.041 A 
ATOM      4  C3  UNL d   1      -1.297  -0.391   1.422  0.00  0.00    -0.075 A 
ATOM      5  S   UNL d   1      -2.912  -0.866   1.048  0.00  0.00     0.015 SA
ATOM      6  C4  UNL d   1      -3.252   0.621   0.287  0.00  0.00     0.022 A 
ATOM      7  C5  UNL d   1      -2.172   1.470   0.309  0.00  0.00     0.026 A 
ATOM      8  C6  UNL d   1      -1.027   0.901   0.963  0.00  0.00    -0.082 A 
ATOM      9  C7  UNL d   1       0.263   1.436   1.195  0.00  0.00     0.045 A 
ENDROOT
TORSDOF 0
ENDMDL
