MODEL 1
REMARK minimizedAffinity 13.2000799
REMARK minimizedRMSD -1
REMARK  0 active torsions:
REMARK  status: ('A' for Active; 'I' for Inactive)
ROOT
ATOM      1  C   UNL d   1       5.785   4.577  -0.573  0.00  0.00    -0.002 A 
ATOM      2  C1  UNL d   1       4.615   5.322  -0.541  0.00  0.00     0.010 A 
ATOM      3  C2  UNL d   1       3.424   4.753  -0.086  0.00  0.00     0.041 A 
ATOM      4  C3  UNL d   1       3.428   3.411   0.342  0.00  0.00    -0.075 A 
ATOM      5  S   UNL d   1       2.088   2.506   0.939  0.00  0.00     0.015 SA
ATOM      6  C4  UNL d   1       3.038   1.109   1.167  0.00  0.00     0.022 A 
ATOM      7  C5  UNL d   1       4.348   1.311   0.801  0.00  0.00     0.026 A 
ATOM      8  C6  UNL d   1       4.594   2.641   0.320  0.00  0.00    -0.082 A 
ATOM      9  C7  UNL d   1       5.786   3.245  -0.148  0.00  0.00     0.045 A 
ENDROOT
TORSDOF 0
ENDMDL
