MODEL 1
REMARK minimizedAffinity 21.5311203
REMARK minimizedRMSD -1
REMARK  0 active torsions:
REMARK  status: ('A' for Active; 'I' for Inactive)
ROOT
ATOM      1  C   UNL d   1       0.938  -2.889  -5.999  0.00  0.00    -0.002 A 
ATOM      2  C1  UNL d   1       0.202  -1.860  -5.429  0.00  0.00     0.010 A 
ATOM      3  C2  UNL d   1       0.844  -0.765  -4.847  0.00  0.00     0.041 A 
ATOM      4  C3  UNL d   1       2.252  -0.720  -4.849  0.00  0.00    -0.075 A 
ATOM      5  S   UNL d   1       3.253   0.522  -4.196  0.00  0.00     0.015 SA
ATOM      6  C4  UNL d   1       4.682  -0.283  -4.659  0.00  0.00     0.022 A 
ATOM      7  C5  UNL d   1       4.420  -1.472  -5.297  0.00  0.00     0.026 A 
ATOM      8  C6  UNL d   1       3.015  -1.743  -5.418  0.00  0.00    -0.082 A 
ATOM      9  C7  UNL d   1       2.335  -2.840  -6.000  0.00  0.00     0.045 A 
ENDROOT
TORSDOF 0
ENDMDL
