MODEL 1
REMARK minimizedAffinity -3.39101148
REMARK minimizedRMSD -1
REMARK  0 active torsions:
REMARK  status: ('A' for Active; 'I' for Inactive)
ROOT
ATOM      1  C   UNL d   1      -1.521  -0.330   0.181  0.00  0.00     0.078 C 
ATOM      2  C1  UNL d   1      -1.867  -1.492  -0.702  0.00  0.00    -0.077 A 
ATOM      3  C2  UNL d   1      -2.525  -1.300  -1.923  0.00  0.00    -0.001 A 
ATOM      4  C3  UNL d   1      -2.849  -2.391  -2.730  0.00  0.00     0.003 A 
ATOM      5  C4  UNL d   1      -2.521  -3.683  -2.324  0.00  0.00    -0.005 A 
ATOM      6  C5  UNL d   1      -1.869  -3.885  -1.109  0.00  0.00     0.003 A 
ATOM      7  C6  UNL d   1      -1.544  -2.795  -0.301  0.00  0.00    -0.001 A 
ENDROOT
TORSDOF 0
ENDMDL
