MODEL 1
REMARK minimizedAffinity -5.12134647
REMARK minimizedRMSD -1
REMARK  0 active torsions:
REMARK  status: ('A' for Active; 'I' for Inactive)
ROOT
ATOM      1  C   UNL d   1      -2.959  -3.410  -4.146  0.00  0.00     0.078 C 
ATOM      2  C1  UNL d   1      -2.426  -2.918  -2.834  0.00  0.00    -0.077 A 
ATOM      3  C2  UNL d   1      -2.476  -1.559  -2.499  0.00  0.00    -0.001 A 
ATOM      4  C3  UNL d   1      -1.967  -1.114  -1.278  0.00  0.00     0.003 A 
ATOM      5  C4  UNL d   1      -1.404  -2.021  -0.382  0.00  0.00    -0.005 A 
ATOM      6  C5  UNL d   1      -1.349  -3.375  -0.707  0.00  0.00     0.003 A 
ATOM      7  C6  UNL d   1      -1.857  -3.822  -1.928  0.00  0.00    -0.001 A 
ENDROOT
TORSDOF 0
ENDMDL
