MODEL 1
REMARK minimizedAffinity 0.104578197
REMARK minimizedRMSD -1
REMARK  0 active torsions:
REMARK  status: ('A' for Active; 'I' for Inactive)
ROOT
ATOM      1  C   UNL d   1       2.606   3.020   3.036  0.00  0.00     0.078 C 
ATOM      2  C1  UNL d   1       3.068   3.452   1.676  0.00  0.00    -0.077 A 
ATOM      3  C2  UNL d   1       4.170   4.303   1.526  0.00  0.00    -0.001 A 
ATOM      4  C3  UNL d   1       4.582   4.705   0.254  0.00  0.00     0.003 A 
ATOM      5  C4  UNL d   1       3.899   4.262  -0.876  0.00  0.00    -0.005 A 
ATOM      6  C5  UNL d   1       2.800   3.417  -0.736  0.00  0.00     0.003 A 
ATOM      7  C6  UNL d   1       2.386   3.014   0.535  0.00  0.00    -0.001 A 
ENDROOT
TORSDOF 0
ENDMDL
