MODEL 1
REMARK minimizedAffinity 0.617405951
REMARK minimizedRMSD -1
REMARK  0 active torsions:
REMARK  status: ('A' for Active; 'I' for Inactive)
ROOT
ATOM      1  C   UNL d   1       2.976   2.913   2.766  0.00  0.00     0.078 C 
ATOM      2  C1  UNL d   1       3.108   3.140   1.289  0.00  0.00    -0.077 A 
ATOM      3  C2  UNL d   1       4.311   3.595   0.735  0.00  0.00    -0.001 A 
ATOM      4  C3  UNL d   1       4.416   3.812  -0.640  0.00  0.00     0.003 A 
ATOM      5  C4  UNL d   1       3.323   3.578  -1.472  0.00  0.00    -0.005 A 
ATOM      6  C5  UNL d   1       2.122   3.127  -0.929  0.00  0.00     0.003 A 
ATOM      7  C6  UNL d   1       2.014   2.910   0.446  0.00  0.00    -0.001 A 
ENDROOT
TORSDOF 0
ENDMDL
