MODEL 1
REMARK minimizedAffinity 1.29697347
REMARK minimizedRMSD -1
REMARK  0 active torsions:
REMARK  status: ('A' for Active; 'I' for Inactive)
ROOT
ATOM      1  C   UNL d   1      -1.337  -0.168  -0.400  0.00  0.00     0.078 C 
ATOM      2  C1  UNL d   1      -1.847  -1.191  -1.370  0.00  0.00    -0.077 A 
ATOM      3  C2  UNL d   1      -1.989  -2.532  -0.995  0.00  0.00    -0.001 A 
ATOM      4  C3  UNL d   1      -2.456  -3.476  -1.911  0.00  0.00     0.003 A 
ATOM      5  C4  UNL d   1      -2.784  -3.088  -3.209  0.00  0.00    -0.005 A 
ATOM      6  C5  UNL d   1      -2.643  -1.756  -3.592  0.00  0.00     0.003 A 
ATOM      7  C6  UNL d   1      -2.176  -0.811  -2.677  0.00  0.00    -0.001 A 
ENDROOT
TORSDOF 0
ENDMDL
