MODEL 1
REMARK minimizedAffinity 2.56158233
REMARK minimizedRMSD -1
REMARK  0 active torsions:
REMARK  status: ('A' for Active; 'I' for Inactive)
ROOT
ATOM      1  C   UNL d   1      -4.914  -3.914  -0.744  0.00  0.00     0.078 C 
ATOM      2  C1  UNL d   1      -3.833  -3.292  -1.576  0.00  0.00    -0.077 A 
ATOM      3  C2  UNL d   1      -3.757  -3.529  -2.954  0.00  0.00    -0.001 A 
ATOM      4  C3  UNL d   1      -2.739  -2.951  -3.715  0.00  0.00     0.003 A 
ATOM      5  C4  UNL d   1      -1.789  -2.134  -3.107  0.00  0.00    -0.005 A 
ATOM      6  C5  UNL d   1      -1.855  -1.894  -1.736  0.00  0.00     0.003 A 
ATOM      7  C6  UNL d   1      -2.872  -2.471  -0.973  0.00  0.00    -0.001 A 
ENDROOT
TORSDOF 0
ENDMDL
