MODEL 1
REMARK minimizedAffinity -1.77513158
REMARK minimizedRMSD -1
REMARK  0 active torsions:
REMARK  status: ('A' for Active; 'I' for Inactive)
ROOT
ATOM      1  C   UNL d   1      -2.635   4.495   4.865  0.00  0.00     0.078 C 
ATOM      2  C1  UNL d   1      -3.777   4.955   4.009  0.00  0.00    -0.077 A 
ATOM      3  C2  UNL d   1      -3.742   4.804   2.617  0.00  0.00    -0.001 A 
ATOM      4  C3  UNL d   1      -4.807   5.246   1.832  0.00  0.00     0.003 A 
ATOM      5  C4  UNL d   1      -5.916   5.843   2.429  0.00  0.00    -0.005 A 
ATOM      6  C5  UNL d   1      -5.959   6.000   3.813  0.00  0.00     0.003 A 
ATOM      7  C6  UNL d   1      -4.894   5.558   4.600  0.00  0.00    -0.001 A 
ENDROOT
TORSDOF 0
ENDMDL
