MODEL 1
REMARK minimizedAffinity -0.198245168
REMARK minimizedRMSD -1
REMARK  0 active torsions:
REMARK  status: ('A' for Active; 'I' for Inactive)
ROOT
ATOM      1  C   UNL d   1      -5.233   6.000   0.382  0.00  0.00     0.078 C 
ATOM      2  C1  UNL d   1      -5.157   5.392   1.751  0.00  0.00    -0.077 A 
ATOM      3  C2  UNL d   1      -6.000   5.827   2.781  0.00  0.00    -0.001 A 
ATOM      4  C3  UNL d   1      -5.910   5.259   4.053  0.00  0.00     0.003 A 
ATOM      5  C4  UNL d   1      -4.979   4.254   4.307  0.00  0.00    -0.005 A 
ATOM      6  C5  UNL d   1      -4.135   3.816   3.288  0.00  0.00     0.003 A 
ATOM      7  C6  UNL d   1      -4.222   4.383   2.016  0.00  0.00    -0.001 A 
ENDROOT
TORSDOF 0
ENDMDL
