MODEL 1
REMARK minimizedAffinity -0.601077259
REMARK minimizedRMSD -1
REMARK  0 active torsions:
REMARK  status: ('A' for Active; 'I' for Inactive)
ROOT
ATOM      1  C   UNL d   1      -5.014   6.000  -0.029  0.00  0.00     0.078 C 
ATOM      2  C1  UNL d   1      -4.978   5.612   1.419  0.00  0.00    -0.077 A 
ATOM      3  C2  UNL d   1      -6.000   5.999   2.295  0.00  0.00    -0.001 A 
ATOM      4  C3  UNL d   1      -5.949   5.638   3.643  0.00  0.00     0.003 A 
ATOM      5  C4  UNL d   1      -4.878   4.891   4.127  0.00  0.00    -0.005 A 
ATOM      6  C5  UNL d   1      -3.855   4.503   3.264  0.00  0.00     0.003 A 
ATOM      7  C6  UNL d   1      -3.904   4.862   1.916  0.00  0.00    -0.001 A 
ENDROOT
TORSDOF 0
ENDMDL
