MODEL 1
REMARK minimizedAffinity 0.716769814
REMARK minimizedRMSD -1
REMARK  0 active torsions:
REMARK  status: ('A' for Active; 'I' for Inactive)
ROOT
ATOM      1  C   UNL d   1      -2.581   0.380   2.868  0.00  0.00     0.078 C 
ATOM      2  C1  UNL d   1      -2.097   0.030   1.492  0.00  0.00    -0.077 A 
ATOM      3  C2  UNL d   1      -2.133  -1.291   1.030  0.00  0.00    -0.001 A 
ATOM      4  C3  UNL d   1      -1.670  -1.604  -0.249  0.00  0.00     0.003 A 
ATOM      5  C4  UNL d   1      -1.166  -0.602  -1.076  0.00  0.00    -0.005 A 
ATOM      6  C5  UNL d   1      -1.124   0.716  -0.623  0.00  0.00     0.003 A 
ATOM      7  C6  UNL d   1      -1.587   1.030   0.655  0.00  0.00    -0.001 A 
ENDROOT
TORSDOF 0
ENDMDL
