MODEL 1
REMARK minimizedAffinity 3.61436725
REMARK minimizedRMSD -1
REMARK  0 active torsions:
REMARK  status: ('A' for Active; 'I' for Inactive)
ROOT
ATOM      1  C   UNL d   1      -3.286   3.892   4.847  0.00  0.00     0.078 C 
ATOM      2  C1  UNL d   1      -4.110   4.603   3.816  0.00  0.00    -0.077 A 
ATOM      3  C2  UNL d   1      -5.236   5.351   4.183  0.00  0.00    -0.001 A 
ATOM      4  C3  UNL d   1      -6.000   6.000   3.211  0.00  0.00     0.003 A 
ATOM      5  C4  UNL d   1      -5.647   5.907   1.866  0.00  0.00    -0.005 A 
ATOM      6  C5  UNL d   1      -4.529   5.164   1.492  0.00  0.00     0.003 A 
ATOM      7  C6  UNL d   1      -3.764   4.514   2.461  0.00  0.00    -0.001 A 
ENDROOT
TORSDOF 0
ENDMDL
