MODEL 1
REMARK minimizedAffinity 1.31530678
REMARK minimizedRMSD -1
REMARK  0 active torsions:
REMARK  status: ('A' for Active; 'I' for Inactive)
ROOT
ATOM      1  C   UNL d   1      -1.392  -1.229  -1.131  0.00  0.00     0.078 C 
ATOM      2  C1  UNL d   1      -2.123  -1.946  -2.226  0.00  0.00    -0.077 A 
ATOM      3  C2  UNL d   1      -2.766  -3.166  -1.986  0.00  0.00    -0.001 A 
ATOM      4  C3  UNL d   1      -3.435  -3.827  -3.017  0.00  0.00     0.003 A 
ATOM      5  C4  UNL d   1      -3.466  -3.276  -4.297  0.00  0.00    -0.005 A 
ATOM      6  C5  UNL d   1      -2.826  -2.064  -4.547  0.00  0.00     0.003 A 
ATOM      7  C6  UNL d   1      -2.157  -1.401  -3.516  0.00  0.00    -0.001 A 
ENDROOT
TORSDOF 0
ENDMDL
