MODEL 1
REMARK minimizedAffinity 1.36778378
REMARK minimizedRMSD -1
REMARK  0 active torsions:
REMARK  status: ('A' for Active; 'I' for Inactive)
ROOT
ATOM      1  C   UNL d   1       2.385  -0.444   5.515  0.00  0.00     0.078 C 
ATOM      2  C1  UNL d   1       2.288   0.842   4.749  0.00  0.00    -0.077 A 
ATOM      3  C2  UNL d   1       1.044   1.385   4.408  0.00  0.00    -0.001 A 
ATOM      4  C3  UNL d   1       0.968   2.578   3.686  0.00  0.00     0.003 A 
ATOM      5  C4  UNL d   1       2.134   3.236   3.299  0.00  0.00    -0.005 A 
ATOM      6  C5  UNL d   1       3.377   2.702   3.632  0.00  0.00     0.003 A 
ATOM      7  C6  UNL d   1       3.454   1.509   4.353  0.00  0.00    -0.001 A 
ENDROOT
TORSDOF 0
ENDMDL
