MODEL 1
REMARK minimizedAffinity 2.99377441
REMARK minimizedRMSD -1
REMARK  0 active torsions:
REMARK  status: ('A' for Active; 'I' for Inactive)
ROOT
ATOM      1  C   UNL d   1       3.171   3.341   1.809  0.00  0.00     0.078 C 
ATOM      2  C1  UNL d   1       2.518   2.618   2.949  0.00  0.00    -0.077 A 
ATOM      3  C2  UNL d   1       3.152   2.512   4.193  0.00  0.00    -0.001 A 
ATOM      4  C3  UNL d   1       2.537   1.828   5.243  0.00  0.00     0.003 A 
ATOM      5  C4  UNL d   1       1.285   1.244   5.059  0.00  0.00    -0.005 A 
ATOM      6  C5  UNL d   1       0.647   1.343   3.825  0.00  0.00     0.003 A 
ATOM      7  C6  UNL d   1       1.261   2.027   2.774  0.00  0.00    -0.001 A 
ENDROOT
TORSDOF 0
ENDMDL
