MODEL 1
REMARK minimizedAffinity -4.34790754
REMARK minimizedRMSD -1
REMARK  0 active torsions:
REMARK  status: ('A' for Active; 'I' for Inactive)
ROOT
ATOM      1  C   UNL d   1      -3.713   1.384   2.282  0.00  0.00     0.078 C 
ATOM      2  C1  UNL d   1      -4.214   2.413   3.251  0.00  0.00    -0.077 A 
ATOM      3  C2  UNL d   1      -4.421   3.739   2.851  0.00  0.00    -0.001 A 
ATOM      4  C3  UNL d   1      -4.879   4.689   3.766  0.00  0.00     0.003 A 
ATOM      5  C4  UNL d   1      -5.132   4.323   5.087  0.00  0.00    -0.005 A 
ATOM      6  C5  UNL d   1      -4.927   3.006   5.494  0.00  0.00     0.003 A 
ATOM      7  C6  UNL d   1      -4.469   2.055   4.580  0.00  0.00    -0.001 A 
ENDROOT
TORSDOF 0
ENDMDL
