MODEL 1
REMARK minimizedAffinity 3.58963132
REMARK minimizedRMSD -1
REMARK  1 active torsions:
REMARK  status: ('A' for Active; 'I' for Inactive)
REMARK    1  A    between atoms: C3_4  and  O_7 
ROOT
ATOM      1  C   UNL d   1       4.777  -1.854   5.968  0.00  0.00    -0.033 A 
ATOM      2  C1  UNL d   1       5.983  -2.557   5.943  0.00  0.00     0.039 A 
ATOM      3  C2  UNL d   1       5.979  -3.954   5.948  0.00  0.00    -0.080 A 
ATOM      4  C3  UNL d   1       4.764  -4.633   5.978  0.00  0.00     0.150 A 
ATOM      5  C4  UNL d   1       3.559  -3.938   5.999  0.00  0.00    -0.007 A 
ATOM      6  C5  UNL d   1       3.565  -2.544   5.995  0.00  0.00     0.039 A 
ENDROOT
BRANCH   4   7
ATOM      7  O   UNL d   1       4.709  -5.995   5.990  0.00  0.00    -0.526 OA
ATOM      8  H5  UNL d   1       5.618  -6.339   6.002  0.00  0.00     0.418 HD
ENDBRANCH   4   7
TORSDOF 1
ENDMDL
