MODEL 1
REMARK minimizedAffinity 2.29564786
REMARK minimizedRMSD -1
REMARK  1 active torsions:
REMARK  status: ('A' for Active; 'I' for Inactive)
REMARK    1  A    between atoms: C3_4  and  O_7 
ROOT
ATOM      1  C   UNL d   1       2.863  -3.390   0.484  0.00  0.00    -0.033 A 
ATOM      2  C1  UNL d   1       1.896  -2.439   0.149  0.00  0.00     0.039 A 
ATOM      3  C2  UNL d   1       1.451  -1.526   1.106  0.00  0.00    -0.080 A 
ATOM      4  C3  UNL d   1       1.979  -1.574   2.393  0.00  0.00     0.150 A 
ATOM      5  C4  UNL d   1       2.945  -2.515   2.733  0.00  0.00    -0.007 A 
ATOM      6  C5  UNL d   1       3.388  -3.427   1.776  0.00  0.00     0.039 A 
ENDROOT
BRANCH   4   7
ATOM      7  O   UNL d   1       1.572  -0.706   3.363  0.00  0.00    -0.526 OA
ATOM      8  H5  UNL d   1       0.881  -0.132   2.992  0.00  0.00     0.418 HD
ENDBRANCH   4   7
TORSDOF 1
ENDMDL
