MODEL 1
REMARK minimizedAffinity 5.44743538
REMARK minimizedRMSD -1
REMARK  1 active torsions:
REMARK  status: ('A' for Active; 'I' for Inactive)
REMARK    1  A    between atoms: C3_4  and  O_7 
ROOT
ATOM      1  C   UNL d   1      -3.717   3.426  -3.816  0.00  0.00    -0.033 A 
ATOM      2  C1  UNL d   1      -4.292   2.381  -4.542  0.00  0.00     0.039 A 
ATOM      3  C2  UNL d   1      -4.318   1.090  -4.010  0.00  0.00    -0.080 A 
ATOM      4  C3  UNL d   1      -3.766   0.858  -2.753  0.00  0.00     0.150 A 
ATOM      5  C4  UNL d   1      -3.195   1.895  -2.023  0.00  0.00    -0.007 A 
ATOM      6  C5  UNL d   1      -3.170   3.183  -2.556  0.00  0.00     0.039 A 
ENDROOT
BRANCH   4   7
ATOM      7  O   UNL d   1      -3.763  -0.386  -2.195  0.00  0.00    -0.526 OA
ATOM      8  H5  UNL d   1      -4.165  -1.007  -2.826  0.00  0.00     0.418 HD
ENDBRANCH   4   7
TORSDOF 1
ENDMDL
