MODEL 1
REMARK minimizedAffinity 10.0250397
REMARK minimizedRMSD -1
REMARK  1 active torsions:
REMARK  status: ('A' for Active; 'I' for Inactive)
REMARK    1  A    between atoms: C3_4  and  O_7 
ROOT
ATOM      1  C   UNL d   1       0.583   4.137   3.403  0.00  0.00    -0.033 A 
ATOM      2  C1  UNL d   1       1.894   3.666   3.500  0.00  0.00     0.039 A 
ATOM      3  C2  UNL d   1       2.796   4.281   4.371  0.00  0.00    -0.080 A 
ATOM      4  C3  UNL d   1       2.375   5.363   5.139  0.00  0.00     0.150 A 
ATOM      5  C4  UNL d   1       1.069   5.834   5.051  0.00  0.00    -0.007 A 
ATOM      6  C5  UNL d   1       0.170   5.220   4.180  0.00  0.00     0.039 A 
ENDROOT
BRANCH   4   7
ATOM      7  O   UNL d   1       3.220   5.998   6.000  0.00  0.00    -0.526 OA
ATOM      8  H5  UNL d   1       4.096   5.583   5.934  0.00  0.00     0.418 HD
ENDBRANCH   4   7
TORSDOF 1
ENDMDL
