MODEL 1
REMARK minimizedAffinity 4.2324543
REMARK minimizedRMSD -1
REMARK  1 active torsions:
REMARK  status: ('A' for Active; 'I' for Inactive)
REMARK    1  A    between atoms: C3_4  and  O_7 
ROOT
ATOM      1  C   UNL d   1       4.609   4.793  -5.984  0.00  0.00    -0.033 A 
ATOM      2  C1  UNL d   1       3.906   5.999  -5.998  0.00  0.00     0.039 A 
ATOM      3  C2  UNL d   1       2.511   5.997  -5.933  0.00  0.00    -0.080 A 
ATOM      4  C3  UNL d   1       1.832   4.785  -5.854  0.00  0.00     0.150 A 
ATOM      5  C4  UNL d   1       2.526   3.579  -5.836  0.00  0.00    -0.007 A 
ATOM      6  C5  UNL d   1       3.919   3.583  -5.902  0.00  0.00     0.039 A 
ENDROOT
BRANCH   4   7
ATOM      7  O   UNL d   1       0.471   4.732  -5.794  0.00  0.00    -0.526 OA
ATOM      8  H5  UNL d   1       0.126   5.639  -5.844  0.00  0.00     0.418 HD
ENDBRANCH   4   7
TORSDOF 1
ENDMDL
