MODEL 1
REMARK minimizedAffinity 1.10419428
REMARK minimizedRMSD -1
REMARK  1 active torsions:
REMARK  status: ('A' for Active; 'I' for Inactive)
REMARK    1  A    between atoms: C3_4  and  O_7 
ROOT
ATOM      1  C   UNL d   1       1.510  -2.078   1.127  0.00  0.00    -0.033 A 
ATOM      2  C1  UNL d   1       2.379  -3.045   0.619  0.00  0.00     0.039 A 
ATOM      3  C2  UNL d   1       3.346  -3.620   1.447  0.00  0.00    -0.080 A 
ATOM      4  C3  UNL d   1       3.432  -3.221   2.777  0.00  0.00     0.150 A 
ATOM      5  C4  UNL d   1       2.567  -2.260   3.291  0.00  0.00    -0.007 A 
ATOM      6  C5  UNL d   1       1.603  -1.686   2.463  0.00  0.00     0.039 A 
ENDROOT
BRANCH   4   7
ATOM      7  O   UNL d   1       4.362  -3.750   3.622  0.00  0.00    -0.526 OA
ATOM      8  H5  UNL d   1       4.909  -4.379   3.122  0.00  0.00     0.418 HD
ENDBRANCH   4   7
TORSDOF 1
ENDMDL
