MODEL 1
REMARK minimizedAffinity 4.13845491
REMARK minimizedRMSD -1
REMARK  1 active torsions:
REMARK  status: ('A' for Active; 'I' for Inactive)
REMARK    1  A    between atoms: C3_4  and  O_7 
ROOT
ATOM      1  C   UNL d   1       2.159  -1.547   1.688  0.00  0.00    -0.033 A 
ATOM      2  C1  UNL d   1       3.226  -2.296   2.187  0.00  0.00     0.039 A 
ATOM      3  C2  UNL d   1       3.475  -3.577   1.689  0.00  0.00    -0.080 A 
ATOM      4  C3  UNL d   1       2.652  -4.095   0.693  0.00  0.00     0.150 A 
ATOM      5  C4  UNL d   1       1.590  -3.352   0.189  0.00  0.00    -0.007 A 
ATOM      6  C5  UNL d   1       1.342  -2.074   0.688  0.00  0.00     0.039 A 
ENDROOT
BRANCH   4   7
ATOM      7  O   UNL d   1       2.853  -5.341   0.179  0.00  0.00    -0.526 OA
ATOM      8  H5  UNL d   1       3.604  -5.748   0.643  0.00  0.00     0.418 HD
ENDBRANCH   4   7
TORSDOF 1
ENDMDL
