MODEL 1
REMARK minimizedAffinity 7.35796928
REMARK minimizedRMSD -1
REMARK  1 active torsions:
REMARK  status: ('A' for Active; 'I' for Inactive)
REMARK    1  A    between atoms: C3_4  and  O_7 
ROOT
ATOM      1  C   UNL d   1       5.510  -4.342   1.038  0.00  0.00    -0.033 A 
ATOM      2  C1  UNL d   1       4.306  -5.027   1.212  0.00  0.00     0.039 A 
ATOM      3  C2  UNL d   1       3.091  -4.355   1.066  0.00  0.00    -0.080 A 
ATOM      4  C3  UNL d   1       3.094  -3.001   0.745  0.00  0.00     0.150 A 
ATOM      5  C4  UNL d   1       4.290  -2.313   0.566  0.00  0.00    -0.007 A 
ATOM      6  C5  UNL d   1       5.502  -2.985   0.713  0.00  0.00     0.039 A 
ENDROOT
BRANCH   4   7
ATOM      7  O   UNL d   1       1.933  -2.301   0.597  0.00  0.00    -0.526 OA
ATOM      8  H5  UNL d   1       1.189  -2.899   0.778  0.00  0.00     0.418 HD
ENDBRANCH   4   7
TORSDOF 1
ENDMDL
