MODEL 1
REMARK minimizedAffinity 13.181468
REMARK minimizedRMSD -1
REMARK  0 active torsions:
REMARK  status: ('A' for Active; 'I' for Inactive)
ROOT
ATOM      1  C4' PXY d   1       2.255   3.201   1.578  0.00  0.00     0.077 C 
ATOM      2  C1' PXY d   1       2.491  -2.348   3.181  0.00  0.00     0.077 C 
ATOM      3  C1  PXY d   1       2.439  -0.895   2.753  0.00  0.00    -0.082 A 
ATOM      4  C2  PXY d   1       1.887   0.003   3.552  0.00  0.00     0.003 A 
ATOM      5  C3  PXY d   1       1.803   1.317   3.167  0.00  0.00     0.003 A 
ATOM      6  C4  PXY d   1       2.338   1.724   1.974  0.00  0.00    -0.082 A 
ATOM      7  C5  PXY d   1       2.913   0.815   1.158  0.00  0.00     0.003 A 
ATOM      8  C6  PXY d   1       2.951  -0.520   1.549  0.00  0.00     0.003 A 
ENDROOT
TORSDOF 0
ENDMDL
