MODEL 1
REMARK minimizedAffinity 16.5502987
REMARK minimizedRMSD -1
REMARK  0 active torsions:
REMARK  status: ('A' for Active; 'I' for Inactive)
ROOT
ATOM      1  C4' PXY d   1       4.483  -3.400   6.000  0.00  0.00     0.077 C 
ATOM      2  C1' PXY d   1       1.342  -0.916   1.831  0.00  0.00     0.077 C 
ATOM      3  C1  PXY d   1       2.162  -1.579   2.921  0.00  0.00    -0.082 A 
ATOM      4  C2  PXY d   1       2.466  -0.901   4.015  0.00  0.00     0.003 A 
ATOM      5  C3  PXY d   1       3.234  -1.475   4.996  0.00  0.00     0.003 A 
ATOM      6  C4  PXY d   1       3.650  -2.774   4.879  0.00  0.00    -0.082 A 
ATOM      7  C5  PXY d   1       3.335  -3.476   3.770  0.00  0.00     0.003 A 
ATOM      8  C6  PXY d   1       2.590  -2.862   2.767  0.00  0.00     0.003 A 
ENDROOT
TORSDOF 0
ENDMDL
