MODEL 1
REMARK minimizedAffinity 8.13393879
REMARK minimizedRMSD -1
REMARK  0 active torsions:
REMARK  status: ('A' for Active; 'I' for Inactive)
ROOT
ATOM      1  C4' PXY d   1       1.552   2.111   2.096  0.00  0.00     0.077 C 
ATOM      2  C1' PXY d   1       3.110  -3.361   3.121  0.00  0.00     0.077 C 
ATOM      3  C1  PXY d   1       2.693  -1.927   2.862  0.00  0.00    -0.082 A 
ATOM      4  C2  PXY d   1       2.854  -1.406   1.656  0.00  0.00     0.003 A 
ATOM      5  C3  PXY d   1       2.512  -0.100   1.413  0.00  0.00     0.003 A 
ATOM      6  C4  PXY d   1       1.950   0.664   2.401  0.00  0.00    -0.082 A 
ATOM      7  C5  PXY d   1       1.772   0.136   3.630  0.00  0.00     0.003 A 
ATOM      8  C6  PXY d   1       2.164  -1.178   3.868  0.00  0.00     0.003 A 
ENDROOT
TORSDOF 0
ENDMDL
