MODEL 1
REMARK minimizedAffinity 10.4136343
REMARK minimizedRMSD -1
REMARK  0 active torsions:
REMARK  status: ('A' for Active; 'I' for Inactive)
ROOT
ATOM      1  C4' PXY d   1      -2.834   2.182  -1.580  0.00  0.00     0.077 C 
ATOM      2  C1' PXY d   1      -5.999   3.373   3.109  0.00  0.00     0.077 C 
ATOM      3  C1  PXY d   1      -5.158   3.062   1.886  0.00  0.00    -0.082 A 
ATOM      4  C2  PXY d   1      -5.671   3.234   0.678  0.00  0.00     0.003 A 
ATOM      5  C3  PXY d   1      -4.936   2.927  -0.438  0.00  0.00     0.003 A 
ATOM      6  C4  PXY d   1      -3.643   2.492  -0.318  0.00  0.00    -0.082 A 
ATOM      7  C5  PXY d   1      -3.109   2.325   0.911  0.00  0.00     0.003 A 
ATOM      8  C6  PXY d   1      -3.886   2.602   2.032  0.00  0.00     0.003 A 
ENDROOT
TORSDOF 0
ENDMDL
