MODEL 1
REMARK minimizedAffinity 1.31405342
REMARK minimizedRMSD -1
REMARK  0 active torsions:
REMARK  status: ('A' for Active; 'I' for Inactive)
ROOT
ATOM      1  C4' PXY d   1      -0.062  -5.616   5.281  0.00  0.00     0.077 C 
ATOM      2  C1' PXY d   1       5.037  -2.953   4.709  0.00  0.00     0.077 C 
ATOM      3  C1  PXY d   1       3.706  -3.661   4.865  0.00  0.00    -0.082 A 
ATOM      4  C2  PXY d   1       2.713  -3.379   4.037  0.00  0.00     0.003 A 
ATOM      5  C3  PXY d   1       1.493  -3.986   4.184  0.00  0.00     0.003 A 
ATOM      6  C4  PXY d   1       1.302  -4.932   5.155  0.00  0.00    -0.082 A 
ATOM      7  C5  PXY d   1       2.313  -5.234   5.997  0.00  0.00     0.003 A 
ATOM      8  C6  PXY d   1       3.532  -4.576   5.857  0.00  0.00     0.003 A 
ENDROOT
TORSDOF 0
ENDMDL
