MODEL 1
REMARK minimizedAffinity 2.58836412
REMARK minimizedRMSD -1
REMARK  0 active torsions:
REMARK  status: ('A' for Active; 'I' for Inactive)
ROOT
ATOM      1  C4' PXY d   1       0.713  -5.422   5.883  0.00  0.00     0.077 C 
ATOM      2  C1' PXY d   1       5.948  -3.355   4.565  0.00  0.00     0.077 C 
ATOM      3  C1  PXY d   1       4.570  -3.885   4.908  0.00  0.00    -0.082 A 
ATOM      4  C2  PXY d   1       4.453  -4.939   5.699  0.00  0.00     0.003 A 
ATOM      5  C3  PXY d   1       3.216  -5.451   5.994  0.00  0.00     0.003 A 
ATOM      6  C4  PXY d   1       2.084  -4.846   5.517  0.00  0.00    -0.082 A 
ATOM      7  C5  PXY d   1       2.194  -3.764   4.718  0.00  0.00     0.003 A 
ATOM      8  C6  PXY d   1       3.461  -3.285   4.397  0.00  0.00     0.003 A 
ENDROOT
TORSDOF 0
ENDMDL
