MODEL 1
REMARK minimizedAffinity 4.60048342
REMARK minimizedRMSD -1
REMARK  0 active torsions:
REMARK  status: ('A' for Active; 'I' for Inactive)
ROOT
ATOM      1  C4' PXY d   1       3.793   5.595  -2.851  0.00  0.00     0.077 C 
ATOM      2  C1' PXY d   1       1.211   3.372   1.819  0.00  0.00     0.077 C 
ATOM      3  C1  PXY d   1       1.879   3.964   0.593  0.00  0.00    -0.082 A 
ATOM      4  C2  PXY d   1       2.708   3.222  -0.122  0.00  0.00     0.003 A 
ATOM      5  C3  PXY d   1       3.345   3.751  -1.216  0.00  0.00     0.003 A 
ATOM      6  C4  PXY d   1       3.090   5.036  -1.611  0.00  0.00    -0.082 A 
ATOM      7  C5  PXY d   1       2.236   5.796  -0.893  0.00  0.00     0.003 A 
ATOM      8  C6  PXY d   1       1.632   5.254   0.237  0.00  0.00     0.003 A 
ENDROOT
TORSDOF 0
ENDMDL
