MODEL 1
REMARK minimizedAffinity 3.45437622
REMARK minimizedRMSD -1
REMARK  0 active torsions:
REMARK  status: ('A' for Active; 'I' for Inactive)
ROOT
ATOM      1  C4' PXY d   1       4.884  -2.617   6.000  0.00  0.00     0.077 C 
ATOM      2  C1' PXY d   1       1.287  -0.172   2.192  0.00  0.00     0.077 C 
ATOM      3  C1  PXY d   1       2.234  -0.801   3.194  0.00  0.00    -0.082 A 
ATOM      4  C2  PXY d   1       2.667  -2.037   2.999  0.00  0.00     0.003 A 
ATOM      5  C3  PXY d   1       3.498  -2.632   3.912  0.00  0.00     0.003 A 
ATOM      6  C4  PXY d   1       3.934  -1.938   5.009  0.00  0.00    -0.082 A 
ATOM      7  C5  PXY d   1       3.506  -0.674   5.209  0.00  0.00     0.003 A 
ATOM      8  C6  PXY d   1       2.629  -0.101   4.292  0.00  0.00     0.003 A 
ENDROOT
TORSDOF 0
ENDMDL
