MODEL 1
REMARK minimizedAffinity 9.83454323
REMARK minimizedRMSD -1
REMARK  0 active torsions:
REMARK  status: ('A' for Active; 'I' for Inactive)
ROOT
ATOM      1  C4' PXY d   1      -5.699   3.653   3.802  0.00  0.00     0.077 C 
ATOM      2  C1' PXY d   1      -2.931   2.165  -1.050  0.00  0.00     0.077 C 
ATOM      3  C1  PXY d   1      -3.666   2.561   0.216  0.00  0.00    -0.082 A 
ATOM      4  C2  PXY d   1      -3.010   2.611   1.364  0.00  0.00     0.003 A 
ATOM      5  C3  PXY d   1      -3.667   2.937   2.523  0.00  0.00     0.003 A 
ATOM      6  C4  PXY d   1      -4.995   3.266   2.498  0.00  0.00    -0.082 A 
ATOM      7  C5  PXY d   1      -5.668   3.228   1.329  0.00  0.00     0.003 A 
ATOM      8  C6  PXY d   1      -4.993   2.855   0.170  0.00  0.00     0.003 A 
ENDROOT
TORSDOF 0
ENDMDL
