MODEL 1
REMARK minimizedAffinity 11.4583797
REMARK minimizedRMSD -1
REMARK  0 active torsions:
REMARK  status: ('A' for Active; 'I' for Inactive)
ROOT
ATOM      1  C4' PXY d   1       0.142   4.656  -1.441  0.00  0.00     0.077 C 
ATOM      2  C1' PXY d   1       2.430   3.898   3.813  0.00  0.00     0.077 C 
ATOM      3  C1  PXY d   1       1.841   4.104   2.432  0.00  0.00    -0.082 A 
ATOM      4  C2  PXY d   1       0.534   3.993   2.255  0.00  0.00     0.003 A 
ATOM      5  C3  PXY d   1      -0.012   4.145   1.007  0.00  0.00     0.003 A 
ATOM      6  C4  PXY d   1       0.781   4.466  -0.062  0.00  0.00    -0.082 A 
ATOM      7  C5  PXY d   1       2.113   4.592   0.112  0.00  0.00     0.003 A 
ATOM      8  C6  PXY d   1       2.653   4.393   1.380  0.00  0.00     0.003 A 
ENDROOT
TORSDOF 0
ENDMDL
