MODEL 1
REMARK minimizedAffinity 4.32509184
REMARK minimizedRMSD -1
REMARK  0 active torsions:
REMARK  status: ('A' for Active; 'I' for Inactive)
ROOT
ATOM      1  C4' PXY d   1       2.703   2.226   5.635  0.00  0.00     0.077 C 
ATOM      2  C1' PXY d   1       2.765  -2.940   3.042  0.00  0.00     0.077 C 
ATOM      3  C1  PXY d   1       2.750  -1.591   3.733  0.00  0.00    -0.082 A 
ATOM      4  C2  PXY d   1       2.163  -0.561   3.146  0.00  0.00     0.003 A 
ATOM      5  C3  PXY d   1       2.168   0.674   3.743  0.00  0.00     0.003 A 
ATOM      6  C4  PXY d   1       2.734   0.844   4.978  0.00  0.00    -0.082 A 
ATOM      7  C5  PXY d   1       3.326  -0.205   5.589  0.00  0.00     0.003 A 
ATOM      8  C6  PXY d   1       3.346  -1.440   4.948  0.00  0.00     0.003 A 
ENDROOT
TORSDOF 0
ENDMDL
