MODEL 1
REMARK minimizedAffinity 9.44399452
REMARK minimizedRMSD -1
REMARK  0 active torsions:
REMARK  status: ('A' for Active; 'I' for Inactive)
ROOT
ATOM      1  C4' PXY d   1       1.900   2.138   2.578  0.00  0.00     0.077 C 
ATOM      2  C1' PXY d   1       3.271  -3.252   4.154  0.00  0.00     0.077 C 
ATOM      3  C1  PXY d   1       2.904  -1.837   3.751  0.00  0.00    -0.082 A 
ATOM      4  C2  PXY d   1       2.953  -1.486   2.477  0.00  0.00     0.003 A 
ATOM      5  C3  PXY d   1       2.656  -0.202   2.099  0.00  0.00     0.003 A 
ATOM      6  C4  PXY d   1       2.253   0.718   3.029  0.00  0.00    -0.082 A 
ATOM      7  C5  PXY d   1       2.190   0.365   4.331  0.00  0.00     0.003 A 
ATOM      8  C6  PXY d   1       2.535  -0.932   4.698  0.00  0.00     0.003 A 
ENDROOT
TORSDOF 0
ENDMDL
