MODEL 1
REMARK minimizedAffinity 1.65144575
REMARK minimizedRMSD -1
REMARK  2 active torsions:
REMARK  status: ('A' for Active; 'I' for Inactive)
REMARK    1  A    between atoms: C2'_3  and  C1'_4 
REMARK    2  A    between atoms: C1'_4  and  C1_5 
ROOT
ATOM      1  C1  I4B d   1      -1.732   0.869   0.241  0.00  0.00    -0.075 A 
ATOM      2  C2  I4B d   1      -1.391   0.298   1.442  0.00  0.00     0.003 A 
ATOM      3  C3  I4B d   1      -0.051   0.339   1.896  0.00  0.00     0.002 A 
ATOM      4  C4  I4B d   1       0.919   0.914   1.100  0.00  0.00    -0.004 A 
ATOM      5  C5  I4B d   1       0.567   1.513  -0.107  0.00  0.00     0.002 A 
ATOM      6  C6  I4B d   1      -0.769   1.501  -0.533  0.00  0.00     0.003 A 
ENDROOT
BRANCH   1   7
ATOM      7  C1' I4B d   1      -3.151   0.778  -0.223  0.00  0.00     0.060 C 
BRANCH   7   8
ATOM      8  C2' I4B d   1      -3.657   2.186  -0.457  0.00  0.00    -0.013 C 
ATOM      9  C4' I4B d   1      -3.442   2.612  -1.886  0.00  0.00     0.013 C 
ATOM     10  C3' I4B d   1      -5.112   2.222  -0.094  0.00  0.00     0.013 C 
ENDBRANCH   7   8
ENDBRANCH   1   7
TORSDOF 2
ENDMDL
