MODEL 1
REMARK minimizedAffinity 0.924132228
REMARK minimizedRMSD -1
REMARK  2 active torsions:
REMARK  status: ('A' for Active; 'I' for Inactive)
REMARK    1  A    between atoms: C2'_3  and  C1'_4 
REMARK    2  A    between atoms: C1'_4  and  C1_5 
ROOT
ATOM      1  C1  I4B d   1      -0.925   1.079   0.824  0.00  0.00    -0.075 A 
ATOM      2  C2  I4B d   1      -1.155   2.293   0.227  0.00  0.00     0.003 A 
ATOM      3  C3  I4B d   1      -2.371   2.532  -0.457  0.00  0.00     0.002 A 
ATOM      4  C4  I4B d   1      -3.302   1.519  -0.562  0.00  0.00    -0.004 A 
ATOM      5  C5  I4B d   1      -3.077   0.296   0.063  0.00  0.00     0.002 A 
ATOM      6  C6  I4B d   1      -1.887   0.078   0.772  0.00  0.00     0.003 A 
ENDROOT
BRANCH   1   7
ATOM      7  C1' I4B d   1       0.384   0.849   1.510  0.00  0.00     0.060 C 
BRANCH   7   8
ATOM      8  C2' I4B d   1       1.490   1.148   0.518  0.00  0.00    -0.013 C 
ATOM      9  C4' I4B d   1       1.821   2.617   0.498  0.00  0.00     0.013 C 
ATOM     10  C3' I4B d   1       2.686   0.328   0.898  0.00  0.00     0.013 C 
ENDBRANCH   7   8
ENDBRANCH   1   7
TORSDOF 2
ENDMDL
