MODEL 1
REMARK minimizedAffinity 1.99882567
REMARK minimizedRMSD -1
REMARK  2 active torsions:
REMARK  status: ('A' for Active; 'I' for Inactive)
REMARK    1  A    between atoms: C2'_3  and  C1'_4 
REMARK    2  A    between atoms: C1'_4  and  C1_5 
ROOT
ATOM      1  C1  I4B d   1      -1.201   0.459   0.656  0.00  0.00    -0.075 A 
ATOM      2  C2  I4B d   1      -2.222   1.273   0.233  0.00  0.00     0.003 A 
ATOM      3  C3  I4B d   1      -1.942   2.571  -0.259  0.00  0.00     0.002 A 
ATOM      4  C4  I4B d   1      -0.641   3.030  -0.263  0.00  0.00    -0.004 A 
ATOM      5  C5  I4B d   1       0.396   2.196   0.145  0.00  0.00     0.002 A 
ATOM      6  C6  I4B d   1       0.116   0.897   0.596  0.00  0.00     0.003 A 
ENDROOT
BRANCH   1   7
ATOM      7  C1' I4B d   1      -1.536  -0.893   1.200  0.00  0.00     0.060 C 
BRANCH   7   8
ATOM      8  C2' I4B d   1      -1.844  -0.740   2.675  0.00  0.00    -0.013 C 
ATOM      9  C4' I4B d   1      -1.132   0.453   3.260  0.00  0.00     0.013 C 
ATOM     10  C3' I4B d   1      -3.330  -0.611   2.827  0.00  0.00     0.013 C 
ENDBRANCH   7   8
ENDBRANCH   1   7
TORSDOF 2
ENDMDL
