MODEL 1
REMARK minimizedAffinity -0.976705313
REMARK minimizedRMSD -1
REMARK  2 active torsions:
REMARK  status: ('A' for Active; 'I' for Inactive)
REMARK    1  A    between atoms: C2'_3  and  C1'_4 
REMARK    2  A    between atoms: C1'_4  and  C1_5 
ROOT
ATOM      1  C1  I4B d   1      -2.544  -0.278   1.576  0.00  0.00    -0.075 A 
ATOM      2  C2  I4B d   1      -2.076  -0.444   2.855  0.00  0.00     0.003 A 
ATOM      3  C3  I4B d   1      -2.983  -0.550   3.937  0.00  0.00     0.002 A 
ATOM      4  C4  I4B d   1      -4.338  -0.437   3.702  0.00  0.00    -0.004 A 
ATOM      5  C5  I4B d   1      -4.812  -0.292   2.402  0.00  0.00     0.002 A 
ATOM      6  C6  I4B d   1      -3.910  -0.224   1.330  0.00  0.00     0.003 A 
ENDROOT
BRANCH   1   7
ATOM      7  C1' I4B d   1      -1.558  -0.136   0.460  0.00  0.00     0.060 C 
BRANCH   7   8
ATOM      8  C2' I4B d   1      -0.870   1.206   0.613  0.00  0.00    -0.013 C 
ATOM      9  C4' I4B d   1       0.485   1.202  -0.044  0.00  0.00     0.013 C 
ATOM     10  C3' I4B d   1      -1.760   2.253   0.014  0.00  0.00     0.013 C 
ENDBRANCH   7   8
ENDBRANCH   1   7
TORSDOF 2
ENDMDL
