MODEL 1
REMARK minimizedAffinity 8.03823471
REMARK minimizedRMSD -1
REMARK  2 active torsions:
REMARK  status: ('A' for Active; 'I' for Inactive)
REMARK    1  A    between atoms: C2'_3  and  C1'_4 
REMARK    2  A    between atoms: C1'_4  and  C1_5 
ROOT
ATOM      1  C1  I4B d   1      -0.684  -4.801  -2.472  0.00  0.00    -0.075 A 
ATOM      2  C2  I4B d   1      -1.165  -3.666  -3.076  0.00  0.00     0.003 A 
ATOM      3  C3  I4B d   1      -2.115  -2.853  -2.411  0.00  0.00     0.002 A 
ATOM      4  C4  I4B d   1      -2.590  -3.237  -1.173  0.00  0.00    -0.004 A 
ATOM      5  C5  I4B d   1      -2.084  -4.376  -0.553  0.00  0.00     0.002 A 
ATOM      6  C6  I4B d   1      -1.116  -5.157  -1.201  0.00  0.00     0.003 A 
ENDROOT
BRANCH   1   7
ATOM      7  C1' I4B d   1       0.293  -5.654  -3.217  0.00  0.00     0.060 C 
BRANCH   7   8
ATOM      8  C2' I4B d   1       1.649  -4.982  -3.146  0.00  0.00    -0.013 C 
ATOM      9  C4' I4B d   1       2.161  -4.935  -1.730  0.00  0.00     0.013 C 
ATOM     10  C3' I4B d   1       2.589  -5.738  -4.036  0.00  0.00     0.013 C 
ENDBRANCH   7   8
ENDBRANCH   1   7
TORSDOF 2
ENDMDL
