MODEL 1
REMARK minimizedAffinity 4.55331039
REMARK minimizedRMSD -1
REMARK  2 active torsions:
REMARK  status: ('A' for Active; 'I' for Inactive)
REMARK    1  A    between atoms: C2'_3  and  C1'_4 
REMARK    2  A    between atoms: C1'_4  and  C1_5 
ROOT
ATOM      1  C1  I4B d   1      -2.324   1.485   0.209  0.00  0.00    -0.075 A 
ATOM      2  C2  I4B d   1      -3.277   2.420  -0.113  0.00  0.00     0.003 A 
ATOM      3  C3  I4B d   1      -4.607   2.271   0.351  0.00  0.00     0.002 A 
ATOM      4  C4  I4B d   1      -4.949   1.154   1.085  0.00  0.00    -0.004 A 
ATOM      5  C5  I4B d   1      -3.977   0.220   1.430  0.00  0.00     0.002 A 
ATOM      6  C6  I4B d   1      -2.654   0.392   1.000  0.00  0.00     0.003 A 
ENDROOT
BRANCH   1   7
ATOM      7  C1' I4B d   1      -0.937   1.656  -0.324  0.00  0.00     0.060 C 
BRANCH   7   8
ATOM      8  C2' I4B d   1      -0.144   2.457   0.688  0.00  0.00    -0.013 C 
ATOM      9  C4' I4B d   1       0.232   1.614   1.878  0.00  0.00     0.013 C 
ATOM     10  C3' I4B d   1       1.075   2.995  -0.001  0.00  0.00     0.013 C 
ENDBRANCH   7   8
ENDBRANCH   1   7
TORSDOF 2
ENDMDL
