MODEL 1
REMARK minimizedAffinity 3.25964737
REMARK minimizedRMSD -1
REMARK  2 active torsions:
REMARK  status: ('A' for Active; 'I' for Inactive)
REMARK    1  A    between atoms: C2'_3  and  C1'_4 
REMARK    2  A    between atoms: C1'_4  and  C1_5 
ROOT
ATOM      1  C1  I4B d   1       1.212   1.406   0.311  0.00  0.00    -0.075 A 
ATOM      2  C2  I4B d   1       2.546   1.450   0.634  0.00  0.00     0.003 A 
ATOM      3  C3  I4B d   1       2.968   2.065   1.837  0.00  0.00     0.002 A 
ATOM      4  C4  I4B d   1       2.034   2.665   2.657  0.00  0.00    -0.004 A 
ATOM      5  C5  I4B d   1       0.681   2.600   2.340  0.00  0.00     0.002 A 
ATOM      6  C6  I4B d   1       0.265   1.956   1.165  0.00  0.00     0.003 A 
ENDROOT
BRANCH   1   7
ATOM      7  C1' I4B d   1       0.805   0.777  -0.984  0.00  0.00     0.060 C 
BRANCH   7   8
ATOM      8  C2' I4B d   1       1.834   1.153  -2.030  0.00  0.00    -0.013 C 
ATOM      9  C4' I4B d   1       2.757   0.000  -2.325  0.00  0.00     0.013 C 
ATOM     10  C3' I4B d   1       1.102   1.590  -3.264  0.00  0.00     0.013 C 
ENDBRANCH   7   8
ENDBRANCH   1   7
TORSDOF 2
ENDMDL
