MODEL 1
REMARK minimizedAffinity 9.18980503
REMARK minimizedRMSD -1
REMARK  2 active torsions:
REMARK  status: ('A' for Active; 'I' for Inactive)
REMARK    1  A    between atoms: C2'_3  and  C1'_4 
REMARK    2  A    between atoms: C1'_4  and  C1_5 
ROOT
ATOM      1  C1  I4B d   1      -3.352   0.344   1.235  0.00  0.00    -0.075 A 
ATOM      2  C2  I4B d   1      -2.105   0.822   0.918  0.00  0.00     0.003 A 
ATOM      3  C3  I4B d   1      -1.968   1.950   0.072  0.00  0.00     0.002 A 
ATOM      4  C4  I4B d   1      -3.095   2.534  -0.470  0.00  0.00    -0.004 A 
ATOM      5  C5  I4B d   1      -4.359   2.062  -0.129  0.00  0.00     0.002 A 
ATOM      6  C6  I4B d   1      -4.489   0.968   0.739  0.00  0.00     0.003 A 
ENDROOT
BRANCH   1   7
ATOM      7  C1' I4B d   1      -3.459  -0.868   2.104  0.00  0.00     0.060 C 
BRANCH   7   8
ATOM      8  C2' I4B d   1      -3.129  -0.456   3.524  0.00  0.00    -0.013 C 
ATOM      9  C4' I4B d   1      -4.318  -0.625   4.432  0.00  0.00     0.013 C 
ATOM     10  C3' I4B d   1      -1.970  -1.287   3.990  0.00  0.00     0.013 C 
ENDBRANCH   7   8
ENDBRANCH   1   7
TORSDOF 2
ENDMDL
