MODEL 1
REMARK minimizedAffinity 2.61164069
REMARK minimizedRMSD -1
REMARK  2 active torsions:
REMARK  status: ('A' for Active; 'I' for Inactive)
REMARK    1  A    between atoms: C2'_3  and  C1'_4 
REMARK    2  A    between atoms: C1'_4  and  C1_5 
ROOT
ATOM      1  C1  I4B d   1       0.420   1.646   0.683  0.00  0.00    -0.075 A 
ATOM      2  C2  I4B d   1      -0.757   1.855   1.357  0.00  0.00     0.003 A 
ATOM      3  C3  I4B d   1      -0.739   2.280   2.707  0.00  0.00     0.002 A 
ATOM      4  C4  I4B d   1       0.469   2.435   3.355  0.00  0.00    -0.004 A 
ATOM      5  C5  I4B d   1       1.662   2.244   2.663  0.00  0.00     0.002 A 
ATOM      6  C6  I4B d   1       1.638   1.859   1.315  0.00  0.00     0.003 A 
ENDROOT
BRANCH   1   7
ATOM      7  C1' I4B d   1       0.364   1.165  -0.733  0.00  0.00     0.060 C 
BRANCH   7   8
ATOM      8  C2' I4B d   1       1.524   1.786  -1.483  0.00  0.00    -0.013 C 
ATOM      9  C4' I4B d   1       2.630   0.788  -1.701  0.00  0.00     0.013 C 
ATOM     10  C3' I4B d   1       1.003   2.311  -2.788  0.00  0.00     0.013 C 
ENDBRANCH   7   8
ENDBRANCH   1   7
TORSDOF 2
ENDMDL
