MODEL 1
REMARK minimizedAffinity 8.92950344
REMARK minimizedRMSD -1
REMARK  2 active torsions:
REMARK  status: ('A' for Active; 'I' for Inactive)
REMARK    1  A    between atoms: C2'_3  and  C1'_4 
REMARK    2  A    between atoms: C1'_4  and  C1_5 
ROOT
ATOM      1  C1  I4B d   1      -0.080  -0.840   0.675  0.00  0.00    -0.075 A 
ATOM      2  C2  I4B d   1      -1.210  -0.268   0.145  0.00  0.00     0.003 A 
ATOM      3  C3  I4B d   1      -2.437  -0.975   0.150  0.00  0.00     0.002 A 
ATOM      4  C4  I4B d   1      -2.477  -2.262   0.645  0.00  0.00    -0.004 A 
ATOM      5  C5  I4B d   1      -1.337  -2.832   1.203  0.00  0.00     0.002 A 
ATOM      6  C6  I4B d   1      -0.133  -2.112   1.230  0.00  0.00     0.003 A 
ENDROOT
BRANCH   1   7
ATOM      7  C1' I4B d   1       1.206  -0.078   0.624  0.00  0.00     0.060 C 
BRANCH   7   8
ATOM      8  C2' I4B d   1       0.879   1.370   0.323  0.00  0.00    -0.013 C 
ATOM      9  C4' I4B d   1       1.199   2.257   1.498  0.00  0.00     0.013 C 
ATOM     10  C3' I4B d   1       1.658   1.778  -0.891  0.00  0.00     0.013 C 
ENDBRANCH   7   8
ENDBRANCH   1   7
TORSDOF 2
ENDMDL
