MODEL 1
REMARK minimizedAffinity -2.22125316
REMARK minimizedRMSD -1
REMARK  0 active torsions:
REMARK  status: ('A' for Active; 'I' for Inactive)
ROOT
ATOM      1  C1  DEN d   1      -1.777   1.516  -0.606  0.00  0.00     0.130 A 
ATOM      2  C2  DEN d   1      -1.208   2.719  -0.005  0.00  0.00    -0.031 A 
ATOM      3  C3  DEN d   1       0.071   2.350   0.634  0.00  0.00     0.027 A 
ATOM      4  C4  DEN d   1       1.222   0.044   0.747  0.00  0.00     0.027 A 
ATOM      5  C5  DEN d   1       1.115  -1.282   0.392  0.00  0.00    -0.003 A 
ATOM      6  C6  DEN d   1       0.030  -1.772  -0.285  0.00  0.00     0.001 A 
ATOM      7  C7  DEN d   1      -0.972  -0.919  -0.669  0.00  0.00     0.017 A 
ATOM      8  C8  DEN d   1      -0.875   0.418  -0.308  0.00  0.00    -0.094 A 
ATOM      9  C9  DEN d   1       0.236   0.896   0.366  0.00  0.00    -0.072 A 
ENDROOT
TORSDOF 0
ENDMDL
