MODEL 1
REMARK minimizedAffinity 0.258961022
REMARK minimizedRMSD -1
REMARK  0 active torsions:
REMARK  status: ('A' for Active; 'I' for Inactive)
ROOT
ATOM      1  C1  DEN d   1      -1.724  -2.366  -2.128  0.00  0.00     0.130 A 
ATOM      2  C2  DEN d   1      -1.623  -3.778  -1.771  0.00  0.00    -0.031 A 
ATOM      3  C3  DEN d   1      -0.766  -3.886  -0.573  0.00  0.00     0.027 A 
ATOM      4  C4  DEN d   1       0.404  -2.013   0.759  0.00  0.00     0.027 A 
ATOM      5  C5  DEN d   1       0.621  -0.655   0.832  0.00  0.00    -0.003 A 
ATOM      6  C6  DEN d   1       0.105   0.218  -0.089  0.00  0.00     0.001 A 
ATOM      7  C7  DEN d   1      -0.694  -0.254  -1.098  0.00  0.00     0.017 A 
ATOM      8  C8  DEN d   1      -0.912  -1.623  -1.182  0.00  0.00    -0.094 A 
ATOM      9  C9  DEN d   1      -0.390  -2.487  -0.234  0.00  0.00    -0.072 A 
ENDROOT
TORSDOF 0
ENDMDL
