MODEL 1
REMARK minimizedAffinity -5.80027628
REMARK minimizedRMSD -1
REMARK  0 active torsions:
REMARK  status: ('A' for Active; 'I' for Inactive)
ROOT
ATOM      1  C1  DEN d   1      -1.073   0.340  -1.484  0.00  0.00     0.130 A 
ATOM      2  C2  DEN d   1      -0.449   0.816  -0.253  0.00  0.00    -0.031 A 
ATOM      3  C3  DEN d   1       0.162  -0.344   0.427  0.00  0.00     0.027 A 
ATOM      4  C4  DEN d   1       0.206  -2.816  -0.306  0.00  0.00     0.027 A 
ATOM      5  C5  DEN d   1      -0.201  -3.708  -1.274  0.00  0.00    -0.003 A 
ATOM      6  C6  DEN d   1      -0.950  -3.321  -2.354  0.00  0.00     0.001 A 
ATOM      7  C7  DEN d   1      -1.278  -2.001  -2.515  0.00  0.00     0.017 A 
ATOM      8  C8  DEN d   1      -0.877  -1.098  -1.539  0.00  0.00    -0.094 A 
ATOM      9  C9  DEN d   1      -0.110  -1.506  -0.462  0.00  0.00    -0.072 A 
ENDROOT
TORSDOF 0
ENDMDL
