MODEL 1
REMARK minimizedAffinity -3.15646839
REMARK minimizedRMSD -1
REMARK  0 active torsions:
REMARK  status: ('A' for Active; 'I' for Inactive)
ROOT
ATOM      1  C1  DEN d   1      -0.206   0.283  -1.819  0.00  0.00     0.130 A 
ATOM      2  C2  DEN d   1      -0.379   0.512  -0.387  0.00  0.00    -0.031 A 
ATOM      3  C3  DEN d   1      -0.736  -0.775   0.242  0.00  0.00     0.027 A 
ATOM      4  C4  DEN d   1      -1.030  -3.091  -0.855  0.00  0.00     0.027 A 
ATOM      5  C5  DEN d   1      -0.998  -3.780  -2.047  0.00  0.00    -0.003 A 
ATOM      6  C6  DEN d   1      -0.735  -3.163  -3.241  0.00  0.00     0.001 A 
ATOM      7  C7  DEN d   1      -0.449  -1.823  -3.264  0.00  0.00     0.017 A 
ATOM      8  C8  DEN d   1      -0.487  -1.120  -2.067  0.00  0.00    -0.094 A 
ATOM      9  C9  DEN d   1      -0.743  -1.764  -0.869  0.00  0.00    -0.072 A 
ENDROOT
TORSDOF 0
ENDMDL
