MODEL 1
REMARK minimizedAffinity -4.81757879
REMARK minimizedRMSD -1
REMARK  0 active torsions:
REMARK  status: ('A' for Active; 'I' for Inactive)
ROOT
ATOM      1  C1  DEN d   1      -1.576   0.468   1.288  0.00  0.00     0.130 A 
ATOM      2  C2  DEN d   1      -1.129  -0.776   0.667  0.00  0.00    -0.031 A 
ATOM      3  C3  DEN d   1      -0.035  -0.452  -0.270  0.00  0.00     0.027 A 
ATOM      4  C4  DEN d   1       1.010   1.844  -0.812  0.00  0.00     0.027 A 
ATOM      5  C5  DEN d   1       0.955   3.193  -0.543  0.00  0.00    -0.003 A 
ATOM      6  C6  DEN d   1       0.038   3.729   0.322  0.00  0.00     0.001 A 
ATOM      7  C7  DEN d   1      -0.832   2.905   0.985  0.00  0.00     0.017 A 
ATOM      8  C8  DEN d   1      -0.788   1.544   0.713  0.00  0.00    -0.094 A 
ATOM      9  C9  DEN d   1       0.154   1.020  -0.156  0.00  0.00    -0.072 A 
ENDROOT
TORSDOF 0
ENDMDL
