MODEL 1
REMARK minimizedAffinity -4.30908298
REMARK minimizedRMSD -1
REMARK  0 active torsions:
REMARK  status: ('A' for Active; 'I' for Inactive)
ROOT
ATOM      1  C1  DEN d   1      -0.264  -0.814  -1.763  0.00  0.00     0.130 A 
ATOM      2  C2  DEN d   1      -0.365  -1.987  -0.900  0.00  0.00    -0.031 A 
ATOM      3  C3  DEN d   1      -0.727  -1.526   0.456  0.00  0.00     0.027 A 
ATOM      4  C4  DEN d   1      -1.143   0.876   1.296  0.00  0.00     0.027 A 
ATOM      5  C5  DEN d   1      -1.163   2.205   0.932  0.00  0.00    -0.003 A 
ATOM      6  C6  DEN d   1      -0.854   2.620  -0.336  0.00  0.00     0.001 A 
ATOM      7  C7  DEN d   1      -0.556   1.693  -1.299  0.00  0.00     0.017 A 
ATOM      8  C8  DEN d   1      -0.527   0.352  -0.939  0.00  0.00    -0.094 A 
ATOM      9  C9  DEN d   1      -0.854  -0.048   0.345  0.00  0.00    -0.072 A 
ENDROOT
TORSDOF 0
ENDMDL
