MODEL 1
REMARK minimizedAffinity -5.91227102
REMARK minimizedRMSD -1
REMARK  0 active torsions:
REMARK  status: ('A' for Active; 'I' for Inactive)
ROOT
ATOM      1  C1  DEN d   1       1.542   2.083  -0.415  0.00  0.00     0.130 A 
ATOM      2  C2  DEN d   1       0.764   3.315  -0.322  0.00  0.00    -0.031 A 
ATOM      3  C3  DEN d   1      -0.605   2.960   0.103  0.00  0.00     0.027 A 
ATOM      4  C4  DEN d   1      -1.588   0.634   0.627  0.00  0.00     0.027 A 
ATOM      5  C5  DEN d   1      -1.315  -0.715   0.677  0.00  0.00    -0.003 A 
ATOM      6  C6  DEN d   1      -0.090  -1.225   0.337  0.00  0.00     0.001 A 
ATOM      7  C7  DEN d   1       0.922  -0.376  -0.026  0.00  0.00     0.017 A 
ATOM      8  C8  DEN d   1       0.652   0.985  -0.086  0.00  0.00    -0.094 A 
ATOM      9  C9  DEN d   1      -0.590   1.482   0.274  0.00  0.00    -0.072 A 
ENDROOT
TORSDOF 0
ENDMDL
