MODEL 1
REMARK minimizedAffinity -3.4137609
REMARK minimizedRMSD -1
REMARK  0 active torsions:
REMARK  status: ('A' for Active; 'I' for Inactive)
ROOT
ATOM      1  C1  DEN d   1      -0.112   3.195   0.345  0.00  0.00     0.130 A 
ATOM      2  C2  DEN d   1       1.247   3.193  -0.189  0.00  0.00    -0.031 A 
ATOM      3  C3  DEN d   1       1.639   1.791  -0.434  0.00  0.00     0.027 A 
ATOM      4  C4  DEN d   1       0.279  -0.366  -0.045  0.00  0.00     0.027 A 
ATOM      5  C5  DEN d   1      -0.921  -0.870   0.405  0.00  0.00    -0.003 A 
ATOM      6  C6  DEN d   1      -1.915  -0.064   0.894  0.00  0.00     0.001 A 
ATOM      7  C7  DEN d   1      -1.743   1.295   0.903  0.00  0.00     0.017 A 
ATOM      8  C8  DEN d   1      -0.533   1.810   0.458  0.00  0.00    -0.094 A 
ATOM      9  C9  DEN d   1       0.454   0.980  -0.045  0.00  0.00    -0.072 A 
ENDROOT
TORSDOF 0
ENDMDL
