MODEL 1
REMARK minimizedAffinity -6.54647398
REMARK minimizedRMSD -1
REMARK  0 active torsions:
REMARK  status: ('A' for Active; 'I' for Inactive)
ROOT
ATOM      1  C1  DEN d   1       1.183  -0.648   0.546  0.00  0.00     0.130 A 
ATOM      2  C2  DEN d   1      -0.195  -0.857   0.110  0.00  0.00    -0.031 A 
ATOM      3  C3  DEN d   1      -0.813   0.467  -0.103  0.00  0.00     0.027 A 
ATOM      4  C4  DEN d   1       0.226   2.809   0.194  0.00  0.00     0.027 A 
ATOM      5  C5  DEN d   1       1.364   3.494   0.559  0.00  0.00    -0.003 A 
ATOM      6  C6  DEN d   1       2.501   2.853   0.975  0.00  0.00     0.001 A 
ATOM      7  C7  DEN d   1       2.540   1.484   0.992  0.00  0.00     0.017 A 
ATOM      8  C8  DEN d   1       1.394   0.786   0.632  0.00  0.00    -0.094 A 
ATOM      9  C9  DEN d   1       0.259   1.452   0.203  0.00  0.00    -0.072 A 
ENDROOT
TORSDOF 0
ENDMDL
