MODEL 1
REMARK minimizedAffinity 1.34123766
REMARK minimizedRMSD -1
REMARK  0 active torsions:
REMARK  status: ('A' for Active; 'I' for Inactive)
ROOT
ATOM      1  C1  DEN d   1       0.239  -0.026  -0.719  0.00  0.00     0.130 A 
ATOM      2  C2  DEN d   1      -0.398  -1.133  -0.010  0.00  0.00    -0.031 A 
ATOM      3  C3  DEN d   1      -1.058  -0.585   1.192  0.00  0.00     0.027 A 
ATOM      4  C4  DEN d   1      -1.160   1.856   2.017  0.00  0.00     0.027 A 
ATOM      5  C5  DEN d   1      -0.759   3.148   1.755  0.00  0.00    -0.003 A 
ATOM      6  C6  DEN d   1       0.025   3.464   0.677  0.00  0.00     0.001 A 
ATOM      7  C7  DEN d   1       0.396   2.483  -0.204  0.00  0.00     0.017 A 
ATOM      8  C8  DEN d   1       0.001   1.177   0.058  0.00  0.00    -0.094 A 
ATOM      9  C9  DEN d   1      -0.801   0.880   1.146  0.00  0.00    -0.072 A 
ENDROOT
TORSDOF 0
ENDMDL
