MODEL 1
REMARK minimizedAffinity 1.29593837
REMARK minimizedRMSD -1
REMARK  0 active torsions:
REMARK  status: ('A' for Active; 'I' for Inactive)
ROOT
ATOM      1  C1  DEN d   1      -1.385   1.166   0.421  0.00  0.00     0.130 A 
ATOM      2  C2  DEN d   1      -0.712   2.457   0.538  0.00  0.00    -0.031 A 
ATOM      3  C3  DEN d   1       0.744   2.210   0.581  0.00  0.00     0.027 A 
ATOM      4  C4  DEN d   1       2.013  -0.033   0.471  0.00  0.00     0.027 A 
ATOM      5  C5  DEN d   1       1.871  -1.400   0.380  0.00  0.00    -0.003 A 
ATOM      6  C6  DEN d   1       0.643  -2.005   0.332  0.00  0.00     0.001 A 
ATOM      7  C7  DEN d   1      -0.492  -1.237   0.327  0.00  0.00     0.017 A 
ATOM      8  C8  DEN d   1      -0.357   0.141   0.426  0.00  0.00    -0.094 A 
ATOM      9  C9  DEN d   1       0.894   0.734   0.462  0.00  0.00    -0.072 A 
ENDROOT
TORSDOF 0
ENDMDL
