MODEL 1
REMARK minimizedAffinity 8.08713341
REMARK minimizedRMSD -1
REMARK  0 active torsions:
REMARK  status: ('A' for Active; 'I' for Inactive)
ROOT
ATOM      1  C1  DEN d   1       2.016  -1.353  -0.640  0.00  0.00     0.130 A 
ATOM      2  C2  DEN d   1       1.366  -1.015   0.623  0.00  0.00    -0.031 A 
ATOM      3  C3  DEN d   1       0.076  -1.731   0.679  0.00  0.00     0.027 A 
ATOM      4  C4  DEN d   1      -0.971  -3.325  -1.057  0.00  0.00     0.027 A 
ATOM      5  C5  DEN d   1      -0.798  -3.909  -2.293  0.00  0.00    -0.003 A 
ATOM      6  C6  DEN d   1       0.300  -3.658  -3.072  0.00  0.00     0.001 A 
ATOM      7  C7  DEN d   1       1.290  -2.835  -2.605  0.00  0.00     0.017 A 
ATOM      8  C8  DEN d   1       1.119  -2.236  -1.363  0.00  0.00    -0.094 A 
ATOM      9  C9  DEN d   1       0.008  -2.513  -0.585  0.00  0.00    -0.072 A 
ENDROOT
TORSDOF 0
ENDMDL
