MODEL 1
REMARK minimizedAffinity 5.55892134
REMARK minimizedRMSD -1
REMARK  0 active torsions:
REMARK  status: ('A' for Active; 'I' for Inactive)
ROOT
ATOM      1  C1  DEN d   1       1.629   0.313   0.748  0.00  0.00     0.130 A 
ATOM      2  C2  DEN d   1       2.830   0.282  -0.082  0.00  0.00    -0.031 A 
ATOM      3  C3  DEN d   1       2.940   1.582  -0.774  0.00  0.00     0.027 A 
ATOM      4  C4  DEN d   1       1.378   3.630  -0.639  0.00  0.00     0.027 A 
ATOM      5  C5  DEN d   1       0.223   4.125  -0.075  0.00  0.00    -0.003 A 
ATOM      6  C6  DEN d   1      -0.556   3.379   0.769  0.00  0.00     0.001 A 
ATOM      7  C7  DEN d   1      -0.166   2.111   1.110  0.00  0.00     0.017 A 
ATOM      8  C8  DEN d   1       0.994   1.602   0.540  0.00  0.00    -0.094 A 
ATOM      9  C9  DEN d   1       1.774   2.376  -0.302  0.00  0.00    -0.072 A 
ENDROOT
TORSDOF 0
ENDMDL
