MODEL 1
REMARK minimizedAffinity 0.813944757
REMARK minimizedRMSD -1
REMARK  3 active torsions:
REMARK  status: ('A' for Active; 'I' for Inactive)
REMARK    1  A    between atoms: C3'_2  and  C2'_3 
REMARK    2  A    between atoms: C2'_3  and  C1'_4 
REMARK    3  A    between atoms: C1'_4  and  C1_5 
ROOT
ATOM      1  C1  N4B d   1      -2.223   1.691   0.396  0.00  0.00    -0.075 A 
ATOM      2  C2  N4B d   1      -1.083   2.017  -0.371  0.00  0.00     0.002 A 
ATOM      3  C3  N4B d   1       0.151   1.542  -0.002  0.00  0.00     0.002 A 
ATOM      4  C4  N4B d   1       0.273   0.759   1.136  0.00  0.00    -0.004 A 
ATOM      5  C5  N4B d   1      -0.837   0.427   1.857  0.00  0.00     0.002 A 
ATOM      6  C6  N4B d   1      -2.085   0.894   1.495  0.00  0.00     0.002 A 
ENDROOT
BRANCH   1   7
ATOM      7  C1' N4B d   1      -3.581   2.257   0.081  0.00  0.00     0.057 C 
BRANCH   7   8
ATOM      8  C2' N4B d   1      -4.643   1.461   0.834  0.00  0.00     0.009 C 
BRANCH   8   9
ATOM      9  C3' N4B d   1      -5.998   2.146   0.799  0.00  0.00     0.004 C 
ATOM     10  C4' N4B d   1      -6.000   3.467   1.509  0.00  0.00     0.003 C 
ENDBRANCH   8   9
ENDBRANCH   7   8
ENDBRANCH   1   7
TORSDOF 3
ENDMDL
