MODEL 1
REMARK minimizedAffinity 0.134174794
REMARK minimizedRMSD -1
REMARK  3 active torsions:
REMARK  status: ('A' for Active; 'I' for Inactive)
REMARK    1  A    between atoms: C3'_2  and  C2'_3 
REMARK    2  A    between atoms: C2'_3  and  C1'_4 
REMARK    3  A    between atoms: C1'_4  and  C1_5 
ROOT
ATOM      1  C1  N4B d   1      -0.032  -5.790  -2.940  0.00  0.00    -0.075 A 
ATOM      2  C2  N4B d   1       0.719  -5.571  -1.764  0.00  0.00     0.002 A 
ATOM      3  C3  N4B d   1       2.091  -5.575  -1.814  0.00  0.00     0.002 A 
ATOM      4  C4  N4B d   1       2.732  -5.814  -3.020  0.00  0.00    -0.004 A 
ATOM      5  C5  N4B d   1       2.000  -5.999  -4.157  0.00  0.00     0.002 A 
ATOM      6  C6  N4B d   1       0.620  -5.993  -4.122  0.00  0.00     0.002 A 
ENDROOT
BRANCH   1   7
ATOM      7  C1' N4B d   1      -1.533  -5.880  -2.919  0.00  0.00     0.057 C 
BRANCH   7   8
ATOM      8  C2' N4B d   1      -2.117  -4.475  -2.798  0.00  0.00     0.009 C 
BRANCH   8   9
ATOM      9  C3' N4B d   1      -2.828  -4.268  -1.472  0.00  0.00     0.004 C 
ATOM     10  C4' N4B d   1      -2.377  -5.231  -0.415  0.00  0.00     0.003 C 
ENDBRANCH   8   9
ENDBRANCH   7   8
ENDBRANCH   1   7
TORSDOF 3
ENDMDL
