MODEL 1
REMARK minimizedAffinity -2.67809653
REMARK minimizedRMSD -1
REMARK  3 active torsions:
REMARK  status: ('A' for Active; 'I' for Inactive)
REMARK    1  A    between atoms: C3'_2  and  C2'_3 
REMARK    2  A    between atoms: C2'_3  and  C1'_4 
REMARK    3  A    between atoms: C1'_4  and  C1_5 
ROOT
ATOM      1  C1  N4B d   1      -3.446   2.085   0.352  0.00  0.00    -0.075 A 
ATOM      2  C2  N4B d   1      -3.615   0.806   0.925  0.00  0.00     0.002 A 
ATOM      3  C3  N4B d   1      -4.849   0.419   1.389  0.00  0.00     0.002 A 
ATOM      4  C4  N4B d   1      -5.918   1.299   1.309  0.00  0.00    -0.004 A 
ATOM      5  C5  N4B d   1      -5.752   2.524   0.731  0.00  0.00     0.002 A 
ATOM      6  C6  N4B d   1      -4.518   2.924   0.257  0.00  0.00     0.002 A 
ENDROOT
BRANCH   1   7
ATOM      7  C1' N4B d   1      -2.097   2.585  -0.090  0.00  0.00     0.057 C 
BRANCH   7   8
ATOM      8  C2' N4B d   1      -1.217   1.393  -0.454  0.00  0.00     0.009 C 
BRANCH   8   9
ATOM      9  C3' N4B d   1      -0.227   1.060   0.650  0.00  0.00     0.004 C 
ATOM     10  C4' N4B d   1      -0.479  -0.281   1.271  0.00  0.00     0.003 C 
ENDBRANCH   8   9
ENDBRANCH   7   8
ENDBRANCH   1   7
TORSDOF 3
ENDMDL
