MODEL 1
REMARK minimizedAffinity 3.38043094
REMARK minimizedRMSD -1
REMARK  3 active torsions:
REMARK  status: ('A' for Active; 'I' for Inactive)
REMARK    1  A    between atoms: C3'_2  and  C2'_3 
REMARK    2  A    between atoms: C2'_3  and  C1'_4 
REMARK    3  A    between atoms: C1'_4  and  C1_5 
ROOT
ATOM      1  C1  N4B d   1      -2.243   1.369   0.523  0.00  0.00    -0.075 A 
ATOM      2  C2  N4B d   1      -1.725   0.106   0.884  0.00  0.00     0.002 A 
ATOM      3  C3  N4B d   1      -0.435  -0.001   1.345  0.00  0.00     0.002 A 
ATOM      4  C4  N4B d   1       0.357   1.133   1.435  0.00  0.00    -0.004 A 
ATOM      5  C5  N4B d   1      -0.159   2.353   1.108  0.00  0.00     0.002 A 
ATOM      6  C6  N4B d   1      -1.454   2.476   0.647  0.00  0.00     0.002 A 
ENDROOT
BRANCH   1   7
ATOM      7  C1' N4B d   1      -3.618   1.524  -0.067  0.00  0.00     0.057 C 
BRANCH   7   8
ATOM      8  C2' N4B d   1      -4.616   0.736   0.776  0.00  0.00     0.009 C 
BRANCH   8   9
ATOM      9  C3' N4B d   1      -5.987   1.390   0.792  0.00  0.00     0.004 C 
ATOM     10  C4' N4B d   1      -6.000   2.696   1.528  0.00  0.00     0.003 C 
ENDBRANCH   8   9
ENDBRANCH   7   8
ENDBRANCH   1   7
TORSDOF 3
ENDMDL
