MODEL 1
REMARK minimizedAffinity -2.80062175
REMARK minimizedRMSD -1
REMARK  3 active torsions:
REMARK  status: ('A' for Active; 'I' for Inactive)
REMARK    1  A    between atoms: C3'_2  and  C2'_3 
REMARK    2  A    between atoms: C2'_3  and  C1'_4 
REMARK    3  A    between atoms: C1'_4  and  C1_5 
ROOT
ATOM      1  C1  N4B d   1      -2.186   1.565   0.506  0.00  0.00    -0.075 A 
ATOM      2  C2  N4B d   1      -2.211   0.259   1.043  0.00  0.00     0.002 A 
ATOM      3  C3  N4B d   1      -3.410  -0.323   1.375  0.00  0.00     0.002 A 
ATOM      4  C4  N4B d   1      -4.589   0.385   1.197  0.00  0.00    -0.004 A 
ATOM      5  C5  N4B d   1      -4.558   1.636   0.655  0.00  0.00     0.002 A 
ATOM      6  C6  N4B d   1      -3.361   2.232   0.312  0.00  0.00     0.002 A 
ENDROOT
BRANCH   1   7
ATOM      7  C1' N4B d   1      -0.894   2.276   0.208  0.00  0.00     0.057 C 
BRANCH   7   8
ATOM      8  C2' N4B d   1       0.150   1.873   1.245  0.00  0.00     0.009 C 
BRANCH   8   9
ATOM      9  C3' N4B d   1      -0.075   2.568   2.577  0.00  0.00     0.004 C 
ATOM     10  C4' N4B d   1       0.941   2.183   3.611  0.00  0.00     0.003 C 
ENDBRANCH   8   9
ENDBRANCH   7   8
ENDBRANCH   1   7
TORSDOF 3
ENDMDL
