MODEL 1
REMARK minimizedAffinity -0.136241928
REMARK minimizedRMSD -1
REMARK  3 active torsions:
REMARK  status: ('A' for Active; 'I' for Inactive)
REMARK    1  A    between atoms: C3'_2  and  C2'_3 
REMARK    2  A    between atoms: C2'_3  and  C1'_4 
REMARK    3  A    between atoms: C1'_4  and  C1_5 
ROOT
ATOM      1  C1  N4B d   1      -2.125   1.811   0.437  0.00  0.00    -0.075 A 
ATOM      2  C2  N4B d   1      -1.056   2.731   0.354  0.00  0.00     0.002 A 
ATOM      3  C3  N4B d   1       0.237   2.297   0.520  0.00  0.00     0.002 A 
ATOM      4  C4  N4B d   1       0.482   0.959   0.787  0.00  0.00    -0.004 A 
ATOM      5  C5  N4B d   1      -0.554   0.073   0.840  0.00  0.00     0.002 A 
ATOM      6  C6  N4B d   1      -1.857   0.494   0.671  0.00  0.00     0.002 A 
ENDROOT
BRANCH   1   7
ATOM      7  C1' N4B d   1      -3.560   2.252   0.347  0.00  0.00     0.057 C 
BRANCH   7   8
ATOM      8  C2' N4B d   1      -4.469   1.067   0.661  0.00  0.00     0.009 C 
BRANCH   8   9
ATOM      9  C3' N4B d   1      -5.903   1.501   0.910  0.00  0.00     0.004 C 
ATOM     10  C4' N4B d   1      -5.998   2.855   1.547  0.00  0.00     0.003 C 
ENDBRANCH   8   9
ENDBRANCH   7   8
ENDBRANCH   1   7
TORSDOF 3
ENDMDL
