MODEL 1
REMARK minimizedAffinity 1.53298974
REMARK minimizedRMSD -1
REMARK  3 active torsions:
REMARK  status: ('A' for Active; 'I' for Inactive)
REMARK    1  A    between atoms: C3'_2  and  C2'_3 
REMARK    2  A    between atoms: C2'_3  and  C1'_4 
REMARK    3  A    between atoms: C1'_4  and  C1_5 
ROOT
ATOM      1  C1  N4B d   1      -1.566   2.288   0.576  0.00  0.00    -0.075 A 
ATOM      2  C2  N4B d   1      -0.222   2.595   0.270  0.00  0.00     0.002 A 
ATOM      3  C3  N4B d   1       0.733   1.609   0.306  0.00  0.00     0.002 A 
ATOM      4  C4  N4B d   1       0.373   0.317   0.660  0.00  0.00    -0.004 A 
ATOM      5  C5  N4B d   1      -0.932   0.023   0.929  0.00  0.00     0.002 A 
ATOM      6  C6  N4B d   1      -1.903   1.004   0.893  0.00  0.00     0.002 A 
ENDROOT
BRANCH   1   7
ATOM      7  C1' N4B d   1      -2.630   3.350   0.634  0.00  0.00     0.057 C 
BRANCH   7   8
ATOM      8  C2' N4B d   1      -3.787   2.949  -0.276  0.00  0.00     0.009 C 
BRANCH   8   9
ATOM      9  C3' N4B d   1      -4.967   2.406   0.511  0.00  0.00     0.004 C 
ATOM     10  C4' N4B d   1      -5.996   3.455   0.813  0.00  0.00     0.003 C 
ENDBRANCH   8   9
ENDBRANCH   7   8
ENDBRANCH   1   7
TORSDOF 3
ENDMDL
