MODEL 1
REMARK minimizedAffinity -1.35406053
REMARK minimizedRMSD -1
REMARK  3 active torsions:
REMARK  status: ('A' for Active; 'I' for Inactive)
REMARK    1  A    between atoms: C3'_2  and  C2'_3 
REMARK    2  A    between atoms: C2'_3  and  C1'_4 
REMARK    3  A    between atoms: C1'_4  and  C1_5 
ROOT
ATOM      1  C1  N4B d   1      -2.200   1.941   0.116  0.00  0.00    -0.075 A 
ATOM      2  C2  N4B d   1      -1.810   1.099   1.180  0.00  0.00     0.002 A 
ATOM      3  C3  N4B d   1      -0.493   0.740   1.325  0.00  0.00     0.002 A 
ATOM      4  C4  N4B d   1       0.446   1.194   0.410  0.00  0.00    -0.004 A 
ATOM      5  C5  N4B d   1       0.065   2.027  -0.601  0.00  0.00     0.002 A 
ATOM      6  C6  N4B d   1      -1.255   2.399  -0.756  0.00  0.00     0.002 A 
ENDROOT
BRANCH   1   7
ATOM      7  C1' N4B d   1      -3.642   2.291  -0.133  0.00  0.00     0.057 C 
BRANCH   7   8
ATOM      8  C2' N4B d   1      -4.533   1.313   0.627  0.00  0.00     0.009 C 
BRANCH   8   9
ATOM      9  C3' N4B d   1      -5.939   1.856   0.820  0.00  0.00     0.004 C 
ATOM     10  C4' N4B d   1      -5.958   3.181   1.522  0.00  0.00     0.003 C 
ENDBRANCH   8   9
ENDBRANCH   7   8
ENDBRANCH   1   7
TORSDOF 3
ENDMDL
