MODEL 1
REMARK minimizedAffinity -1.37948263
REMARK minimizedRMSD -1
REMARK  3 active torsions:
REMARK  status: ('A' for Active; 'I' for Inactive)
REMARK    1  A    between atoms: C3'_2  and  C2'_3 
REMARK    2  A    between atoms: C2'_3  and  C1'_4 
REMARK    3  A    between atoms: C1'_4  and  C1_5 
ROOT
ATOM      1  C1  N4B d   1      -2.318   1.811  -0.028  0.00  0.00    -0.075 A 
ATOM      2  C2  N4B d   1      -1.339   2.468  -0.805  0.00  0.00     0.002 A 
ATOM      3  C3  N4B d   1      -0.030   2.055  -0.752  0.00  0.00     0.002 A 
ATOM      4  C4  N4B d   1       0.325   1.005   0.081  0.00  0.00    -0.004 A 
ATOM      5  C5  N4B d   1      -0.631   0.360   0.809  0.00  0.00     0.002 A 
ATOM      6  C6  N4B d   1      -1.951   0.761   0.763  0.00  0.00     0.002 A 
ENDROOT
BRANCH   1   7
ATOM      7  C1' N4B d   1      -3.746   2.281   0.012  0.00  0.00     0.057 C 
BRANCH   7   8
ATOM      8  C2' N4B d   1      -4.600   1.228   0.712  0.00  0.00     0.009 C 
BRANCH   8   9
ATOM      9  C3' N4B d   1      -5.990   1.748   1.036  0.00  0.00     0.004 C 
ATOM     10  C4' N4B d   1      -6.000   3.209   1.376  0.00  0.00     0.003 C 
ENDBRANCH   8   9
ENDBRANCH   7   8
ENDBRANCH   1   7
TORSDOF 3
ENDMDL
