MODEL 1
REMARK minimizedAffinity 2.28600001
REMARK minimizedRMSD -1
REMARK  3 active torsions:
REMARK  status: ('A' for Active; 'I' for Inactive)
REMARK    1  A    between atoms: C3'_2  and  C2'_3 
REMARK    2  A    between atoms: C2'_3  and  C1'_4 
REMARK    3  A    between atoms: C1'_4  and  C1_5 
ROOT
ATOM      1  C1  N4B d   1      -1.535   1.658   0.215  0.00  0.00    -0.075 A 
ATOM      2  C2  N4B d   1      -0.154   1.813  -0.040  0.00  0.00     0.002 A 
ATOM      3  C3  N4B d   1       0.765   1.160   0.744  0.00  0.00     0.002 A 
ATOM      4  C4  N4B d   1       0.331   0.366   1.795  0.00  0.00    -0.004 A 
ATOM      5  C5  N4B d   1      -1.005   0.202   2.018  0.00  0.00     0.002 A 
ATOM      6  C6  N4B d   1      -1.941   0.849   1.236  0.00  0.00     0.002 A 
ENDROOT
BRANCH   1   7
ATOM      7  C1' N4B d   1      -2.575   2.419  -0.561  0.00  0.00     0.057 C 
BRANCH   7   8
ATOM      8  C2' N4B d   1      -3.581   3.026   0.412  0.00  0.00     0.009 C 
BRANCH   8   9
ATOM      9  C3' N4B d   1      -4.923   2.316   0.359  0.00  0.00     0.004 C 
ATOM     10  C4' N4B d   1      -6.000   3.052   1.099  0.00  0.00     0.003 C 
ENDBRANCH   8   9
ENDBRANCH   7   8
ENDBRANCH   1   7
TORSDOF 3
ENDMDL
