MODEL 1
REMARK minimizedAffinity -2.16870022
REMARK minimizedRMSD -1
REMARK  0 active torsions:
REMARK  status: ('A' for Active; 'I' for Inactive)
ROOT
ATOM      1  C1  DEN d   1       0.018  -1.342   0.126  0.00  0.00     0.130 A 
ATOM      2  C2  DEN d   1       0.585  -0.059   0.535  0.00  0.00    -0.031 A 
ATOM      3  C3  DEN d   1      -0.218   1.013  -0.087  0.00  0.00     0.027 A 
ATOM      4  C4  DEN d   1      -2.276   0.813  -1.629  0.00  0.00     0.027 A 
ATOM      5  C5  DEN d   1      -3.120  -0.070  -2.266  0.00  0.00    -0.003 A 
ATOM      6  C6  DEN d   1      -2.957  -1.427  -2.179  0.00  0.00     0.001 A 
ATOM      7  C7  DEN d   1      -1.954  -1.942  -1.401  0.00  0.00     0.017 A 
ATOM      8  C8  DEN d   1      -1.095  -1.058  -0.761  0.00  0.00    -0.094 A 
ATOM      9  C9  DEN d   1      -1.283   0.310  -0.852  0.00  0.00    -0.072 A 
ENDROOT
TORSDOF 0
ENDMDL
