MODEL 1
REMARK minimizedAffinity -6.58909845
REMARK minimizedRMSD -1
REMARK  0 active torsions:
REMARK  status: ('A' for Active; 'I' for Inactive)
ROOT
ATOM      1  C1  DEN d   1       2.778  -0.902   0.928  0.00  0.00     0.130 A 
ATOM      2  C2  DEN d   1       3.213  -1.944   1.854  0.00  0.00    -0.031 A 
ATOM      3  C3  DEN d   1       2.016  -2.686   2.300  0.00  0.00     0.027 A 
ATOM      4  C4  DEN d   1      -0.453  -2.327   1.646  0.00  0.00     0.027 A 
ATOM      5  C5  DEN d   1      -1.315  -1.556   0.898  0.00  0.00    -0.003 A 
ATOM      6  C6  DEN d   1      -0.881  -0.500   0.141  0.00  0.00     0.001 A 
ATOM      7  C7  DEN d   1       0.457  -0.214   0.079  0.00  0.00     0.017 A 
ATOM      8  C8  DEN d   1       1.332  -0.983   0.836  0.00  0.00    -0.094 A 
ATOM      9  C9  DEN d   1       0.875  -2.054   1.585  0.00  0.00    -0.072 A 
ENDROOT
TORSDOF 0
ENDMDL
