MODEL 1
REMARK minimizedAffinity -1.71239793
REMARK minimizedRMSD -1
REMARK  0 active torsions:
REMARK  status: ('A' for Active; 'I' for Inactive)
ROOT
ATOM      1  C1  DEN d   1      -2.983   0.005  -1.574  0.00  0.00     0.130 A 
ATOM      2  C2  DEN d   1      -2.780   0.373  -2.973  0.00  0.00    -0.031 A 
ATOM      3  C3  DEN d   1      -1.342   0.643  -3.170  0.00  0.00     0.027 A 
ATOM      4  C4  DEN d   1       0.582   0.522  -1.456  0.00  0.00     0.027 A 
ATOM      5  C5  DEN d   1       0.898   0.265  -0.140  0.00  0.00    -0.003 A 
ATOM      6  C6  DEN d   1      -0.053  -0.061   0.790  0.00  0.00     0.001 A 
ATOM      7  C7  DEN d   1      -1.363  -0.183   0.407  0.00  0.00     0.017 A 
ATOM      8  C8  DEN d   1      -1.691   0.082  -0.917  0.00  0.00    -0.094 A 
ATOM      9  C9  DEN d   1      -0.713   0.398  -1.844  0.00  0.00    -0.072 A 
ENDROOT
TORSDOF 0
ENDMDL
