MODEL 1
REMARK minimizedAffinity -3.77502012
REMARK minimizedRMSD -1
REMARK  0 active torsions:
REMARK  status: ('A' for Active; 'I' for Inactive)
ROOT
ATOM      1  C1  DEN d   1       0.301   1.012  -0.084  0.00  0.00     0.130 A 
ATOM      2  C2  DEN d   1      -0.971   0.301  -0.177  0.00  0.00    -0.031 A 
ATOM      3  C3  DEN d   1      -0.853  -0.950   0.598  0.00  0.00     0.027 A 
ATOM      4  C4  DEN d   1       1.165  -1.848   1.931  0.00  0.00     0.027 A 
ATOM      5  C5  DEN d   1       2.470  -1.601   2.293  0.00  0.00    -0.003 A 
ATOM      6  C6  DEN d   1       3.150  -0.492   1.865  0.00  0.00     0.001 A 
ATOM      7  C7  DEN d   1       2.512   0.435   1.084  0.00  0.00     0.017 A 
ATOM      8  C8  DEN d   1       1.198   0.190   0.708  0.00  0.00    -0.094 A 
ATOM      9  C9  DEN d   1       0.524  -0.932   1.162  0.00  0.00    -0.072 A 
ENDROOT
TORSDOF 0
ENDMDL
