MODEL 1
REMARK minimizedAffinity -2.90850139
REMARK minimizedRMSD -1
REMARK  0 active torsions:
REMARK  status: ('A' for Active; 'I' for Inactive)
ROOT
ATOM      1  C1  DEN d   1      -0.720   1.354  -0.825  0.00  0.00     0.130 A 
ATOM      2  C2  DEN d   1      -0.340   0.358   0.173  0.00  0.00    -0.031 A 
ATOM      3  C3  DEN d   1      -1.259  -0.791   0.045  0.00  0.00     0.027 A 
ATOM      4  C4  DEN d   1      -3.219  -1.125  -1.598  0.00  0.00     0.027 A 
ATOM      5  C5  DEN d   1      -3.933  -0.548  -2.626  0.00  0.00    -0.003 A 
ATOM      6  C6  DEN d   1      -3.650   0.706  -3.098  0.00  0.00     0.001 A 
ATOM      7  C7  DEN d   1      -2.597   1.407  -2.573  0.00  0.00     0.017 A 
ATOM      8  C8  DEN d   1      -1.877   0.836  -1.532  0.00  0.00    -0.094 A 
ATOM      9  C9  DEN d   1      -2.172  -0.438  -1.076  0.00  0.00    -0.072 A 
ENDROOT
TORSDOF 0
ENDMDL
