MODEL 1
REMARK minimizedAffinity 6.76467133
REMARK minimizedRMSD -1
REMARK  2 active torsions:
REMARK  status: ('A' for Active; 'I' for Inactive)
REMARK    1  A    between atoms: C1_2  and  C2_3 
REMARK    2  A    between atoms: C2_3  and  C3_4 
ROOT
ATOM      1  C3  UNL d   1       2.120  -0.265   0.170  0.00  0.00    -0.075 A 
ATOM      2  C4  UNL d   1       2.529   1.034   0.505  0.00  0.00     0.002 A 
ATOM      3  C5  UNL d   1       2.392   2.078  -0.411  0.00  0.00     0.002 A 
ATOM      4  C6  UNL d   1       1.855   1.835  -1.673  0.00  0.00    -0.004 A 
ATOM      5  C7  UNL d   1       1.461   0.546  -2.023  0.00  0.00     0.002 A 
ATOM      6  C8  UNL d   1       1.593  -0.500  -1.107  0.00  0.00     0.002 A 
ENDROOT
BRANCH   1   7
ATOM      7  C2  UNL d   1       2.239  -1.394   1.166  0.00  0.00     0.056 C 
BRANCH   7   8
ATOM      8  C1  UNL d   1       1.628  -1.082   2.537  0.00  0.00     0.007 C 
ATOM      9  C   UNL d   1       2.672  -0.791   3.607  0.00  0.00     0.009 C 
ENDBRANCH   7   8
ENDBRANCH   1   7
TORSDOF 2
ENDMDL
