MODEL 1
REMARK minimizedAffinity 2.46110272
REMARK minimizedRMSD -1
REMARK  2 active torsions:
REMARK  status: ('A' for Active; 'I' for Inactive)
REMARK    1  A    between atoms: C1_2  and  C2_3 
REMARK    2  A    between atoms: C2_3  and  C3_4 
ROOT
ATOM      1  C3  UNL d   1       2.335  -0.413  -0.160  0.00  0.00    -0.075 A 
ATOM      2  C4  UNL d   1       2.808   0.890   0.054  0.00  0.00     0.002 A 
ATOM      3  C5  UNL d   1       2.584   1.889  -0.893  0.00  0.00     0.002 A 
ATOM      4  C6  UNL d   1       1.896   1.597  -2.068  0.00  0.00    -0.004 A 
ATOM      5  C7  UNL d   1       1.436   0.303  -2.299  0.00  0.00     0.002 A 
ATOM      6  C8  UNL d   1       1.655  -0.698  -1.351  0.00  0.00     0.002 A 
ENDROOT
BRANCH   1   7
ATOM      7  C2  UNL d   1       2.548  -1.492   0.875  0.00  0.00     0.056 C 
BRANCH   7   8
ATOM      8  C1  UNL d   1       1.382  -1.654   1.856  0.00  0.00     0.007 C 
ATOM      9  C   UNL d   1       1.487  -0.740   3.069  0.00  0.00     0.009 C 
ENDBRANCH   7   8
ENDBRANCH   1   7
TORSDOF 2
ENDMDL
