MODEL 1
REMARK minimizedAffinity 2.56310439
REMARK minimizedRMSD -1
REMARK  2 active torsions:
REMARK  status: ('A' for Active; 'I' for Inactive)
REMARK    1  A    between atoms: C1_2  and  C2_3 
REMARK    2  A    between atoms: C2_3  and  C3_4 
ROOT
ATOM      1  C3  UNL d   1       4.122  -3.584   4.719  0.00  0.00    -0.075 A 
ATOM      2  C4  UNL d   1       3.712  -4.834   4.233  0.00  0.00     0.002 A 
ATOM      3  C5  UNL d   1       4.364  -5.999   4.639  0.00  0.00     0.002 A 
ATOM      4  C6  UNL d   1       5.437  -5.930   5.524  0.00  0.00    -0.004 A 
ATOM      5  C7  UNL d   1       5.863  -4.691   6.000  0.00  0.00     0.002 A 
ATOM      6  C8  UNL d   1       5.211  -3.524   5.599  0.00  0.00     0.002 A 
ENDROOT
BRANCH   1   7
ATOM      7  C2  UNL d   1       3.403  -2.321   4.307  0.00  0.00     0.056 C 
BRANCH   7   8
ATOM      8  C1  UNL d   1       3.074  -2.250   2.813  0.00  0.00     0.007 C 
ATOM      9  C   UNL d   1       1.812  -1.451   2.513  0.00  0.00     0.009 C 
ENDBRANCH   7   8
ENDBRANCH   1   7
TORSDOF 2
ENDMDL
