MODEL 1
REMARK minimizedAffinity -3.39723444
REMARK minimizedRMSD -1
REMARK  2 active torsions:
REMARK  status: ('A' for Active; 'I' for Inactive)
REMARK    1  A    between atoms: C1_2  and  C2_3 
REMARK    2  A    between atoms: C2_3  and  C3_4 
ROOT
ATOM      1  C3  UNL d   1      -2.578   0.708  -4.248  0.00  0.00    -0.075 A 
ATOM      2  C4  UNL d   1      -1.852   0.697  -3.048  0.00  0.00     0.002 A 
ATOM      3  C5  UNL d   1      -1.733  -0.477  -2.303  0.00  0.00     0.002 A 
ATOM      4  C6  UNL d   1      -2.344  -1.649  -2.742  0.00  0.00    -0.004 A 
ATOM      5  C7  UNL d   1      -3.081  -1.645  -3.924  0.00  0.00     0.002 A 
ATOM      6  C8  UNL d   1      -3.199  -0.474  -4.673  0.00  0.00     0.002 A 
ENDROOT
BRANCH   1   7
ATOM      7  C2  UNL d   1      -2.687   1.968  -5.073  0.00  0.00     0.056 C 
BRANCH   7   8
ATOM      8  C1  UNL d   1      -4.099   2.561  -5.124  0.00  0.00     0.007 C 
ATOM      9  C   UNL d   1      -4.136   4.051  -4.814  0.00  0.00     0.009 C 
ENDBRANCH   7   8
ENDBRANCH   1   7
TORSDOF 2
ENDMDL
