MODEL 1
REMARK minimizedAffinity 5.40037918
REMARK minimizedRMSD -1
REMARK  2 active torsions:
REMARK  status: ('A' for Active; 'I' for Inactive)
REMARK    1  A    between atoms: C1_2  and  C2_3 
REMARK    2  A    between atoms: C2_3  and  C3_4 
ROOT
ATOM      1  C3  UNL d   1      -0.830  -0.495   2.119  0.00  0.00    -0.075 A 
ATOM      2  C4  UNL d   1      -2.201  -0.251   1.953  0.00  0.00     0.002 A 
ATOM      3  C5  UNL d   1      -2.846   0.719   2.721  0.00  0.00     0.002 A 
ATOM      4  C6  UNL d   1      -2.133   1.449   3.669  0.00  0.00    -0.004 A 
ATOM      5  C7  UNL d   1      -0.774   1.204   3.854  0.00  0.00     0.002 A 
ATOM      6  C8  UNL d   1      -0.125   0.237   3.084  0.00  0.00     0.002 A 
ENDROOT
BRANCH   1   7
ATOM      7  C2  UNL d   1      -0.120  -1.522   1.271  0.00  0.00     0.056 C 
BRANCH   7   8
ATOM      8  C1  UNL d   1       1.313  -1.135   0.891  0.00  0.00     0.007 C 
ATOM      9  C   UNL d   1       1.564  -1.158  -0.611  0.00  0.00     0.009 C 
ENDBRANCH   7   8
ENDBRANCH   1   7
TORSDOF 2
ENDMDL
