MODEL 1
REMARK minimizedAffinity 0.33076039
REMARK minimizedRMSD -1
REMARK  2 active torsions:
REMARK  status: ('A' for Active; 'I' for Inactive)
REMARK    1  A    between atoms: C1_2  and  C2_3 
REMARK    2  A    between atoms: C2_3  and  C3_4 
ROOT
ATOM      1  C3  UNL d   1      -0.617  -0.933   2.364  0.00  0.00    -0.075 A 
ATOM      2  C4  UNL d   1      -1.855  -0.498   1.869  0.00  0.00     0.002 A 
ATOM      3  C5  UNL d   1      -2.542   0.542   2.496  0.00  0.00     0.002 A 
ATOM      4  C6  UNL d   1      -2.008   1.151   3.628  0.00  0.00    -0.004 A 
ATOM      5  C7  UNL d   1      -0.787   0.716   4.139  0.00  0.00     0.002 A 
ATOM      6  C8  UNL d   1      -0.094  -0.321   3.511  0.00  0.00     0.002 A 
ENDROOT
BRANCH   1   7
ATOM      7  C2  UNL d   1       0.146  -2.038   1.673  0.00  0.00     0.056 C 
BRANCH   7   8
ATOM      8  C1  UNL d   1       1.636  -1.740   1.479  0.00  0.00     0.007 C 
ATOM      9  C   UNL d   1       2.047  -1.658   0.015  0.00  0.00     0.009 C 
ENDBRANCH   7   8
ENDBRANCH   1   7
TORSDOF 2
ENDMDL
