MODEL 1
REMARK minimizedAffinity 2.17008591
REMARK minimizedRMSD -1
REMARK  0 active torsions:
REMARK  status: ('A' for Active; 'I' for Inactive)
ROOT
ATOM      1  C   UNL d   1      -1.499   0.909   0.142  0.00  0.00     0.020 A 
ATOM      2  C1  UNL d   1      -1.571   2.181   0.709  0.00  0.00     0.020 A 
ATOM      3  C2  UNL d   1      -0.415   2.797   1.193  0.00  0.00     0.034 A 
ATOM      4  C3  UNL d   1       0.819   2.141   1.111  0.00  0.00     0.017 A 
ATOM      5  C4  UNL d   1       0.890   0.864   0.542  0.00  0.00     0.017 A 
ATOM      6  C5  UNL d   1      -0.270   0.252   0.059  0.00  0.00     0.034 A 
ATOM      7 Cl   UNL d   1       2.377  -0.008   0.406  0.00  0.00    -0.070 Cl
ATOM      8 Cl1  UNL d   1       2.208   2.962   1.729  0.00  0.00    -0.070 Cl
ENDROOT
TORSDOF 0
ENDMDL
