MODEL 1
REMARK minimizedAffinity 4.32340097
REMARK minimizedRMSD -1
REMARK  0 active torsions:
REMARK  status: ('A' for Active; 'I' for Inactive)
ROOT
ATOM      1  C   UNL d   1      -1.107   2.520   1.394  0.00  0.00     0.020 A 
ATOM      2  C1  UNL d   1      -0.488   1.502   2.118  0.00  0.00     0.020 A 
ATOM      3  C2  UNL d   1      -0.553   0.183   1.663  0.00  0.00     0.034 A 
ATOM      4  C3  UNL d   1      -1.237  -0.121   0.481  0.00  0.00     0.017 A 
ATOM      5  C4  UNL d   1      -1.858   0.902  -0.245  0.00  0.00     0.017 A 
ATOM      6  C5  UNL d   1      -1.790   2.221   0.215  0.00  0.00     0.034 A 
ATOM      7 Cl   UNL d   1      -2.721   0.605  -1.713  0.00  0.00    -0.070 Cl
ATOM      8 Cl1  UNL d   1      -1.277  -1.773  -0.024  0.00  0.00    -0.070 Cl
ENDROOT
TORSDOF 0
ENDMDL
