MODEL 1
REMARK minimizedAffinity -2.784899
REMARK minimizedRMSD -1
REMARK  0 active torsions:
REMARK  status: ('A' for Active; 'I' for Inactive)
ROOT
ATOM      1  C   UNL d   1      -1.402   0.414   0.338  0.00  0.00     0.020 A 
ATOM      2  C1  UNL d   1      -1.463   1.769   0.658  0.00  0.00     0.020 A 
ATOM      3  C2  UNL d   1      -0.305   2.451   1.037  0.00  0.00     0.034 A 
ATOM      4  C3  UNL d   1       0.921   1.777   1.096  0.00  0.00     0.017 A 
ATOM      5  C4  UNL d   1       0.981   0.416   0.775  0.00  0.00     0.017 A 
ATOM      6  C5  UNL d   1      -0.182  -0.261   0.396  0.00  0.00     0.034 A 
ATOM      7 Cl   UNL d   1       2.457  -0.484   0.825  0.00  0.00    -0.070 Cl
ATOM      8 Cl1  UNL d   1       2.313   2.682   1.572  0.00  0.00    -0.070 Cl
ENDROOT
TORSDOF 0
ENDMDL
