MODEL 1
REMARK minimizedAffinity -2.83514953
REMARK minimizedRMSD -1
REMARK  0 active torsions:
REMARK  status: ('A' for Active; 'I' for Inactive)
ROOT
ATOM      1  C   UNL d   1      -1.342  -0.783  -0.033  0.00  0.00     0.020 A 
ATOM      2  C1  UNL d   1      -0.127  -1.441  -0.218  0.00  0.00     0.020 A 
ATOM      3  C2  UNL d   1       1.073  -0.786   0.070  0.00  0.00     0.034 A 
ATOM      4  C3  UNL d   1       1.060   0.531   0.543  0.00  0.00     0.017 A 
ATOM      5  C4  UNL d   1      -0.161   1.191   0.728  0.00  0.00     0.017 A 
ATOM      6  C5  UNL d   1      -1.359   0.530   0.439  0.00  0.00     0.034 A 
ATOM      7 Cl   UNL d   1      -0.257   2.816   1.309  0.00  0.00    -0.070 Cl
ATOM      8 Cl1  UNL d   1       2.581   1.279   0.879  0.00  0.00    -0.070 Cl
ENDROOT
TORSDOF 0
ENDMDL
