MODEL 1
REMARK minimizedAffinity -2.47486901
REMARK minimizedRMSD -1
REMARK  0 active torsions:
REMARK  status: ('A' for Active; 'I' for Inactive)
ROOT
ATOM      1  C   UNL d   1       1.021   3.171   0.377  0.00  0.00     0.020 A 
ATOM      2  C1  UNL d   1      -0.321   2.914   0.657  0.00  0.00     0.020 A 
ATOM      3  C2  UNL d   1      -0.777   1.597   0.736  0.00  0.00     0.034 A 
ATOM      4  C3  UNL d   1       0.109   0.531   0.536  0.00  0.00     0.017 A 
ATOM      5  C4  UNL d   1       1.455   0.791   0.255  0.00  0.00     0.017 A 
ATOM      6  C5  UNL d   1       1.907   2.112   0.176  0.00  0.00     0.034 A 
ATOM      7 Cl   UNL d   1       2.607  -0.471  -0.005  0.00  0.00    -0.070 Cl
ATOM      8 Cl1  UNL d   1      -0.525  -1.072   0.649  0.00  0.00    -0.070 Cl
ENDROOT
TORSDOF 0
ENDMDL
