MODEL 1
REMARK minimizedAffinity -3.98942804
REMARK minimizedRMSD -1
REMARK  0 active torsions:
REMARK  status: ('A' for Active; 'I' for Inactive)
ROOT
ATOM      1  C   UNL d   1      -1.496   1.543   0.938  0.00  0.00     0.020 A 
ATOM      2  C1  UNL d   1      -0.925   0.324   0.576  0.00  0.00     0.020 A 
ATOM      3  C2  UNL d   1       0.424   0.263   0.218  0.00  0.00     0.034 A 
ATOM      4  C3  UNL d   1       1.206   1.424   0.222  0.00  0.00     0.017 A 
ATOM      5  C4  UNL d   1       0.632   2.647   0.586  0.00  0.00     0.017 A 
ATOM      6  C5  UNL d   1      -0.719   2.702   0.943  0.00  0.00     0.034 A 
ATOM      7 Cl   UNL d   1       1.533   4.122   0.615  0.00  0.00    -0.070 Cl
ATOM      8 Cl1  UNL d   1       2.867   1.276  -0.231  0.00  0.00    -0.070 Cl
ENDROOT
TORSDOF 0
ENDMDL
