MODEL 1
REMARK minimizedAffinity -3.1844182
REMARK minimizedRMSD -1
REMARK  0 active torsions:
REMARK  status: ('A' for Active; 'I' for Inactive)
ROOT
ATOM      1  C   UNL d   1       1.143  -0.998   0.710  0.00  0.00     0.020 A 
ATOM      2  C1  UNL d   1       1.241  -0.364  -0.528  0.00  0.00     0.020 A 
ATOM      3  C2  UNL d   1       0.560  -0.880  -1.632  0.00  0.00     0.034 A 
ATOM      4  C3  UNL d   1      -0.221  -2.034  -1.501  0.00  0.00     0.017 A 
ATOM      5  C4  UNL d   1      -0.319  -2.670  -0.258  0.00  0.00     0.017 A 
ATOM      6  C5  UNL d   1       0.365  -2.149   0.844  0.00  0.00     0.034 A 
ATOM      7 Cl   UNL d   1      -1.263  -4.097  -0.019  0.00  0.00    -0.070 Cl
ATOM      8 Cl1  UNL d   1      -1.036  -2.616  -2.909  0.00  0.00    -0.070 Cl
ENDROOT
TORSDOF 0
ENDMDL
