MODEL 1
REMARK minimizedAffinity -0.219583258
REMARK minimizedRMSD -1
REMARK  0 active torsions:
REMARK  status: ('A' for Active; 'I' for Inactive)
ROOT
ATOM      1  C   UNL d   1      -0.347  -1.230  -0.344  0.00  0.00     0.020 A 
ATOM      2  C1  UNL d   1      -1.502  -0.460  -0.224  0.00  0.00     0.020 A 
ATOM      3  C2  UNL d   1      -1.411   0.882   0.152  0.00  0.00     0.034 A 
ATOM      4  C3  UNL d   1      -0.161   1.457   0.411  0.00  0.00     0.017 A 
ATOM      5  C4  UNL d   1       0.998   0.683   0.290  0.00  0.00     0.017 A 
ATOM      6  C5  UNL d   1       0.901  -0.660  -0.087  0.00  0.00     0.034 A 
ATOM      7 Cl   UNL d   1       2.575   1.322   0.592  0.00  0.00    -0.070 Cl
ATOM      8 Cl1  UNL d   1      -0.123   3.122   0.871  0.00  0.00    -0.070 Cl
ENDROOT
TORSDOF 0
ENDMDL
