MODEL 1
REMARK minimizedAffinity -5.55291367
REMARK minimizedRMSD -1
REMARK  0 active torsions:
REMARK  status: ('A' for Active; 'I' for Inactive)
ROOT
ATOM      1  C   UNL d   1       2.310   2.044   0.971  0.00  0.00     0.020 A 
ATOM      2  C1  UNL d   1       1.293   2.957   1.243  0.00  0.00     0.020 A 
ATOM      3  C2  UNL d   1      -0.043   2.556   1.176  0.00  0.00     0.034 A 
ATOM      4  C3  UNL d   1      -0.365   1.237   0.836  0.00  0.00     0.017 A 
ATOM      5  C4  UNL d   1       0.657   0.320   0.563  0.00  0.00     0.017 A 
ATOM      6  C5  UNL d   1       1.993   0.728   0.631  0.00  0.00     0.034 A 
ATOM      7 Cl   UNL d   1       0.338  -1.324   0.137  0.00  0.00    -0.070 Cl
ATOM      8 Cl1  UNL d   1      -2.038   0.809   0.772  0.00  0.00    -0.070 Cl
ENDROOT
TORSDOF 0
ENDMDL
