MODEL 1
REMARK minimizedAffinity -5.2890749
REMARK minimizedRMSD -1
REMARK  0 active torsions:
REMARK  status: ('A' for Active; 'I' for Inactive)
ROOT
ATOM      1  C   UNL d   1       0.466   3.474  -0.000  0.00  0.00     0.020 A 
ATOM      2  C1  UNL d   1       1.849   3.518   0.167  0.00  0.00     0.020 A 
ATOM      3  C2  UNL d   1       2.595   2.338   0.123  0.00  0.00     0.034 A 
ATOM      4  C3  UNL d   1       1.958   1.110  -0.088  0.00  0.00     0.017 A 
ATOM      5  C4  UNL d   1       0.570   1.067  -0.256  0.00  0.00     0.017 A 
ATOM      6  C5  UNL d   1      -0.173   2.251  -0.211  0.00  0.00     0.034 A 
ATOM      7 Cl   UNL d   1      -0.287  -0.411  -0.520  0.00  0.00    -0.070 Cl
ATOM      8 Cl1  UNL d   1       2.943  -0.309  -0.131  0.00  0.00    -0.070 Cl
ENDROOT
TORSDOF 0
ENDMDL
