MODEL 1
REMARK minimizedAffinity -3.19709826
REMARK minimizedRMSD -1
REMARK  0 active torsions:
REMARK  status: ('A' for Active; 'I' for Inactive)
ROOT
ATOM      1  C   UNL d   1      -0.290  -1.634   0.755  0.00  0.00     0.020 A 
ATOM      2  C1  UNL d   1      -1.419  -0.824   0.874  0.00  0.00     0.020 A 
ATOM      3  C2  UNL d   1      -1.279   0.565   0.919  0.00  0.00     0.034 A 
ATOM      4  C3  UNL d   1      -0.009   1.147   0.845  0.00  0.00     0.017 A 
ATOM      5  C4  UNL d   1       1.123   0.333   0.725  0.00  0.00     0.017 A 
ATOM      6  C5  UNL d   1       0.978  -1.057   0.680  0.00  0.00     0.034 A 
ATOM      7 Cl   UNL d   1       2.724   0.978   0.628  0.00  0.00    -0.070 Cl
ATOM      8 Cl1  UNL d   1       0.090   2.871   0.906  0.00  0.00    -0.070 Cl
ENDROOT
TORSDOF 0
ENDMDL
