MODEL 1
REMARK minimizedAffinity -4.47008991
REMARK minimizedRMSD -1
REMARK  0 active torsions:
REMARK  status: ('A' for Active; 'I' for Inactive)
ROOT
ATOM      1  C   UNL d   1       1.315  -1.066   0.570  0.00  0.00     0.020 A 
ATOM      2  C1  UNL d   1       2.149   0.050   0.510  0.00  0.00     0.020 A 
ATOM      3  C2  UNL d   1       1.607   1.332   0.620  0.00  0.00     0.034 A 
ATOM      4  C3  UNL d   1       0.229   1.502   0.790  0.00  0.00     0.017 A 
ATOM      5  C4  UNL d   1      -0.607   0.381   0.849  0.00  0.00     0.017 A 
ATOM      6  C5  UNL d   1      -0.060  -0.901   0.738  0.00  0.00     0.034 A 
ATOM      7 Cl   UNL d   1      -2.318   0.511   1.056  0.00  0.00    -0.070 Cl
ATOM      8 Cl1  UNL d   1      -0.372   3.117   0.918  0.00  0.00    -0.070 Cl
ENDROOT
TORSDOF 0
ENDMDL
