MODEL 1
REMARK minimizedAffinity 1.86581111
REMARK minimizedRMSD -1
REMARK  0 active torsions:
REMARK  status: ('A' for Active; 'I' for Inactive)
ROOT
ATOM      1  C   UNL d   1       1.002  -0.243   0.866  0.00  0.00     0.020 A 
ATOM      2  C1  UNL d   1       2.157  -0.074   0.104  0.00  0.00     0.020 A 
ATOM      3  C2  UNL d   1       2.297  -0.750  -1.110  0.00  0.00     0.034 A 
ATOM      4  C3  UNL d   1       1.280  -1.598  -1.565  0.00  0.00     0.017 A 
ATOM      5  C4  UNL d   1       0.121  -1.766  -0.799  0.00  0.00     0.017 A 
ATOM      6  C5  UNL d   1      -0.014  -1.087   0.415  0.00  0.00     0.034 A 
ATOM      7 Cl   UNL d   1      -1.176  -2.795  -1.296  0.00  0.00    -0.070 Cl
ATOM      8 Cl1  UNL d   1       1.521  -2.401  -3.076  0.00  0.00    -0.070 Cl
ENDROOT
TORSDOF 0
ENDMDL
