MODEL 1
REMARK minimizedAffinity -5.68973827
REMARK minimizedRMSD -1
REMARK  0 active torsions:
REMARK  status: ('A' for Active; 'I' for Inactive)
ROOT
ATOM      1  C   UNL d   1       2.676  -0.035   0.186  0.00  0.00     0.020 A 
ATOM      2  C1  UNL d   1       1.852  -1.159   0.243  0.00  0.00     0.020 A 
ATOM      3  C2  UNL d   1       0.468  -1.006   0.347  0.00  0.00     0.034 A 
ATOM      4  C3  UNL d   1      -0.097   0.274   0.395  0.00  0.00     0.017 A 
ATOM      5  C4  UNL d   1       0.731   1.401   0.338  0.00  0.00     0.017 A 
ATOM      6  C5  UNL d   1       2.116   1.242   0.234  0.00  0.00     0.034 A 
ATOM      7 Cl   UNL d   1       0.107   3.012   0.392  0.00  0.00    -0.070 Cl
ATOM      8 Cl1  UNL d   1      -1.816   0.389   0.523  0.00  0.00    -0.070 Cl
ENDROOT
TORSDOF 0
ENDMDL
