MODEL 1
REMARK minimizedAffinity -3.14183569
REMARK minimizedRMSD -1
REMARK  0 active torsions:
REMARK  status: ('A' for Active; 'I' for Inactive)
ROOT
ATOM      1  C   UNL d   1      -1.000   2.514   0.712  0.00  0.00     0.020 A 
ATOM      2  C1  UNL d   1      -1.624   1.293   0.460  0.00  0.00     0.020 A 
ATOM      3  C2  UNL d   1      -0.857   0.137   0.300  0.00  0.00     0.034 A 
ATOM      4  C3  UNL d   1       0.538   0.199   0.391  0.00  0.00     0.017 A 
ATOM      5  C4  UNL d   1       1.163   1.425   0.644  0.00  0.00     0.017 A 
ATOM      6  C5  UNL d   1       0.391   2.580   0.804  0.00  0.00     0.034 A 
ATOM      7 Cl   UNL d   1       2.880   1.582   0.770  0.00  0.00    -0.070 Cl
ATOM      8 Cl1  UNL d   1       1.423  -1.270   0.182  0.00  0.00    -0.070 Cl
ENDROOT
TORSDOF 0
ENDMDL
