MODEL 1
REMARK minimizedAffinity -4.93686295
REMARK minimizedRMSD -1
REMARK  0 active torsions:
REMARK  status: ('A' for Active; 'I' for Inactive)
ROOT
ATOM      1  C   UNL d   1      -0.410   2.808   0.376  0.00  0.00     0.020 A 
ATOM      2  C1  UNL d   1       0.932   3.169   0.271  0.00  0.00     0.020 A 
ATOM      3  C2  UNL d   1       1.919   2.182   0.220  0.00  0.00     0.034 A 
ATOM      4  C3  UNL d   1       1.563   0.829   0.273  0.00  0.00     0.017 A 
ATOM      5  C4  UNL d   1       0.215   0.468   0.378  0.00  0.00     0.017 A 
ATOM      6  C5  UNL d   1      -0.768   1.461   0.429  0.00  0.00     0.034 A 
ATOM      7 Cl   UNL d   1      -0.300  -1.180   0.448  0.00  0.00    -0.070 Cl
ATOM      8 Cl1  UNL d   1       2.835  -0.339   0.205  0.00  0.00    -0.070 Cl
ENDROOT
TORSDOF 0
ENDMDL
