MODEL 1
REMARK minimizedAffinity 5.45304012
REMARK minimizedRMSD -1
REMARK  1 active torsions:
REMARK  status: ('A' for Active; 'I' for Inactive)
REMARK    1  A    between atoms: C1_2  and  C2_3 
ROOT
ATOM      1  C2  UNL d   1       2.703  -0.914   0.782  0.00  0.00    -0.073 A 
ATOM      2  C3  UNL d   1       2.466   0.241   0.028  0.00  0.00    -0.002 A 
ATOM      3  C4  UNL d   1       1.217   0.457  -0.556  0.00  0.00     0.004 A 
ATOM      4  C5  UNL d   1       0.192  -0.474  -0.387  0.00  0.00    -0.004 A 
ATOM      5  C6  UNL d   1       0.406  -1.628   0.373  0.00  0.00    -0.075 A 
ATOM      6  C7  UNL d   1      -0.685  -2.641   0.562  0.00  0.00     0.076 C 
ATOM      7  C8  UNL d   1       1.664  -1.840   0.954  0.00  0.00     0.001 A 
ENDROOT
BRANCH   1   8
ATOM      8  C1  UNL d   1       4.048  -1.149   1.420  0.00  0.00     0.053 C 
ATOM      9  C   UNL d   1       3.963  -1.169   2.938  0.00  0.00     0.018 C 
ENDBRANCH   1   8
TORSDOF 1
ENDMDL
