MODEL 1
REMARK minimizedAffinity 3.92926693
REMARK minimizedRMSD -1
REMARK  1 active torsions:
REMARK  status: ('A' for Active; 'I' for Inactive)
REMARK    1  A    between atoms: C1_2  and  C2_3 
ROOT
ATOM      1  C2  UNL d   1       2.781   1.745  -0.374  0.00  0.00    -0.073 A 
ATOM      2  C3  UNL d   1       1.683   2.523   0.013  0.00  0.00    -0.002 A 
ATOM      3  C4  UNL d   1       1.826   3.898   0.202  0.00  0.00     0.004 A 
ATOM      4  C5  UNL d   1       3.062   4.511  -0.000  0.00  0.00    -0.004 A 
ATOM      5  C6  UNL d   1       4.168   3.753  -0.399  0.00  0.00    -0.075 A 
ATOM      6  C7  UNL d   1       5.506   4.396  -0.619  0.00  0.00     0.076 C 
ATOM      7  C8  UNL d   1       4.018   2.372  -0.584  0.00  0.00     0.001 A 
ENDROOT
BRANCH   1   8
ATOM      8  C1  UNL d   1       2.631   0.261  -0.585  0.00  0.00     0.053 C 
ATOM      9  C   UNL d   1       1.539  -0.332   0.291  0.00  0.00     0.018 C 
ENDBRANCH   1   8
TORSDOF 1
ENDMDL
