MODEL 1
REMARK minimizedAffinity 4.55861139
REMARK minimizedRMSD -1
REMARK  1 active torsions:
REMARK  status: ('A' for Active; 'I' for Inactive)
REMARK    1  A    between atoms: C1_2  and  C2_3 
ROOT
ATOM      1  C2  UNL d   1       2.629  -0.845   1.593  0.00  0.00    -0.073 A 
ATOM      2  C3  UNL d   1       3.269  -0.545   0.385  0.00  0.00    -0.002 A 
ATOM      3  C4  UNL d   1       2.547  -0.006  -0.681  0.00  0.00     0.004 A 
ATOM      4  C5  UNL d   1       1.181   0.244  -0.548  0.00  0.00    -0.004 A 
ATOM      5  C6  UNL d   1       0.526  -0.037   0.656  0.00  0.00    -0.075 A 
ATOM      6  C7  UNL d   1      -0.943   0.224   0.814  0.00  0.00     0.076 C 
ATOM      7  C8  UNL d   1       1.258  -0.581   1.720  0.00  0.00     0.001 A 
ENDROOT
BRANCH   1   8
ATOM      8  C1  UNL d   1       3.406  -1.420   2.749  0.00  0.00     0.053 C 
ATOM      9  C   UNL d   1       4.669  -0.625   3.039  0.00  0.00     0.018 C 
ENDBRANCH   1   8
TORSDOF 1
ENDMDL
