MODEL 1
REMARK minimizedAffinity 2.53866625
REMARK minimizedRMSD -1
REMARK  1 active torsions:
REMARK  status: ('A' for Active; 'I' for Inactive)
REMARK    1  A    between atoms: C1_2  and  C2_3 
ROOT
ATOM      1  C2  UNL d   1       0.249  -5.047  -3.437  0.00  0.00    -0.073 A 
ATOM      2  C3  UNL d   1      -0.735  -5.543  -4.300  0.00  0.00    -0.002 A 
ATOM      3  C4  UNL d   1      -0.391  -6.000  -5.573  0.00  0.00     0.004 A 
ATOM      4  C5  UNL d   1       0.939  -5.972  -5.993  0.00  0.00    -0.004 A 
ATOM      5  C6  UNL d   1       1.938  -5.491  -5.141  0.00  0.00    -0.075 A 
ATOM      6  C7  UNL d   1       3.373  -5.452  -5.579  0.00  0.00     0.076 C 
ATOM      7  C8  UNL d   1       1.585  -5.031  -3.865  0.00  0.00     0.001 A 
ENDROOT
BRANCH   1   8
ATOM      8  C1  UNL d   1      -0.116  -4.558  -2.059  0.00  0.00     0.053 C 
ATOM      9  C   UNL d   1      -1.620  -4.550  -1.838  0.00  0.00     0.018 C 
ENDBRANCH   1   8
TORSDOF 1
ENDMDL
