MODEL 1
REMARK minimizedAffinity -0.56271708
REMARK minimizedRMSD -1
REMARK  1 active torsions:
REMARK  status: ('A' for Active; 'I' for Inactive)
REMARK    1  A    between atoms: C1_2  and  C2_3 
ROOT
ATOM      1  C2  UNL d   1       1.880  -0.555   0.881  0.00  0.00    -0.073 A 
ATOM      2  C3  UNL d   1       3.273  -0.642   0.991  0.00  0.00    -0.002 A 
ATOM      3  C4  UNL d   1       3.860  -1.066   2.183  0.00  0.00     0.004 A 
ATOM      4  C5  UNL d   1       3.063  -1.413   3.274  0.00  0.00    -0.004 A 
ATOM      5  C6  UNL d   1       1.670  -1.343   3.180  0.00  0.00    -0.075 A 
ATOM      6  C7  UNL d   1       0.798  -1.711   4.345  0.00  0.00     0.076 C 
ATOM      7  C8  UNL d   1       1.087  -0.914   1.980  0.00  0.00     0.001 A 
ENDROOT
BRANCH   1   8
ATOM      8  C1  UNL d   1       1.241  -0.104  -0.407  0.00  0.00     0.053 C 
ATOM      9  C   UNL d   1      -0.038   0.682  -0.164  0.00  0.00     0.018 C 
ENDBRANCH   1   8
TORSDOF 1
ENDMDL
