MODEL 1
REMARK minimizedAffinity 8.99605179
REMARK minimizedRMSD -1
REMARK  1 active torsions:
REMARK  status: ('A' for Active; 'I' for Inactive)
REMARK    1  A    between atoms: C1_2  and  C2_3 
ROOT
ATOM      1  C2  UNL d   1       3.004   3.069  -0.185  0.00  0.00    -0.073 A 
ATOM      2  C3  UNL d   1       1.805   3.790  -0.130  0.00  0.00    -0.002 A 
ATOM      3  C4  UNL d   1       0.581   3.133  -0.268  0.00  0.00     0.004 A 
ATOM      4  C5  UNL d   1       0.543   1.751  -0.455  0.00  0.00    -0.004 A 
ATOM      5  C6  UNL d   1       1.730   1.012  -0.500  0.00  0.00    -0.075 A 
ATOM      6  C7  UNL d   1       1.706  -0.474  -0.702  0.00  0.00     0.076 C 
ATOM      7  C8  UNL d   1       2.955   1.679  -0.364  0.00  0.00     0.001 A 
ENDROOT
BRANCH   1   8
ATOM      8  C1  UNL d   1       4.327   3.773  -0.030  0.00  0.00     0.053 C 
ATOM      9  C   UNL d   1       4.942   4.133  -1.373  0.00  0.00     0.018 C 
ENDBRANCH   1   8
TORSDOF 1
ENDMDL
