MODEL 1
REMARK minimizedAffinity 6.3447299
REMARK minimizedRMSD -1
REMARK  1 active torsions:
REMARK  status: ('A' for Active; 'I' for Inactive)
REMARK    1  A    between atoms: C1_2  and  C2_3 
ROOT
ATOM      1  C2  UNL d   1       0.036  -2.210   0.100  0.00  0.00    -0.073 A 
ATOM      2  C3  UNL d   1      -0.540  -0.951  -0.103  0.00  0.00    -0.002 A 
ATOM      3  C4  UNL d   1       0.194   0.209   0.147  0.00  0.00     0.004 A 
ATOM      4  C5  UNL d   1       1.513   0.123   0.595  0.00  0.00    -0.004 A 
ATOM      5  C6  UNL d   1       2.110  -1.126   0.792  0.00  0.00    -0.075 A 
ATOM      6  C7  UNL d   1       3.526  -1.237   1.276  0.00  0.00     0.076 C 
ATOM      7  C8  UNL d   1       1.365  -2.287   0.542  0.00  0.00     0.001 A 
ENDROOT
BRANCH   1   8
ATOM      8  C1  UNL d   1      -0.751  -3.465  -0.174  0.00  0.00     0.053 C 
ATOM      9  C   UNL d   1      -2.007  -3.548   0.678  0.00  0.00     0.018 C 
ENDBRANCH   1   8
TORSDOF 1
ENDMDL
