MODEL 1
REMARK minimizedAffinity 7.49439955
REMARK minimizedRMSD -1
REMARK  1 active torsions:
REMARK  status: ('A' for Active; 'I' for Inactive)
REMARK    1  A    between atoms: C1_2  and  C2_3 
ROOT
ATOM      1  C2  UNL d   1       3.498  -0.675   1.179  0.00  0.00    -0.073 A 
ATOM      2  C3  UNL d   1       4.777  -0.141   1.374  0.00  0.00    -0.002 A 
ATOM      3  C4  UNL d   1       5.429  -0.303   2.597  0.00  0.00     0.004 A 
ATOM      4  C5  UNL d   1       4.814  -1.004   3.633  0.00  0.00    -0.004 A 
ATOM      5  C6  UNL d   1       3.541  -1.555   3.454  0.00  0.00    -0.075 A 
ATOM      6  C7  UNL d   1       2.864  -2.310   4.560  0.00  0.00     0.076 C 
ATOM      7  C8  UNL d   1       2.891  -1.386   2.224  0.00  0.00     0.001 A 
ENDROOT
BRANCH   1   8
ATOM      8  C1  UNL d   1       2.792  -0.509  -0.142  0.00  0.00     0.053 C 
ATOM      9  C   UNL d   1       1.423   0.131   0.020  0.00  0.00     0.018 C 
ENDBRANCH   1   8
TORSDOF 1
ENDMDL
