MODEL 1
REMARK minimizedAffinity -4.12851858
REMARK minimizedRMSD -1
REMARK  1 active torsions:
REMARK  status: ('A' for Active; 'I' for Inactive)
REMARK    1  A    between atoms: C1_2  and  C2_3 
ROOT
ATOM      1  C2  UNL d   1      -3.286  -5.983  -0.344  0.00  0.00    -0.073 A 
ATOM      2  C3  UNL d   1      -4.570  -5.995  -0.900  0.00  0.00    -0.002 A 
ATOM      3  C4  UNL d   1      -4.738  -5.999  -2.286  0.00  0.00     0.004 A 
ATOM      4  C5  UNL d   1      -3.626  -5.999  -3.127  0.00  0.00    -0.004 A 
ATOM      5  C6  UNL d   1      -2.335  -6.000  -2.590  0.00  0.00    -0.075 A 
ATOM      6  C7  UNL d   1      -1.128  -5.998  -3.482  0.00  0.00     0.076 C 
ATOM      7  C8  UNL d   1      -2.174  -5.993  -1.198  0.00  0.00     0.001 A 
ENDROOT
BRANCH   1   8
ATOM      8  C1  UNL d   1      -3.100  -5.985   1.152  0.00  0.00     0.053 C 
ATOM      9  C   UNL d   1      -3.013  -4.577   1.717  0.00  0.00     0.018 C 
ENDBRANCH   1   8
TORSDOF 1
ENDMDL
