MODEL 1
REMARK minimizedAffinity -0.906119108
REMARK minimizedRMSD -1
REMARK  1 active torsions:
REMARK  status: ('A' for Active; 'I' for Inactive)
REMARK    1  A    between atoms: C1_2  and  C2_3 
ROOT
ATOM      1  C2  UNL d   1       1.894  -1.422   3.263  0.00  0.00    -0.073 A 
ATOM      2  C3  UNL d   1       3.291  -1.369   3.321  0.00  0.00    -0.002 A 
ATOM      3  C4  UNL d   1       4.033  -1.063   2.180  0.00  0.00     0.004 A 
ATOM      4  C5  UNL d   1       3.387  -0.801   0.971  0.00  0.00    -0.004 A 
ATOM      5  C6  UNL d   1       1.991  -0.839   0.896  0.00  0.00    -0.075 A 
ATOM      6  C7  UNL d   1       1.281  -0.562  -0.397  0.00  0.00     0.076 C 
ATOM      7  C8  UNL d   1       1.253  -1.149   2.046  0.00  0.00     0.001 A 
ENDROOT
BRANCH   1   8
ATOM      8  C1  UNL d   1       1.088  -1.745   4.494  0.00  0.00     0.053 C 
ATOM      9  C   UNL d   1       1.752  -2.816   5.345  0.00  0.00     0.018 C 
ENDBRANCH   1   8
TORSDOF 1
ENDMDL
