MODEL 1
REMARK minimizedAffinity 1.59418988
REMARK minimizedRMSD -1
REMARK  1 active torsions:
REMARK  status: ('A' for Active; 'I' for Inactive)
REMARK    1  A    between atoms: C1_2  and  C2_3 
ROOT
ATOM      1  C2  UNL d   1      -0.022  -5.705  -5.222  0.00  0.00    -0.073 A 
ATOM      2  C3  UNL d   1      -0.023  -5.310  -3.879  0.00  0.00    -0.002 A 
ATOM      3  C4  UNL d   1       1.177  -5.032  -3.225  0.00  0.00     0.004 A 
ATOM      4  C5  UNL d   1       2.389  -5.139  -3.907  0.00  0.00    -0.004 A 
ATOM      5  C6  UNL d   1       2.411  -5.520  -5.252  0.00  0.00    -0.075 A 
ATOM      6  C7  UNL d   1       3.706  -5.642  -6.000  0.00  0.00     0.076 C 
ATOM      7  C8  UNL d   1       1.201  -5.800  -5.901  0.00  0.00     0.001 A 
ENDROOT
BRANCH   1   8
ATOM      8  C1  UNL d   1      -1.317  -6.000  -5.934  0.00  0.00     0.053 C 
ATOM      9  C   UNL d   1      -2.515  -5.898  -5.004  0.00  0.00     0.018 C 
ENDBRANCH   1   8
TORSDOF 1
ENDMDL
