MODEL 1
REMARK minimizedAffinity -3.81425977
REMARK minimizedRMSD -1
REMARK  0 active torsions:
REMARK  status: ('A' for Active; 'I' for Inactive)
ROOT
ATOM      1  C   UNL d   1       1.267  -0.661  -1.763  0.00  0.00     0.023 A 
ATOM      2  C1  UNL d   1       0.625  -1.111  -0.609  0.00  0.00     0.003 A 
ATOM      3  C2  UNL d   1       0.665  -0.344   0.557  0.00  0.00     0.048 A 
ATOM      4  C3  UNL d   1       1.348   0.872   0.562  0.00  0.00     0.023 A 
ATOM      5  C4  UNL d   1       1.991   1.326  -0.590  0.00  0.00     0.048 A 
ATOM      6  C5  UNL d   1       1.949   0.556  -1.754  0.00  0.00     0.003 A 
ATOM      7  I   UNL d   1       1.408   2.015   2.297  0.00  0.00    -0.146 I 
ENDROOT
TORSDOF 0
ENDMDL
