MODEL 1
REMARK minimizedAffinity -2.89659452
REMARK minimizedRMSD -1
REMARK  0 active torsions:
REMARK  status: ('A' for Active; 'I' for Inactive)
ROOT
ATOM      1  C   UNL d   1       1.410  -0.731  -2.220  0.00  0.00     0.023 A 
ATOM      2  C1  UNL d   1       1.814   0.577  -1.951  0.00  0.00     0.003 A 
ATOM      3  C2  UNL d   1       1.600   1.128  -0.686  0.00  0.00     0.048 A 
ATOM      4  C3  UNL d   1       0.983   0.366   0.306  0.00  0.00     0.023 A 
ATOM      5  C4  UNL d   1       0.578  -0.943   0.041  0.00  0.00     0.048 A 
ATOM      6  C5  UNL d   1       0.793  -1.490  -1.225  0.00  0.00     0.003 A 
ATOM      7  I   UNL d   1       0.665   1.185   2.189  0.00  0.00    -0.146 I 
ENDROOT
TORSDOF 0
ENDMDL
