MODEL 1
REMARK minimizedAffinity 0.417363107
REMARK minimizedRMSD -1
REMARK  0 active torsions:
REMARK  status: ('A' for Active; 'I' for Inactive)
ROOT
ATOM      1  C   UNL d   1       0.627  -1.336  -0.436  0.00  0.00     0.023 A 
ATOM      2  C1  UNL d   1       0.106  -0.136  -0.921  0.00  0.00     0.003 A 
ATOM      3  C2  UNL d   1      -0.911   0.518  -0.222  0.00  0.00     0.048 A 
ATOM      4  C3  UNL d   1      -1.403  -0.034   0.960  0.00  0.00     0.023 A 
ATOM      5  C4  UNL d   1      -0.885  -1.234   1.449  0.00  0.00     0.048 A 
ATOM      6  C5  UNL d   1       0.132  -1.885   0.747  0.00  0.00     0.003 A 
ATOM      7  I   UNL d   1      -2.917   0.937   2.001  0.00  0.00    -0.146 I 
ENDROOT
TORSDOF 0
ENDMDL
