MODEL 1
REMARK minimizedAffinity -3.62973714
REMARK minimizedRMSD -1
REMARK  0 active torsions:
REMARK  status: ('A' for Active; 'I' for Inactive)
ROOT
ATOM      1  C   UNL d   1       0.951   0.145  -2.335  0.00  0.00     0.023 A 
ATOM      2  C1  UNL d   1       0.013   0.396  -1.333  0.00  0.00     0.003 A 
ATOM      3  C2  UNL d   1       0.393   1.073  -0.172  0.00  0.00     0.048 A 
ATOM      4  C3  UNL d   1       1.713   1.497  -0.021  0.00  0.00     0.023 A 
ATOM      5  C4  UNL d   1       2.654   1.249  -1.021  0.00  0.00     0.048 A 
ATOM      6  C5  UNL d   1       2.270   0.571  -2.179  0.00  0.00     0.003 A 
ATOM      7  I   UNL d   1       2.281   2.505   1.706  0.00  0.00    -0.146 I 
ENDROOT
TORSDOF 0
ENDMDL
