MODEL 1
REMARK minimizedAffinity -1.64737868
REMARK minimizedRMSD -1
REMARK  0 active torsions:
REMARK  status: ('A' for Active; 'I' for Inactive)
ROOT
ATOM      1  C   UNL d   1       0.030  -0.037  -0.819  0.00  0.00     0.023 A 
ATOM      2  C1  UNL d   1      -0.248  -0.406   0.498  0.00  0.00     0.003 A 
ATOM      3  C2  UNL d   1       0.373   0.259   1.557  0.00  0.00     0.048 A 
ATOM      4  C3  UNL d   1       1.270   1.293   1.293  0.00  0.00     0.023 A 
ATOM      5  C4  UNL d   1       1.551   1.667  -0.023  0.00  0.00     0.048 A 
ATOM      6  C5  UNL d   1       0.928   0.998  -1.078  0.00  0.00     0.003 A 
ATOM      7  I   UNL d   1       2.196   2.285   2.867  0.00  0.00    -0.146 I 
ENDROOT
TORSDOF 0
ENDMDL
