MODEL 1
REMARK minimizedAffinity 2.40527201
REMARK minimizedRMSD -1
REMARK  0 active torsions:
REMARK  status: ('A' for Active; 'I' for Inactive)
ROOT
ATOM      1  C   UNL d   1      -4.679   0.810   1.930  0.00  0.00     0.023 A 
ATOM      2  C1  UNL d   1      -4.571  -0.310   1.105  0.00  0.00     0.003 A 
ATOM      3  C2  UNL d   1      -3.335  -0.660   0.558  0.00  0.00     0.048 A 
ATOM      4  C3  UNL d   1      -2.210   0.114   0.841  0.00  0.00     0.023 A 
ATOM      5  C4  UNL d   1      -2.312   1.235   1.666  0.00  0.00     0.048 A 
ATOM      6  C5  UNL d   1      -3.551   1.582   2.210  0.00  0.00     0.003 A 
ATOM      7  I   UNL d   1      -0.369  -0.405   0.029  0.00  0.00    -0.146 I 
ENDROOT
TORSDOF 0
ENDMDL
