MODEL 1
REMARK minimizedAffinity -0.0191654842
REMARK minimizedRMSD -1
REMARK  0 active torsions:
REMARK  status: ('A' for Active; 'I' for Inactive)
ROOT
ATOM      1  C   UNL d   1       1.697   0.388  -2.406  0.00  0.00     0.023 A 
ATOM      2  C1  UNL d   1       1.638   1.351  -1.399  0.00  0.00     0.003 A 
ATOM      3  C2  UNL d   1       0.794   1.165  -0.303  0.00  0.00     0.048 A 
ATOM      4  C3  UNL d   1       0.013   0.013  -0.218  0.00  0.00     0.023 A 
ATOM      5  C4  UNL d   1       0.070  -0.954  -1.223  0.00  0.00     0.048 A 
ATOM      6  C5  UNL d   1       0.915  -0.764  -2.318  0.00  0.00     0.003 A 
ATOM      7  I   UNL d   1      -1.244  -0.266   1.413  0.00  0.00    -0.146 I 
ENDROOT
TORSDOF 0
ENDMDL
