MODEL 1
REMARK minimizedAffinity -2.26755404
REMARK minimizedRMSD -1
REMARK  0 active torsions:
REMARK  status: ('A' for Active; 'I' for Inactive)
ROOT
ATOM      1  C   UNL d   1       0.734  -1.327  -1.459  0.00  0.00     0.023 A 
ATOM      2  C1  UNL d   1       0.314  -2.113  -0.386  0.00  0.00     0.003 A 
ATOM      3  C2  UNL d   1      -0.665  -1.637   0.489  0.00  0.00     0.048 A 
ATOM      4  C3  UNL d   1      -1.221  -0.375   0.283  0.00  0.00     0.023 A 
ATOM      5  C4  UNL d   1      -0.805   0.415  -0.790  0.00  0.00     0.048 A 
ATOM      6  C5  UNL d   1       0.175  -0.065  -1.661  0.00  0.00     0.003 A 
ATOM      7  I   UNL d   1      -2.679   0.336   1.583  0.00  0.00    -0.146 I 
ENDROOT
TORSDOF 0
ENDMDL
