MODEL 1
REMARK minimizedAffinity -1.93133414
REMARK minimizedRMSD -1
REMARK  0 active torsions:
REMARK  status: ('A' for Active; 'I' for Inactive)
ROOT
ATOM      1  C   UNL d   1      -2.845   0.001   1.829  0.00  0.00     0.023 A 
ATOM      2  C1  UNL d   1      -1.661  -0.531   1.318  0.00  0.00     0.003 A 
ATOM      3  C2  UNL d   1      -0.431  -0.144   1.855  0.00  0.00     0.048 A 
ATOM      4  C3  UNL d   1      -0.393   0.775   2.903  0.00  0.00     0.023 A 
ATOM      5  C4  UNL d   1      -1.575   1.310   3.418  0.00  0.00     0.048 A 
ATOM      6  C5  UNL d   1      -2.802   0.920   2.877  0.00  0.00     0.003 A 
ATOM      7  I   UNL d   1       1.436   1.353   3.703  0.00  0.00    -0.146 I 
ENDROOT
TORSDOF 0
ENDMDL
