MODEL 1
REMARK minimizedAffinity -1.49455655
REMARK minimizedRMSD -1
REMARK  0 active torsions:
REMARK  status: ('A' for Active; 'I' for Inactive)
ROOT
ATOM      1  C   UNL d   1       1.165  -0.506  -2.177  0.00  0.00     0.023 A 
ATOM      2  C1  UNL d   1       0.429  -1.204  -1.220  0.00  0.00     0.003 A 
ATOM      3  C2  UNL d   1       0.337  -0.716   0.085  0.00  0.00     0.048 A 
ATOM      4  C3  UNL d   1       0.982   0.473   0.425  0.00  0.00     0.023 A 
ATOM      5  C4  UNL d   1       1.718   1.176  -0.529  0.00  0.00     0.048 A 
ATOM      6  C5  UNL d   1       1.809   0.683  -1.832  0.00  0.00     0.003 A 
ATOM      7  I   UNL d   1       0.845   1.203   2.367  0.00  0.00    -0.146 I 
ENDROOT
TORSDOF 0
ENDMDL
