MODEL 1
REMARK minimizedAffinity -3.49785638
REMARK minimizedRMSD -1
REMARK  0 active torsions:
REMARK  status: ('A' for Active; 'I' for Inactive)
ROOT
ATOM      1  C   UNL d   1       1.187  -0.224  -1.239  0.00  0.00     0.023 A 
ATOM      2  C1  UNL d   1       0.308   0.625  -1.913  0.00  0.00     0.003 A 
ATOM      3  C2  UNL d   1      -0.917   0.964  -1.335  0.00  0.00     0.048 A 
ATOM      4  C3  UNL d   1      -1.257   0.452  -0.084  0.00  0.00     0.023 A 
ATOM      5  C4  UNL d   1      -0.381  -0.397   0.594  0.00  0.00     0.048 A 
ATOM      6  C5  UNL d   1       0.843  -0.735   0.012  0.00  0.00     0.003 A 
ATOM      7  I   UNL d   1      -3.080   0.956   0.778  0.00  0.00    -0.146 I 
ENDROOT
TORSDOF 0
ENDMDL
