MODEL 1
REMARK minimizedAffinity 1.04699826
REMARK minimizedRMSD -1
REMARK  0 active torsions:
REMARK  status: ('A' for Active; 'I' for Inactive)
ROOT
ATOM      1  C   UNL d   1       0.186  -1.704  -1.826  0.00  0.00     0.023 A 
ATOM      2  C1  UNL d   1       0.020  -2.098  -0.499  0.00  0.00     0.003 A 
ATOM      3  C2  UNL d   1       0.186  -1.170   0.532  0.00  0.00     0.048 A 
ATOM      4  C3  UNL d   1       0.516   0.150   0.228  0.00  0.00     0.023 A 
ATOM      5  C4  UNL d   1       0.681   0.549  -1.099  0.00  0.00     0.048 A 
ATOM      6  C5  UNL d   1       0.516  -0.382  -2.126  0.00  0.00     0.003 A 
ATOM      7  I   UNL d   1       0.762   1.532   1.760  0.00  0.00    -0.146 I 
ENDROOT
TORSDOF 0
ENDMDL
