MODEL 1
REMARK minimizedAffinity -2.78483319
REMARK minimizedRMSD -1
REMARK  0 active torsions:
REMARK  status: ('A' for Active; 'I' for Inactive)
ROOT
ATOM      1  C   UNL d   1      -4.090   4.732  -5.814  0.00  0.00     0.023 A 
ATOM      2  C1  UNL d   1      -5.426   4.350  -5.937  0.00  0.00     0.003 A 
ATOM      3  C2  UNL d   1      -5.764   2.997  -5.991  0.00  0.00     0.048 A 
ATOM      4  C3  UNL d   1      -4.762   2.030  -5.919  0.00  0.00     0.023 A 
ATOM      5  C4  UNL d   1      -3.423   2.408  -5.794  0.00  0.00     0.048 A 
ATOM      6  C5  UNL d   1      -3.090   3.762  -5.742  0.00  0.00     0.003 A 
ATOM      7  I   UNL d   1      -5.263   0.015  -5.998  0.00  0.00    -0.146 I 
ENDROOT
TORSDOF 0
ENDMDL
