MODEL 1
REMARK minimizedAffinity 3.4435389
REMARK minimizedRMSD -1
REMARK  0 active torsions:
REMARK  status: ('A' for Active; 'I' for Inactive)
ROOT
ATOM      1  C   UNL d   1      -5.980   2.341  -5.855  0.00  0.00     0.023 A 
ATOM      2  C1  UNL d   1      -5.997   3.729  -5.992  0.00  0.00     0.003 A 
ATOM      3  C2  UNL d   1      -4.800   4.447  -5.999  0.00  0.00     0.048 A 
ATOM      4  C3  UNL d   1      -3.587   3.770  -5.870  0.00  0.00     0.023 A 
ATOM      5  C4  UNL d   1      -3.565   2.381  -5.734  0.00  0.00     0.048 A 
ATOM      6  C5  UNL d   1      -4.765   1.668  -5.726  0.00  0.00     0.003 A 
ATOM      7  I   UNL d   1      -1.803   4.836  -5.881  0.00  0.00    -0.146 I 
ENDROOT
TORSDOF 0
ENDMDL
