MODEL 1
REMARK minimizedAffinity 10.1711893
REMARK minimizedRMSD -1
REMARK  0 active torsions:
REMARK  status: ('A' for Active; 'I' for Inactive)
ROOT
ATOM      1  C   UNL d   1       1.501  -1.331   1.510  0.00  0.00     0.023 A 
ATOM      2  C1  UNL d   1       2.508  -2.134   2.045  0.00  0.00     0.003 A 
ATOM      3  C2  UNL d   1       2.376  -2.656   3.334  0.00  0.00     0.048 A 
ATOM      4  C3  UNL d   1       1.234  -2.372   4.082  0.00  0.00     0.023 A 
ATOM      5  C4  UNL d   1       0.223  -1.569   3.550  0.00  0.00     0.048 A 
ATOM      6  C5  UNL d   1       0.360  -1.049   2.262  0.00  0.00     0.003 A 
ATOM      7  I   UNL d   1       1.035  -3.148   6.000  0.00  0.00    -0.146 I 
ENDROOT
TORSDOF 0
ENDMDL
