MODEL 1
REMARK minimizedAffinity 11.556284
REMARK minimizedRMSD -1
REMARK  0 active torsions:
REMARK  status: ('A' for Active; 'I' for Inactive)
ROOT
ATOM      1  C   UNL d   1      -3.437   0.705  -1.735  0.00  0.00     0.023 A 
ATOM      2  C1  UNL d   1      -3.326   2.090  -1.852  0.00  0.00     0.003 A 
ATOM      3  C2  UNL d   1      -3.878   2.745  -2.955  0.00  0.00     0.048 A 
ATOM      4  C3  UNL d   1      -4.540   2.008  -3.937  0.00  0.00     0.023 A 
ATOM      5  C4  UNL d   1      -4.653   0.622  -3.823  0.00  0.00     0.048 A 
ATOM      6  C5  UNL d   1      -4.099  -0.029  -2.719  0.00  0.00     0.003 A 
ATOM      7  I   UNL d   1      -5.362   2.980  -5.579  0.00  0.00    -0.146 I 
ENDROOT
TORSDOF 0
ENDMDL
