MODEL 1
REMARK minimizedAffinity 5.84691429
REMARK minimizedRMSD -1
REMARK  0 active torsions:
REMARK  status: ('A' for Active; 'I' for Inactive)
ROOT
ATOM      1  C   UNL d   1      -5.087  -0.993  -2.284  0.00  0.00     0.023 A 
ATOM      2  C1  UNL d   1      -5.862  -0.643  -3.390  0.00  0.00     0.003 A 
ATOM      3  C2  UNL d   1      -6.000  -1.533  -4.457  0.00  0.00     0.048 A 
ATOM      4  C3  UNL d   1      -5.361  -2.771  -4.412  0.00  0.00     0.023 A 
ATOM      5  C4  UNL d   1      -4.585  -3.126  -3.307  0.00  0.00     0.048 A 
ATOM      6  C5  UNL d   1      -4.449  -2.233  -2.243  0.00  0.00     0.003 A 
ATOM      7  I   UNL d   1      -5.565  -4.097  -5.999  0.00  0.00    -0.146 I 
ENDROOT
TORSDOF 0
ENDMDL
