MODEL 1
REMARK minimizedAffinity 12.9721928
REMARK minimizedRMSD -1
REMARK  0 active torsions:
REMARK  status: ('A' for Active; 'I' for Inactive)
ROOT
ATOM      1  C   UNL d   1      -5.357  -5.774  -5.777  0.00  0.00     0.023 A 
ATOM      2  C1  UNL d   1      -5.949  -4.531  -5.999  0.00  0.00     0.003 A 
ATOM      3  C2  UNL d   1      -5.809  -3.511  -5.056  0.00  0.00     0.048 A 
ATOM      4  C3  UNL d   1      -5.075  -3.740  -3.893  0.00  0.00     0.023 A 
ATOM      5  C4  UNL d   1      -4.480  -4.983  -3.666  0.00  0.00     0.048 A 
ATOM      6  C5  UNL d   1      -4.623  -6.000  -4.612  0.00  0.00     0.003 A 
ATOM      7  I   UNL d   1      -4.865  -2.224  -2.487  0.00  0.00    -0.146 I 
ENDROOT
TORSDOF 0
ENDMDL
