MODEL 1
REMARK minimizedAffinity 9.38180256
REMARK minimizedRMSD -1
REMARK  0 active torsions:
REMARK  status: ('A' for Active; 'I' for Inactive)
ROOT
ATOM      1  C   UNL d   1      -3.640   2.078  -2.818  0.00  0.00     0.023 A 
ATOM      2  C1  UNL d   1      -3.713   3.008  -1.781  0.00  0.00     0.003 A 
ATOM      3  C2  UNL d   1      -3.061   2.759  -0.571  0.00  0.00     0.048 A 
ATOM      4  C3  UNL d   1      -2.337   1.579  -0.405  0.00  0.00     0.023 A 
ATOM      5  C4  UNL d   1      -2.261   0.645  -1.441  0.00  0.00     0.048 A 
ATOM      6  C5  UNL d   1      -2.915   0.898  -2.648  0.00  0.00     0.003 A 
ATOM      7  I   UNL d   1      -1.366   1.206   1.394  0.00  0.00    -0.146 I 
ENDROOT
TORSDOF 0
ENDMDL
