MODEL 1
REMARK minimizedAffinity 10.7502594
REMARK minimizedRMSD -1
REMARK  0 active torsions:
REMARK  status: ('A' for Active; 'I' for Inactive)
ROOT
ATOM      1  C   UNL d   1      -5.058  -5.999  -5.908  0.00  0.00     0.023 A 
ATOM      2  C1  UNL d   1      -5.946  -4.926  -6.000  0.00  0.00     0.003 A 
ATOM      3  C2  UNL d   1      -5.634  -3.706  -5.397  0.00  0.00     0.048 A 
ATOM      4  C3  UNL d   1      -4.431  -3.565  -4.705  0.00  0.00     0.023 A 
ATOM      5  C4  UNL d   1      -3.540  -4.635  -4.611  0.00  0.00     0.048 A 
ATOM      6  C5  UNL d   1      -3.857  -5.853  -5.215  0.00  0.00     0.003 A 
ATOM      7  I   UNL d   1      -3.964  -1.750  -3.807  0.00  0.00    -0.146 I 
ENDROOT
TORSDOF 0
ENDMDL
