MODEL 1
REMARK minimizedAffinity 3.711766
REMARK minimizedRMSD -1
REMARK  0 active torsions:
REMARK  status: ('A' for Active; 'I' for Inactive)
ROOT
ATOM      1  C   UNL d   1      -4.881  -6.000  -5.279  0.00  0.00     0.023 A 
ATOM      2  C1  UNL d   1      -4.515  -5.939  -3.934  0.00  0.00     0.003 A 
ATOM      3  C2  UNL d   1      -4.352  -4.702  -3.308  0.00  0.00     0.048 A 
ATOM      4  C3  UNL d   1      -4.558  -3.528  -4.033  0.00  0.00     0.023 A 
ATOM      5  C4  UNL d   1      -4.925  -3.584  -5.378  0.00  0.00     0.048 A 
ATOM      6  C5  UNL d   1      -5.086  -4.824  -6.000  0.00  0.00     0.003 A 
ATOM      7  I   UNL d   1      -4.316  -1.685  -3.104  0.00  0.00    -0.146 I 
ENDROOT
TORSDOF 0
ENDMDL
