MODEL 1
REMARK minimizedAffinity 9.12045383
REMARK minimizedRMSD -1
REMARK  0 active torsions:
REMARK  status: ('A' for Active; 'I' for Inactive)
ROOT
ATOM      1  C   UNL d   1       1.497  -4.302   2.202  0.00  0.00     0.023 A 
ATOM      2  C1  UNL d   1       2.277  -3.169   1.975  0.00  0.00     0.003 A 
ATOM      3  C2  UNL d   1       1.669  -1.924   1.799  0.00  0.00     0.048 A 
ATOM      4  C3  UNL d   1       0.279  -1.821   1.852  0.00  0.00     0.023 A 
ATOM      5  C4  UNL d   1      -0.506  -2.952   2.079  0.00  0.00     0.048 A 
ATOM      6  C5  UNL d   1       0.107  -4.194   2.254  0.00  0.00     0.003 A 
ATOM      7  I   UNL d   1      -0.629   0.031   1.590  0.00  0.00    -0.146 I 
ENDROOT
TORSDOF 0
ENDMDL
