MODEL 1
REMARK minimizedAffinity 1.72030258
REMARK minimizedRMSD -1
REMARK  0 active torsions:
REMARK  status: ('A' for Active; 'I' for Inactive)
ROOT
ATOM      1  C   UNL d   1       6.000  -2.920   5.263  0.00  0.00     0.023 A 
ATOM      2  C1  UNL d   1       4.819  -2.819   6.000  0.00  0.00     0.003 A 
ATOM      3  C2  UNL d   1       3.601  -2.623   5.346  0.00  0.00     0.048 A 
ATOM      4  C3  UNL d   1       3.571  -2.530   3.955  0.00  0.00     0.023 A 
ATOM      5  C4  UNL d   1       4.749  -2.631   3.214  0.00  0.00     0.048 A 
ATOM      6  C5  UNL d   1       5.965  -2.825   3.872  0.00  0.00     0.003 A 
ATOM      7  I   UNL d   1       1.759  -2.238   2.979  0.00  0.00    -0.146 I 
ENDROOT
TORSDOF 0
ENDMDL
