MODEL 1
REMARK minimizedAffinity -4.83724642
REMARK minimizedRMSD -1
REMARK  1 active torsions:
REMARK  status: ('A' for Active; 'I' for Inactive)
REMARK    1  A    between atoms: C1_2  and  C2_3 
ROOT
ATOM      1  C2  UNL d   1      -1.183  -0.765  -0.326  0.00  0.00    -0.073 A 
ATOM      2  C3  UNL d   1      -1.108  -1.896   0.494  0.00  0.00    -0.002 A 
ATOM      3  C4  UNL d   1       0.056  -2.168   1.214  0.00  0.00     0.004 A 
ATOM      4  C5  UNL d   1       1.152  -1.309   1.128  0.00  0.00    -0.004 A 
ATOM      5  C6  UNL d   1       1.091  -0.167   0.323  0.00  0.00    -0.075 A 
ATOM      6  C7  UNL d   1       2.262   0.766   0.217  0.00  0.00     0.076 C 
ATOM      7  C8  UNL d   1      -0.080   0.097  -0.400  0.00  0.00     0.001 A 
ENDROOT
BRANCH   1   8
ATOM      8  C1  UNL d   1      -2.440  -0.464  -1.101  0.00  0.00     0.053 C 
ATOM      9  C   UNL d   1      -3.650  -1.185  -0.528  0.00  0.00     0.018 C 
ENDBRANCH   1   8
TORSDOF 1
ENDMDL
