MODEL 1
REMARK minimizedAffinity -5.05123901
REMARK minimizedRMSD -1
REMARK  1 active torsions:
REMARK  status: ('A' for Active; 'I' for Inactive)
REMARK    1  A    between atoms: C1_2  and  C2_3 
ROOT
ATOM      1  C2  UNL d   1       0.273   0.123   0.002  0.00  0.00    -0.073 A 
ATOM      2  C3  UNL d   1       0.321   0.573  -1.322  0.00  0.00    -0.002 A 
ATOM      3  C4  UNL d   1      -0.837   0.596  -2.102  0.00  0.00     0.004 A 
ATOM      4  C5  UNL d   1      -2.053   0.176  -1.564  0.00  0.00    -0.004 A 
ATOM      5  C6  UNL d   1      -2.124  -0.266  -0.239  0.00  0.00    -0.075 A 
ATOM      6  C7  UNL d   1      -3.425  -0.723   0.353  0.00  0.00     0.076 C 
ATOM      7  C8  UNL d   1      -0.957  -0.289   0.536  0.00  0.00     0.001 A 
ENDROOT
BRANCH   1   8
ATOM      8  C1  UNL d   1       1.519   0.102   0.849  0.00  0.00     0.053 C 
ATOM      9  C   UNL d   1       2.269   1.423   0.792  0.00  0.00     0.018 C 
ENDBRANCH   1   8
TORSDOF 1
ENDMDL
