MODEL 1
REMARK minimizedAffinity -4.99324799
REMARK minimizedRMSD -1
REMARK  1 active torsions:
REMARK  status: ('A' for Active; 'I' for Inactive)
REMARK    1  A    between atoms: C1_2  and  C2_3 
ROOT
ATOM      1  C2  UNL d   1       0.643   0.308  -0.329  0.00  0.00    -0.073 A 
ATOM      2  C3  UNL d   1      -0.184   0.730  -1.376  0.00  0.00    -0.002 A 
ATOM      3  C4  UNL d   1      -1.417   0.114  -1.593  0.00  0.00     0.004 A 
ATOM      4  C5  UNL d   1      -1.838  -0.925  -0.762  0.00  0.00    -0.004 A 
ATOM      5  C6  UNL d   1      -1.031  -1.353   0.296  0.00  0.00    -0.075 A 
ATOM      6  C7  UNL d   1      -1.469  -2.471   1.197  0.00  0.00     0.076 C 
ATOM      7  C8  UNL d   1       0.207  -0.731   0.506  0.00  0.00     0.001 A 
ENDROOT
BRANCH   1   8
ATOM      8  C1  UNL d   1       1.973   0.974  -0.087  0.00  0.00     0.053 C 
ATOM      9  C   UNL d   1       1.905   1.986   1.046  0.00  0.00     0.018 C 
ENDBRANCH   1   8
TORSDOF 1
ENDMDL
