MODEL 1
REMARK minimizedAffinity -4.81403208
REMARK minimizedRMSD -1
REMARK  1 active torsions:
REMARK  status: ('A' for Active; 'I' for Inactive)
REMARK    1  A    between atoms: C1_2  and  C2_3 
ROOT
ATOM      1  C2  UNL d   1       0.788   0.508   0.566  0.00  0.00    -0.073 A 
ATOM      2  C3  UNL d   1       1.145  -0.629   1.301  0.00  0.00    -0.002 A 
ATOM      3  C4  UNL d   1       0.182  -1.579   1.641  0.00  0.00     0.004 A 
ATOM      4  C5  UNL d   1      -1.145  -1.407   1.245  0.00  0.00    -0.004 A 
ATOM      5  C6  UNL d   1      -1.519  -0.284   0.501  0.00  0.00    -0.075 A 
ATOM      6  C7  UNL d   1      -2.942  -0.084   0.069  0.00  0.00     0.076 C 
ATOM      7  C8  UNL d   1      -0.546   0.667   0.165  0.00  0.00     0.001 A 
ENDROOT
BRANCH   1   8
ATOM      8  C1  UNL d   1       1.826   1.534   0.191  0.00  0.00     0.053 C 
ATOM      9  C   UNL d   1       1.895   2.670   1.199  0.00  0.00     0.018 C 
ENDBRANCH   1   8
TORSDOF 1
ENDMDL
