MODEL 1
REMARK minimizedAffinity -4.75144911
REMARK minimizedRMSD -1
REMARK  1 active torsions:
REMARK  status: ('A' for Active; 'I' for Inactive)
REMARK    1  A    between atoms: C1_2  and  C2_3 
ROOT
ATOM      1  C2  UNL d   1       0.266  -0.387   0.305  0.00  0.00    -0.073 A 
ATOM      2  C3  UNL d   1       0.359  -1.397   1.269  0.00  0.00    -0.002 A 
ATOM      3  C4  UNL d   1      -0.760  -2.163   1.597  0.00  0.00     0.004 A 
ATOM      4  C5  UNL d   1      -1.980  -1.933   0.962  0.00  0.00    -0.004 A 
ATOM      5  C6  UNL d   1      -2.090  -0.936  -0.013  0.00  0.00    -0.075 A 
ATOM      6  C7  UNL d   1      -3.396  -0.674  -0.704  0.00  0.00     0.076 C 
ATOM      7  C8  UNL d   1      -0.963  -0.168  -0.335  0.00  0.00     0.001 A 
ENDROOT
BRANCH   1   8
ATOM      8  C1  UNL d   1       1.473   0.439  -0.058  0.00  0.00     0.053 C 
ATOM      9  C   UNL d   1       1.810   1.459   1.019  0.00  0.00     0.018 C 
ENDBRANCH   1   8
TORSDOF 1
ENDMDL
