MODEL 1
REMARK minimizedAffinity -4.13635492
REMARK minimizedRMSD -1
REMARK  1 active torsions:
REMARK  status: ('A' for Active; 'I' for Inactive)
REMARK    1  A    between atoms: C1_2  and  C2_3 
ROOT
ATOM      1  C2  UNL d   1      -2.036  -0.603  -0.134  0.00  0.00    -0.073 A 
ATOM      2  C3  UNL d   1      -2.208  -0.749  -1.515  0.00  0.00    -0.002 A 
ATOM      3  C4  UNL d   1      -1.188  -0.388  -2.395  0.00  0.00     0.004 A 
ATOM      4  C5  UNL d   1       0.017   0.117  -1.904  0.00  0.00    -0.004 A 
ATOM      5  C6  UNL d   1       0.213   0.259  -0.527  0.00  0.00    -0.075 A 
ATOM      6  C7  UNL d   1       1.501   0.803   0.017  0.00  0.00     0.076 C 
ATOM      7  C8  UNL d   1      -0.818  -0.103   0.351  0.00  0.00     0.001 A 
ENDROOT
BRANCH   1   8
ATOM      8  C1  UNL d   1      -3.133  -0.998   0.821  0.00  0.00     0.053 C 
ATOM      9  C   UNL d   1      -4.266  -1.728   0.117  0.00  0.00     0.018 C 
ENDBRANCH   1   8
TORSDOF 1
ENDMDL
