MODEL 1
REMARK minimizedAffinity -4.39396667
REMARK minimizedRMSD -1
REMARK  1 active torsions:
REMARK  status: ('A' for Active; 'I' for Inactive)
REMARK    1  A    between atoms: C1_2  and  C2_3 
ROOT
ATOM      1  C2  UNL d   1      -0.170  -0.121  -0.014  0.00  0.00    -0.073 A 
ATOM      2  C3  UNL d   1      -0.210   0.219  -1.371  0.00  0.00    -0.002 A 
ATOM      3  C4  UNL d   1      -1.402   0.116  -2.089  0.00  0.00     0.004 A 
ATOM      4  C5  UNL d   1      -2.566  -0.320  -1.457  0.00  0.00    -0.004 A 
ATOM      5  C6  UNL d   1      -2.550  -0.653  -0.099  0.00  0.00    -0.075 A 
ATOM      6  C7  UNL d   1      -3.794  -1.126   0.594  0.00  0.00     0.076 C 
ATOM      7  C8  UNL d   1      -1.348  -0.550   0.615  0.00  0.00     0.001 A 
ENDROOT
BRANCH   1   8
ATOM      8  C1  UNL d   1       1.113  -0.006   0.768  0.00  0.00     0.053 C 
ATOM      9  C   UNL d   1       1.557   1.440   0.923  0.00  0.00     0.018 C 
ENDBRANCH   1   8
TORSDOF 1
ENDMDL
