MODEL 1
REMARK minimizedAffinity -2.11385512
REMARK minimizedRMSD -1
REMARK  1 active torsions:
REMARK  status: ('A' for Active; 'I' for Inactive)
REMARK    1  A    between atoms: C1_2  and  C2_3 
ROOT
ATOM      1  C2  UNL d   1       0.178   0.179  -0.321  0.00  0.00    -0.073 A 
ATOM      2  C3  UNL d   1       0.106   0.863  -1.539  0.00  0.00    -0.002 A 
ATOM      3  C4  UNL d   1      -1.090   0.901  -2.257  0.00  0.00     0.004 A 
ATOM      4  C5  UNL d   1      -2.226   0.262  -1.762  0.00  0.00    -0.004 A 
ATOM      5  C6  UNL d   1      -2.178  -0.417  -0.540  0.00  0.00    -0.075 A 
ATOM      6  C7  UNL d   1      -3.391  -1.111   0.006  0.00  0.00     0.076 C 
ATOM      7  C8  UNL d   1      -0.972  -0.452   0.174  0.00  0.00     0.001 A 
ENDROOT
BRANCH   1   8
ATOM      8  C1  UNL d   1       1.466   0.141   0.461  0.00  0.00     0.053 C 
ATOM      9  C   UNL d   1       2.203   1.470   0.410  0.00  0.00     0.018 C 
ENDBRANCH   1   8
TORSDOF 1
ENDMDL
