MODEL 1
REMARK minimizedAffinity 2.19669437
REMARK minimizedRMSD -1
REMARK  2 active torsions:
REMARK  status: ('A' for Active; 'I' for Inactive)
REMARK    1  A    between atoms: C2'_3  and  C1'_4 
REMARK    2  A    between atoms: C1'_4  and  C1_5 
ROOT
ATOM      1  C1  I4B d   1       3.430   4.847  -4.538  0.00  0.00    -0.075 A 
ATOM      2  C2  I4B d   1       4.215   3.723  -4.483  0.00  0.00     0.003 A 
ATOM      3  C3  I4B d   1       5.504   3.724  -5.069  0.00  0.00     0.002 A 
ATOM      4  C4  I4B d   1       5.945   4.848  -5.738  0.00  0.00    -0.004 A 
ATOM      5  C5  I4B d   1       5.157   5.995  -5.773  0.00  0.00     0.002 A 
ATOM      6  C6  I4B d   1       3.896   5.999  -5.158  0.00  0.00     0.003 A 
ENDROOT
BRANCH   1   7
ATOM      7  C1' I4B d   1       2.061   4.800  -3.937  0.00  0.00     0.060 C 
BRANCH   7   8
ATOM      8  C2' I4B d   1       1.910   3.473  -3.222  0.00  0.00    -0.013 C 
ATOM      9  C4' I4B d   1       2.448   3.546  -1.817  0.00  0.00     0.013 C 
ATOM     10  C3' I4B d   1       0.456   3.107  -3.227  0.00  0.00     0.013 C 
ENDBRANCH   7   8
ENDBRANCH   1   7
TORSDOF 2
ENDMDL
