MODEL 1
REMARK minimizedAffinity 6.4515028
REMARK minimizedRMSD -1
REMARK  2 active torsions:
REMARK  status: ('A' for Active; 'I' for Inactive)
REMARK    1  A    between atoms: C2'_3  and  C1'_4 
REMARK    2  A    between atoms: C1'_4  and  C1_5 
ROOT
ATOM      1  C1  I4B d   1      -3.349  -4.574  -2.343  0.00  0.00    -0.075 A 
ATOM      2  C2  I4B d   1      -3.637  -5.681  -3.101  0.00  0.00     0.003 A 
ATOM      3  C3  I4B d   1      -4.854  -5.756  -3.820  0.00  0.00     0.002 A 
ATOM      4  C4  I4B d   1      -5.771  -4.730  -3.714  0.00  0.00    -0.004 A 
ATOM      5  C5  I4B d   1      -5.468  -3.597  -2.964  0.00  0.00     0.002 A 
ATOM      6  C6  I4B d   1      -4.244  -3.513  -2.283  0.00  0.00     0.003 A 
ENDROOT
BRANCH   1   7
ATOM      7  C1' I4B d   1      -2.070  -4.542  -1.569  0.00  0.00     0.060 C 
BRANCH   7   8
ATOM      8  C2' I4B d   1      -2.396  -4.154  -0.142  0.00  0.00    -0.013 C 
ATOM      9  C4' I4B d   1      -3.008  -5.306   0.611  0.00  0.00     0.013 C 
ATOM     10  C3' I4B d   1      -1.129  -3.691   0.514  0.00  0.00     0.013 C 
ENDBRANCH   7   8
ENDBRANCH   1   7
TORSDOF 2
ENDMDL
