MODEL 1
REMARK minimizedAffinity 7.19391727
REMARK minimizedRMSD -1
REMARK  2 active torsions:
REMARK  status: ('A' for Active; 'I' for Inactive)
REMARK    1  A    between atoms: C2'_3  and  C1'_4 
REMARK    2  A    between atoms: C1'_4  and  C1_5 
ROOT
ATOM      1  C1  I4B d   1       1.519   1.173  -0.598  0.00  0.00    -0.075 A 
ATOM      2  C2  I4B d   1       1.179  -0.157  -0.576  0.00  0.00     0.003 A 
ATOM      3  C3  I4B d   1       0.263  -0.674  -1.524  0.00  0.00     0.002 A 
ATOM      4  C4  I4B d   1      -0.324   0.177  -2.437  0.00  0.00    -0.004 A 
ATOM      5  C5  I4B d   1       0.039   1.521  -2.473  0.00  0.00     0.002 A 
ATOM      6  C6  I4B d   1       0.975   2.020  -1.556  0.00  0.00     0.003 A 
ENDROOT
BRANCH   1   7
ATOM      7  C1' I4B d   1       2.464   1.693   0.438  0.00  0.00     0.060 C 
BRANCH   7   8
ATOM      8  C2' I4B d   1       3.789   0.980   0.260  0.00  0.00    -0.013 C 
ATOM      9  C4' I4B d   1       4.542   1.518  -0.929  0.00  0.00     0.013 C 
ATOM     10  C3' I4B d   1       4.579   1.150   1.523  0.00  0.00     0.013 C 
ENDBRANCH   7   8
ENDBRANCH   1   7
TORSDOF 2
ENDMDL
