MODEL 1
REMARK minimizedAffinity 2.9957037
REMARK minimizedRMSD -1
REMARK  2 active torsions:
REMARK  status: ('A' for Active; 'I' for Inactive)
REMARK    1  A    between atoms: C2'_3  and  C1'_4 
REMARK    2  A    between atoms: C1'_4  and  C1_5 
ROOT
ATOM      1  C1  I4B d   1      -4.479   1.206   3.714  0.00  0.00    -0.075 A 
ATOM      2  C2  I4B d   1      -4.498   1.904   4.895  0.00  0.00     0.003 A 
ATOM      3  C3  I4B d   1      -5.239   1.417   5.999  0.00  0.00     0.002 A 
ATOM      4  C4  I4B d   1      -5.982   0.262   5.863  0.00  0.00    -0.004 A 
ATOM      5  C5  I4B d   1      -5.943  -0.457   4.671  0.00  0.00     0.002 A 
ATOM      6  C6  I4B d   1      -5.177   0.011   3.594  0.00  0.00     0.003 A 
ENDROOT
BRANCH   1   7
ATOM      7  C1' I4B d   1      -3.712   1.766   2.558  0.00  0.00     0.060 C 
BRANCH   7   8
ATOM      8  C2' I4B d   1      -2.236   1.596   2.850  0.00  0.00    -0.013 C 
ATOM      9  C4' I4B d   1      -1.702   0.326   2.241  0.00  0.00     0.013 C 
ATOM     10  C3' I4B d   1      -1.516   2.797   2.315  0.00  0.00     0.013 C 
ENDBRANCH   7   8
ENDBRANCH   1   7
TORSDOF 2
ENDMDL
