MODEL 1
REMARK minimizedAffinity 6.57166386
REMARK minimizedRMSD -1
REMARK  2 active torsions:
REMARK  status: ('A' for Active; 'I' for Inactive)
REMARK    1  A    between atoms: C2'_3  and  C1'_4 
REMARK    2  A    between atoms: C1'_4  and  C1_5 
ROOT
ATOM      1  C1  I4B d   1       2.327   1.313   1.368  0.00  0.00    -0.075 A 
ATOM      2  C2  I4B d   1       1.880   2.546   0.964  0.00  0.00     0.003 A 
ATOM      3  C3  I4B d   1       0.688   3.085   1.505  0.00  0.00     0.002 A 
ATOM      4  C4  I4B d   1      -0.048   2.340   2.403  0.00  0.00    -0.004 A 
ATOM      5  C5  I4B d   1       0.418   1.099   2.829  0.00  0.00     0.002 A 
ATOM      6  C6  I4B d   1       1.620   0.587   2.317  0.00  0.00     0.003 A 
ENDROOT
BRANCH   1   7
ATOM      7  C1' I4B d   1       3.573   0.760   0.751  0.00  0.00     0.060 C 
BRANCH   7   8
ATOM      8  C2' I4B d   1       3.180   0.020  -0.512  0.00  0.00    -0.013 C 
ATOM      9  C4' I4B d   1       2.484   0.935  -1.485  0.00  0.00     0.013 C 
ATOM     10  C3' I4B d   1       4.424  -0.563  -1.112  0.00  0.00     0.013 C 
ENDBRANCH   7   8
ENDBRANCH   1   7
TORSDOF 2
ENDMDL
