MODEL 1
REMARK minimizedAffinity 15.7381849
REMARK minimizedRMSD -1
REMARK  2 active torsions:
REMARK  status: ('A' for Active; 'I' for Inactive)
REMARK    1  A    between atoms: C2'_3  and  C1'_4 
REMARK    2  A    between atoms: C1'_4  and  C1_5 
ROOT
ATOM      1  C1  I4B d   1      -2.998  -5.562  -3.999  0.00  0.00    -0.075 A 
ATOM      2  C2  I4B d   1      -2.382  -5.174  -5.163  0.00  0.00     0.003 A 
ATOM      3  C3  I4B d   1      -0.970  -5.208  -5.267  0.00  0.00     0.002 A 
ATOM      4  C4  I4B d   1      -0.216  -5.585  -4.175  0.00  0.00    -0.004 A 
ATOM      5  C5  I4B d   1      -0.843  -5.999  -3.003  0.00  0.00     0.002 A 
ATOM      6  C6  I4B d   1      -2.243  -6.000  -2.918  0.00  0.00     0.003 A 
ENDROOT
BRANCH   1   7
ATOM      7  C1' I4B d   1      -4.489  -5.482  -3.912  0.00  0.00     0.060 C 
BRANCH   7   8
ATOM      8  C2' I4B d   1      -4.843  -4.750  -2.634  0.00  0.00    -0.013 C 
ATOM      9  C4' I4B d   1      -5.177  -3.307  -2.908  0.00  0.00     0.013 C 
ATOM     10  C3' I4B d   1      -6.000  -5.461  -1.998  0.00  0.00     0.013 C 
ENDBRANCH   7   8
ENDBRANCH   1   7
TORSDOF 2
ENDMDL
