MODEL 1
REMARK minimizedAffinity 7.42824888
REMARK minimizedRMSD -1
REMARK  2 active torsions:
REMARK  status: ('A' for Active; 'I' for Inactive)
REMARK    1  A    between atoms: C2'_3  and  C1'_4 
REMARK    2  A    between atoms: C1'_4  and  C1_5 
ROOT
ATOM      1  C1  I4B d   1       1.760   0.990  -0.320  0.00  0.00    -0.075 A 
ATOM      2  C2  I4B d   1       1.274  -0.214   0.126  0.00  0.00     0.003 A 
ATOM      3  C3  I4B d   1       0.265  -0.889  -0.603  0.00  0.00     0.002 A 
ATOM      4  C4  I4B d   1      -0.262  -0.305  -1.736  0.00  0.00    -0.004 A 
ATOM      5  C5  I4B d   1       0.248   0.904  -2.200  0.00  0.00     0.002 A 
ATOM      6  C6  I4B d   1       1.274   1.550  -1.494  0.00  0.00     0.003 A 
ENDROOT
BRANCH   1   7
ATOM      7  C1' I4B d   1       2.802   1.692   0.491  0.00  0.00     0.060 C 
BRANCH   7   8
ATOM      8  C2' I4B d   1       2.093   2.579   1.494  0.00  0.00    -0.013 C 
ATOM      9  C4' I4B d   1       1.563   3.827   0.839  0.00  0.00     0.013 C 
ATOM     10  C3' I4B d   1       0.986   1.782   2.116  0.00  0.00     0.013 C 
ENDBRANCH   7   8
ENDBRANCH   1   7
TORSDOF 2
ENDMDL
