MODEL 1
REMARK minimizedAffinity 7.28567743
REMARK minimizedRMSD -1
REMARK  2 active torsions:
REMARK  status: ('A' for Active; 'I' for Inactive)
REMARK    1  A    between atoms: C2'_3  and  C1'_4 
REMARK    2  A    between atoms: C1'_4  and  C1_5 
ROOT
ATOM      1  C1  I4B d   1       1.895   1.156  -1.469  0.00  0.00    -0.075 A 
ATOM      2  C2  I4B d   1       2.103  -0.127  -1.027  0.00  0.00     0.003 A 
ATOM      3  C3  I4B d   1       1.581  -1.225  -1.753  0.00  0.00     0.002 A 
ATOM      4  C4  I4B d   1       0.819  -0.993  -2.880  0.00  0.00    -0.004 A 
ATOM      5  C5  I4B d   1       0.628   0.307  -3.339  0.00  0.00     0.002 A 
ATOM      6  C6  I4B d   1       1.179   1.388  -2.636  0.00  0.00     0.003 A 
ENDROOT
BRANCH   1   7
ATOM      7  C1' I4B d   1       2.432   2.293  -0.659  0.00  0.00     0.060 C 
BRANCH   7   8
ATOM      8  C2' I4B d   1       1.429   2.604   0.432  0.00  0.00    -0.013 C 
ATOM      9  C4' I4B d   1       1.824   1.962   1.736  0.00  0.00     0.013 C 
ATOM     10  C3' I4B d   1       1.340   4.095   0.568  0.00  0.00     0.013 C 
ENDBRANCH   7   8
ENDBRANCH   1   7
TORSDOF 2
ENDMDL
