MODEL 1
REMARK minimizedAffinity 4.73368692
REMARK minimizedRMSD -1
REMARK  2 active torsions:
REMARK  status: ('A' for Active; 'I' for Inactive)
REMARK    1  A    between atoms: C2'_3  and  C1'_4 
REMARK    2  A    between atoms: C1'_4  and  C1_5 
ROOT
ATOM      1  C1  I4B d   1       1.114   0.405   0.953  0.00  0.00    -0.075 A 
ATOM      2  C2  I4B d   1       2.076   1.255   1.439  0.00  0.00     0.003 A 
ATOM      3  C3  I4B d   1       1.719   2.307   2.318  0.00  0.00     0.002 A 
ATOM      4  C4  I4B d   1       0.392   2.502   2.641  0.00  0.00    -0.004 A 
ATOM      5  C5  I4B d   1      -0.579   1.624   2.166  0.00  0.00     0.002 A 
ATOM      6  C6  I4B d   1      -0.214   0.562   1.326  0.00  0.00     0.003 A 
ENDROOT
BRANCH   1   7
ATOM      7  C1' I4B d   1       1.522  -0.675   0.001  0.00  0.00     0.060 C 
BRANCH   7   8
ATOM      8  C2' I4B d   1       2.398  -0.050  -1.065  0.00  0.00    -0.013 C 
ATOM      9  C4' I4B d   1       3.513  -0.980  -1.468  0.00  0.00     0.013 C 
ATOM     10  C3' I4B d   1       1.528   0.291  -2.238  0.00  0.00     0.013 C 
ENDBRANCH   7   8
ENDBRANCH   1   7
TORSDOF 2
ENDMDL
