MODEL 1
REMARK minimizedAffinity 3.43671107
REMARK minimizedRMSD -1
REMARK  2 active torsions:
REMARK  status: ('A' for Active; 'I' for Inactive)
REMARK    1  A    between atoms: C2'_3  and  C1'_4 
REMARK    2  A    between atoms: C1'_4  and  C1_5 
ROOT
ATOM      1  C1  I4B d   1       0.912   0.161   0.018  0.00  0.00    -0.075 A 
ATOM      2  C2  I4B d   1       0.146  -0.965   0.188  0.00  0.00     0.003 A 
ATOM      3  C3  I4B d   1      -0.379  -1.285   1.464  0.00  0.00     0.002 A 
ATOM      4  C4  I4B d   1      -0.073  -0.484   2.545  0.00  0.00    -0.004 A 
ATOM      5  C5  I4B d   1       0.685   0.670   2.366  0.00  0.00     0.002 A 
ATOM      6  C6  I4B d   1       1.171   1.002   1.093  0.00  0.00     0.003 A 
ENDROOT
BRANCH   1   7
ATOM      7  C1' I4B d   1       1.478   0.450  -1.336  0.00  0.00     0.060 C 
BRANCH   7   8
ATOM      8  C2' I4B d   1       0.378   0.242  -2.356  0.00  0.00    -0.013 C 
ATOM      9  C4' I4B d   1      -0.071   1.551  -2.950  0.00  0.00     0.013 C 
ATOM     10  C3' I4B d   1       0.898  -0.684  -3.415  0.00  0.00     0.013 C 
ENDBRANCH   7   8
ENDBRANCH   1   7
TORSDOF 2
ENDMDL
