MODEL 1
REMARK minimizedAffinity 9.14226151
REMARK minimizedRMSD -1
REMARK  2 active torsions:
REMARK  status: ('A' for Active; 'I' for Inactive)
REMARK    1  A    between atoms: C2'_3  and  C1'_4 
REMARK    2  A    between atoms: C1'_4  and  C1_5 
ROOT
ATOM      1  C1  I4B d   1       1.298   0.785  -1.136  0.00  0.00    -0.075 A 
ATOM      2  C2  I4B d   1       0.894  -0.513  -1.326  0.00  0.00     0.003 A 
ATOM      3  C3  I4B d   1       0.207  -0.880  -2.509  0.00  0.00     0.002 A 
ATOM      4  C4  I4B d   1      -0.097   0.087  -3.446  0.00  0.00    -0.004 A 
ATOM      5  C5  I4B d   1       0.334   1.398  -3.261  0.00  0.00     0.002 A 
ATOM      6  C6  I4B d   1       1.046   1.747  -2.105  0.00  0.00     0.003 A 
ENDROOT
BRANCH   1   7
ATOM      7  C1' I4B d   1       1.992   1.144   0.140  0.00  0.00     0.060 C 
BRANCH   7   8
ATOM      8  C2' I4B d   1       1.012   1.910   1.005  0.00  0.00    -0.013 C 
ATOM      9  C4' I4B d   1       0.918   1.311   2.383  0.00  0.00     0.013 C 
ATOM     10  C3' I4B d   1       1.466   3.338   1.065  0.00  0.00     0.013 C 
ENDBRANCH   7   8
ENDBRANCH   1   7
TORSDOF 2
ENDMDL
