MODEL 1
REMARK minimizedAffinity 2.35301733
REMARK minimizedRMSD -1
REMARK  2 active torsions:
REMARK  status: ('A' for Active; 'I' for Inactive)
REMARK    1  A    between atoms: C2'_3  and  C1'_4 
REMARK    2  A    between atoms: C1'_4  and  C1_5 
ROOT
ATOM      1  C1  I4B d   1       2.041   0.686   0.400  0.00  0.00    -0.075 A 
ATOM      2  C2  I4B d   1       3.006   1.158   1.255  0.00  0.00     0.003 A 
ATOM      3  C3  I4B d   1       2.640   1.718   2.503  0.00  0.00     0.002 A 
ATOM      4  C4  I4B d   1       1.305   1.832   2.831  0.00  0.00    -0.004 A 
ATOM      5  C5  I4B d   1       0.329   1.332   1.974  0.00  0.00     0.002 A 
ATOM      6  C6  I4B d   1       0.700   0.744   0.755  0.00  0.00     0.003 A 
ENDROOT
BRANCH   1   7
ATOM      7  C1' I4B d   1       2.461   0.131  -0.924  0.00  0.00     0.060 C 
BRANCH   7   8
ATOM      8  C2' I4B d   1       1.368   0.441  -1.928  0.00  0.00    -0.013 C 
ATOM      9  C4' I4B d   1       1.616   1.759  -2.613  0.00  0.00     0.013 C 
ATOM     10  C3' I4B d   1       1.318  -0.684  -2.919  0.00  0.00     0.013 C 
ENDBRANCH   7   8
ENDBRANCH   1   7
TORSDOF 2
ENDMDL
