MODEL 1
REMARK minimizedAffinity 3.1261611
REMARK minimizedRMSD -1
REMARK  1 active torsions:
REMARK  status: ('A' for Active; 'I' for Inactive)
REMARK    1  A    between atoms: C1_2  and  C2_3 
ROOT
ATOM      1  C2  UNL d   1       2.822  -1.080   0.337  0.00  0.00    -0.073 A 
ATOM      2  C3  UNL d   1       2.375  -1.932  -0.679  0.00  0.00    -0.002 A 
ATOM      3  C4  UNL d   1       1.658  -3.088  -0.366  0.00  0.00     0.004 A 
ATOM      4  C5  UNL d   1       1.376  -3.400   0.964  0.00  0.00    -0.004 A 
ATOM      5  C6  UNL d   1       1.803  -2.555   1.993  0.00  0.00    -0.075 A 
ATOM      6  C7  UNL d   1       1.509  -2.877   3.428  0.00  0.00     0.076 C 
ATOM      7  C8  UNL d   1       2.525  -1.397   1.670  0.00  0.00     0.001 A 
ENDROOT
BRANCH   1   8
ATOM      8  C1  UNL d   1       3.590   0.172   0.003  0.00  0.00     0.053 C 
ATOM      9  C   UNL d   1       3.054   1.385   0.747  0.00  0.00     0.018 C 
ENDBRANCH   1   8
TORSDOF 1
ENDMDL
