MODEL 1
REMARK minimizedAffinity 4.98052073
REMARK minimizedRMSD -1
REMARK  1 active torsions:
REMARK  status: ('A' for Active; 'I' for Inactive)
REMARK    1  A    between atoms: C1_2  and  C2_3 
ROOT
ATOM      1  C2  UNL d   1       1.107   3.045   0.200  0.00  0.00    -0.073 A 
ATOM      2  C3  UNL d   1       2.273   2.630  -0.454  0.00  0.00    -0.002 A 
ATOM      3  C4  UNL d   1       2.968   1.504  -0.010  0.00  0.00     0.004 A 
ATOM      4  C5  UNL d   1       2.501   0.778   1.086  0.00  0.00    -0.004 A 
ATOM      5  C6  UNL d   1       1.332   1.169   1.745  0.00  0.00    -0.075 A 
ATOM      6  C7  UNL d   1       0.818   0.401   2.927  0.00  0.00     0.076 C 
ATOM      7  C8  UNL d   1       0.641   2.303   1.296  0.00  0.00     0.001 A 
ENDROOT
BRANCH   1   8
ATOM      8  C1  UNL d   1       0.351   4.256  -0.279  0.00  0.00     0.053 C 
ATOM      9  C   UNL d   1      -0.736   4.673   0.699  0.00  0.00     0.018 C 
ENDBRANCH   1   8
TORSDOF 1
ENDMDL
