MODEL 1
REMARK minimizedAffinity 2.27464151
REMARK minimizedRMSD -1
REMARK  1 active torsions:
REMARK  status: ('A' for Active; 'I' for Inactive)
REMARK    1  A    between atoms: C1_2  and  C2_3 
ROOT
ATOM      1  C2  UNL d   1      -3.619   3.019  -5.015  0.00  0.00    -0.073 A 
ATOM      2  C3  UNL d   1      -4.712   2.954  -5.886  0.00  0.00    -0.002 A 
ATOM      3  C4  UNL d   1      -5.843   3.739  -5.658  0.00  0.00     0.004 A 
ATOM      4  C5  UNL d   1      -5.889   4.602  -4.562  0.00  0.00    -0.004 A 
ATOM      5  C6  UNL d   1      -4.802   4.690  -3.687  0.00  0.00    -0.075 A 
ATOM      6  C7  UNL d   1      -4.837   5.611  -2.503  0.00  0.00     0.076 C 
ATOM      7  C8  UNL d   1      -3.671   3.896  -3.922  0.00  0.00     0.001 A 
ENDROOT
BRANCH   1   8
ATOM      8  C1  UNL d   1      -2.393   2.177  -5.260  0.00  0.00     0.053 C 
ATOM      9  C   UNL d   1      -1.854   1.567  -3.976  0.00  0.00     0.018 C 
ENDBRANCH   1   8
TORSDOF 1
ENDMDL
