MODEL 1
REMARK minimizedAffinity 13.14534
REMARK minimizedRMSD -1
REMARK  1 active torsions:
REMARK  status: ('A' for Active; 'I' for Inactive)
REMARK    1  A    between atoms: C1_2  and  C2_3 
ROOT
ATOM      1  C2  UNL d   1       2.504  -0.017  -1.261  0.00  0.00    -0.073 A 
ATOM      2  C3  UNL d   1       1.507   0.816  -0.742  0.00  0.00    -0.002 A 
ATOM      3  C4  UNL d   1       1.806   2.131  -0.381  0.00  0.00     0.004 A 
ATOM      4  C5  UNL d   1       3.100   2.626  -0.540  0.00  0.00    -0.004 A 
ATOM      5  C6  UNL d   1       4.107   1.812  -1.068  0.00  0.00    -0.075 A 
ATOM      6  C7  UNL d   1       5.504   2.330  -1.244  0.00  0.00     0.076 C 
ATOM      7  C8  UNL d   1       3.800   0.493  -1.427  0.00  0.00     0.001 A 
ENDROOT
BRANCH   1   8
ATOM      8  C1  UNL d   1       2.186  -1.435  -1.660  0.00  0.00     0.053 C 
ATOM      9  C   UNL d   1       1.505  -2.203  -0.538  0.00  0.00     0.018 C 
ENDBRANCH   1   8
TORSDOF 1
ENDMDL
