MODEL 1
REMARK minimizedAffinity 0.15745005
REMARK minimizedRMSD -1
REMARK  1 active torsions:
REMARK  status: ('A' for Active; 'I' for Inactive)
REMARK    1  A    between atoms: C1_2  and  C2_3 
ROOT
ATOM      1  C2  UNL d   1      -4.063   1.050  -3.608  0.00  0.00    -0.073 A 
ATOM      2  C3  UNL d   1      -4.571   2.278  -4.045  0.00  0.00    -0.002 A 
ATOM      3  C4  UNL d   1      -5.506   2.969  -3.273  0.00  0.00     0.004 A 
ATOM      4  C5  UNL d   1      -5.936   2.444  -2.055  0.00  0.00    -0.004 A 
ATOM      5  C6  UNL d   1      -5.430   1.223  -1.595  0.00  0.00    -0.075 A 
ATOM      6  C7  UNL d   1      -5.884   0.643  -0.288  0.00  0.00     0.076 C 
ATOM      7  C8  UNL d   1      -4.494   0.534  -2.378  0.00  0.00     0.001 A 
ENDROOT
BRANCH   1   8
ATOM      8  C1  UNL d   1      -3.049   0.303  -4.436  0.00  0.00     0.053 C 
ATOM      9  C   UNL d   1      -1.803  -0.043  -3.636  0.00  0.00     0.018 C 
ENDBRANCH   1   8
TORSDOF 1
ENDMDL
