MODEL 1
REMARK minimizedAffinity 0.612245619
REMARK minimizedRMSD -1
REMARK  1 active torsions:
REMARK  status: ('A' for Active; 'I' for Inactive)
REMARK    1  A    between atoms: C1_2  and  C2_3 
ROOT
ATOM      1  C2  UNL d   1      -4.371   0.133  -1.956  0.00  0.00    -0.073 A 
ATOM      2  C3  UNL d   1      -3.300  -0.305  -2.743  0.00  0.00    -0.002 A 
ATOM      3  C4  UNL d   1      -2.976   0.361  -3.926  0.00  0.00     0.004 A 
ATOM      4  C5  UNL d   1      -3.714   1.473  -4.330  0.00  0.00    -0.004 A 
ATOM      5  C6  UNL d   1      -4.781   1.933  -3.551  0.00  0.00    -0.075 A 
ATOM      6  C7  UNL d   1      -5.587   3.126  -3.973  0.00  0.00     0.076 C 
ATOM      7  C8  UNL d   1      -5.102   1.257  -2.366  0.00  0.00     0.001 A 
ENDROOT
BRANCH   1   8
ATOM      8  C1  UNL d   1      -4.720  -0.579  -0.675  0.00  0.00     0.053 C 
ATOM      9  C   UNL d   1      -5.565   0.287   0.247  0.00  0.00     0.018 C 
ENDBRANCH   1   8
TORSDOF 1
ENDMDL
