MODEL 1
REMARK minimizedAffinity 4.49735165
REMARK minimizedRMSD -1
REMARK  1 active torsions:
REMARK  status: ('A' for Active; 'I' for Inactive)
REMARK    1  A    between atoms: C1_2  and  C2_3 
ROOT
ATOM      1  C2  UNL d   1      -4.464   1.320  -4.234  0.00  0.00    -0.073 A 
ATOM      2  C3  UNL d   1      -5.586   1.860  -3.595  0.00  0.00    -0.002 A 
ATOM      3  C4  UNL d   1      -5.439   2.888  -2.663  0.00  0.00     0.004 A 
ATOM      4  C5  UNL d   1      -4.172   3.390  -2.365  0.00  0.00    -0.004 A 
ATOM      5  C6  UNL d   1      -3.040   2.872  -3.002  0.00  0.00    -0.075 A 
ATOM      6  C7  UNL d   1      -1.671   3.401  -2.692  0.00  0.00     0.076 C 
ATOM      7  C8  UNL d   1      -3.195   1.838  -3.936  0.00  0.00     0.001 A 
ENDROOT
BRANCH   1   8
ATOM      8  C1  UNL d   1      -4.617   0.215  -5.247  0.00  0.00     0.053 C 
ATOM      9  C   UNL d   1      -5.999  -0.418  -5.194  0.00  0.00     0.018 C 
ENDBRANCH   1   8
TORSDOF 1
ENDMDL
