MODEL 1
REMARK minimizedAffinity 1.21486092
REMARK minimizedRMSD -1
REMARK  1 active torsions:
REMARK  status: ('A' for Active; 'I' for Inactive)
REMARK    1  A    between atoms: C1_2  and  C2_3 
ROOT
ATOM      1  C2  UNL d   1      -4.140   2.501  -2.915  0.00  0.00    -0.073 A 
ATOM      2  C3  UNL d   1      -2.786   2.225  -3.137  0.00  0.00    -0.002 A 
ATOM      3  C4  UNL d   1      -2.408   1.122  -3.904  0.00  0.00     0.004 A 
ATOM      4  C5  UNL d   1      -3.378   0.290  -4.462  0.00  0.00    -0.004 A 
ATOM      5  C6  UNL d   1      -4.736   0.556  -4.261  0.00  0.00    -0.075 A 
ATOM      6  C7  UNL d   1      -5.792  -0.331  -4.853  0.00  0.00     0.076 C 
ATOM      7  C8  UNL d   1      -5.108   1.664  -3.488  0.00  0.00     0.001 A 
ENDROOT
BRANCH   1   8
ATOM      8  C1  UNL d   1      -4.552   3.695  -2.093  0.00  0.00     0.053 C 
ATOM      9  C   UNL d   1      -5.998   4.091  -2.349  0.00  0.00     0.018 C 
ENDBRANCH   1   8
TORSDOF 1
ENDMDL
