MODEL 1
REMARK minimizedAffinity 6.23606968
REMARK minimizedRMSD -1
REMARK  1 active torsions:
REMARK  status: ('A' for Active; 'I' for Inactive)
REMARK    1  A    between atoms: C1_2  and  C2_3 
ROOT
ATOM      1  C2  UNL d   1      -3.639   0.802  -4.027  0.00  0.00    -0.073 A 
ATOM      2  C3  UNL d   1      -4.826   0.327  -4.596  0.00  0.00    -0.002 A 
ATOM      3  C4  UNL d   1      -6.000   1.076  -4.503  0.00  0.00     0.004 A 
ATOM      4  C5  UNL d   1      -5.997   2.308  -3.848  0.00  0.00    -0.004 A 
ATOM      5  C6  UNL d   1      -4.818   2.804  -3.284  0.00  0.00    -0.075 A 
ATOM      6  C7  UNL d   1      -4.799   4.126  -2.574  0.00  0.00     0.076 C 
ATOM      7  C8  UNL d   1      -3.644   2.045  -3.378  0.00  0.00     0.001 A 
ENDROOT
BRANCH   1   8
ATOM      8  C1  UNL d   1      -2.367  -0.000  -4.130  0.00  0.00     0.053 C 
ATOM      9  C   UNL d   1      -1.882  -0.477  -2.770  0.00  0.00     0.018 C 
ENDBRANCH   1   8
TORSDOF 1
ENDMDL
