MODEL 1
REMARK minimizedAffinity -2.79147959
REMARK minimizedRMSD -1
REMARK  0 active torsions:
REMARK  status: ('A' for Active; 'I' for Inactive)
ROOT
ATOM      1  C   UNL d   1       0.448  -1.892  -1.290  0.00  0.00     0.023 A 
ATOM      2  C1  UNL d   1      -0.933  -1.901  -1.490  0.00  0.00     0.003 A 
ATOM      3  C2  UNL d   1      -1.764  -1.139  -0.666  0.00  0.00     0.048 A 
ATOM      4  C3  UNL d   1      -1.209  -0.370   0.356  0.00  0.00     0.023 A 
ATOM      5  C4  UNL d   1       0.172  -0.358   0.560  0.00  0.00     0.048 A 
ATOM      6  C5  UNL d   1       0.999  -1.121  -0.266  0.00  0.00     0.003 A 
ATOM      7  I   UNL d   1      -2.444   0.764   1.583  0.00  0.00    -0.146 I 
ENDROOT
TORSDOF 0
ENDMDL
