MODEL 1
REMARK minimizedAffinity -0.635350645
REMARK minimizedRMSD -1
REMARK  0 active torsions:
REMARK  status: ('A' for Active; 'I' for Inactive)
ROOT
ATOM      1  C   UNL d   1      -1.138  -1.019   2.214  0.00  0.00     0.023 A 
ATOM      2  C1  UNL d   1      -0.206   0.010   2.351  0.00  0.00     0.003 A 
ATOM      3  C2  UNL d   1       0.876  -0.137   3.222  0.00  0.00     0.048 A 
ATOM      4  C3  UNL d   1       1.020  -1.316   3.952  0.00  0.00     0.023 A 
ATOM      5  C4  UNL d   1       0.091  -2.349   3.818  0.00  0.00     0.048 A 
ATOM      6  C5  UNL d   1      -0.989  -2.197   2.947  0.00  0.00     0.003 A 
ATOM      7  I   UNL d   1       2.629  -1.537   5.249  0.00  0.00    -0.146 I 
ENDROOT
TORSDOF 0
ENDMDL
