MODEL 1
REMARK minimizedAffinity 7.3656354
REMARK minimizedRMSD -1
REMARK  0 active torsions:
REMARK  status: ('A' for Active; 'I' for Inactive)
ROOT
ATOM      1  C   UNL d   1      -1.015  -1.010   1.576  0.00  0.00     0.023 A 
ATOM      2  C1  UNL d   1      -0.191   0.076   1.874  0.00  0.00     0.003 A 
ATOM      3  C2  UNL d   1       0.958  -0.108   2.646  0.00  0.00     0.048 A 
ATOM      4  C3  UNL d   1       1.277  -1.381   3.117  0.00  0.00     0.023 A 
ATOM      5  C4  UNL d   1       0.456  -2.471   2.821  0.00  0.00     0.048 A 
ATOM      6  C5  UNL d   1      -0.692  -2.282   2.050  0.00  0.00     0.003 A 
ATOM      7  I   UNL d   1       2.987  -1.658   4.267  0.00  0.00    -0.146 I 
ENDROOT
TORSDOF 0
ENDMDL
