MODEL 1
REMARK minimizedAffinity 4.89201641
REMARK minimizedRMSD -1
REMARK  0 active torsions:
REMARK  status: ('A' for Active; 'I' for Inactive)
ROOT
ATOM      1  C   UNL d   1      -2.194  -0.788  -5.055  0.00  0.00     0.023 A 
ATOM      2  C1  UNL d   1      -1.586   0.422  -4.720  0.00  0.00     0.003 A 
ATOM      3  C2  UNL d   1      -0.211   0.587  -4.899  0.00  0.00     0.048 A 
ATOM      4  C3  UNL d   1       0.550  -0.462  -5.413  0.00  0.00     0.023 A 
ATOM      5  C4  UNL d   1      -0.054  -1.674  -5.750  0.00  0.00     0.048 A 
ATOM      6  C5  UNL d   1      -1.429  -1.835  -5.569  0.00  0.00     0.003 A 
ATOM      7  I   UNL d   1       2.597  -0.219  -5.680  0.00  0.00    -0.146 I 
ENDROOT
TORSDOF 0
ENDMDL
