MODEL 1
REMARK minimizedAffinity 5.56323624
REMARK minimizedRMSD -1
REMARK  0 active torsions:
REMARK  status: ('A' for Active; 'I' for Inactive)
ROOT
ATOM      1  C   UNL d   1      -1.820  -0.583   1.402  0.00  0.00     0.023 A 
ATOM      2  C1  UNL d   1      -0.808   0.361   1.580  0.00  0.00     0.003 A 
ATOM      3  C2  UNL d   1       0.336   0.032   2.310  0.00  0.00     0.048 A 
ATOM      4  C3  UNL d   1       0.462  -1.244   2.859  0.00  0.00     0.023 A 
ATOM      5  C4  UNL d   1      -0.548  -2.192   2.684  0.00  0.00     0.048 A 
ATOM      6  C5  UNL d   1      -1.690  -1.858   1.954  0.00  0.00     0.003 A 
ATOM      7  I   UNL d   1       2.163  -1.737   3.946  0.00  0.00    -0.146 I 
ENDROOT
TORSDOF 0
ENDMDL
