MODEL 1
REMARK minimizedAffinity -0.822511256
REMARK minimizedRMSD -1
REMARK  0 active torsions:
REMARK  status: ('A' for Active; 'I' for Inactive)
ROOT
ATOM      1  C   UNL d   1      -2.274  -0.461   1.728  0.00  0.00     0.023 A 
ATOM      2  C1  UNL d   1      -2.036  -1.679   2.365  0.00  0.00     0.003 A 
ATOM      3  C2  UNL d   1      -0.826  -1.898   3.027  0.00  0.00     0.048 A 
ATOM      4  C3  UNL d   1       0.142  -0.894   3.047  0.00  0.00     0.023 A 
ATOM      5  C4  UNL d   1      -0.092   0.327   2.412  0.00  0.00     0.048 A 
ATOM      6  C5  UNL d   1      -1.303   0.540   1.751  0.00  0.00     0.003 A 
ATOM      7  I   UNL d   1       1.944  -1.217   4.031  0.00  0.00    -0.146 I 
ENDROOT
TORSDOF 0
ENDMDL
