MODEL 1
REMARK minimizedAffinity -0.0623059683
REMARK minimizedRMSD -1
REMARK  0 active torsions:
REMARK  status: ('A' for Active; 'I' for Inactive)
ROOT
ATOM      1  C   UNL d   1       0.290  -1.692  -4.225  0.00  0.00     0.023 A 
ATOM      2  C1  UNL d   1       0.395  -0.776  -5.272  0.00  0.00     0.003 A 
ATOM      3  C2  UNL d   1       1.651  -0.438  -5.782  0.00  0.00     0.048 A 
ATOM      4  C3  UNL d   1       2.796  -1.021  -5.242  0.00  0.00     0.023 A 
ATOM      5  C4  UNL d   1       2.696  -1.940  -4.195  0.00  0.00     0.048 A 
ATOM      6  C5  UNL d   1       1.439  -2.273  -3.688  0.00  0.00     0.003 A 
ATOM      7  I   UNL d   1       4.666  -0.521  -6.000  0.00  0.00    -0.146 I 
ENDROOT
TORSDOF 0
ENDMDL
