MODEL 1
REMARK minimizedAffinity 8.06307697
REMARK minimizedRMSD -1
REMARK  0 active torsions:
REMARK  status: ('A' for Active; 'I' for Inactive)
ROOT
ATOM      1  C   UNL d   1       4.126  -0.898   5.980  0.00  0.00     0.023 A 
ATOM      2  C1  UNL d   1       2.991  -1.710   6.000  0.00  0.00     0.003 A 
ATOM      3  C2  UNL d   1       2.211  -1.849   4.850  0.00  0.00     0.048 A 
ATOM      4  C3  UNL d   1       2.572  -1.175   3.684  0.00  0.00     0.023 A 
ATOM      5  C4  UNL d   1       3.707  -0.363   3.659  0.00  0.00     0.048 A 
ATOM      6  C5  UNL d   1       4.483  -0.226   4.811  0.00  0.00     0.003 A 
ATOM      7  I   UNL d   1       1.412  -1.381   1.971  0.00  0.00    -0.146 I 
ENDROOT
TORSDOF 0
ENDMDL
