MODEL 1
REMARK minimizedAffinity -5.01557541
REMARK minimizedRMSD -1
REMARK  0 active torsions:
REMARK  status: ('A' for Active; 'I' for Inactive)
ROOT
ATOM      1  O1  BZF d   1      -0.996   0.143  -0.536  0.00  0.00    -0.204 OA
ATOM      2  C2  BZF d   1      -0.719   1.326   0.121  0.00  0.00     0.174 A 
ATOM      3  C3  BZF d   1       0.492   1.273   0.712  0.00  0.00    -0.012 A 
ATOM      4  C3A BZF d   1       1.044   0.010   0.327  0.00  0.00    -0.107 A 
ATOM      5  C4  BZF d   1       2.231  -0.614   0.586  0.00  0.00     0.055 A 
ATOM      6  C5  BZF d   1       2.429  -1.875   0.120  0.00  0.00    -0.016 A 
ATOM      7  C6  BZF d   1       1.461  -2.543  -0.602  0.00  0.00     0.022 A 
ATOM      8  C7  BZF d   1       0.270  -1.963  -0.888  0.00  0.00     0.029 A 
ATOM      9  C7A BZF d   1       0.080  -0.676  -0.447  0.00  0.00     0.058 A 
ENDROOT
TORSDOF 0
ENDMDL
