MODEL 1
REMARK minimizedAffinity -3.18629813
REMARK minimizedRMSD -1
REMARK  0 active torsions:
REMARK  status: ('A' for Active; 'I' for Inactive)
ROOT
ATOM      1  O1  BZF d   1       0.624  -1.972  -0.376  0.00  0.00    -0.204 OA
ATOM      2  C2  BZF d   1       1.777  -2.391   0.261  0.00  0.00     0.174 A 
ATOM      3  C3  BZF d   1       2.466  -1.338   0.745  0.00  0.00    -0.012 A 
ATOM      4  C3A BZF d   1       1.650  -0.195   0.469  0.00  0.00    -0.107 A 
ATOM      5  C4  BZF d   1       1.788   1.140   0.722  0.00  0.00     0.055 A 
ATOM      6  C5  BZF d   1       0.845   2.001   0.256  0.00  0.00    -0.016 A 
ATOM      7  C6  BZF d   1      -0.243   1.563  -0.469  0.00  0.00     0.022 A 
ATOM      8  C7  BZF d   1      -0.425   0.248  -0.741  0.00  0.00     0.029 A 
ATOM      9  C7A BZF d   1       0.508  -0.628  -0.243  0.00  0.00     0.058 A 
ENDROOT
TORSDOF 0
ENDMDL
