MODEL 1
REMARK minimizedAffinity -5.41625977
REMARK minimizedRMSD -1
REMARK  0 active torsions:
REMARK  status: ('A' for Active; 'I' for Inactive)
ROOT
ATOM      1  O1  BZF d   1      -0.640   1.003  -0.133  0.00  0.00    -0.204 OA
ATOM      2  C2  BZF d   1      -1.496   0.202  -0.864  0.00  0.00     0.174 A 
ATOM      3  C3  BZF d   1      -0.940  -1.004  -1.098  0.00  0.00    -0.012 A 
ATOM      4  C3A BZF d   1       0.306  -0.987  -0.395  0.00  0.00    -0.107 A 
ATOM      5  C4  BZF d   1       1.305  -1.904  -0.232  0.00  0.00     0.055 A 
ATOM      6  C5  BZF d   1       2.422  -1.548   0.455  0.00  0.00    -0.016 A 
ATOM      7  C6  BZF d   1       2.576  -0.285   0.987  0.00  0.00     0.022 A 
ATOM      8  C7  BZF d   1       1.610   0.657   0.856  0.00  0.00     0.029 A 
ATOM      9  C7A BZF d   1       0.466   0.290   0.191  0.00  0.00     0.058 A 
ENDROOT
TORSDOF 0
ENDMDL
