MODEL 1
REMARK minimizedAffinity 0.442900628
REMARK minimizedRMSD -1
REMARK  0 active torsions:
REMARK  status: ('A' for Active; 'I' for Inactive)
ROOT
ATOM      1  O1  BZF d   1       0.450  -1.817  -0.717  0.00  0.00    -0.204 OA
ATOM      2  C2  BZF d   1       1.739  -2.159  -0.360  0.00  0.00     0.174 A 
ATOM      3  C3  BZF d   1       2.435  -1.069   0.024  0.00  0.00    -0.012 A 
ATOM      4  C3A BZF d   1       1.495   0.009  -0.014  0.00  0.00    -0.107 A 
ATOM      5  C4  BZF d   1       1.582   1.341   0.276  0.00  0.00     0.055 A 
ATOM      6  C5  BZF d   1       0.500   2.135   0.065  0.00  0.00    -0.016 A 
ATOM      7  C6  BZF d   1      -0.682   1.632  -0.438  0.00  0.00     0.022 A 
ATOM      8  C7  BZF d   1      -0.818   0.317  -0.735  0.00  0.00     0.029 A 
ATOM      9  C7A BZF d   1       0.263  -0.494  -0.492  0.00  0.00     0.058 A 
ENDROOT
TORSDOF 0
ENDMDL
