MODEL 1
REMARK minimizedAffinity -2.53766012
REMARK minimizedRMSD -1
REMARK  0 active torsions:
REMARK  status: ('A' for Active; 'I' for Inactive)
ROOT
ATOM      1  O1  BZF d   1      -0.289   0.296   0.977  0.00  0.00    -0.204 OA
ATOM      2  C2  BZF d   1       0.107   0.417  -0.341  0.00  0.00     0.174 A 
ATOM      3  C3  BZF d   1      -0.954   0.648  -1.140  0.00  0.00    -0.012 A 
ATOM      4  C3A BZF d   1      -2.073   0.765  -0.256  0.00  0.00    -0.107 A 
ATOM      5  C4  BZF d   1      -3.402   1.010  -0.451  0.00  0.00     0.055 A 
ATOM      6  C5  BZF d   1      -4.242   0.987   0.617  0.00  0.00    -0.016 A 
ATOM      7  C6  BZF d   1      -3.788   0.718   1.892  0.00  0.00     0.022 A 
ATOM      8  C7  BZF d   1      -2.477   0.473   2.135  0.00  0.00     0.029 A 
ATOM      9  C7A BZF d   1      -1.621   0.528   1.063  0.00  0.00     0.058 A 
ENDROOT
TORSDOF 0
ENDMDL
