MODEL 1
REMARK minimizedAffinity -3.66187477
REMARK minimizedRMSD -1
REMARK  0 active torsions:
REMARK  status: ('A' for Active; 'I' for Inactive)
ROOT
ATOM      1  O1  BZF d   1       0.380  -1.818  -0.567  0.00  0.00    -0.204 OA
ATOM      2  C2  BZF d   1       1.603  -2.166  -0.029  0.00  0.00     0.174 A 
ATOM      3  C3  BZF d   1       2.281  -1.070   0.369  0.00  0.00    -0.012 A 
ATOM      4  C3A BZF d   1       1.389   0.026   0.144  0.00  0.00    -0.107 A 
ATOM      5  C4  BZF d   1       1.483   1.372   0.356  0.00  0.00     0.055 A 
ATOM      6  C5  BZF d   1       0.462   2.176  -0.040  0.00  0.00    -0.016 A 
ATOM      7  C6  BZF d   1      -0.665   1.669  -0.655  0.00  0.00     0.022 A 
ATOM      8  C7  BZF d   1      -0.806   0.340  -0.882  0.00  0.00     0.029 A 
ATOM      9  C7A BZF d   1       0.210  -0.478  -0.453  0.00  0.00     0.058 A 
ENDROOT
TORSDOF 0
ENDMDL
