MODEL 1
REMARK minimizedAffinity -4.80711699
REMARK minimizedRMSD -1
REMARK  0 active torsions:
REMARK  status: ('A' for Active; 'I' for Inactive)
ROOT
ATOM      1  O1  BZF d   1      -0.005   0.993  -0.446  0.00  0.00    -0.204 OA
ATOM      2  C2  BZF d   1      -0.816   0.123  -1.149  0.00  0.00     0.174 A 
ATOM      3  C3  BZF d   1      -0.278  -1.113  -1.181  0.00  0.00    -0.012 A 
ATOM      4  C3A BZF d   1       0.901  -1.031  -0.374  0.00  0.00    -0.107 A 
ATOM      5  C4  BZF d   1       1.854  -1.938  -0.009  0.00  0.00     0.055 A 
ATOM      6  C5  BZF d   1       2.916  -1.520   0.728  0.00  0.00    -0.016 A 
ATOM      7  C6  BZF d   1       3.060  -0.203   1.113  0.00  0.00     0.022 A 
ATOM      8  C7  BZF d   1       2.137   0.732   0.779  0.00  0.00     0.029 A 
ATOM      9  C7A BZF d   1       1.046   0.306   0.062  0.00  0.00     0.058 A 
ENDROOT
TORSDOF 0
ENDMDL
