MODEL 1
REMARK minimizedAffinity -4.01576281
REMARK minimizedRMSD -1
REMARK  0 active torsions:
REMARK  status: ('A' for Active; 'I' for Inactive)
ROOT
ATOM      1  O1  BZF d   1       1.949  -0.507   1.702  0.00  0.00    -0.204 OA
ATOM      2  C2  BZF d   1       2.632  -1.453   0.963  0.00  0.00     0.174 A 
ATOM      3  C3  BZF d   1       1.975  -1.731  -0.182  0.00  0.00    -0.012 A 
ATOM      4  C3A BZF d   1       0.856  -0.840  -0.199  0.00  0.00    -0.107 A 
ATOM      5  C4  BZF d   1      -0.160  -0.625  -1.086  0.00  0.00     0.055 A 
ATOM      6  C5  BZF d   1      -1.135   0.267  -0.771  0.00  0.00    -0.016 A 
ATOM      7  C6  BZF d   1      -1.128   0.958   0.423  0.00  0.00     0.022 A 
ATOM      8  C7  BZF d   1      -0.139   0.783   1.332  0.00  0.00     0.029 A 
ATOM      9  C7A BZF d   1       0.865  -0.094   1.002  0.00  0.00     0.058 A 
ENDROOT
TORSDOF 0
ENDMDL
