MODEL 1
REMARK minimizedAffinity -0.50661695
REMARK minimizedRMSD -1
REMARK  0 active torsions:
REMARK  status: ('A' for Active; 'I' for Inactive)
ROOT
ATOM      1  O1  BZF d   1       0.681   0.994  -0.131  0.00  0.00    -0.204 OA
ATOM      2  C2  BZF d   1      -0.363   0.094  -0.031  0.00  0.00     0.174 A 
ATOM      3  C3  BZF d   1       0.082  -1.171  -0.171  0.00  0.00    -0.012 A 
ATOM      4  C3A BZF d   1       1.504  -1.061  -0.279  0.00  0.00    -0.107 A 
ATOM      5  C4  BZF d   1       2.509  -1.975  -0.421  0.00  0.00     0.055 A 
ATOM      6  C5  BZF d   1       3.786  -1.535  -0.570  0.00  0.00    -0.016 A 
ATOM      7  C6  BZF d   1       4.093  -0.190  -0.586  0.00  0.00     0.022 A 
ATOM      8  C7  BZF d   1       3.131   0.754  -0.444  0.00  0.00     0.029 A 
ATOM      9  C7A BZF d   1       1.844   0.312  -0.260  0.00  0.00     0.058 A 
ENDROOT
TORSDOF 0
ENDMDL
