MODEL 1
REMARK minimizedAffinity -3.66108274
REMARK minimizedRMSD -1
REMARK  0 active torsions:
REMARK  status: ('A' for Active; 'I' for Inactive)
ROOT
ATOM      1  O1  BZF d   1       2.493  -1.831  -0.523  0.00  0.00    -0.204 OA
ATOM      2  C2  BZF d   1       3.248  -1.617   0.614  0.00  0.00     0.174 A 
ATOM      3  C3  BZF d   1       2.629  -0.752   1.443  0.00  0.00    -0.012 A 
ATOM      4  C3A BZF d   1       1.368  -0.475   0.825  0.00  0.00    -0.107 A 
ATOM      5  C4  BZF d   1       0.302   0.303   1.175  0.00  0.00     0.055 A 
ATOM      6  C5  BZF d   1      -0.745   0.414   0.316  0.00  0.00    -0.016 A 
ATOM      7  C6  BZF d   1      -0.756  -0.233  -0.902  0.00  0.00     0.022 A 
ATOM      8  C7  BZF d   1       0.277  -1.020  -1.291  0.00  0.00     0.029 A 
ATOM      9  C7A BZF d   1       1.321  -1.160  -0.411  0.00  0.00     0.058 A 
ENDROOT
TORSDOF 0
ENDMDL
