MODEL 1
REMARK minimizedAffinity -3.6884644
REMARK minimizedRMSD -1
REMARK  0 active torsions:
REMARK  status: ('A' for Active; 'I' for Inactive)
ROOT
ATOM      1  O1  BZF d   1       0.390   1.980  -0.021  0.00  0.00    -0.204 OA
ATOM      2  C2  BZF d   1       1.515   2.612   0.472  0.00  0.00     0.174 A 
ATOM      3  C3  BZF d   1       2.432   1.710   0.877  0.00  0.00    -0.012 A 
ATOM      4  C3A BZF d   1       1.881   0.434   0.536  0.00  0.00    -0.107 A 
ATOM      5  C4  BZF d   1       2.329  -0.849   0.672  0.00  0.00     0.055 A 
ATOM      6  C5  BZF d   1       1.517  -1.874   0.304  0.00  0.00    -0.016 A 
ATOM      7  C6  BZF d   1       0.251  -1.654  -0.198  0.00  0.00     0.022 A 
ATOM      8  C7  BZF d   1      -0.235  -0.398  -0.356  0.00  0.00     0.029 A 
ATOM      9  C7A BZF d   1       0.596   0.641  -0.016  0.00  0.00     0.058 A 
ENDROOT
TORSDOF 0
ENDMDL
