MODEL 1
REMARK minimizedAffinity -3.87357473
REMARK minimizedRMSD -1
REMARK  0 active torsions:
REMARK  status: ('A' for Active; 'I' for Inactive)
ROOT
ATOM      1  O1  BZF d   1       1.026   1.973  -0.765  0.00  0.00    -0.204 OA
ATOM      2  C2  BZF d   1      -0.350   1.964  -0.895  0.00  0.00     0.174 A 
ATOM      3  C3  BZF d   1      -0.824   0.702  -0.869  0.00  0.00    -0.012 A 
ATOM      4  C3A BZF d   1       0.317  -0.124  -0.620  0.00  0.00    -0.107 A 
ATOM      5  C4  BZF d   1       0.486  -1.471  -0.469  0.00  0.00     0.055 A 
ATOM      6  C5  BZF d   1       1.742  -1.965  -0.309  0.00  0.00    -0.016 A 
ATOM      7  C6  BZF d   1       2.850  -1.143  -0.300  0.00  0.00     0.022 A 
ATOM      8  C7  BZF d   1       2.732   0.200  -0.441  0.00  0.00     0.029 A 
ATOM      9  C7A BZF d   1       1.461   0.705  -0.570  0.00  0.00     0.058 A 
ENDROOT
TORSDOF 0
ENDMDL
