MODEL 1
REMARK minimizedAffinity 6.16601801
REMARK minimizedRMSD -1
REMARK  0 active torsions:
REMARK  status: ('A' for Active; 'I' for Inactive)
ROOT
ATOM      1  O1  BZF d   1       2.367  -2.546   0.184  0.00  0.00    -0.204 OA
ATOM      2  C2  BZF d   1       3.204  -1.659  -0.464  0.00  0.00     0.174 A 
ATOM      3  C3  BZF d   1       2.501  -0.632  -0.985  0.00  0.00    -0.012 A 
ATOM      4  C3A BZF d   1       1.151  -0.846  -0.561  0.00  0.00    -0.107 A 
ATOM      5  C4  BZF d   1      -0.012  -0.156  -0.747  0.00  0.00     0.055 A 
ATOM      6  C5  BZF d   1      -1.172  -0.672  -0.262  0.00  0.00    -0.016 A 
ATOM      7  C6  BZF d   1      -1.205  -1.878   0.408  0.00  0.00     0.022 A 
ATOM      8  C7  BZF d   1      -0.076  -2.596   0.621  0.00  0.00     0.029 A 
ATOM      9  C7A BZF d   1       1.102  -2.061   0.162  0.00  0.00     0.058 A 
ENDROOT
TORSDOF 0
ENDMDL
