MODEL 1
REMARK minimizedAffinity 4.51143217
REMARK minimizedRMSD -1
REMARK  0 active torsions:
REMARK  status: ('A' for Active; 'I' for Inactive)
ROOT
ATOM      1  O1  BZF d   1       2.869  -2.831  -1.005  0.00  0.00    -0.204 OA
ATOM      2  C2  BZF d   1       3.255  -2.592  -2.310  0.00  0.00     0.174 A 
ATOM      3  C3  BZF d   1       2.289  -1.932  -2.981  0.00  0.00    -0.012 A 
ATOM      4  C3A BZF d   1       1.271  -1.666  -2.011  0.00  0.00    -0.107 A 
ATOM      5  C4  BZF d   1       0.066  -1.026  -2.067  0.00  0.00     0.055 A 
ATOM      6  C5  BZF d   1      -0.721  -1.003  -0.959  0.00  0.00    -0.016 A 
ATOM      7  C6  BZF d   1      -0.338  -1.614   0.217  0.00  0.00     0.022 A 
ATOM      8  C7  BZF d   1       0.851  -2.256   0.321  0.00  0.00     0.029 A 
ATOM      9  C7A BZF d   1       1.663  -2.253  -0.786  0.00  0.00     0.058 A 
ENDROOT
TORSDOF 0
ENDMDL
