MODEL 1
REMARK minimizedAffinity 3.7387321
REMARK minimizedRMSD -1
REMARK  0 active torsions:
REMARK  status: ('A' for Active; 'I' for Inactive)
ROOT
ATOM      1  O1  BZF d   1       2.394  -2.957   0.827  0.00  0.00    -0.204 OA
ATOM      2  C2  BZF d   1       3.068  -1.775   0.585  0.00  0.00     0.174 A 
ATOM      3  C3  BZF d   1       2.536  -1.130  -0.473  0.00  0.00    -0.012 A 
ATOM      4  C3A BZF d   1       1.405  -1.914  -0.863  0.00  0.00    -0.107 A 
ATOM      5  C4  BZF d   1       0.463  -1.781  -1.842  0.00  0.00     0.055 A 
ATOM      6  C5  BZF d   1      -0.466  -2.760  -2.003  0.00  0.00    -0.016 A 
ATOM      7  C6  BZF d   1      -0.479  -3.886  -1.207  0.00  0.00     0.022 A 
ATOM      8  C7  BZF d   1       0.432  -4.061  -0.219  0.00  0.00     0.029 A 
ATOM      9  C7A BZF d   1       1.352  -3.058  -0.033  0.00  0.00     0.058 A 
ENDROOT
TORSDOF 0
ENDMDL
