MODEL 1
REMARK minimizedAffinity -5.20854616
REMARK minimizedRMSD -1
REMARK  0 active torsions:
REMARK  status: ('A' for Active; 'I' for Inactive)
ROOT
ATOM      1  C   UNL d   1      -0.469   0.022   0.686  0.00  0.00     0.078 C 
ATOM      2  C1  UNL d   1       0.383  -0.324  -0.498  0.00  0.00    -0.077 A 
ATOM      3  C2  UNL d   1       1.034   0.673  -1.235  0.00  0.00    -0.001 A 
ATOM      4  C3  UNL d   1       1.816   0.337  -2.340  0.00  0.00     0.003 A 
ATOM      5  C4  UNL d   1       1.955  -0.997  -2.720  0.00  0.00    -0.005 A 
ATOM      6  C5  UNL d   1       1.310  -1.996  -1.994  0.00  0.00     0.003 A 
ATOM      7  C6  UNL d   1       0.527  -1.662  -0.888  0.00  0.00    -0.001 A 
ENDROOT
TORSDOF 0
ENDMDL
