MODEL 1
REMARK minimizedAffinity -3.71557021
REMARK minimizedRMSD -1
REMARK  0 active torsions:
REMARK  status: ('A' for Active; 'I' for Inactive)
ROOT
ATOM      1  C   UNL d   1      -0.778   0.117   1.748  0.00  0.00     0.078 C 
ATOM      2  C1  UNL d   1      -0.372  -0.529   0.457  0.00  0.00    -0.077 A 
ATOM      3  C2  UNL d   1      -0.250   0.222  -0.719  0.00  0.00    -0.001 A 
ATOM      4  C3  UNL d   1       0.119  -0.395  -1.915  0.00  0.00     0.003 A 
ATOM      5  C4  UNL d   1       0.369  -1.765  -1.948  0.00  0.00    -0.005 A 
ATOM      6  C5  UNL d   1       0.248  -2.521  -0.784  0.00  0.00     0.003 A 
ATOM      7  C6  UNL d   1      -0.122  -1.907   0.414  0.00  0.00    -0.001 A 
ENDROOT
TORSDOF 0
ENDMDL
