MODEL 1
REMARK minimizedAffinity -5.18085718
REMARK minimizedRMSD -1
REMARK  0 active torsions:
REMARK  status: ('A' for Active; 'I' for Inactive)
ROOT
ATOM      1  C   UNL d   1      -0.032   0.324   0.498  0.00  0.00     0.078 C 
ATOM      2  C1  UNL d   1       0.676  -0.121  -0.747  0.00  0.00    -0.077 A 
ATOM      3  C2  UNL d   1       1.032  -1.462  -0.934  0.00  0.00    -0.001 A 
ATOM      4  C3  UNL d   1       1.699  -1.860  -2.093  0.00  0.00     0.003 A 
ATOM      5  C4  UNL d   1       2.018  -0.923  -3.074  0.00  0.00    -0.005 A 
ATOM      6  C5  UNL d   1       1.670   0.415  -2.895  0.00  0.00     0.003 A 
ATOM      7  C6  UNL d   1       1.002   0.814  -1.737  0.00  0.00    -0.001 A 
ENDROOT
TORSDOF 0
ENDMDL
