MODEL 1
REMARK minimizedAffinity -4.35257053
REMARK minimizedRMSD -1
REMARK  0 active torsions:
REMARK  status: ('A' for Active; 'I' for Inactive)
ROOT
ATOM      1  C   UNL d   1       1.459  -0.049  -2.991  0.00  0.00     0.078 C 
ATOM      2  C1  UNL d   1       0.879  -0.529  -1.694  0.00  0.00    -0.077 A 
ATOM      3  C2  UNL d   1       0.476   0.377  -0.705  0.00  0.00    -0.001 A 
ATOM      4  C3  UNL d   1      -0.053  -0.085   0.501  0.00  0.00     0.003 A 
ATOM      5  C4  UNL d   1      -0.182  -1.453   0.731  0.00  0.00    -0.005 A 
ATOM      6  C5  UNL d   1       0.219  -2.362  -0.246  0.00  0.00     0.003 A 
ATOM      7  C6  UNL d   1       0.748  -1.902  -1.453  0.00  0.00    -0.001 A 
ENDROOT
TORSDOF 0
ENDMDL
