MODEL 1
REMARK minimizedAffinity -5.29095173
REMARK minimizedRMSD -1
REMARK  0 active torsions:
REMARK  status: ('A' for Active; 'I' for Inactive)
ROOT
ATOM      1  C   UNL d   1      -0.515  -0.357   0.641  0.00  0.00     0.078 C 
ATOM      2  C1  UNL d   1       0.405  -0.727  -0.483  0.00  0.00    -0.077 A 
ATOM      3  C2  UNL d   1       0.754  -2.063  -0.719  0.00  0.00    -0.001 A 
ATOM      4  C3  UNL d   1       1.620  -2.392  -1.763  0.00  0.00     0.003 A 
ATOM      5  C4  UNL d   1       2.146  -1.392  -2.578  0.00  0.00    -0.005 A 
ATOM      6  C5  UNL d   1       1.806  -0.060  -2.350  0.00  0.00     0.003 A 
ATOM      7  C6  UNL d   1       0.940   0.271  -1.307  0.00  0.00    -0.001 A 
ENDROOT
TORSDOF 0
ENDMDL
