MODEL 1
REMARK minimizedAffinity -4.38015652
REMARK minimizedRMSD -1
REMARK  0 active torsions:
REMARK  status: ('A' for Active; 'I' for Inactive)
ROOT
ATOM      1  C   UNL d   1      -0.985  -0.314   1.586  0.00  0.00     0.078 C 
ATOM      2  C1  UNL d   1      -0.236  -0.362   0.288  0.00  0.00    -0.077 A 
ATOM      3  C2  UNL d   1       0.524   0.731  -0.147  0.00  0.00    -0.001 A 
ATOM      4  C3  UNL d   1       1.208   0.676  -1.362  0.00  0.00     0.003 A 
ATOM      5  C4  UNL d   1       1.138  -0.469  -2.153  0.00  0.00    -0.005 A 
ATOM      6  C5  UNL d   1       0.383  -1.560  -1.730  0.00  0.00     0.003 A 
ATOM      7  C6  UNL d   1      -0.302  -1.507  -0.515  0.00  0.00    -0.001 A 
ENDROOT
TORSDOF 0
ENDMDL
