MODEL 1
REMARK minimizedAffinity -3.66076636
REMARK minimizedRMSD -1
REMARK  0 active torsions:
REMARK  status: ('A' for Active; 'I' for Inactive)
ROOT
ATOM      1  C   UNL d   1       1.786   0.764  -2.342  0.00  0.00     0.078 C 
ATOM      2  C1  UNL d   1       1.049   0.516  -1.060  0.00  0.00    -0.077 A 
ATOM      3  C2  UNL d   1       0.851   1.546  -0.132  0.00  0.00    -0.001 A 
ATOM      4  C3  UNL d   1       0.171   1.298   1.062  0.00  0.00     0.003 A 
ATOM      5  C4  UNL d   1      -0.316   0.022   1.339  0.00  0.00    -0.005 A 
ATOM      6  C5  UNL d   1      -0.121  -1.009   0.422  0.00  0.00     0.003 A 
ATOM      7  C6  UNL d   1       0.558  -0.763  -0.772  0.00  0.00    -0.001 A 
ENDROOT
TORSDOF 0
ENDMDL
