MODEL 1
REMARK minimizedAffinity -3.7659893
REMARK minimizedRMSD -1
REMARK  0 active torsions:
REMARK  status: ('A' for Active; 'I' for Inactive)
ROOT
ATOM      1  C   UNL d   1       0.711   0.107  -2.076  0.00  0.00     0.078 C 
ATOM      2  C1  UNL d   1       0.426  -0.503  -0.736  0.00  0.00    -0.077 A 
ATOM      3  C2  UNL d   1       0.585  -1.878  -0.522  0.00  0.00    -0.001 A 
ATOM      4  C3  UNL d   1       0.307  -2.434   0.728  0.00  0.00     0.003 A 
ATOM      5  C4  UNL d   1      -0.133  -1.623   1.772  0.00  0.00    -0.005 A 
ATOM      6  C5  UNL d   1      -0.296  -0.254   1.568  0.00  0.00     0.003 A 
ATOM      7  C6  UNL d   1      -0.018   0.304   0.319  0.00  0.00    -0.001 A 
ENDROOT
TORSDOF 0
ENDMDL
