MODEL 1
REMARK minimizedAffinity -2.44924784
REMARK minimizedRMSD -1
REMARK  0 active torsions:
REMARK  status: ('A' for Active; 'I' for Inactive)
ROOT
ATOM      1  C   UNL d   1      -1.870   3.292  -5.994  0.00  0.00     0.078 C 
ATOM      2  C1  UNL d   1      -3.301   3.741  -6.000  0.00  0.00    -0.077 A 
ATOM      3  C2  UNL d   1      -3.630   5.102  -5.994  0.00  0.00    -0.001 A 
ATOM      4  C3  UNL d   1      -4.966   5.505  -5.989  0.00  0.00     0.003 A 
ATOM      5  C4  UNL d   1      -5.984   4.554  -5.990  0.00  0.00    -0.005 A 
ATOM      6  C5  UNL d   1      -5.666   3.197  -5.994  0.00  0.00     0.003 A 
ATOM      7  C6  UNL d   1      -4.331   2.792  -5.998  0.00  0.00    -0.001 A 
ENDROOT
TORSDOF 0
ENDMDL
