MODEL 1
REMARK minimizedAffinity -5.49211454
REMARK minimizedRMSD -1
REMARK  0 active torsions:
REMARK  status: ('A' for Active; 'I' for Inactive)
ROOT
ATOM      1  C   UNL d   1      -0.576  -0.835   1.585  0.00  0.00     0.078 C 
ATOM      2  C1  UNL d   1       0.208  -0.163   0.497  0.00  0.00    -0.077 A 
ATOM      3  C2  UNL d   1       0.865   1.052   0.726  0.00  0.00    -0.001 A 
ATOM      4  C3  UNL d   1       1.583   1.671  -0.298  0.00  0.00     0.003 A 
ATOM      5  C4  UNL d   1       1.649   1.083  -1.560  0.00  0.00    -0.005 A 
ATOM      6  C5  UNL d   1       0.996  -0.125  -1.798  0.00  0.00     0.003 A 
ATOM      7  C6  UNL d   1       0.278  -0.745  -0.775  0.00  0.00    -0.001 A 
ENDROOT
TORSDOF 0
ENDMDL
