MODEL 1
REMARK minimizedAffinity -5.44635916
REMARK minimizedRMSD -1
REMARK  0 active torsions:
REMARK  status: ('A' for Active; 'I' for Inactive)
ROOT
ATOM      1  C   UNL d   1      -0.943   0.361   0.770  0.00  0.00     0.078 C 
ATOM      2  C1  UNL d   1      -0.055   0.321  -0.437  0.00  0.00    -0.077 A 
ATOM      3  C2  UNL d   1       0.230  -0.888  -1.083  0.00  0.00    -0.001 A 
ATOM      4  C3  UNL d   1       1.066  -0.912  -2.201  0.00  0.00     0.003 A 
ATOM      5  C4  UNL d   1       1.625   0.271  -2.681  0.00  0.00    -0.005 A 
ATOM      6  C5  UNL d   1       1.349   1.478  -2.044  0.00  0.00     0.003 A 
ATOM      7  C6  UNL d   1       0.513   1.504  -0.926  0.00  0.00    -0.001 A 
ENDROOT
TORSDOF 0
ENDMDL
