MODEL 1
REMARK minimizedAffinity -2.69637489
REMARK minimizedRMSD -1
REMARK  0 active torsions:
REMARK  status: ('A' for Active; 'I' for Inactive)
ROOT
ATOM      1  C   UNL d   1      -2.158   3.297   4.943  0.00  0.00     0.078 C 
ATOM      2  C1  UNL d   1      -2.356   2.376   3.776  0.00  0.00    -0.077 A 
ATOM      3  C2  UNL d   1      -3.431   2.550   2.896  0.00  0.00    -0.001 A 
ATOM      4  C3  UNL d   1      -3.609   1.680   1.819  0.00  0.00     0.003 A 
ATOM      5  C4  UNL d   1      -2.717   0.629   1.614  0.00  0.00    -0.005 A 
ATOM      6  C5  UNL d   1      -1.646   0.447   2.486  0.00  0.00     0.003 A 
ATOM      7  C6  UNL d   1      -1.466   1.316   3.563  0.00  0.00    -0.001 A 
ENDROOT
TORSDOF 0
ENDMDL
