MODEL 1
REMARK minimizedAffinity -1.7395972
REMARK minimizedRMSD -1
REMARK  0 active torsions:
REMARK  status: ('A' for Active; 'I' for Inactive)
ROOT
ATOM      1  C   UNL d   1       2.973  -1.740  -1.293  0.00  0.00     0.078 C 
ATOM      2  C1  UNL d   1       2.325  -0.401  -1.103  0.00  0.00    -0.077 A 
ATOM      3  C2  UNL d   1       1.386  -0.191  -0.086  0.00  0.00    -0.001 A 
ATOM      4  C3  UNL d   1       0.784   1.058   0.072  0.00  0.00     0.003 A 
ATOM      5  C4  UNL d   1       1.114   2.108  -0.783  0.00  0.00    -0.005 A 
ATOM      6  C5  UNL d   1       2.046   1.908  -1.800  0.00  0.00     0.003 A 
ATOM      7  C6  UNL d   1       2.649   0.659  -1.960  0.00  0.00    -0.001 A 
ENDROOT
TORSDOF 0
ENDMDL
