MODEL 1
REMARK minimizedAffinity -3.58528686
REMARK minimizedRMSD -1
REMARK  0 active torsions:
REMARK  status: ('A' for Active; 'I' for Inactive)
ROOT
ATOM      1  C   UNL d   1       1.002  -3.498  -1.363  0.00  0.00     0.078 C 
ATOM      2  C1  UNL d   1       1.167  -2.019  -1.548  0.00  0.00    -0.077 A 
ATOM      3  C2  UNL d   1       2.081  -1.506  -2.477  0.00  0.00    -0.001 A 
ATOM      4  C3  UNL d   1       2.231  -0.127  -2.631  0.00  0.00     0.003 A 
ATOM      5  C4  UNL d   1       1.473   0.750  -1.859  0.00  0.00    -0.005 A 
ATOM      6  C5  UNL d   1       0.563   0.249  -0.930  0.00  0.00     0.003 A 
ATOM      7  C6  UNL d   1       0.411  -1.130  -0.775  0.00  0.00    -0.001 A 
ENDROOT
TORSDOF 0
ENDMDL
