MODEL 1
REMARK minimizedAffinity -5.69046974
REMARK minimizedRMSD -1
REMARK  0 active torsions:
REMARK  status: ('A' for Active; 'I' for Inactive)
ROOT
ATOM      1  C   UNL d   1      -0.454  -0.549   0.967  0.00  0.00     0.078 C 
ATOM      2  C1  UNL d   1       0.394  -0.744  -0.254  0.00  0.00    -0.077 A 
ATOM      3  C2  UNL d   1       0.629  -2.024  -0.771  0.00  0.00    -0.001 A 
ATOM      4  C3  UNL d   1       1.429  -2.192  -1.903  0.00  0.00     0.003 A 
ATOM      5  C4  UNL d   1       2.002  -1.085  -2.525  0.00  0.00    -0.005 A 
ATOM      6  C5  UNL d   1       1.776   0.192  -2.016  0.00  0.00     0.003 A 
ATOM      7  C6  UNL d   1       0.976   0.362  -0.885  0.00  0.00    -0.001 A 
ENDROOT
TORSDOF 0
ENDMDL
