MODEL 1
REMARK minimizedAffinity -4.56437397
REMARK minimizedRMSD -1
REMARK  0 active torsions:
REMARK  status: ('A' for Active; 'I' for Inactive)
ROOT
ATOM      1  C   UNL d   1       1.522  -0.537  -2.946  0.00  0.00     0.078 C 
ATOM      2  C1  UNL d   1       0.960  -0.414  -1.562  0.00  0.00    -0.077 A 
ATOM      3  C2  UNL d   1       0.304  -1.490  -0.951  0.00  0.00    -0.001 A 
ATOM      4  C3  UNL d   1      -0.222  -1.357   0.335  0.00  0.00     0.003 A 
ATOM      5  C4  UNL d   1      -0.100  -0.150   1.021  0.00  0.00    -0.005 A 
ATOM      6  C5  UNL d   1       0.549   0.926   0.420  0.00  0.00     0.003 A 
ATOM      7  C6  UNL d   1       1.077   0.796  -0.866  0.00  0.00    -0.001 A 
ENDROOT
TORSDOF 0
ENDMDL
