MODEL 1
REMARK minimizedAffinity -2.80464649
REMARK minimizedRMSD -1
REMARK  1 active torsions:
REMARK  status: ('A' for Active; 'I' for Inactive)
REMARK    1  A    between atoms: N_2  and  C1_3 
ROOT
ATOM      1  C1  UNL d   1      -0.050  -0.058  -0.502  0.00  0.00     0.143 A 
ATOM      2  C2  UNL d   1       0.310   0.895  -1.461  0.00  0.00    -0.057 A 
ATOM      3  C3  UNL d   1      -0.330   2.139  -1.524  0.00  0.00     0.033 A 
ATOM      4  C4  UNL d   1      -1.364   2.441  -0.645  0.00  0.00    -0.042 A 
ATOM      5  C5  UNL d   1      -1.755   1.499   0.301  0.00  0.00     0.033 A 
ATOM      6  C6  UNL d   1      -1.108   0.262   0.363  0.00  0.00    -0.057 A 
ENDROOT
BRANCH   1   7
ATOM      7  N   UNL d   1       0.481  -1.349  -0.452  0.00  0.00    -0.732 N 
ATOM      8  C   UNL d   1      -0.256  -2.471  -0.993  0.00  0.00     0.284 C 
ATOM      9  H3  UNL d   1       1.477  -1.368  -0.659  0.00  0.00     0.395 HD
ENDBRANCH   1   7
TORSDOF 1
ENDMDL
