MODEL 1
REMARK minimizedAffinity -4.07071209
REMARK minimizedRMSD -1
REMARK  1 active torsions:
REMARK  status: ('A' for Active; 'I' for Inactive)
REMARK    1  A    between atoms: N_2  and  C1_3 
ROOT
ATOM      1  C1  UNL d   1      -0.294   0.499  -0.146  0.00  0.00     0.143 A 
ATOM      2  C2  UNL d   1      -0.010   0.251   1.202  0.00  0.00    -0.057 A 
ATOM      3  C3  UNL d   1      -0.299   1.199   2.191  0.00  0.00     0.033 A 
ATOM      4  C4  UNL d   1      -0.852   2.427   1.846  0.00  0.00    -0.042 A 
ATOM      5  C5  UNL d   1      -1.120   2.706   0.510  0.00  0.00     0.033 A 
ATOM      6  C6  UNL d   1      -0.835   1.753  -0.473  0.00  0.00    -0.057 A 
ENDROOT
BRANCH   1   7
ATOM      7  N   UNL d   1       0.061  -0.362  -1.187  0.00  0.00    -0.732 N 
ATOM      8  C   UNL d   1       0.509  -1.710  -0.908  0.00  0.00     0.284 C 
ATOM      9  H3  UNL d   1      -0.569  -0.290  -1.982  0.00  0.00     0.395 HD
ENDBRANCH   1   7
TORSDOF 1
ENDMDL
