MODEL 1
REMARK minimizedAffinity -1.28965843
REMARK minimizedRMSD -1
REMARK  1 active torsions:
REMARK  status: ('A' for Active; 'I' for Inactive)
REMARK    1  A    between atoms: N_2  and  C1_3 
ROOT
ATOM      1  C1  UNL d   1       0.472  -1.022  -0.893  0.00  0.00     0.143 A 
ATOM      2  C2  UNL d   1       0.099   0.113  -1.621  0.00  0.00    -0.057 A 
ATOM      3  C3  UNL d   1      -0.077   1.352  -0.993  0.00  0.00     0.033 A 
ATOM      4  C4  UNL d   1       0.089   1.472   0.382  0.00  0.00    -0.042 A 
ATOM      5  C5  UNL d   1       0.435   0.351   1.130  0.00  0.00     0.033 A 
ATOM      6  C6  UNL d   1       0.616  -0.882   0.496  0.00  0.00    -0.057 A 
ENDROOT
BRANCH   1   7
ATOM      7  N   UNL d   1       0.566  -2.303  -1.443  0.00  0.00    -0.732 N 
ATOM      8  C   UNL d   1      -0.627  -3.052  -1.776  0.00  0.00     0.284 C 
ATOM      9  H3  UNL d   1       1.308  -2.375  -2.135  0.00  0.00     0.395 HD
ENDBRANCH   1   7
TORSDOF 1
ENDMDL
