MODEL 1
REMARK minimizedAffinity -3.74018049
REMARK minimizedRMSD -1
REMARK  1 active torsions:
REMARK  status: ('A' for Active; 'I' for Inactive)
REMARK    1  A    between atoms: N_2  and  C1_3 
ROOT
ATOM      1  C1  UNL d   1      -0.012  -0.851  -0.272  0.00  0.00     0.143 A 
ATOM      2  C2  UNL d   1       0.047  -0.745   1.122  0.00  0.00    -0.057 A 
ATOM      3  C3  UNL d   1      -0.020   0.500   1.759  0.00  0.00     0.033 A 
ATOM      4  C4  UNL d   1      -0.117   1.667   1.009  0.00  0.00    -0.042 A 
ATOM      5  C5  UNL d   1      -0.152   1.588  -0.379  0.00  0.00     0.033 A 
ATOM      6  C6  UNL d   1      -0.092   0.341  -1.009  0.00  0.00    -0.057 A 
ENDROOT
BRANCH   1   7
ATOM      7  N   UNL d   1       0.149  -2.051  -0.968  0.00  0.00    -0.732 N 
ATOM      8  C   UNL d   1      -0.732  -3.172  -0.718  0.00  0.00     0.284 C 
ATOM      9  H3  UNL d   1       0.365  -1.904  -1.952  0.00  0.00     0.395 HD
ENDBRANCH   1   7
TORSDOF 1
ENDMDL
