MODEL 1
REMARK minimizedAffinity -3.29471135
REMARK minimizedRMSD -1
REMARK  1 active torsions:
REMARK  status: ('A' for Active; 'I' for Inactive)
REMARK    1  A    between atoms: N_2  and  C1_3 
ROOT
ATOM      1  C1  UNL d   1      -0.499   0.885   0.276  0.00  0.00     0.143 A 
ATOM      2  C2  UNL d   1      -0.475   0.339  -1.012  0.00  0.00    -0.057 A 
ATOM      3  C3  UNL d   1       0.196  -0.860  -1.279  0.00  0.00     0.033 A 
ATOM      4  C4  UNL d   1       0.880  -1.522  -0.266  0.00  0.00    -0.042 A 
ATOM      5  C5  UNL d   1       0.890  -0.985   1.017  0.00  0.00     0.033 A 
ATOM      6  C6  UNL d   1       0.213   0.210   1.279  0.00  0.00    -0.057 A 
ENDROOT
BRANCH   1   7
ATOM      7  N   UNL d   1      -1.065   2.125   0.584  0.00  0.00    -0.732 N 
ATOM      8  C   UNL d   1      -1.535   2.408   1.924  0.00  0.00     0.284 C 
ATOM      9  H3  UNL d   1      -0.570   2.898   0.146  0.00  0.00     0.395 HD
ENDBRANCH   1   7
TORSDOF 1
ENDMDL
