MODEL 1
REMARK minimizedAffinity -4.78458405
REMARK minimizedRMSD -1
REMARK  1 active torsions:
REMARK  status: ('A' for Active; 'I' for Inactive)
REMARK    1  A    between atoms: N_2  and  C1_3 
ROOT
ATOM      1  C1  UNL d   1       0.283   0.212  -0.258  0.00  0.00     0.143 A 
ATOM      2  C2  UNL d   1      -0.392   1.034  -1.168  0.00  0.00    -0.057 A 
ATOM      3  C3  UNL d   1      -1.147   2.131  -0.734  0.00  0.00     0.033 A 
ATOM      4  C4  UNL d   1      -1.264   2.408   0.624  0.00  0.00    -0.042 A 
ATOM      5  C5  UNL d   1      -0.623   1.590   1.548  0.00  0.00     0.033 A 
ATOM      6  C6  UNL d   1       0.135   0.500   1.108  0.00  0.00    -0.057 A 
ENDROOT
BRANCH   1   7
ATOM      7  N   UNL d   1       0.968  -0.950  -0.621  0.00  0.00    -0.732 N 
ATOM      8  C   UNL d   1       0.252  -2.186  -0.851  0.00  0.00     0.284 C 
ATOM      9  H3  UNL d   1       1.712  -0.769  -1.291  0.00  0.00     0.395 HD
ENDBRANCH   1   7
TORSDOF 1
ENDMDL
