MODEL 1
REMARK minimizedAffinity -3.75900578
REMARK minimizedRMSD -1
REMARK  0 active torsions:
REMARK  status: ('A' for Active; 'I' for Inactive)
ROOT
ATOM      1  O1  BZF d   1       0.367   1.601   1.525  0.00  0.00    -0.204 OA
ATOM      2  C2  BZF d   1      -0.878   1.685   2.118  0.00  0.00     0.174 A 
ATOM      3  C3  BZF d   1      -1.766   0.894   1.480  0.00  0.00    -0.012 A 
ATOM      4  C3A BZF d   1      -1.007   0.207   0.481  0.00  0.00    -0.107 A 
ATOM      5  C4  BZF d   1      -1.326  -0.727  -0.463  0.00  0.00     0.055 A 
ATOM      6  C5  BZF d   1      -0.368  -1.141  -1.333  0.00  0.00    -0.016 A 
ATOM      7  C6  BZF d   1       0.916  -0.638  -1.292  0.00  0.00     0.022 A 
ATOM      8  C7  BZF d   1       1.281   0.287  -0.371  0.00  0.00     0.029 A 
ATOM      9  C7A BZF d   1       0.324   0.682   0.531  0.00  0.00     0.058 A 
ENDROOT
TORSDOF 0
ENDMDL
