MODEL 1
REMARK minimizedAffinity -2.76432014
REMARK minimizedRMSD -1
REMARK  0 active torsions:
REMARK  status: ('A' for Active; 'I' for Inactive)
ROOT
ATOM      1  O1  BZF d   1      -0.109  -0.183  -1.790  0.00  0.00    -0.204 OA
ATOM      2  C2  BZF d   1       1.109  -0.752  -2.111  0.00  0.00     0.174 A 
ATOM      3  C3  BZF d   1       1.951  -0.703  -1.058  0.00  0.00    -0.012 A 
ATOM      4  C3A BZF d   1       1.183  -0.147   0.013  0.00  0.00    -0.107 A 
ATOM      5  C4  BZF d   1       1.462   0.136   1.320  0.00  0.00     0.055 A 
ATOM      6  C5  BZF d   1       0.514   0.743   2.081  0.00  0.00    -0.016 A 
ATOM      7  C6  BZF d   1      -0.720   1.084   1.567  0.00  0.00     0.022 A 
ATOM      8  C7  BZF d   1      -1.045   0.819   0.278  0.00  0.00     0.029 A 
ATOM      9  C7A BZF d   1      -0.100   0.176  -0.484  0.00  0.00     0.058 A 
ENDROOT
TORSDOF 0
ENDMDL
