MODEL 1
REMARK minimizedAffinity 0.328689188
REMARK minimizedRMSD -1
REMARK  0 active torsions:
REMARK  status: ('A' for Active; 'I' for Inactive)
ROOT
ATOM      1  O1  BZF d   1       0.046   1.818  -3.844  0.00  0.00    -0.204 OA
ATOM      2  C2  BZF d   1       1.276   1.539  -4.409  0.00  0.00     0.174 A 
ATOM      3  C3  BZF d   1       2.115   1.014  -3.493  0.00  0.00    -0.012 A 
ATOM      4  C3A BZF d   1       1.334   0.876  -2.302  0.00  0.00    -0.107 A 
ATOM      5  C4  BZF d   1       1.605   0.398  -1.052  0.00  0.00     0.055 A 
ATOM      6  C5  BZF d   1       0.644   0.471  -0.094  0.00  0.00    -0.016 A 
ATOM      7  C6  BZF d   1      -0.596   1.019  -0.350  0.00  0.00     0.022 A 
ATOM      8  C7  BZF d   1      -0.913   1.502  -1.576  0.00  0.00     0.029 A 
ATOM      9  C7A BZF d   1       0.045   1.400  -2.555  0.00  0.00     0.058 A 
ENDROOT
TORSDOF 0
ENDMDL
