MODEL 1
REMARK minimizedAffinity 0.72497499
REMARK minimizedRMSD -1
REMARK  0 active torsions:
REMARK  status: ('A' for Active; 'I' for Inactive)
ROOT
ATOM      1  O1  BZF d   1      -0.732   0.854  -0.480  0.00  0.00    -0.204 OA
ATOM      2  C2  BZF d   1      -0.664  -0.272  -1.278  0.00  0.00     0.174 A 
ATOM      3  C3  BZF d   1       0.420  -1.012  -0.969  0.00  0.00    -0.012 A 
ATOM      4  C3A BZF d   1       1.020  -0.352   0.150  0.00  0.00    -0.107 A 
ATOM      5  C4  BZF d   1       2.118  -0.617   0.917  0.00  0.00     0.055 A 
ATOM      6  C5  BZF d   1       2.473   0.266   1.888  0.00  0.00    -0.016 A 
ATOM      7  C6  BZF d   1       1.757   1.423   2.115  0.00  0.00     0.022 A 
ATOM      8  C7  BZF d   1       0.658   1.725   1.383  0.00  0.00     0.029 A 
ATOM      9  C7A BZF d   1       0.277   0.819   0.423  0.00  0.00     0.058 A 
ENDROOT
TORSDOF 0
ENDMDL
