MODEL 1
REMARK minimizedAffinity -1.27235818
REMARK minimizedRMSD -1
REMARK  0 active torsions:
REMARK  status: ('A' for Active; 'I' for Inactive)
ROOT
ATOM      1  O1  BZF d   1      -0.259  -0.686  -0.935  0.00  0.00    -0.204 OA
ATOM      2  C2  BZF d   1      -1.587  -0.337  -1.093  0.00  0.00     0.174 A 
ATOM      3  C3  BZF d   1      -2.014   0.403  -0.049  0.00  0.00    -0.012 A 
ATOM      4  C3A BZF d   1      -0.858   0.602   0.770  0.00  0.00    -0.107 A 
ATOM      5  C4  BZF d   1      -0.640   1.271   1.940  0.00  0.00     0.055 A 
ATOM      6  C5  BZF d   1       0.588   1.210   2.517  0.00  0.00    -0.016 A 
ATOM      7  C6  BZF d   1       1.619   0.486   1.955  0.00  0.00     0.022 A 
ATOM      8  C7  BZF d   1       1.453  -0.190   0.792  0.00  0.00     0.029 A 
ATOM      9  C7A BZF d   1       0.222  -0.103   0.190  0.00  0.00     0.058 A 
ENDROOT
TORSDOF 0
ENDMDL
