MODEL 1
REMARK minimizedAffinity -4.52431393
REMARK minimizedRMSD -1
REMARK  0 active torsions:
REMARK  status: ('A' for Active; 'I' for Inactive)
ROOT
ATOM      1  O1  BZF d   1       1.235  -0.945  -0.587  0.00  0.00    -0.204 OA
ATOM      2  C2  BZF d   1       0.175  -1.117  -1.456  0.00  0.00     0.174 A 
ATOM      3  C3  BZF d   1      -0.942  -0.541  -0.968  0.00  0.00    -0.012 A 
ATOM      4  C3A BZF d   1      -0.535   0.106   0.241  0.00  0.00    -0.107 A 
ATOM      5  C4  BZF d   1      -1.193   0.860   1.170  0.00  0.00     0.055 A 
ATOM      6  C5  BZF d   1      -0.522   1.281   2.274  0.00  0.00    -0.016 A 
ATOM      7  C6  BZF d   1       0.804   0.963   2.483  0.00  0.00     0.022 A 
ATOM      8  C7  BZF d   1       1.501   0.223   1.587  0.00  0.00     0.029 A 
ATOM      9  C7A BZF d   1       0.834  -0.177   0.455  0.00  0.00     0.058 A 
ENDROOT
TORSDOF 0
ENDMDL
