MODEL 1
REMARK minimizedAffinity -1.40362465
REMARK minimizedRMSD -1
REMARK  0 active torsions:
REMARK  status: ('A' for Active; 'I' for Inactive)
ROOT
ATOM      1  O1  BZF d   1      -2.057   0.673   2.098  0.00  0.00    -0.204 OA
ATOM      2  C2  BZF d   1      -1.120   1.137   3.000  0.00  0.00     0.174 A 
ATOM      3  C3  BZF d   1       0.130   0.941   2.535  0.00  0.00    -0.012 A 
ATOM      4  C3A BZF d   1      -0.037   0.398   1.222  0.00  0.00    -0.107 A 
ATOM      5  C4  BZF d   1       0.837   0.008   0.249  0.00  0.00     0.055 A 
ATOM      6  C5  BZF d   1       0.351  -0.548  -0.892  0.00  0.00    -0.016 A 
ATOM      7  C6  BZF d   1      -1.002  -0.734  -1.090  0.00  0.00     0.022 A 
ATOM      8  C7  BZF d   1      -1.908  -0.358  -0.155  0.00  0.00     0.029 A 
ATOM      9  C7A BZF d   1      -1.422   0.234   0.985  0.00  0.00     0.058 A 
ENDROOT
TORSDOF 0
ENDMDL
