MODEL 1
REMARK minimizedAffinity -5.30205917
REMARK minimizedRMSD -1
REMARK  0 active torsions:
REMARK  status: ('A' for Active; 'I' for Inactive)
ROOT
ATOM      1  O1  BZF d   1      -1.644   1.490   2.302  0.00  0.00    -0.204 OA
ATOM      2  C2  BZF d   1      -0.418   1.865   2.818  0.00  0.00     0.174 A 
ATOM      3  C3  BZF d   1       0.587   1.261   2.151  0.00  0.00    -0.012 A 
ATOM      4  C3A BZF d   1      -0.048   0.530   1.097  0.00  0.00    -0.107 A 
ATOM      5  C4  BZF d   1       0.423  -0.260   0.087  0.00  0.00     0.055 A 
ATOM      6  C5  BZF d   1      -0.465  -0.886  -0.730  0.00  0.00    -0.016 A 
ATOM      7  C6  BZF d   1      -1.827  -0.749  -0.563  0.00  0.00     0.022 A 
ATOM      8  C7  BZF d   1      -2.341   0.028   0.422  0.00  0.00     0.029 A 
ATOM      9  C7A BZF d   1      -1.447   0.689   1.228  0.00  0.00     0.058 A 
ENDROOT
TORSDOF 0
ENDMDL
