MODEL 1
REMARK minimizedAffinity 2.01228619
REMARK minimizedRMSD -1
REMARK  0 active torsions:
REMARK  status: ('A' for Active; 'I' for Inactive)
ROOT
ATOM      1  C1  BNZ d   1      -5.768   2.624   0.378  0.00  0.00     0.000 A 
ATOM      2  C2  BNZ d   1      -5.999   3.725   1.160  0.00  0.00     0.000 A 
ATOM      3  C3  BNZ d   1      -5.000   4.265   1.921  0.00  0.00     0.000 A 
ATOM      4  C4  BNZ d   1      -3.784   3.682   1.929  0.00  0.00     0.000 A 
ATOM      5  C5  BNZ d   1      -3.538   2.567   1.154  0.00  0.00     0.000 A 
ATOM      6  C6  BNZ d   1      -4.535   2.048   0.359  0.00  0.00     0.000 A 
ENDROOT
TORSDOF 0
ENDMDL
