MODEL 1
REMARK minimizedAffinity 3.26418996
REMARK minimizedRMSD -1
REMARK  0 active torsions:
REMARK  status: ('A' for Active; 'I' for Inactive)
ROOT
ATOM      1  C1  BNZ d   1      -0.778   4.498  -0.379  0.00  0.00     0.000 A 
ATOM      2  C2  BNZ d   1      -0.487   5.587  -1.156  0.00  0.00     0.000 A 
ATOM      3  C3  BNZ d   1       0.805   5.996  -1.332  0.00  0.00     0.000 A 
ATOM      4  C4  BNZ d   1       1.800   5.341  -0.700  0.00  0.00     0.000 A 
ATOM      5  C5  BNZ d   1       1.522   4.247   0.095  0.00  0.00     0.000 A 
ATOM      6  C6  BNZ d   1       0.223   3.814   0.239  0.00  0.00     0.000 A 
ENDROOT
TORSDOF 0
ENDMDL
