MODEL 1
REMARK minimizedAffinity 7.47663927
REMARK minimizedRMSD -1
REMARK  0 active torsions:
REMARK  status: ('A' for Active; 'I' for Inactive)
ROOT
ATOM      1  C1  BNZ d   1      -5.541   5.775   1.886  0.00  0.00     0.000 A 
ATOM      2  C2  BNZ d   1      -4.200   5.999   2.047  0.00  0.00     0.000 A 
ATOM      3  C3  BNZ d   1      -3.299   4.978   1.922  0.00  0.00     0.000 A 
ATOM      4  C4  BNZ d   1      -3.744   3.729   1.676  0.00  0.00     0.000 A 
ATOM      5  C5  BNZ d   1      -5.093   3.485   1.521  0.00  0.00     0.000 A 
ATOM      6  C6  BNZ d   1      -5.994   4.521   1.609  0.00  0.00     0.000 A 
ENDROOT
TORSDOF 0
ENDMDL
