MODEL 1
REMARK minimizedAffinity 6.54824781
REMARK minimizedRMSD -1
REMARK  0 active torsions:
REMARK  status: ('A' for Active; 'I' for Inactive)
ROOT
ATOM      1  C1  BNZ d   1      -1.110   4.138  -1.177  0.00  0.00     0.000 A 
ATOM      2  C2  BNZ d   1      -1.541   3.077  -0.426  0.00  0.00     0.000 A 
ATOM      3  C3  BNZ d   1      -0.654   2.319   0.287  0.00  0.00     0.000 A 
ATOM      4  C4  BNZ d   1       0.663   2.598   0.217  0.00  0.00     0.000 A 
ATOM      5  C5  BNZ d   1       1.114   3.659  -0.543  0.00  0.00     0.000 A 
ATOM      6  C6  BNZ d   1       0.215   4.443  -1.229  0.00  0.00     0.000 A 
ENDROOT
TORSDOF 0
ENDMDL
