MODEL 1
REMARK minimizedAffinity 5.70958948
REMARK minimizedRMSD -1
REMARK  0 active torsions:
REMARK  status: ('A' for Active; 'I' for Inactive)
ROOT
ATOM      1  C1  BNZ d   1       0.159   3.377   0.165  0.00  0.00     0.000 A 
ATOM      2  C2  BNZ d   1      -0.321   3.846  -1.029  0.00  0.00     0.000 A 
ATOM      3  C3  BNZ d   1      -0.319   3.055  -2.143  0.00  0.00     0.000 A 
ATOM      4  C4  BNZ d   1       0.198   1.811  -2.072  0.00  0.00     0.000 A 
ATOM      5  C5  BNZ d   1       0.693   1.327  -0.878  0.00  0.00     0.000 A 
ATOM      6  C6  BNZ d   1       0.655   2.113   0.251  0.00  0.00     0.000 A 
ENDROOT
TORSDOF 0
ENDMDL
