MODEL 1
REMARK minimizedAffinity 1.61284888
REMARK minimizedRMSD -1
REMARK  0 active torsions:
REMARK  status: ('A' for Active; 'I' for Inactive)
ROOT
ATOM      1  C1  BNZ d   1       1.678   3.918  -0.068  0.00  0.00     0.000 A 
ATOM      2  C2  BNZ d   1       0.511   4.486  -0.506  0.00  0.00     0.000 A 
ATOM      3  C3  BNZ d   1      -0.695   3.898  -0.246  0.00  0.00     0.000 A 
ATOM      4  C4  BNZ d   1      -0.730   2.723   0.416  0.00  0.00     0.000 A 
ATOM      5  C5  BNZ d   1       0.438   2.133   0.856  0.00  0.00     0.000 A 
ATOM      6  C6  BNZ d   1       1.647   2.748   0.626  0.00  0.00     0.000 A 
ENDROOT
TORSDOF 0
ENDMDL
