MODEL 1
REMARK minimizedAffinity 6.60790586
REMARK minimizedRMSD -1
REMARK  0 active torsions:
REMARK  status: ('A' for Active; 'I' for Inactive)
ROOT
ATOM      1  C   UNL d   1       0.718   5.406  -1.053  0.00  0.00     0.172 C 
ATOM      2  N   UNL d   1       0.161   4.527  -0.052  0.00  0.00    -0.070 N 
ATOM      3  C1  UNL d   1      -1.115   4.586   0.441  0.00  0.00    -0.004 A 
ATOM      4  C2  UNL d   1      -1.254   3.580   1.373  0.00  0.00    -0.047 A 
ATOM      5  C3  UNL d   1      -0.019   2.893   1.443  0.00  0.00    -0.047 A 
ATOM      6  C4  UNL d   1       0.839   3.500   0.550  0.00  0.00    -0.004 A 
ENDROOT
TORSDOF 0
ENDMDL
