MODEL 1
REMARK minimizedAffinity 3.6880846
REMARK minimizedRMSD -1
REMARK  0 active torsions:
REMARK  status: ('A' for Active; 'I' for Inactive)
ROOT
ATOM      1  C   UNL d   1       0.135   2.411   0.137  0.00  0.00     0.172 C 
ATOM      2  N   UNL d   1       0.143   3.854   0.076  0.00  0.00    -0.070 N 
ATOM      3  C1  UNL d   1      -0.023   4.698   1.141  0.00  0.00    -0.004 A 
ATOM      4  C2  UNL d   1       0.049   5.991   0.669  0.00  0.00    -0.047 A 
ATOM      5  C3  UNL d   1       0.264   5.921  -0.728  0.00  0.00    -0.047 A 
ATOM      6  C4  UNL d   1       0.318   4.586  -1.069  0.00  0.00    -0.004 A 
ENDROOT
TORSDOF 0
ENDMDL
