MODEL 1
REMARK minimizedAffinity 3.31121492
REMARK minimizedRMSD -1
REMARK  0 active torsions:
REMARK  status: ('A' for Active; 'I' for Inactive)
ROOT
ATOM      1  C   UNL d   1       4.649  -3.688  -4.062  0.00  0.00     0.172 C 
ATOM      2  N   UNL d   1       4.576  -4.496  -2.867  0.00  0.00    -0.070 N 
ATOM      3  C1  UNL d   1       5.446  -4.441  -1.811  0.00  0.00    -0.004 A 
ATOM      4  C2  UNL d   1       5.034  -5.366  -0.876  0.00  0.00    -0.047 A 
ATOM      5  C3  UNL d   1       3.877  -5.999  -1.388  0.00  0.00    -0.047 A 
ATOM      6  C4  UNL d   1       3.615  -5.442  -2.622  0.00  0.00    -0.004 A 
ENDROOT
TORSDOF 0
ENDMDL
