MODEL 1
REMARK minimizedAffinity 7.02938128
REMARK minimizedRMSD -1
REMARK  0 active torsions:
REMARK  status: ('A' for Active; 'I' for Inactive)
ROOT
ATOM      1  C   UNL d   1      -0.084   2.565   0.077  0.00  0.00     0.172 C 
ATOM      2  N   UNL d   1      -0.667   1.482  -0.680  0.00  0.00    -0.070 N 
ATOM      3  C1  UNL d   1       0.027   0.535  -1.385  0.00  0.00    -0.004 A 
ATOM      4  C2  UNL d   1      -0.888  -0.317  -1.963  0.00  0.00    -0.047 A 
ATOM      5  C3  UNL d   1      -2.178   0.133  -1.593  0.00  0.00    -0.047 A 
ATOM      6  C4  UNL d   1      -2.012   1.248  -0.799  0.00  0.00    -0.004 A 
ENDROOT
TORSDOF 0
ENDMDL
