MODEL 1
REMARK minimizedAffinity 7.50654602
REMARK minimizedRMSD -1
REMARK  0 active torsions:
REMARK  status: ('A' for Active; 'I' for Inactive)
ROOT
ATOM      1  C   UNL d   1       4.169  -3.365   6.000  0.00  0.00     0.172 C 
ATOM      2  N   UNL d   1       3.092  -2.645   5.361  0.00  0.00    -0.070 N 
ATOM      3  C1  UNL d   1       2.180  -1.845   5.996  0.00  0.00    -0.004 A 
ATOM      4  C2  UNL d   1       1.323  -1.342   5.042  0.00  0.00    -0.047 A 
ATOM      5  C3  UNL d   1       1.733  -1.859   3.790  0.00  0.00    -0.047 A 
ATOM      6  C4  UNL d   1       2.830  -2.662   4.017  0.00  0.00    -0.004 A 
ENDROOT
TORSDOF 0
ENDMDL
