MODEL 1
REMARK minimizedAffinity 0.247274354
REMARK minimizedRMSD -1
REMARK  0 active torsions:
REMARK  status: ('A' for Active; 'I' for Inactive)
ROOT
ATOM      1  C   UNL d   1      -1.963   5.999   1.747  0.00  0.00     0.172 C 
ATOM      2  N   UNL d   1      -0.970   5.401   0.887  0.00  0.00    -0.070 N 
ATOM      3  C1  UNL d   1      -0.392   5.998  -0.201  0.00  0.00    -0.004 A 
ATOM      4  C2  UNL d   1       0.500   5.102  -0.750  0.00  0.00    -0.047 A 
ATOM      5  C3  UNL d   1       0.455   3.925   0.034  0.00  0.00    -0.047 A 
ATOM      6  C4  UNL d   1      -0.463   4.137   1.041  0.00  0.00    -0.004 A 
ENDROOT
TORSDOF 0
ENDMDL
