MODEL 1
REMARK minimizedAffinity 4.11616278
REMARK minimizedRMSD -1
REMARK  0 active torsions:
REMARK  status: ('A' for Active; 'I' for Inactive)
ROOT
ATOM      1  C   UNL d   1       0.311   2.745   0.912  0.00  0.00     0.172 C 
ATOM      2  N   UNL d   1      -0.033   4.067   0.443  0.00  0.00    -0.070 N 
ATOM      3  C1  UNL d   1      -1.119   4.799   0.844  0.00  0.00    -0.004 A 
ATOM      4  C2  UNL d   1      -1.092   5.999   0.168  0.00  0.00    -0.047 A 
ATOM      5  C3  UNL d   1       0.049   5.988  -0.670  0.00  0.00    -0.047 A 
ATOM      6  C4  UNL d   1       0.686   4.780  -0.480  0.00  0.00    -0.004 A 
ENDROOT
TORSDOF 0
ENDMDL
