MODEL 1
REMARK minimizedAffinity 2.09287715
REMARK minimizedRMSD -1
REMARK  0 active torsions:
REMARK  status: ('A' for Active; 'I' for Inactive)
ROOT
ATOM      1  C   UNL d   1      -5.998   0.945   2.654  0.00  0.00     0.172 C 
ATOM      2  N   UNL d   1      -5.347  -0.168   3.304  0.00  0.00    -0.070 N 
ATOM      3  C1  UNL d   1      -3.995  -0.369   3.379  0.00  0.00    -0.004 A 
ATOM      4  C2  UNL d   1      -3.780  -1.538   4.078  0.00  0.00    -0.047 A 
ATOM      5  C3  UNL d   1      -5.047  -2.057   4.434  0.00  0.00    -0.047 A 
ATOM      6  C4  UNL d   1      -5.999  -1.190   3.942  0.00  0.00    -0.004 A 
ENDROOT
TORSDOF 0
ENDMDL
