MODEL 1
REMARK minimizedAffinity -4.79242134
REMARK minimizedRMSD -1
REMARK  0 active torsions:
REMARK  status: ('A' for Active; 'I' for Inactive)
ROOT
ATOM      1  C1  BNZ d   1      -0.059  -0.918   0.415  0.00  0.00     0.000 A 
ATOM      2  C2  BNZ d   1       0.895  -1.758  -0.094  0.00  0.00     0.000 A 
ATOM      3  C3  BNZ d   1       1.346  -2.825   0.631  0.00  0.00     0.000 A 
ATOM      4  C4  BNZ d   1       0.874  -3.027   1.878  0.00  0.00     0.000 A 
ATOM      5  C5  BNZ d   1      -0.082  -2.184   2.408  0.00  0.00     0.000 A 
ATOM      6  C6  BNZ d   1      -0.562  -1.133   1.661  0.00  0.00     0.000 A 
ENDROOT
TORSDOF 0
ENDMDL
