MODEL 1
REMARK minimizedAffinity -4.89020681
REMARK minimizedRMSD -1
REMARK  0 active torsions:
REMARK  status: ('A' for Active; 'I' for Inactive)
ROOT
ATOM      1  C1  BNZ d   1       1.285  -2.896   2.040  0.00  0.00     0.000 A 
ATOM      2  C2  BNZ d   1       0.038  -2.486   2.430  0.00  0.00     0.000 A 
ATOM      3  C3  BNZ d   1      -0.638  -1.532   1.722  0.00  0.00     0.000 A 
ATOM      4  C4  BNZ d   1      -0.051  -0.962   0.649  0.00  0.00     0.000 A 
ATOM      5  C5  BNZ d   1       1.209  -1.359   0.249  0.00  0.00     0.000 A 
ATOM      6  C6  BNZ d   1       1.871  -2.347   0.941  0.00  0.00     0.000 A 
ENDROOT
TORSDOF 0
ENDMDL
