MODEL 1
REMARK minimizedAffinity -4.72940397
REMARK minimizedRMSD -1
REMARK  0 active torsions:
REMARK  status: ('A' for Active; 'I' for Inactive)
ROOT
ATOM      1  C1  BNZ d   1      -0.909  -1.845   1.271  0.00  0.00     0.000 A 
ATOM      2  C2  BNZ d   1       0.006  -2.634   1.915  0.00  0.00     0.000 A 
ATOM      3  C3  BNZ d   1       1.346  -2.462   1.709  0.00  0.00     0.000 A 
ATOM      4  C4  BNZ d   1       1.768  -1.529   0.831  0.00  0.00     0.000 A 
ATOM      5  C5  BNZ d   1       0.857  -0.732   0.167  0.00  0.00     0.000 A 
ATOM      6  C6  BNZ d   1      -0.490  -0.881   0.406  0.00  0.00     0.000 A 
ENDROOT
TORSDOF 0
ENDMDL
