MODEL 1
REMARK minimizedAffinity -4.59481668
REMARK minimizedRMSD -1
REMARK  0 active torsions:
REMARK  status: ('A' for Active; 'I' for Inactive)
ROOT
ATOM      1  C1  BNZ d   1       1.109  -2.393   1.400  0.00  0.00     0.000 A 
ATOM      2  C2  BNZ d   1       1.628  -1.969   0.206  0.00  0.00     0.000 A 
ATOM      3  C3  BNZ d   1       1.033  -0.959  -0.498  0.00  0.00     0.000 A 
ATOM      4  C4  BNZ d   1      -0.102  -0.403  -0.027  0.00  0.00     0.000 A 
ATOM      5  C5  BNZ d   1      -0.643  -0.826   1.170  0.00  0.00     0.000 A 
ATOM      6  C6  BNZ d   1      -0.020  -1.815   1.895  0.00  0.00     0.000 A 
ENDROOT
TORSDOF 0
ENDMDL
