MODEL 1
REMARK minimizedAffinity -3.69013405
REMARK minimizedRMSD -1
REMARK  0 active torsions:
REMARK  status: ('A' for Active; 'I' for Inactive)
ROOT
ATOM      1  C1  BNZ d   1       1.150  -0.122  -0.188  0.00  0.00     0.000 A 
ATOM      2  C2  BNZ d   1       1.338  -1.350   0.387  0.00  0.00     0.000 A 
ATOM      3  C3  BNZ d   1       0.375  -1.906   1.181  0.00  0.00     0.000 A 
ATOM      4  C4  BNZ d   1      -0.758  -1.218   1.431  0.00  0.00     0.000 A 
ATOM      5  C5  BNZ d   1      -0.958   0.026   0.866  0.00  0.00     0.000 A 
ATOM      6  C6  BNZ d   1      -0.003   0.566   0.036  0.00  0.00     0.000 A 
ENDROOT
TORSDOF 0
ENDMDL
