MODEL 1
REMARK minimizedAffinity -5.03557825
REMARK minimizedRMSD -1
REMARK  0 active torsions:
REMARK  status: ('A' for Active; 'I' for Inactive)
ROOT
ATOM      1  C1  BNZ d   1       0.527  -0.385   0.115  0.00  0.00     0.000 A 
ATOM      2  C2  BNZ d   1      -0.290  -0.963   1.050  0.00  0.00     0.000 A 
ATOM      3  C3  BNZ d   1       0.175  -1.954   1.869  0.00  0.00     0.000 A 
ATOM      4  C4  BNZ d   1       1.441  -2.394   1.724  0.00  0.00     0.000 A 
ATOM      5  C5  BNZ d   1       2.274  -1.829   0.780  0.00  0.00     0.000 A 
ATOM      6  C6  BNZ d   1       1.815  -0.804  -0.016  0.00  0.00     0.000 A 
ENDROOT
TORSDOF 0
ENDMDL
