MODEL 1
REMARK minimizedAffinity -4.78076124
REMARK minimizedRMSD -1
REMARK  0 active torsions:
REMARK  status: ('A' for Active; 'I' for Inactive)
ROOT
ATOM      1  C1  BNZ d   1       0.028  -2.147   2.347  0.00  0.00     0.000 A 
ATOM      2  C2  BNZ d   1      -0.644  -1.227   1.587  0.00  0.00     0.000 A 
ATOM      3  C3  BNZ d   1      -0.043  -0.634   0.512  0.00  0.00     0.000 A 
ATOM      4  C4  BNZ d   1       1.240  -0.932   0.223  0.00  0.00     0.000 A 
ATOM      5  C5  BNZ d   1       1.934  -1.850   0.985  0.00  0.00     0.000 A 
ATOM      6  C6  BNZ d   1       1.313  -2.474   2.042  0.00  0.00     0.000 A 
ENDROOT
TORSDOF 0
ENDMDL
