MODEL 1
REMARK minimizedAffinity -4.39886999
REMARK minimizedRMSD -1
REMARK  0 active torsions:
REMARK  status: ('A' for Active; 'I' for Inactive)
ROOT
ATOM      1  C1  BNZ d   1       1.291   0.272  -0.353  0.00  0.00     0.000 A 
ATOM      2  C2  BNZ d   1       0.132   0.974  -0.151  0.00  0.00     0.000 A 
ATOM      3  C3  BNZ d   1      -0.780   0.566   0.781  0.00  0.00     0.000 A 
ATOM      4  C4  BNZ d   1      -0.553  -0.564   1.481  0.00  0.00     0.000 A 
ATOM      5  C5  BNZ d   1       0.606  -1.288   1.283  0.00  0.00     0.000 A 
ATOM      6  C6  BNZ d   1       1.541  -0.853   0.372  0.00  0.00     0.000 A 
ENDROOT
TORSDOF 0
ENDMDL
