MODEL 1
REMARK minimizedAffinity -4.89973736
REMARK minimizedRMSD -1
REMARK  0 active torsions:
REMARK  status: ('A' for Active; 'I' for Inactive)
ROOT
ATOM      1  C1  BNZ d   1       1.524  -0.361  -0.113  0.00  0.00     0.000 A 
ATOM      2  C2  BNZ d   1       1.672  -1.547   0.555  0.00  0.00     0.000 A 
ATOM      3  C3  BNZ d   1       0.597  -2.164   1.131  0.00  0.00     0.000 A 
ATOM      4  C4  BNZ d   1      -0.616  -1.577   1.072  0.00  0.00     0.000 A 
ATOM      5  C5  BNZ d   1      -0.779  -0.377   0.409  0.00  0.00     0.000 A 
ATOM      6  C6  BNZ d   1       0.298   0.223  -0.202  0.00  0.00     0.000 A 
ENDROOT
TORSDOF 0
ENDMDL
