MODEL 1
REMARK minimizedAffinity -4.84011936
REMARK minimizedRMSD -1
REMARK  0 active torsions:
REMARK  status: ('A' for Active; 'I' for Inactive)
ROOT
ATOM      1  C1  BNZ d   1       1.553  -1.936   0.812  0.00  0.00     0.000 A 
ATOM      2  C2  BNZ d   1       0.927  -0.937   0.116  0.00  0.00     0.000 A 
ATOM      3  C3  BNZ d   1      -0.290  -0.461   0.516  0.00  0.00     0.000 A 
ATOM      4  C4  BNZ d   1      -0.897  -1.011   1.588  0.00  0.00     0.000 A 
ATOM      5  C5  BNZ d   1      -0.283  -2.026   2.295  0.00  0.00     0.000 A 
ATOM      6  C6  BNZ d   1       0.959  -2.476   1.912  0.00  0.00     0.000 A 
ENDROOT
TORSDOF 0
ENDMDL
