MODEL 1
REMARK minimizedAffinity 14.1811352
REMARK minimizedRMSD -1
REMARK  0 active torsions:
REMARK  status: ('A' for Active; 'I' for Inactive)
ROOT
ATOM      1  N1  IND d   1       1.604  -1.950   3.854  0.00  0.00    -0.196 N 
ATOM      2  C2  IND d   1       0.462  -1.391   3.352  0.00  0.00     0.054 A 
ATOM      3  C3  IND d   1      -0.622  -2.092   3.753  0.00  0.00    -0.031 A 
ATOM      4  C4  IND d   1      -0.762  -4.131   5.319  0.00  0.00     0.051 A 
ATOM      5  C5  IND d   1       0.019  -5.023   5.999  0.00  0.00    -0.031 A 
ATOM      6  C6  IND d   1       1.396  -4.933   6.000  0.00  0.00     0.015 A 
ATOM      7  C7  IND d   1       2.046  -3.937   5.328  0.00  0.00    -0.016 A 
ATOM      8  C8  IND d   1       1.256  -3.033   4.631  0.00  0.00    -0.047 A 
ATOM      9  C9  IND d   1      -0.140  -3.144   4.592  0.00  0.00    -0.096 A 
ATOM     10  HN1 IND d   1       2.405  -1.673   3.708  0.00  0.00     0.298 HD
ENDROOT
TORSDOF 0
ENDMDL
