MODEL 1
REMARK minimizedAffinity 3.02204013
REMARK minimizedRMSD -1
REMARK  0 active torsions:
REMARK  status: ('A' for Active; 'I' for Inactive)
ROOT
ATOM      1  N1  IND d   1       2.266  -2.640  -1.865  0.00  0.00    -0.196 N 
ATOM      2  C2  IND d   1       3.343  -2.694  -2.706  0.00  0.00     0.054 A 
ATOM      3  C3  IND d   1       4.028  -1.529  -2.667  0.00  0.00    -0.031 A 
ATOM      4  C4  IND d   1       3.620   0.561  -1.221  0.00  0.00     0.051 A 
ATOM      5  C5  IND d   1       2.737   1.096  -0.326  0.00  0.00    -0.031 A 
ATOM      6  C6  IND d   1       1.630   0.398   0.112  0.00  0.00     0.015 A 
ATOM      7  C7  IND d   1       1.371  -0.872  -0.321  0.00  0.00    -0.016 A 
ATOM      8  C8  IND d   1       2.262  -1.415  -1.235  0.00  0.00    -0.047 A 
ATOM      9  C9  IND d   1       3.364  -0.695  -1.716  0.00  0.00    -0.096 A 
ATOM     10  HN1 IND d   1       1.688  -3.267  -1.750  0.00  0.00     0.298 HD
ENDROOT
TORSDOF 0
ENDMDL
