MODEL 1
REMARK minimizedAffinity -3.14025044
REMARK minimizedRMSD -1
REMARK  0 active torsions:
REMARK  status: ('A' for Active; 'I' for Inactive)
ROOT
ATOM      1  N1  IND d   1      -0.434  -2.877  -1.266  0.00  0.00    -0.196 N 
ATOM      2  C2  IND d   1       0.591  -3.234  -0.434  0.00  0.00     0.054 A 
ATOM      3  C3  IND d   1       1.234  -2.135   0.019  0.00  0.00    -0.031 A 
ATOM      4  C4  IND d   1       0.711   0.352  -0.394  0.00  0.00     0.051 A 
ATOM      5  C5  IND d   1      -0.108   1.175  -1.115  0.00  0.00    -0.031 A 
ATOM      6  C6  IND d   1      -1.099   0.680  -1.938  0.00  0.00     0.015 A 
ATOM      7  C7  IND d   1      -1.317  -0.663  -2.062  0.00  0.00    -0.016 A 
ATOM      8  C8  IND d   1      -0.482  -1.502  -1.337  0.00  0.00    -0.047 A 
ATOM      9  C9  IND d   1       0.553  -1.007  -0.533  0.00  0.00    -0.096 A 
ATOM     10  HN1 IND d   1      -0.959  -3.420  -1.676  0.00  0.00     0.298 HD
ENDROOT
TORSDOF 0
ENDMDL
