MODEL 1
REMARK minimizedAffinity 11.0156603
REMARK minimizedRMSD -1
REMARK  0 active torsions:
REMARK  status: ('A' for Active; 'I' for Inactive)
ROOT
ATOM      1  N1  IND d   1       0.143  -4.426   0.301  0.00  0.00    -0.196 N 
ATOM      2  C2  IND d   1      -1.062  -5.065   0.204  0.00  0.00     0.054 A 
ATOM      3  C3  IND d   1      -1.961  -4.280  -0.431  0.00  0.00    -0.031 A 
ATOM      4  C4  IND d   1      -1.644  -1.952  -1.484  0.00  0.00     0.051 A 
ATOM      5  C5  IND d   1      -0.729  -0.946  -1.617  0.00  0.00    -0.031 A 
ATOM      6  C6  IND d   1       0.550  -1.051  -1.109  0.00  0.00     0.015 A 
ATOM      7  C7  IND d   1       0.967  -2.177  -0.457  0.00  0.00    -0.016 A 
ATOM      8  C8  IND d   1       0.039  -3.198  -0.314  0.00  0.00    -0.047 A 
ATOM      9  C9  IND d   1      -1.274  -3.080  -0.789  0.00  0.00    -0.096 A 
ATOM     10  HN1 IND d   1       0.847  -4.739   0.683  0.00  0.00     0.298 HD
ENDROOT
TORSDOF 0
ENDMDL
