MODEL 1
REMARK minimizedAffinity 15.5604019
REMARK minimizedRMSD -1
REMARK  0 active torsions:
REMARK  status: ('A' for Active; 'I' for Inactive)
ROOT
ATOM      1  N1  IND d   1      -4.776   0.731  -0.595  0.00  0.00    -0.196 N 
ATOM      2  C2  IND d   1      -4.422   1.654   0.349  0.00  0.00     0.054 A 
ATOM      3  C3  IND d   1      -3.098   1.918   0.275  0.00  0.00    -0.031 A 
ATOM      4  C4  IND d   1      -1.343   1.028  -1.385  0.00  0.00     0.051 A 
ATOM      5  C5  IND d   1      -1.182   0.135  -2.407  0.00  0.00    -0.031 A 
ATOM      6  C6  IND d   1      -2.233  -0.618  -2.889  0.00  0.00     0.015 A 
ATOM      7  C7  IND d   1      -3.492  -0.497  -2.372  0.00  0.00    -0.016 A 
ATOM      8  C8  IND d   1      -3.657   0.403  -1.329  0.00  0.00    -0.047 A 
ATOM      9  C9  IND d   1      -2.586   1.139  -0.808  0.00  0.00    -0.096 A 
ATOM     10  HN1 IND d   1      -5.565   0.410  -0.711  0.00  0.00     0.298 HD
ENDROOT
TORSDOF 0
ENDMDL
