MODEL 1
REMARK minimizedAffinity 8.26783848
REMARK minimizedRMSD -1
REMARK  0 active torsions:
REMARK  status: ('A' for Active; 'I' for Inactive)
ROOT
ATOM      1  N1  IND d   1      -4.984   0.374   0.199  0.00  0.00    -0.196 N 
ATOM      2  C2  IND d   1      -6.000   0.771  -0.626  0.00  0.00     0.054 A 
ATOM      3  C3  IND d   1      -5.532   0.994  -1.874  0.00  0.00    -0.031 A 
ATOM      4  C4  IND d   1      -3.157   0.671  -2.813  0.00  0.00     0.051 A 
ATOM      5  C5  IND d   1      -1.882   0.359  -2.433  0.00  0.00    -0.031 A 
ATOM      6  C6  IND d   1      -1.570   0.026  -1.131  0.00  0.00     0.015 A 
ATOM      7  C7  IND d   1      -2.528  -0.018  -0.158  0.00  0.00    -0.016 A 
ATOM      8  C8  IND d   1      -3.823   0.305  -0.538  0.00  0.00    -0.047 A 
ATOM      9  C9  IND d   1      -4.138   0.685  -1.849  0.00  0.00    -0.096 A 
ATOM     10  HN1 IND d   1      -5.059   0.196   1.037  0.00  0.00     0.298 HD
ENDROOT
TORSDOF 0
ENDMDL
