MODEL 1
REMARK minimizedAffinity -5.71752214
REMARK minimizedRMSD -1
REMARK  1 active torsions:
REMARK  status: ('A' for Active; 'I' for Inactive)
REMARK    1  A    between atoms: C1_2  and  C2_3 
ROOT
ATOM      1  C2  UNL d   1      -0.302  -0.652   0.900  0.00  0.00    -0.081 A 
ATOM      2  C3  UNL d   1      -0.975  -0.285  -0.272  0.00  0.00     0.006 A 
ATOM      3  C4  UNL d   1      -2.307  -0.655  -0.469  0.00  0.00     0.002 A 
ATOM      4  C5  UNL d   1      -2.991  -1.391   0.504  0.00  0.00    -0.080 A 
ATOM      5  C6  UNL d   1      -4.430  -1.770   0.319  0.00  0.00     0.076 C 
ATOM      6  C7  UNL d   1      -2.313  -1.773   1.668  0.00  0.00     0.002 A 
ATOM      7  C8  UNL d   1      -0.981  -1.403   1.865  0.00  0.00     0.006 A 
ENDROOT
BRANCH   1   8
ATOM      8  C1  UNL d   1       1.115  -0.198   1.144  0.00  0.00     0.054 C 
ATOM      9  C   UNL d   1       1.438   1.060   0.350  0.00  0.00     0.018 C 
ENDBRANCH   1   8
TORSDOF 1
ENDMDL
