MODEL 1
REMARK minimizedAffinity -4.00569487
REMARK minimizedRMSD -1
REMARK  1 active torsions:
REMARK  status: ('A' for Active; 'I' for Inactive)
REMARK    1  A    between atoms: C1_2  and  C2_3 
ROOT
ATOM      1  C2  UNL d   1      -0.432  -0.162  -0.110  0.00  0.00    -0.081 A 
ATOM      2  C3  UNL d   1      -0.327  -1.075   0.946  0.00  0.00     0.006 A 
ATOM      3  C4  UNL d   1      -1.397  -1.914   1.266  0.00  0.00     0.002 A 
ATOM      4  C5  UNL d   1      -2.586  -1.860   0.530  0.00  0.00    -0.080 A 
ATOM      5  C6  UNL d   1      -3.731  -2.777   0.843  0.00  0.00     0.076 C 
ATOM      6  C7  UNL d   1      -2.697  -0.935  -0.514  0.00  0.00     0.002 A 
ATOM      7  C8  UNL d   1      -1.628  -0.095  -0.833  0.00  0.00     0.006 A 
ENDROOT
BRANCH   1   8
ATOM      8  C1  UNL d   1       0.742   0.700  -0.498  0.00  0.00     0.054 C 
ATOM      9  C   UNL d   1       1.790   0.736   0.605  0.00  0.00     0.018 C 
ENDBRANCH   1   8
TORSDOF 1
ENDMDL
