MODEL 1
REMARK minimizedAffinity -3.79353499
REMARK minimizedRMSD -1
REMARK  1 active torsions:
REMARK  status: ('A' for Active; 'I' for Inactive)
REMARK    1  A    between atoms: C1_2  and  C2_3 
ROOT
ATOM      1  C2  UNL d   1       0.003  -0.408  -0.226  0.00  0.00    -0.081 A 
ATOM      2  C3  UNL d   1      -1.025  -0.052  -1.107  0.00  0.00     0.006 A 
ATOM      3  C4  UNL d   1      -2.283  -0.653  -1.008  0.00  0.00     0.002 A 
ATOM      4  C5  UNL d   1      -2.534  -1.614  -0.022  0.00  0.00    -0.080 A 
ATOM      5  C6  UNL d   1      -3.888  -2.244   0.115  0.00  0.00     0.076 C 
ATOM      6  C7  UNL d   1      -1.501  -1.982   0.846  0.00  0.00     0.002 A 
ATOM      7  C8  UNL d   1      -0.244  -1.382   0.747  0.00  0.00     0.006 A 
ENDROOT
BRANCH   1   8
ATOM      8  C1  UNL d   1       1.340   0.285  -0.290  0.00  0.00     0.054 C 
ATOM      9  C   UNL d   1       1.607   1.090   0.974  0.00  0.00     0.018 C 
ENDBRANCH   1   8
TORSDOF 1
ENDMDL
