MODEL 1
REMARK minimizedAffinity -6.16132307
REMARK minimizedRMSD -1
REMARK  1 active torsions:
REMARK  status: ('A' for Active; 'I' for Inactive)
REMARK    1  A    between atoms: C1_2  and  C2_3 
ROOT
ATOM      1  C2  UNL d   1      -0.178  -0.375   0.185  0.00  0.00    -0.081 A 
ATOM      2  C3  UNL d   1      -1.201  -0.106  -0.732  0.00  0.00     0.006 A 
ATOM      3  C4  UNL d   1      -2.487  -0.611  -0.527  0.00  0.00     0.002 A 
ATOM      4  C5  UNL d   1      -2.773  -1.387   0.602  0.00  0.00    -0.080 A 
ATOM      5  C6  UNL d   1      -4.157  -1.910   0.850  0.00  0.00     0.076 C 
ATOM      6  C7  UNL d   1      -1.747  -1.670   1.509  0.00  0.00     0.002 A 
ATOM      7  C8  UNL d   1      -0.460  -1.166   1.304  0.00  0.00     0.006 A 
ENDROOT
BRANCH   1   8
ATOM      8  C1  UNL d   1       1.194   0.222  -0.000  0.00  0.00     0.054 C 
ATOM      9  C   UNL d   1       1.488   1.272   1.061  0.00  0.00     0.018 C 
ENDBRANCH   1   8
TORSDOF 1
ENDMDL
