MODEL 1
REMARK minimizedAffinity -3.45495272
REMARK minimizedRMSD -1
REMARK  1 active torsions:
REMARK  status: ('A' for Active; 'I' for Inactive)
REMARK    1  A    between atoms: C1_2  and  C2_3 
ROOT
ATOM      1  C2  UNL d   1      -0.415  -0.206  -0.418  0.00  0.00    -0.081 A 
ATOM      2  C3  UNL d   1      -0.832  -0.392   0.905  0.00  0.00     0.006 A 
ATOM      3  C4  UNL d   1      -2.027  -1.059   1.185  0.00  0.00     0.002 A 
ATOM      4  C5  UNL d   1      -2.821  -1.558   0.146  0.00  0.00    -0.080 A 
ATOM      5  C6  UNL d   1      -4.091  -2.302   0.433  0.00  0.00     0.076 C 
ATOM      6  C7  UNL d   1      -2.413  -1.357  -1.177  0.00  0.00     0.002 A 
ATOM      7  C8  UNL d   1      -1.218  -0.690  -1.457  0.00  0.00     0.006 A 
ENDROOT
BRANCH   1   8
ATOM      8  C1  UNL d   1       0.905   0.455  -0.720  0.00  0.00     0.054 C 
ATOM      9  C   UNL d   1       1.574   0.962   0.550  0.00  0.00     0.018 C 
ENDBRANCH   1   8
TORSDOF 1
ENDMDL
