MODEL 1
REMARK minimizedAffinity 1.3523258
REMARK minimizedRMSD -1
REMARK  1 active torsions:
REMARK  status: ('A' for Active; 'I' for Inactive)
REMARK    1  A    between atoms: C1_2  and  C2_3 
ROOT
ATOM      1  C2  UNL d   1       0.272  -0.898   0.734  0.00  0.00    -0.081 A 
ATOM      2  C3  UNL d   1      -0.641  -1.511  -0.132  0.00  0.00     0.006 A 
ATOM      3  C4  UNL d   1      -0.988  -0.904  -1.341  0.00  0.00     0.002 A 
ATOM      4  C5  UNL d   1      -0.422   0.322  -1.708  0.00  0.00    -0.080 A 
ATOM      5  C6  UNL d   1      -0.763   0.970  -3.017  0.00  0.00     0.076 C 
ATOM      6  C7  UNL d   1       0.477   0.943  -0.835  0.00  0.00     0.002 A 
ATOM      7  C8  UNL d   1       0.824   0.336   0.375  0.00  0.00     0.006 A 
ENDROOT
BRANCH   1   8
ATOM      8  C1  UNL d   1       0.698  -1.582   2.008  0.00  0.00     0.054 C 
ATOM      9  C   UNL d   1      -0.361  -2.564   2.489  0.00  0.00     0.018 C 
ENDBRANCH   1   8
TORSDOF 1
ENDMDL
