MODEL 1
REMARK minimizedAffinity 0.365916908
REMARK minimizedRMSD -1
REMARK  1 active torsions:
REMARK  status: ('A' for Active; 'I' for Inactive)
REMARK    1  A    between atoms: C1_2  and  C2_3 
ROOT
ATOM      1  C2  UNL d   1       0.511  -0.541   0.415  0.00  0.00    -0.081 A 
ATOM      2  C3  UNL d   1       0.809   0.797   0.132  0.00  0.00     0.006 A 
ATOM      3  C4  UNL d   1       0.473   1.352  -1.105  0.00  0.00     0.002 A 
ATOM      4  C5  UNL d   1      -0.173   0.580  -2.077  0.00  0.00    -0.080 A 
ATOM      5  C6  UNL d   1      -0.566   1.171  -3.398  0.00  0.00     0.076 C 
ATOM      6  C7  UNL d   1      -0.455  -0.762  -1.801  0.00  0.00     0.002 A 
ATOM      7  C8  UNL d   1      -0.119  -1.317  -0.565  0.00  0.00     0.006 A 
ENDROOT
BRANCH   1   8
ATOM      8  C1  UNL d   1       0.814  -1.124   1.771  0.00  0.00     0.054 C 
ATOM      9  C   UNL d   1       0.371  -2.577   1.861  0.00  0.00     0.018 C 
ENDBRANCH   1   8
TORSDOF 1
ENDMDL
