MODEL 1
REMARK minimizedAffinity -6.31028748
REMARK minimizedRMSD -1
REMARK  1 active torsions:
REMARK  status: ('A' for Active; 'I' for Inactive)
REMARK    1  A    between atoms: C1_2  and  C2_3 
ROOT
ATOM      1  C2  UNL d   1      -1.056  -0.425  -0.413  0.00  0.00    -0.081 A 
ATOM      2  C3  UNL d   1      -2.174  -0.034  -1.160  0.00  0.00     0.006 A 
ATOM      3  C4  UNL d   1      -3.416  -0.637  -0.944  0.00  0.00     0.002 A 
ATOM      4  C5  UNL d   1      -3.562  -1.633   0.027  0.00  0.00    -0.080 A 
ATOM      5  C6  UNL d   1      -4.896  -2.266   0.289  0.00  0.00     0.076 C 
ATOM      6  C7  UNL d   1      -2.442  -2.036   0.761  0.00  0.00     0.002 A 
ATOM      7  C8  UNL d   1      -1.200  -1.434   0.545  0.00  0.00     0.006 A 
ENDROOT
BRANCH   1   8
ATOM      8  C1  UNL d   1       0.270   0.268  -0.598  0.00  0.00     0.054 C 
ATOM      9  C   UNL d   1       1.282  -0.186   0.444  0.00  0.00     0.018 C 
ENDBRANCH   1   8
TORSDOF 1
ENDMDL
