MODEL 1
REMARK minimizedAffinity -4.30717039
REMARK minimizedRMSD -1
REMARK  1 active torsions:
REMARK  status: ('A' for Active; 'I' for Inactive)
REMARK    1  A    between atoms: C1_2  and  C2_3 
ROOT
ATOM      1  C2  UNL d   1      -1.721  -0.508  -0.444  0.00  0.00    -0.081 A 
ATOM      2  C3  UNL d   1      -1.078  -0.730   0.780  0.00  0.00     0.006 A 
ATOM      3  C4  UNL d   1       0.225  -0.273   0.989  0.00  0.00     0.002 A 
ATOM      4  C5  UNL d   1       0.905   0.419  -0.018  0.00  0.00    -0.080 A 
ATOM      5  C6  UNL d   1       2.293   0.941   0.204  0.00  0.00     0.076 C 
ATOM      6  C7  UNL d   1       0.270   0.626  -1.248  0.00  0.00     0.002 A 
ATOM      7  C8  UNL d   1      -1.033   0.169  -1.457  0.00  0.00     0.006 A 
ENDROOT
BRANCH   1   8
ATOM      8  C1  UNL d   1      -3.149  -0.942  -0.650  0.00  0.00     0.054 C 
ATOM      9  C   UNL d   1      -3.575  -1.960   0.399  0.00  0.00     0.018 C 
ENDBRANCH   1   8
TORSDOF 1
ENDMDL
