MODEL 1
REMARK minimizedAffinity -3.38326335
REMARK minimizedRMSD -1
REMARK  1 active torsions:
REMARK  status: ('A' for Active; 'I' for Inactive)
REMARK    1  A    between atoms: C1_2  and  C2_3 
ROOT
ATOM      1  C2  UNL d   1       1.183   1.281   0.621  0.00  0.00    -0.081 A 
ATOM      2  C3  UNL d   1       1.505   0.096  -0.051  0.00  0.00     0.006 A 
ATOM      3  C4  UNL d   1       0.563  -0.533  -0.869  0.00  0.00     0.002 A 
ATOM      4  C5  UNL d   1      -0.713   0.017  -1.034  0.00  0.00    -0.080 A 
ATOM      5  C6  UNL d   1      -1.723  -0.631  -1.933  0.00  0.00     0.076 C 
ATOM      6  C7  UNL d   1      -1.040   1.192  -0.350  0.00  0.00     0.002 A 
ATOM      7  C8  UNL d   1      -0.099   1.821   0.469  0.00  0.00     0.006 A 
ENDROOT
BRANCH   1   8
ATOM      8  C1  UNL d   1       2.217   1.996   1.452  0.00  0.00     0.054 C 
ATOM      9  C   UNL d   1       2.322   3.464   1.064  0.00  0.00     0.018 C 
ENDBRANCH   1   8
TORSDOF 1
ENDMDL
