MODEL 1
REMARK minimizedAffinity -4.13308287
REMARK minimizedRMSD -1
REMARK  1 active torsions:
REMARK  status: ('A' for Active; 'I' for Inactive)
REMARK    1  A    between atoms: C1_2  and  C2_3 
ROOT
ATOM      1  C2  UNL d   1      -0.944  -0.781  -0.709  0.00  0.00    -0.081 A 
ATOM      2  C3  UNL d   1      -1.749  -1.345  -1.706  0.00  0.00     0.006 A 
ATOM      3  C4  UNL d   1      -3.002  -1.875  -1.390  0.00  0.00     0.002 A 
ATOM      4  C5  UNL d   1      -3.475  -1.842  -0.074  0.00  0.00    -0.080 A 
ATOM      5  C6  UNL d   1      -4.831  -2.380   0.274  0.00  0.00     0.076 C 
ATOM      6  C7  UNL d   1      -2.664  -1.294   0.926  0.00  0.00     0.002 A 
ATOM      7  C8  UNL d   1      -1.410  -0.765   0.610  0.00  0.00     0.006 A 
ENDROOT
BRANCH   1   8
ATOM      8  C1  UNL d   1       0.380  -0.151  -1.057  0.00  0.00     0.054 C 
ATOM      9  C   UNL d   1       1.069   0.409   0.179  0.00  0.00     0.018 C 
ENDBRANCH   1   8
TORSDOF 1
ENDMDL
