MODEL 1
REMARK minimizedAffinity -3.74654675
REMARK minimizedRMSD -1
REMARK  1 active torsions:
REMARK  status: ('A' for Active; 'I' for Inactive)
REMARK    1  A    between atoms: C1_2  and  C2_3 
ROOT
ATOM      1  C2  UNL d   1       1.146   0.392   0.201  0.00  0.00    -0.081 A 
ATOM      2  C3  UNL d   1       0.433   0.623  -0.982  0.00  0.00     0.006 A 
ATOM      3  C4  UNL d   1      -0.867   0.134  -1.133  0.00  0.00     0.002 A 
ATOM      4  C5  UNL d   1      -1.478  -0.586  -0.101  0.00  0.00    -0.080 A 
ATOM      5  C6  UNL d   1      -2.884  -1.090  -0.238  0.00  0.00     0.076 C 
ATOM      6  C7  UNL d   1      -0.760  -0.832   1.074  0.00  0.00     0.002 A 
ATOM      7  C8  UNL d   1       0.540  -0.344   1.225  0.00  0.00     0.006 A 
ENDROOT
BRANCH   1   8
ATOM      8  C1  UNL d   1       2.524   0.972   0.391  0.00  0.00     0.054 C 
ATOM      9  C   UNL d   1       2.543   1.993   1.520  0.00  0.00     0.018 C 
ENDBRANCH   1   8
TORSDOF 1
ENDMDL
