MODEL 1
REMARK minimizedAffinity -2.68742633
REMARK minimizedRMSD -1
REMARK  1 active torsions:
REMARK  status: ('A' for Active; 'I' for Inactive)
REMARK    1  A    between atoms: C1_2  and  C2_3 
ROOT
ATOM      1  C2  UNL d   1      -2.062  -1.198  -0.245  0.00  0.00    -0.081 A 
ATOM      2  C3  UNL d   1      -1.200  -1.761   0.704  0.00  0.00     0.006 A 
ATOM      3  C4  UNL d   1       0.003  -1.130   1.029  0.00  0.00     0.002 A 
ATOM      4  C5  UNL d   1       0.361   0.076   0.418  0.00  0.00    -0.080 A 
ATOM      5  C6  UNL d   1       1.635   0.779   0.780  0.00  0.00     0.076 C 
ATOM      6  C7  UNL d   1      -0.492   0.629  -0.543  0.00  0.00     0.002 A 
ATOM      7  C8  UNL d   1      -1.695  -0.001  -0.870  0.00  0.00     0.006 A 
ENDROOT
BRANCH   1   8
ATOM      8  C1  UNL d   1      -3.390  -1.842  -0.551  0.00  0.00     0.054 C 
ATOM      9  C   UNL d   1      -3.237  -2.979  -1.551  0.00  0.00     0.018 C 
ENDBRANCH   1   8
TORSDOF 1
ENDMDL
