MODEL 1
REMARK minimizedAffinity -3.75522828
REMARK minimizedRMSD -1
REMARK  1 active torsions:
REMARK  status: ('A' for Active; 'I' for Inactive)
REMARK    1  A    between atoms: C1_2  and  C2_3 
ROOT
ATOM      1  C2  UNL d   1      -2.117   0.939   1.565  0.00  0.00    -0.076 A 
ATOM      2  C3  UNL d   1      -2.873  -0.246   1.594  0.00  0.00     0.004 A 
ATOM      3  C4  UNL d   1      -3.338  -0.772   2.798  0.00  0.00    -0.003 A 
ATOM      4  C5  UNL d   1      -3.054  -0.121   3.994  0.00  0.00     0.000 A 
ATOM      5  C6  UNL d   1      -2.321   1.065   3.983  0.00  0.00     0.000 A 
ATOM      6  C7  UNL d   1      -1.859   1.617   2.776  0.00  0.00    -0.073 A 
ATOM      7  C8  UNL d   1      -1.067   2.895   2.823  0.00  0.00     0.078 C 
ENDROOT
BRANCH   1   8
ATOM      8  C1  UNL d   1      -1.617   1.447   0.232  0.00  0.00     0.053 C 
ATOM      9  C   UNL d   1      -0.311   0.790  -0.189  0.00  0.00     0.018 C 
ENDBRANCH   1   8
TORSDOF 1
ENDMDL
