MODEL 1
REMARK minimizedAffinity -3.7484355
REMARK minimizedRMSD -1
REMARK  1 active torsions:
REMARK  status: ('A' for Active; 'I' for Inactive)
REMARK    1  A    between atoms: C1_2  and  C2_3 
ROOT
ATOM      1  C2  UNL d   1      -0.418   0.198  -0.335  0.00  0.00    -0.076 A 
ATOM      2  C3  UNL d   1       0.252  -1.031  -0.207  0.00  0.00     0.004 A 
ATOM      3  C4  UNL d   1       1.392  -1.308  -0.959  0.00  0.00    -0.003 A 
ATOM      4  C5  UNL d   1       1.881  -0.360  -1.852  0.00  0.00     0.000 A 
ATOM      5  C6  UNL d   1       1.238   0.871  -1.979  0.00  0.00     0.000 A 
ATOM      6  C7  UNL d   1       0.097   1.173  -1.216  0.00  0.00    -0.073 A 
ATOM      7  C8  UNL d   1      -0.559   2.514  -1.398  0.00  0.00     0.078 C 
ENDROOT
BRANCH   1   8
ATOM      8  C1  UNL d   1      -1.665   0.432   0.488  0.00  0.00     0.053 C 
ATOM      9  C   UNL d   1      -1.355   0.962   1.879  0.00  0.00     0.018 C 
ENDBRANCH   1   8
TORSDOF 1
ENDMDL
