MODEL 1
REMARK minimizedAffinity -5.46141624
REMARK minimizedRMSD -1
REMARK  1 active torsions:
REMARK  status: ('A' for Active; 'I' for Inactive)
REMARK    1  A    between atoms: C1_2  and  C2_3 
ROOT
ATOM      1  C2  UNL d   1       0.577   0.315  -1.077  0.00  0.00    -0.076 A 
ATOM      2  C3  UNL d   1       1.378  -0.486  -0.245  0.00  0.00     0.004 A 
ATOM      3  C4  UNL d   1       2.750  -0.602  -0.465  0.00  0.00    -0.003 A 
ATOM      4  C5  UNL d   1       3.343   0.083  -1.520  0.00  0.00     0.000 A 
ATOM      5  C6  UNL d   1       2.566   0.896  -2.344  0.00  0.00     0.000 A 
ATOM      6  C7  UNL d   1       1.185   1.036  -2.127  0.00  0.00    -0.073 A 
ATOM      7  C8  UNL d   1       0.394   1.922  -3.051  0.00  0.00     0.078 C 
ENDROOT
BRANCH   1   8
ATOM      8  C1  UNL d   1      -0.909   0.380  -0.807  0.00  0.00     0.053 C 
ATOM      9  C   UNL d   1      -1.498  -0.978  -0.455  0.00  0.00     0.018 C 
ENDBRANCH   1   8
TORSDOF 1
ENDMDL
