MODEL 1
REMARK minimizedAffinity -3.85027194
REMARK minimizedRMSD -1
REMARK  1 active torsions:
REMARK  status: ('A' for Active; 'I' for Inactive)
REMARK    1  A    between atoms: C1_2  and  C2_3 
ROOT
ATOM      1  C2  UNL d   1      -0.223   0.166  -0.625  0.00  0.00    -0.076 A 
ATOM      2  C3  UNL d   1      -0.178   1.337  -1.401  0.00  0.00     0.004 A 
ATOM      3  C4  UNL d   1       0.788   1.505  -2.392  0.00  0.00    -0.003 A 
ATOM      4  C5  UNL d   1       1.724   0.503  -2.623  0.00  0.00     0.000 A 
ATOM      5  C6  UNL d   1       1.683  -0.674  -1.876  0.00  0.00     0.000 A 
ATOM      6  C7  UNL d   1       0.705  -0.865  -0.884  0.00  0.00    -0.073 A 
ATOM      7  C8  UNL d   1       0.711  -2.151  -0.103  0.00  0.00     0.078 C 
ENDROOT
BRANCH   1   8
ATOM      8  C1  UNL d   1      -1.277   0.052   0.454  0.00  0.00     0.053 C 
ATOM      9  C   UNL d   1      -0.827   0.660   1.773  0.00  0.00     0.018 C 
ENDBRANCH   1   8
TORSDOF 1
ENDMDL
