MODEL 1
REMARK minimizedAffinity -4.99570274
REMARK minimizedRMSD -1
REMARK  1 active torsions:
REMARK  status: ('A' for Active; 'I' for Inactive)
REMARK    1  A    between atoms: C1_2  and  C2_3 
ROOT
ATOM      1  C2  UNL d   1       0.098  -0.057  -0.369  0.00  0.00    -0.076 A 
ATOM      2  C3  UNL d   1       0.091  -1.294   0.299  0.00  0.00     0.004 A 
ATOM      3  C4  UNL d   1       1.046  -2.268   0.013  0.00  0.00    -0.003 A 
ATOM      4  C5  UNL d   1       2.024  -2.021  -0.945  0.00  0.00     0.000 A 
ATOM      5  C6  UNL d   1       2.056  -0.792  -1.604  0.00  0.00     0.000 A 
ATOM      6  C7  UNL d   1       1.110   0.207  -1.316  0.00  0.00    -0.073 A 
ATOM      7  C8  UNL d   1       1.188   1.511  -2.062  0.00  0.00     0.078 C 
ENDROOT
BRANCH   1   8
ATOM      8  C1  UNL d   1      -0.980   0.951  -0.037  0.00  0.00     0.053 C 
ATOM      9  C   UNL d   1      -1.526   0.776   1.372  0.00  0.00     0.018 C 
ENDBRANCH   1   8
TORSDOF 1
ENDMDL
