MODEL 1
REMARK minimizedAffinity -0.94189924
REMARK minimizedRMSD -1
REMARK  1 active torsions:
REMARK  status: ('A' for Active; 'I' for Inactive)
REMARK    1  A    between atoms: C1_2  and  C2_3 
ROOT
ATOM      1  C2  UNL d   1      -0.900   0.633   1.331  0.00  0.00    -0.076 A 
ATOM      2  C3  UNL d   1      -1.879  -0.149   1.969  0.00  0.00     0.004 A 
ATOM      3  C4  UNL d   1      -2.232   0.087   3.296  0.00  0.00    -0.003 A 
ATOM      4  C5  UNL d   1      -1.614   1.109   4.007  0.00  0.00     0.000 A 
ATOM      5  C6  UNL d   1      -0.654   1.907   3.385  0.00  0.00     0.000 A 
ATOM      6  C7  UNL d   1      -0.298   1.693   2.042  0.00  0.00    -0.073 A 
ATOM      7  C8  UNL d   1       0.748   2.579   1.423  0.00  0.00     0.078 C 
ENDROOT
BRANCH   1   8
ATOM      8  C1  UNL d   1      -0.538   0.313  -0.102  0.00  0.00     0.053 C 
ATOM      9  C   UNL d   1       0.290  -0.957  -0.224  0.00  0.00     0.018 C 
ENDBRANCH   1   8
TORSDOF 1
ENDMDL
