MODEL 1
REMARK minimizedAffinity -3.26664162
REMARK minimizedRMSD -1
REMARK  1 active torsions:
REMARK  status: ('A' for Active; 'I' for Inactive)
REMARK    1  A    between atoms: C1_2  and  C2_3 
ROOT
ATOM      1  C2  UNL d   1       0.451   0.353  -0.407  0.00  0.00    -0.076 A 
ATOM      2  C3  UNL d   1       0.886   1.479  -1.128  0.00  0.00     0.004 A 
ATOM      3  C4  UNL d   1       2.102   1.469  -1.810  0.00  0.00    -0.003 A 
ATOM      4  C5  UNL d   1       2.902   0.332  -1.783  0.00  0.00     0.000 A 
ATOM      5  C6  UNL d   1       2.478  -0.800  -1.087  0.00  0.00     0.000 A 
ATOM      6  C7  UNL d   1       1.248  -0.812  -0.408  0.00  0.00    -0.073 A 
ATOM      7  C8  UNL d   1       0.843  -2.058   0.331  0.00  0.00     0.078 C 
ENDROOT
BRANCH   1   8
ATOM      8  C1  UNL d   1      -0.863   0.432   0.336  0.00  0.00     0.053 C 
ATOM      9  C   UNL d   1      -0.692   0.887   1.777  0.00  0.00     0.018 C 
ENDBRANCH   1   8
TORSDOF 1
ENDMDL
