MODEL 1
REMARK minimizedAffinity -1.28870547
REMARK minimizedRMSD -1
REMARK  1 active torsions:
REMARK  status: ('A' for Active; 'I' for Inactive)
REMARK    1  A    between atoms: C1_2  and  C2_3 
ROOT
ATOM      1  C2  UNL d   1      -0.518  -0.074   0.571  0.00  0.00    -0.076 A 
ATOM      2  C3  UNL d   1       0.075  -1.274   1.001  0.00  0.00     0.004 A 
ATOM      3  C4  UNL d   1       0.962  -1.970   0.181  0.00  0.00    -0.003 A 
ATOM      4  C5  UNL d   1       1.271  -1.476  -1.081  0.00  0.00     0.000 A 
ATOM      5  C6  UNL d   1       0.705  -0.278  -1.517  0.00  0.00     0.000 A 
ATOM      6  C7  UNL d   1      -0.178   0.444  -0.697  0.00  0.00    -0.073 A 
ATOM      7  C8  UNL d   1      -0.763   1.727  -1.220  0.00  0.00     0.078 C 
ENDROOT
BRANCH   1   8
ATOM      8  C1  UNL d   1      -1.494   0.622   1.493  0.00  0.00     0.053 C 
ATOM      9  C   UNL d   1      -0.948   0.787   2.903  0.00  0.00     0.018 C 
ENDBRANCH   1   8
TORSDOF 1
ENDMDL
