MODEL 1
REMARK minimizedAffinity -5.37593317
REMARK minimizedRMSD -1
REMARK  1 active torsions:
REMARK  status: ('A' for Active; 'I' for Inactive)
REMARK    1  A    between atoms: C1_2  and  C2_3 
ROOT
ATOM      1  C2  UNL d   1       0.174   0.247  -0.396  0.00  0.00    -0.076 A 
ATOM      2  C3  UNL d   1       0.954   1.321  -0.858  0.00  0.00     0.004 A 
ATOM      3  C4  UNL d   1       2.178   1.100  -1.489  0.00  0.00    -0.003 A 
ATOM      4  C5  UNL d   1       2.640  -0.198  -1.669  0.00  0.00     0.000 A 
ATOM      5  C6  UNL d   1       1.871  -1.277  -1.233  0.00  0.00     0.000 A 
ATOM      6  C7  UNL d   1       0.628  -1.072  -0.609  0.00  0.00    -0.073 A 
ATOM      7  C8  UNL d   1      -0.157  -2.272  -0.153  0.00  0.00     0.078 C 
ENDROOT
BRANCH   1   8
ATOM      8  C1  UNL d   1      -1.131   0.549   0.305  0.00  0.00     0.053 C 
ATOM      9  C   UNL d   1      -0.926   1.059   1.723  0.00  0.00     0.018 C 
ENDBRANCH   1   8
TORSDOF 1
ENDMDL
