MODEL 1
REMARK minimizedAffinity -2.29547811
REMARK minimizedRMSD -1
REMARK  1 active torsions:
REMARK  status: ('A' for Active; 'I' for Inactive)
REMARK    1  A    between atoms: C1_2  and  C2_3 
ROOT
ATOM      1  C2  UNL d   1       4.967  -1.642   4.827  0.00  0.00    -0.076 A 
ATOM      2  C3  UNL d   1       4.318  -1.095   3.706  0.00  0.00     0.004 A 
ATOM      3  C4  UNL d   1       4.034  -1.879   2.589  0.00  0.00    -0.003 A 
ATOM      4  C5  UNL d   1       4.393  -3.222   2.575  0.00  0.00     0.000 A 
ATOM      5  C6  UNL d   1       5.021  -3.785   3.685  0.00  0.00     0.000 A 
ATOM      6  C7  UNL d   1       5.300  -3.013   4.826  0.00  0.00    -0.073 A 
ATOM      7  C8  UNL d   1       5.985  -3.670   5.993  0.00  0.00     0.078 C 
ENDROOT
BRANCH   1   8
ATOM      8  C1  UNL d   1       5.274  -0.737   5.999  0.00  0.00     0.053 C 
ATOM      9  C   UNL d   1       5.670   0.666   5.564  0.00  0.00     0.018 C 
ENDBRANCH   1   8
TORSDOF 1
ENDMDL
