MODEL 1
REMARK minimizedAffinity -4.67103291
REMARK minimizedRMSD -1
REMARK  1 active torsions:
REMARK  status: ('A' for Active; 'I' for Inactive)
REMARK    1  A    between atoms: C1_2  and  C2_3 
ROOT
ATOM      1  C2  UNL d   1       0.900  -0.371  -1.158  0.00  0.00    -0.076 A 
ATOM      2  C3  UNL d   1       0.929   1.002  -1.462  0.00  0.00     0.004 A 
ATOM      3  C4  UNL d   1      -0.083   1.855  -1.023  0.00  0.00    -0.003 A 
ATOM      4  C5  UNL d   1      -1.138   1.349  -0.272  0.00  0.00     0.000 A 
ATOM      5  C6  UNL d   1      -1.173  -0.006   0.054  0.00  0.00     0.000 A 
ATOM      6  C7  UNL d   1      -0.153  -0.877  -0.367  0.00  0.00    -0.073 A 
ATOM      7  C8  UNL d   1      -0.245  -2.331   0.007  0.00  0.00     0.078 C 
ENDROOT
BRANCH   1   8
ATOM      8  C1  UNL d   1       2.010  -1.252  -1.685  0.00  0.00     0.053 C 
ATOM      9  C   UNL d   1       3.066  -0.466  -2.448  0.00  0.00     0.018 C 
ENDBRANCH   1   8
TORSDOF 1
ENDMDL
