MODEL 1
REMARK minimizedAffinity -4.70565939
REMARK minimizedRMSD -1
REMARK  1 active torsions:
REMARK  status: ('A' for Active; 'I' for Inactive)
REMARK    1  A    between atoms: C1_2  and  C2_3 
ROOT
ATOM      1  C2  UNL d   1       1.342   0.120  -1.515  0.00  0.00    -0.076 A 
ATOM      2  C3  UNL d   1       1.692  -1.241  -1.459  0.00  0.00     0.004 A 
ATOM      3  C4  UNL d   1       0.952  -2.141  -0.695  0.00  0.00    -0.003 A 
ATOM      4  C5  UNL d   1      -0.151  -1.696   0.025  0.00  0.00     0.000 A 
ATOM      5  C6  UNL d   1      -0.524  -0.354  -0.033  0.00  0.00     0.000 A 
ATOM      6  C7  UNL d   1       0.202   0.564  -0.811  0.00  0.00    -0.073 A 
ATOM      7  C8  UNL d   1      -0.240   2.002  -0.832  0.00  0.00     0.078 C 
ENDROOT
BRANCH   1   8
ATOM      8  C1  UNL d   1       2.199   1.055  -2.338  0.00  0.00     0.053 C 
ATOM      9  C   UNL d   1       2.212   0.686  -3.814  0.00  0.00     0.018 C 
ENDBRANCH   1   8
TORSDOF 1
ENDMDL
