MODEL 1
REMARK minimizedAffinity -3.94121838
REMARK minimizedRMSD -1
REMARK  0 active torsions:
REMARK  status: ('A' for Active; 'I' for Inactive)
ROOT
ATOM      1  C   UNL d   1      -2.419   3.147   4.658  0.00  0.00     0.020 A 
ATOM      2  C1  UNL d   1      -3.788   3.206   4.402  0.00  0.00     0.020 A 
ATOM      3  C2  UNL d   1      -4.349   2.395   3.413  0.00  0.00     0.034 A 
ATOM      4  C3  UNL d   1      -3.541   1.522   2.676  0.00  0.00     0.017 A 
ATOM      5  C4  UNL d   1      -2.166   1.463   2.934  0.00  0.00     0.017 A 
ATOM      6  C5  UNL d   1      -1.610   2.277   3.925  0.00  0.00     0.034 A 
ATOM      7 Cl   UNL d   1      -1.105   0.410   2.066  0.00  0.00    -0.070 Cl
ATOM      8 Cl1  UNL d   1      -4.302   0.548   1.468  0.00  0.00    -0.070 Cl
ENDROOT
TORSDOF 0
ENDMDL
