MODEL 1
REMARK minimizedAffinity -1.86787188
REMARK minimizedRMSD -1
REMARK  0 active torsions:
REMARK  status: ('A' for Active; 'I' for Inactive)
ROOT
ATOM      1  C   UNL d   1      -0.094   1.148   0.687  0.00  0.00     0.020 A 
ATOM      2  C1  UNL d   1      -0.713   0.010   1.202  0.00  0.00     0.020 A 
ATOM      3  C2  UNL d   1      -0.663  -1.192   0.493  0.00  0.00     0.034 A 
ATOM      4  C3  UNL d   1       0.006  -1.259  -0.735  0.00  0.00     0.017 A 
ATOM      5  C4  UNL d   1       0.627  -0.115  -1.250  0.00  0.00     0.017 A 
ATOM      6  C5  UNL d   1       0.575   1.086  -0.536  0.00  0.00     0.034 A 
ATOM      7 Cl   UNL d   1       1.473  -0.119  -2.758  0.00  0.00    -0.070 Cl
ATOM      8 Cl1  UNL d   1       0.028  -2.778  -1.557  0.00  0.00    -0.070 Cl
ENDROOT
TORSDOF 0
ENDMDL
