MODEL 1
REMARK minimizedAffinity -2.01220965
REMARK minimizedRMSD -1
REMARK  0 active torsions:
REMARK  status: ('A' for Active; 'I' for Inactive)
ROOT
ATOM      1  C   UNL d   1      -2.921   0.996   2.647  0.00  0.00     0.020 A 
ATOM      2  C1  UNL d   1      -3.354  -0.278   2.282  0.00  0.00     0.020 A 
ATOM      3  C2  UNL d   1      -2.537  -1.095   1.496  0.00  0.00     0.034 A 
ATOM      4  C3  UNL d   1      -1.283  -0.639   1.074  0.00  0.00     0.017 A 
ATOM      5  C4  UNL d   1      -0.849   0.640   1.442  0.00  0.00     0.017 A 
ATOM      6  C5  UNL d   1      -1.671   1.454   2.228  0.00  0.00     0.034 A 
ATOM      7 Cl   UNL d   1       0.685   1.272   0.959  0.00  0.00    -0.070 Cl
ATOM      8 Cl1  UNL d   1      -0.326  -1.702   0.106  0.00  0.00    -0.070 Cl
ENDROOT
TORSDOF 0
ENDMDL
