MODEL 1
REMARK minimizedAffinity 0.282374829
REMARK minimizedRMSD -1
REMARK  0 active torsions:
REMARK  status: ('A' for Active; 'I' for Inactive)
ROOT
ATOM      1  C   UNL d   1      -0.228   1.757   0.927  0.00  0.00     0.020 A 
ATOM      2  C1  UNL d   1      -0.695   0.508   1.333  0.00  0.00     0.020 A 
ATOM      3  C2  UNL d   1      -0.223  -0.650   0.710  0.00  0.00     0.034 A 
ATOM      4  C3  UNL d   1       0.718  -0.560  -0.322  0.00  0.00     0.017 A 
ATOM      5  C4  UNL d   1       1.185   0.695  -0.729  0.00  0.00     0.017 A 
ATOM      6  C5  UNL d   1       0.710   1.851  -0.102  0.00  0.00     0.034 A 
ATOM      7 Cl   UNL d   1       2.346   0.885  -1.996  0.00  0.00    -0.070 Cl
ATOM      8 Cl1  UNL d   1       1.257  -2.033  -1.047  0.00  0.00    -0.070 Cl
ENDROOT
TORSDOF 0
ENDMDL
