MODEL 1
REMARK minimizedAffinity -4.17715931
REMARK minimizedRMSD -1
REMARK  0 active torsions:
REMARK  status: ('A' for Active; 'I' for Inactive)
ROOT
ATOM      1  C   UNL d   1       0.729   0.367  -1.708  0.00  0.00     0.020 A 
ATOM      2  C1  UNL d   1       0.799  -0.976  -2.076  0.00  0.00     0.020 A 
ATOM      3  C2  UNL d   1       0.517  -1.972  -1.139  0.00  0.00     0.034 A 
ATOM      4  C3  UNL d   1       0.164  -1.627   0.171  0.00  0.00     0.017 A 
ATOM      5  C4  UNL d   1       0.094  -0.278   0.539  0.00  0.00     0.017 A 
ATOM      6  C5  UNL d   1       0.377   0.715  -0.404  0.00  0.00     0.034 A 
ATOM      7 Cl   UNL d   1      -0.334   0.225   2.136  0.00  0.00    -0.070 Cl
ATOM      8 Cl1  UNL d   1      -0.171  -2.911   1.278  0.00  0.00    -0.070 Cl
ENDROOT
TORSDOF 0
ENDMDL
