MODEL 1
REMARK minimizedAffinity -2.67309666
REMARK minimizedRMSD -1
REMARK  0 active torsions:
REMARK  status: ('A' for Active; 'I' for Inactive)
ROOT
ATOM      1  C   UNL d   1      -2.803   0.202   2.644  0.00  0.00     0.020 A 
ATOM      2  C1  UNL d   1      -3.179  -0.729   1.677  0.00  0.00     0.020 A 
ATOM      3  C2  UNL d   1      -2.279  -1.098   0.675  0.00  0.00     0.034 A 
ATOM      4  C3  UNL d   1      -0.998  -0.535   0.638  0.00  0.00     0.017 A 
ATOM      5  C4  UNL d   1      -0.621   0.399   1.609  0.00  0.00     0.017 A 
ATOM      6  C5  UNL d   1      -1.527   0.765   2.610  0.00  0.00     0.034 A 
ATOM      7 Cl   UNL d   1       0.942   1.137   1.629  0.00  0.00    -0.070 Cl
ATOM      8 Cl1  UNL d   1       0.064  -1.038  -0.629  0.00  0.00    -0.070 Cl
ENDROOT
TORSDOF 0
ENDMDL
