MODEL 1
REMARK minimizedAffinity -3.90863228
REMARK minimizedRMSD -1
REMARK  0 active torsions:
REMARK  status: ('A' for Active; 'I' for Inactive)
ROOT
ATOM      1  C   UNL d   1      -4.499   5.146  -5.624  0.00  0.00     0.020 A 
ATOM      2  C1  UNL d   1      -5.788   4.639  -5.784  0.00  0.00     0.020 A 
ATOM      3  C2  UNL d   1      -6.000   3.258  -5.780  0.00  0.00     0.034 A 
ATOM      4  C3  UNL d   1      -4.922   2.381  -5.616  0.00  0.00     0.017 A 
ATOM      5  C4  UNL d   1      -3.628   2.892  -5.456  0.00  0.00     0.017 A 
ATOM      6  C5  UNL d   1      -3.422   4.274  -5.460  0.00  0.00     0.034 A 
ATOM      7 Cl   UNL d   1      -2.248   1.872  -5.248  0.00  0.00    -0.070 Cl
ATOM      8 Cl1  UNL d   1      -5.257   0.686  -5.621  0.00  0.00    -0.070 Cl
ENDROOT
TORSDOF 0
ENDMDL
