MODEL 1
REMARK minimizedAffinity -2.83071041
REMARK minimizedRMSD -1
REMARK  0 active torsions:
REMARK  status: ('A' for Active; 'I' for Inactive)
ROOT
ATOM      1  C   UNL d   1       0.254   1.256   0.071  0.00  0.00     0.020 A 
ATOM      2  C1  UNL d   1      -0.297   0.252   0.866  0.00  0.00     0.020 A 
ATOM      3  C2  UNL d   1      -0.163  -1.087   0.492  0.00  0.00     0.034 A 
ATOM      4  C3  UNL d   1       0.523  -1.425  -0.680  0.00  0.00     0.017 A 
ATOM      5  C4  UNL d   1       1.075  -0.416  -1.478  0.00  0.00     0.017 A 
ATOM      6  C5  UNL d   1       0.938   0.923  -1.098  0.00  0.00     0.034 A 
ATOM      7 Cl   UNL d   1       1.935  -0.755  -2.938  0.00  0.00    -0.070 Cl
ATOM      8 Cl1  UNL d   1       0.650  -3.100  -1.082  0.00  0.00    -0.070 Cl
ENDROOT
TORSDOF 0
ENDMDL
