MODEL 1
REMARK minimizedAffinity 1.99631226
REMARK minimizedRMSD -1
REMARK  0 active torsions:
REMARK  status: ('A' for Active; 'I' for Inactive)
ROOT
ATOM      1  C   UNL d   1       2.322  -0.100  -1.302  0.00  0.00     0.020 A 
ATOM      2  C1  UNL d   1       1.108  -0.715  -0.998  0.00  0.00     0.020 A 
ATOM      3  C2  UNL d   1       0.395  -0.330   0.139  0.00  0.00     0.034 A 
ATOM      4  C3  UNL d   1       0.894   0.674   0.976  0.00  0.00     0.017 A 
ATOM      5  C4  UNL d   1       2.113   1.292   0.670  0.00  0.00     0.017 A 
ATOM      6  C5  UNL d   1       2.823   0.902  -0.469  0.00  0.00     0.034 A 
ATOM      7 Cl   UNL d   1       2.793   2.538   1.656  0.00  0.00    -0.070 Cl
ATOM      8 Cl1  UNL d   1      -0.040   1.101   2.365  0.00  0.00    -0.070 Cl
ENDROOT
TORSDOF 0
ENDMDL
