MODEL 1
REMARK minimizedAffinity -4.52725983
REMARK minimizedRMSD -1
REMARK  0 active torsions:
REMARK  status: ('A' for Active; 'I' for Inactive)
ROOT
ATOM      1  C   UNL d   1      -0.435   0.200   1.315  0.00  0.00     0.020 A 
ATOM      2  C1  UNL d   1       0.151   1.365   0.821  0.00  0.00     0.020 A 
ATOM      3  C2  UNL d   1       0.810   1.348  -0.410  0.00  0.00     0.034 A 
ATOM      4  C3  UNL d   1       0.886   0.163  -1.151  0.00  0.00     0.017 A 
ATOM      5  C4  UNL d   1       0.298  -1.006  -0.654  0.00  0.00     0.017 A 
ATOM      6  C5  UNL d   1      -0.361  -0.983   0.579  0.00  0.00     0.034 A 
ATOM      7 Cl   UNL d   1       0.350  -2.506  -1.511  0.00  0.00    -0.070 Cl
ATOM      8 Cl1  UNL d   1       1.716   0.213  -2.665  0.00  0.00    -0.070 Cl
ENDROOT
TORSDOF 0
ENDMDL
