MODEL 1
REMARK minimizedAffinity -1.46716046
REMARK minimizedRMSD -1
REMARK  0 active torsions:
REMARK  status: ('A' for Active; 'I' for Inactive)
ROOT
ATOM      1  C   UNL d   1      -2.036   4.501  -5.667  0.00  0.00     0.020 A 
ATOM      2  C1  UNL d   1      -1.888   3.115  -5.665  0.00  0.00     0.020 A 
ATOM      3  C2  UNL d   1      -3.012   2.292  -5.767  0.00  0.00     0.034 A 
ATOM      4  C3  UNL d   1      -4.289   2.855  -5.871  0.00  0.00     0.017 A 
ATOM      5  C4  UNL d   1      -4.437   4.247  -5.872  0.00  0.00     0.017 A 
ATOM      6  C5  UNL d   1      -3.308   5.066  -5.770  0.00  0.00     0.034 A 
ATOM      7 Cl   UNL d   1      -5.980   5.015  -5.997  0.00  0.00    -0.070 Cl
ATOM      8 Cl1  UNL d   1      -5.634   1.778  -5.994  0.00  0.00    -0.070 Cl
ENDROOT
TORSDOF 0
ENDMDL
