MODEL 1
REMARK minimizedAffinity -4.06334114
REMARK minimizedRMSD -1
REMARK  0 active torsions:
REMARK  status: ('A' for Active; 'I' for Inactive)
ROOT
ATOM      1  C   UNL d   1      -0.378   0.122   1.686  0.00  0.00     0.020 A 
ATOM      2  C1  UNL d   1       0.023   1.282   1.023  0.00  0.00     0.020 A 
ATOM      3  C2  UNL d   1       0.648   1.193  -0.222  0.00  0.00     0.034 A 
ATOM      4  C3  UNL d   1       0.874  -0.058  -0.809  0.00  0.00     0.017 A 
ATOM      5  C4  UNL d   1       0.471  -1.221  -0.142  0.00  0.00     0.017 A 
ATOM      6  C5  UNL d   1      -0.154  -1.126   1.105  0.00  0.00     0.034 A 
ATOM      7 Cl   UNL d   1       0.715  -2.799  -0.803  0.00  0.00    -0.070 Cl
ATOM      8 Cl1  UNL d   1       1.651  -0.093  -2.352  0.00  0.00    -0.070 Cl
ENDROOT
TORSDOF 0
ENDMDL
