MODEL 1
REMARK minimizedAffinity -1.45158947
REMARK minimizedRMSD -1
REMARK  0 active torsions:
REMARK  status: ('A' for Active; 'I' for Inactive)
ROOT
ATOM      1  C   UNL d   1      -4.752   4.997  -5.909  0.00  0.00     0.020 A 
ATOM      2  C1  UNL d   1      -3.389   5.092  -5.632  0.00  0.00     0.020 A 
ATOM      3  C2  UNL d   1      -2.632   3.934  -5.445  0.00  0.00     0.034 A 
ATOM      4  C3  UNL d   1      -3.237   2.675  -5.534  0.00  0.00     0.017 A 
ATOM      5  C4  UNL d   1      -4.605   2.580  -5.813  0.00  0.00     0.017 A 
ATOM      6  C5  UNL d   1      -5.359   3.743  -6.000  0.00  0.00     0.034 A 
ATOM      7 Cl   UNL d   1      -5.422   1.062  -5.939  0.00  0.00    -0.070 Cl
ATOM      8 Cl1  UNL d   1      -2.239   1.286  -5.292  0.00  0.00    -0.070 Cl
ENDROOT
TORSDOF 0
ENDMDL
