MODEL 1
REMARK minimizedAffinity -0.608991325
REMARK minimizedRMSD -1
REMARK  0 active torsions:
REMARK  status: ('A' for Active; 'I' for Inactive)
ROOT
ATOM      1  C   UNL d   1      -1.051   0.172   1.468  0.00  0.00     0.020 A 
ATOM      2  C1  UNL d   1      -0.366   1.376   1.306  0.00  0.00     0.020 A 
ATOM      3  C2  UNL d   1       0.636   1.484   0.340  0.00  0.00     0.034 A 
ATOM      4  C3  UNL d   1       0.956   0.387  -0.469  0.00  0.00     0.017 A 
ATOM      5  C4  UNL d   1       0.267  -0.820  -0.306  0.00  0.00     0.017 A 
ATOM      6  C5  UNL d   1      -0.735  -0.923   0.664  0.00  0.00     0.034 A 
ATOM      7 Cl   UNL d   1       0.606  -2.217  -1.266  0.00  0.00    -0.070 Cl
ATOM      8 Cl1  UNL d   1       2.206   0.593  -1.644  0.00  0.00    -0.070 Cl
ENDROOT
TORSDOF 0
ENDMDL
