MODEL 1
REMARK minimizedAffinity -4.68573666
REMARK minimizedRMSD -1
REMARK  0 active torsions:
REMARK  status: ('A' for Active; 'I' for Inactive)
ROOT
ATOM      1  C   UNL d   1      -0.771   1.163  -2.064  0.00  0.00     0.020 A 
ATOM      2  C1  UNL d   1       0.057   0.493  -2.964  0.00  0.00     0.020 A 
ATOM      3  C2  UNL d   1       1.389   0.238  -2.631  0.00  0.00     0.034 A 
ATOM      4  C3  UNL d   1       1.897   0.652  -1.395  0.00  0.00     0.017 A 
ATOM      5  C4  UNL d   1       1.066   1.324  -0.492  0.00  0.00     0.017 A 
ATOM      6  C5  UNL d   1      -0.267   1.577  -0.831  0.00  0.00     0.034 A 
ATOM      7 Cl   UNL d   1       1.621   1.867   1.053  0.00  0.00    -0.070 Cl
ATOM      8 Cl1  UNL d   1       3.554   0.303  -1.049  0.00  0.00    -0.070 Cl
ENDROOT
TORSDOF 0
ENDMDL
