MODEL 1
REMARK minimizedAffinity -3.69989967
REMARK minimizedRMSD -1
REMARK  0 active torsions:
REMARK  status: ('A' for Active; 'I' for Inactive)
ROOT
ATOM      1  C   UNL d   1       1.704   1.203  -1.817  0.00  0.00     0.020 A 
ATOM      2  C1  UNL d   1       1.203   1.791  -0.656  0.00  0.00     0.020 A 
ATOM      3  C2  UNL d   1       0.469   1.026   0.252  0.00  0.00     0.034 A 
ATOM      4  C3  UNL d   1       0.232  -0.330   0.001  0.00  0.00     0.017 A 
ATOM      5  C4  UNL d   1       0.735  -0.919  -1.165  0.00  0.00     0.017 A 
ATOM      6  C5  UNL d   1       1.470  -0.149  -2.071  0.00  0.00     0.034 A 
ATOM      7 Cl   UNL d   1       0.484  -2.587  -1.543  0.00  0.00    -0.070 Cl
ATOM      8 Cl1  UNL d   1      -0.684  -1.216   1.169  0.00  0.00    -0.070 Cl
ENDROOT
TORSDOF 0
ENDMDL
