MODEL 1
REMARK minimizedAffinity -5.3133297
REMARK minimizedRMSD -1
REMARK  0 active torsions:
REMARK  status: ('A' for Active; 'I' for Inactive)
ROOT
ATOM      1  C   UNL d   1       1.670  -1.911  -2.303  0.00  0.00     0.020 A 
ATOM      2  C1  UNL d   1       2.207  -0.670  -2.643  0.00  0.00     0.020 A 
ATOM      3  C2  UNL d   1       1.945   0.446  -1.847  0.00  0.00     0.034 A 
ATOM      4  C3  UNL d   1       1.145   0.324  -0.705  0.00  0.00     0.017 A 
ATOM      5  C4  UNL d   1       0.606  -0.922  -0.364  0.00  0.00     0.017 A 
ATOM      6  C5  UNL d   1       0.872  -2.036  -1.165  0.00  0.00     0.034 A 
ATOM      7 Cl   UNL d   1      -0.390  -1.150   1.030  0.00  0.00    -0.070 Cl
ATOM      8 Cl1  UNL d   1       0.863   1.747   0.234  0.00  0.00    -0.070 Cl
ENDROOT
TORSDOF 0
ENDMDL
