MODEL 1
REMARK minimizedAffinity -4.10381556
REMARK minimizedRMSD -1
REMARK  0 active torsions:
REMARK  status: ('A' for Active; 'I' for Inactive)
ROOT
ATOM      1  C   UNL d   1       1.320  -0.890  -2.393  0.00  0.00     0.020 A 
ATOM      2  C1  UNL d   1       2.351   0.030  -2.208  0.00  0.00     0.020 A 
ATOM      3  C2  UNL d   1       2.264   0.980  -1.189  0.00  0.00     0.034 A 
ATOM      4  C3  UNL d   1       1.144   1.012  -0.350  0.00  0.00     0.017 A 
ATOM      5  C4  UNL d   1       0.110   0.087  -0.536  0.00  0.00     0.017 A 
ATOM      6  C5  UNL d   1       0.202  -0.862  -1.558  0.00  0.00     0.034 A 
ATOM      7 Cl   UNL d   1      -1.303   0.064   0.460  0.00  0.00    -0.070 Cl
ATOM      8 Cl1  UNL d   1       1.104   2.214   0.891  0.00  0.00    -0.070 Cl
ENDROOT
TORSDOF 0
ENDMDL
