MODEL 1
REMARK minimizedAffinity -2.3263917
REMARK minimizedRMSD -1
REMARK  1 active torsions:
REMARK  status: ('A' for Active; 'I' for Inactive)
REMARK    1  A    between atoms: N_2  and  C1_3 
ROOT
ATOM      1  C1  UNL d   1       0.007  -0.463  -0.316  0.00  0.00     0.143 A 
ATOM      2  C2  UNL d   1       0.560  -0.731   0.941  0.00  0.00    -0.057 A 
ATOM      3  C3  UNL d   1       0.378   0.147   2.016  0.00  0.00     0.033 A 
ATOM      4  C4  UNL d   1      -0.338   1.327   1.845  0.00  0.00    -0.042 A 
ATOM      5  C5  UNL d   1      -0.876   1.626   0.598  0.00  0.00     0.033 A 
ATOM      6  C6  UNL d   1      -0.696   0.742  -0.470  0.00  0.00    -0.057 A 
ENDROOT
BRANCH   1   7
ATOM      7  N   UNL d   1       0.235  -1.248  -1.449  0.00  0.00    -0.732 N 
ATOM      8  C   UNL d   1       0.010  -2.677  -1.414  0.00  0.00     0.284 C 
ATOM      9  H3  UNL d   1      -0.084  -0.798  -2.304  0.00  0.00     0.395 HD
ENDBRANCH   1   7
TORSDOF 1
ENDMDL
