MODEL 1
REMARK minimizedAffinity 3.98994493
REMARK minimizedRMSD -1
REMARK  1 active torsions:
REMARK  status: ('A' for Active; 'I' for Inactive)
REMARK    1  A    between atoms: N_2  and  C1_3 
ROOT
ATOM      1  C1  UNL d   1      -2.699   0.097  -2.068  0.00  0.00     0.143 A 
ATOM      2  C2  UNL d   1      -3.689  -0.687  -2.670  0.00  0.00    -0.057 A 
ATOM      3  C3  UNL d   1      -5.023  -0.265  -2.713  0.00  0.00     0.033 A 
ATOM      4  C4  UNL d   1      -5.397   0.940  -2.128  0.00  0.00    -0.042 A 
ATOM      5  C5  UNL d   1      -4.435   1.725  -1.503  0.00  0.00     0.033 A 
ATOM      6  C6  UNL d   1      -3.103   1.301  -1.469  0.00  0.00    -0.057 A 
ENDROOT
BRANCH   1   7
ATOM      7  N   UNL d   1      -1.373  -0.313  -1.906  0.00  0.00    -0.732 N 
ATOM      8  C   UNL d   1      -0.459   0.456  -1.088  0.00  0.00     0.284 C 
ATOM      9  H3  UNL d   1      -1.290  -1.320  -1.789  0.00  0.00     0.395 HD
ENDBRANCH   1   7
TORSDOF 1
ENDMDL
