MODEL 1
REMARK minimizedAffinity -1.74006176
REMARK minimizedRMSD -1
REMARK  1 active torsions:
REMARK  status: ('A' for Active; 'I' for Inactive)
REMARK    1  A    between atoms: N_2  and  C1_3 
ROOT
ATOM      1  C1  UNL d   1       0.330   1.777   1.308  0.00  0.00     0.143 A 
ATOM      2  C2  UNL d   1       0.698   2.991   1.897  0.00  0.00    -0.057 A 
ATOM      3  C3  UNL d   1       0.775   4.170   1.145  0.00  0.00     0.033 A 
ATOM      4  C4  UNL d   1       0.514   4.148  -0.221  0.00  0.00    -0.042 A 
ATOM      5  C5  UNL d   1       0.171   2.948  -0.833  0.00  0.00     0.033 A 
ATOM      6  C6  UNL d   1       0.088   1.776  -0.075  0.00  0.00    -0.057 A 
ENDROOT
BRANCH   1   7
ATOM      7  N   UNL d   1       0.331   0.553   1.981  0.00  0.00    -0.732 N 
ATOM      8  C   UNL d   1       1.175  -0.534   1.535  0.00  0.00     0.284 C 
ATOM      9  H3  UNL d   1       0.298   0.666   2.992  0.00  0.00     0.395 HD
ENDBRANCH   1   7
TORSDOF 1
ENDMDL
