MODEL 1
REMARK minimizedAffinity 11.5550251
REMARK minimizedRMSD -1
REMARK  0 active torsions:
REMARK  status: ('A' for Active; 'I' for Inactive)
ROOT
ATOM      1  C   UNL d   1       1.397   3.598  -0.099  0.00  0.00     0.124 A 
ATOM      2  C1  UNL d   1       0.472   2.717  -0.642  0.00  0.00     0.062 A 
ATOM      3  C2  UNL d   1       0.697   1.345  -0.589  0.00  0.00     0.162 A 
ATOM      4  C3  UNL d   1       1.852   0.844   0.011  0.00  0.00    -0.034 A 
ATOM      5  C4  UNL d   1       2.778   1.735   0.554  0.00  0.00     0.162 A 
ATOM      6  C5  UNL d   1       2.549   3.106   0.498  0.00  0.00     0.062 A 
ATOM      7  F   UNL d   1       3.444   3.955   1.024  0.00  0.00    -0.097 F 
ATOM      8  F1  UNL d   1       3.900   1.287   1.138  0.00  0.00    -0.096 F 
ATOM      9  I   UNL d   1       2.192  -1.208   0.092  0.00  0.00    -0.060 I 
ATOM     10  F2  UNL d   1      -0.215   0.517  -1.122  0.00  0.00    -0.096 F 
ATOM     11  F3  UNL d   1      -0.642   3.190  -1.221  0.00  0.00    -0.097 F 
ATOM     12  F4  UNL d   1       1.179   4.918  -0.152  0.00  0.00    -0.092 F 
ENDROOT
TORSDOF 0
ENDMDL
