MODEL 1
REMARK minimizedAffinity 10.7724876
REMARK minimizedRMSD -1
REMARK  0 active torsions:
REMARK  status: ('A' for Active; 'I' for Inactive)
ROOT
ATOM      1  C   UNL d   1      -3.436   3.278  -4.326  0.00  0.00     0.124 A 
ATOM      2  C1  UNL d   1      -4.622   2.565  -4.422  0.00  0.00     0.062 A 
ATOM      3  C2  UNL d   1      -4.843   1.460  -3.605  0.00  0.00     0.162 A 
ATOM      4  C3  UNL d   1      -3.876   1.063  -2.682  0.00  0.00    -0.034 A 
ATOM      5  C4  UNL d   1      -2.684   1.785  -2.591  0.00  0.00     0.162 A 
ATOM      6  C5  UNL d   1      -2.468   2.888  -3.411  0.00  0.00     0.062 A 
ATOM      7  F   UNL d   1      -1.321   3.576  -3.316  0.00  0.00    -0.097 F 
ATOM      8  F1  UNL d   1      -1.733   1.430  -1.715  0.00  0.00    -0.096 F 
ATOM      9  I   UNL d   1      -4.202  -0.588  -1.458  0.00  0.00    -0.060 I 
ATOM     10  F2  UNL d   1      -5.999   0.789  -3.719  0.00  0.00    -0.096 F 
ATOM     11  F3  UNL d   1      -5.558   2.939  -5.306  0.00  0.00    -0.097 F 
ATOM     12  F4  UNL d   1      -3.225   4.340  -5.114  0.00  0.00    -0.092 F 
ENDROOT
TORSDOF 0
ENDMDL
