MODEL 1
REMARK minimizedAffinity 5.85289764
REMARK minimizedRMSD -1
REMARK  0 active torsions:
REMARK  status: ('A' for Active; 'I' for Inactive)
ROOT
ATOM      1  C   UNL d   1      -3.564   1.249  -4.314  0.00  0.00     0.124 A 
ATOM      2  C1  UNL d   1      -3.141   0.111  -3.641  0.00  0.00     0.062 A 
ATOM      3  C2  UNL d   1      -3.680  -0.209  -2.399  0.00  0.00     0.162 A 
ATOM      4  C3  UNL d   1      -4.650   0.610  -1.820  0.00  0.00    -0.034 A 
ATOM      5  C4  UNL d   1      -5.070   1.754  -2.502  0.00  0.00     0.162 A 
ATOM      6  C5  UNL d   1      -4.528   2.069  -3.744  0.00  0.00     0.062 A 
ATOM      7  F   UNL d   1      -4.938   3.169  -4.393  0.00  0.00    -0.097 F 
ATOM      8  F1  UNL d   1      -6.000   2.564  -1.975  0.00  0.00    -0.096 F 
ATOM      9  I   UNL d   1      -5.458   0.136   0.038  0.00  0.00    -0.060 I 
ATOM     10  F2  UNL d   1      -3.253  -1.315  -1.771  0.00  0.00    -0.096 F 
ATOM     11  F3  UNL d   1      -2.210  -0.683  -4.190  0.00  0.00    -0.097 F 
ATOM     12  F4  UNL d   1      -3.044   1.554  -5.509  0.00  0.00    -0.092 F 
ENDROOT
TORSDOF 0
ENDMDL
