MODEL 1
REMARK minimizedAffinity 9.09472084
REMARK minimizedRMSD -1
REMARK  0 active torsions:
REMARK  status: ('A' for Active; 'I' for Inactive)
ROOT
ATOM      1  C   UNL d   1       4.516   1.161  -0.436  0.00  0.00     0.124 A 
ATOM      2  C1  UNL d   1       4.788   2.007   0.630  0.00  0.00     0.062 A 
ATOM      3  C2  UNL d   1       3.808   2.270   1.583  0.00  0.00     0.162 A 
ATOM      4  C3  UNL d   1       2.546   1.685   1.475  0.00  0.00    -0.034 A 
ATOM      5  C4  UNL d   1       2.280   0.835   0.400  0.00  0.00     0.162 A 
ATOM      6  C5  UNL d   1       3.263   0.576  -0.550  0.00  0.00     0.062 A 
ATOM      7  F   UNL d   1       2.998  -0.242  -1.579  0.00  0.00    -0.097 F 
ATOM      8  F1  UNL d   1       1.078   0.256   0.265  0.00  0.00    -0.096 F 
ATOM      9  I   UNL d   1       1.078   2.075   2.898  0.00  0.00    -0.060 I 
ATOM     10  F2  UNL d   1       4.098   3.092   2.603  0.00  0.00    -0.096 F 
ATOM     11  F3  UNL d   1       5.998   2.575   0.742  0.00  0.00    -0.097 F 
ATOM     12  F4  UNL d   1       5.461   0.911  -1.352  0.00  0.00    -0.092 F 
ENDROOT
TORSDOF 0
ENDMDL
