MODEL 1
REMARK minimizedAffinity 14.7805967
REMARK minimizedRMSD -1
REMARK  0 active torsions:
REMARK  status: ('A' for Active; 'I' for Inactive)
ROOT
ATOM      1  C   UNL d   1       3.737   2.239  -0.468  0.00  0.00     0.124 A 
ATOM      2  C1  UNL d   1       2.400   1.869  -0.503  0.00  0.00     0.062 A 
ATOM      3  C2  UNL d   1       2.030   0.553  -0.243  0.00  0.00     0.162 A 
ATOM      4  C3  UNL d   1       2.999  -0.404   0.056  0.00  0.00    -0.034 A 
ATOM      5  C4  UNL d   1       4.342  -0.026   0.089  0.00  0.00     0.162 A 
ATOM      6  C5  UNL d   1       4.707   1.291  -0.172  0.00  0.00     0.062 A 
ATOM      7  F   UNL d   1       6.000   1.646  -0.138  0.00  0.00    -0.097 F 
ATOM      8  F1  UNL d   1       5.300  -0.921   0.372  0.00  0.00    -0.096 F 
ATOM      9  I   UNL d   1       2.450  -2.374   0.445  0.00  0.00    -0.060 I 
ATOM     10  F2  UNL d   1       0.730   0.224  -0.284  0.00  0.00    -0.096 F 
ATOM     11  F3  UNL d   1       1.461   2.783  -0.789  0.00  0.00    -0.097 F 
ATOM     12  F4  UNL d   1       4.090   3.506  -0.719  0.00  0.00    -0.092 F 
ENDROOT
TORSDOF 0
ENDMDL
