MODEL 1
REMARK minimizedAffinity 8.49098778
REMARK minimizedRMSD -1
REMARK  0 active torsions:
REMARK  status: ('A' for Active; 'I' for Inactive)
ROOT
ATOM      1  C   UNL d   1      -2.455   2.941  -2.733  0.00  0.00     0.124 A 
ATOM      2  C1  UNL d   1      -3.747   3.421  -2.891  0.00  0.00     0.062 A 
ATOM      3  C2  UNL d   1      -4.760   2.574  -3.331  0.00  0.00     0.162 A 
ATOM      4  C3  UNL d   1      -4.484   1.237  -3.616  0.00  0.00    -0.034 A 
ATOM      5  C4  UNL d   1      -3.182   0.761  -3.455  0.00  0.00     0.162 A 
ATOM      6  C5  UNL d   1      -2.173   1.612  -3.015  0.00  0.00     0.062 A 
ATOM      7  F   UNL d   1      -0.925   1.146  -2.862  0.00  0.00    -0.097 F 
ATOM      8  F1  UNL d   1      -2.882  -0.520  -3.719  0.00  0.00    -0.096 F 
ATOM      9  I   UNL d   1      -5.996  -0.034  -4.274  0.00  0.00    -0.060 I 
ATOM     10  F2  UNL d   1      -6.000   3.066  -3.475  0.00  0.00    -0.096 F 
ATOM     11  F3  UNL d   1      -4.021   4.706  -2.621  0.00  0.00    -0.097 F 
ATOM     12  F4  UNL d   1      -1.482   3.759  -2.310  0.00  0.00    -0.092 F 
ENDROOT
TORSDOF 0
ENDMDL
