MODEL 1
REMARK minimizedAffinity 17.3266106
REMARK minimizedRMSD -1
REMARK  0 active torsions:
REMARK  status: ('A' for Active; 'I' for Inactive)
ROOT
ATOM      1  C   UNL d   1      -3.709   0.123  -3.643  0.00  0.00     0.124 A 
ATOM      2  C1  UNL d   1      -4.367  -0.566  -2.633  0.00  0.00     0.062 A 
ATOM      3  C2  UNL d   1      -5.022   0.132  -1.622  0.00  0.00     0.162 A 
ATOM      4  C3  UNL d   1      -5.022   1.527  -1.616  0.00  0.00    -0.034 A 
ATOM      5  C4  UNL d   1      -4.357   2.212  -2.634  0.00  0.00     0.162 A 
ATOM      6  C5  UNL d   1      -3.705   1.511  -3.643  0.00  0.00     0.062 A 
ATOM      7  F   UNL d   1      -3.069   2.177  -4.617  0.00  0.00    -0.097 F 
ATOM      8  F1  UNL d   1      -4.338   3.553  -2.659  0.00  0.00    -0.096 F 
ATOM      9  I   UNL d   1      -6.000   2.573  -0.106  0.00  0.00    -0.060 I 
ATOM     10  F2  UNL d   1      -5.650  -0.559  -0.659  0.00  0.00    -0.096 F 
ATOM     11  F3  UNL d   1      -4.372  -1.906  -2.631  0.00  0.00    -0.097 F 
ATOM     12  F4  UNL d   1      -3.079  -0.551  -4.614  0.00  0.00    -0.092 F 
ENDROOT
TORSDOF 0
ENDMDL
