MODEL 1
REMARK minimizedAffinity 12.8351154
REMARK minimizedRMSD -1
REMARK  0 active torsions:
REMARK  status: ('A' for Active; 'I' for Inactive)
ROOT
ATOM      1  C   UNL d   1       1.489   1.291   1.741  0.00  0.00     0.124 A 
ATOM      2  C1  UNL d   1       2.313   1.943   2.648  0.00  0.00     0.062 A 
ATOM      3  C2  UNL d   1       3.572   2.389   2.255  0.00  0.00     0.162 A 
ATOM      4  C3  UNL d   1       4.014   2.186   0.948  0.00  0.00    -0.034 A 
ATOM      5  C4  UNL d   1       3.179   1.529   0.042  0.00  0.00     0.162 A 
ATOM      6  C5  UNL d   1       1.923   1.085   0.439  0.00  0.00     0.062 A 
ATOM      7  F   UNL d   1       1.128   0.456  -0.438  0.00  0.00    -0.097 F 
ATOM      8  F1  UNL d   1       3.573   1.317  -1.223  0.00  0.00    -0.096 F 
ATOM      9  I   UNL d   1       5.895   2.852   0.356  0.00  0.00    -0.060 I 
ATOM     10  F2  UNL d   1       4.347   3.016   3.153  0.00  0.00    -0.096 F 
ATOM     11  F3  UNL d   1       1.897   2.143   3.907  0.00  0.00    -0.097 F 
ATOM     12  F4  UNL d   1       0.279   0.862   2.123  0.00  0.00    -0.092 F 
ENDROOT
TORSDOF 0
ENDMDL
