MODEL 1
REMARK minimizedAffinity 12.7196007
REMARK minimizedRMSD -1
REMARK  0 active torsions:
REMARK  status: ('A' for Active; 'I' for Inactive)
ROOT
ATOM      1  C   UNL d   1      -5.085   1.716  -1.614  0.00  0.00     0.124 A 
ATOM      2  C1  UNL d   1      -5.046   0.335  -1.751  0.00  0.00     0.062 A 
ATOM      3  C2  UNL d   1      -4.097  -0.260  -2.577  0.00  0.00     0.162 A 
ATOM      4  C3  UNL d   1      -3.178   0.525  -3.273  0.00  0.00    -0.034 A 
ATOM      5  C4  UNL d   1      -3.224   1.913  -3.132  0.00  0.00     0.162 A 
ATOM      6  C5  UNL d   1      -4.174   2.503  -2.305  0.00  0.00     0.062 A 
ATOM      7  F   UNL d   1      -4.210   3.837  -2.175  0.00  0.00    -0.097 F 
ATOM      8  F1  UNL d   1      -2.355   2.697  -3.786  0.00  0.00    -0.096 F 
ATOM      9  I   UNL d   1      -1.758  -0.362  -4.509  0.00  0.00    -0.060 I 
ATOM     10  F2  UNL d   1      -4.083  -1.597  -2.689  0.00  0.00    -0.096 F 
ATOM     11  F3  UNL d   1      -5.925  -0.427  -1.085  0.00  0.00    -0.097 F 
ATOM     12  F4  UNL d   1      -5.999   2.287  -0.820  0.00  0.00    -0.092 F 
ENDROOT
TORSDOF 0
ENDMDL
