MODEL 1
REMARK minimizedAffinity 14.0175571
REMARK minimizedRMSD -1
REMARK  0 active torsions:
REMARK  status: ('A' for Active; 'I' for Inactive)
ROOT
ATOM      1  C   UNL d   1      -2.885   2.676  -2.683  0.00  0.00     0.124 A 
ATOM      2  C1  UNL d   1      -3.983   3.262  -3.298  0.00  0.00     0.062 A 
ATOM      3  C2  UNL d   1      -4.873   2.484  -4.032  0.00  0.00     0.162 A 
ATOM      4  C3  UNL d   1      -4.671   1.109  -4.154  0.00  0.00    -0.034 A 
ATOM      5  C4  UNL d   1      -3.564   0.526  -3.533  0.00  0.00     0.162 A 
ATOM      6  C5  UNL d   1      -2.677   1.309  -2.801  0.00  0.00     0.062 A 
ATOM      7  F   UNL d   1      -1.618   0.740  -2.207  0.00  0.00    -0.097 F 
ATOM      8  F1  UNL d   1      -3.340  -0.793  -3.630  0.00  0.00    -0.096 F 
ATOM      9  I   UNL d   1      -6.000  -0.059  -5.250  0.00  0.00    -0.060 I 
ATOM     10  F2  UNL d   1      -5.925   3.077  -4.616  0.00  0.00    -0.096 F 
ATOM     11  F3  UNL d   1      -4.185   4.583  -3.187  0.00  0.00    -0.097 F 
ATOM     12  F4  UNL d   1      -2.030   3.427  -1.979  0.00  0.00    -0.092 F 
ENDROOT
TORSDOF 0
ENDMDL
