MODEL 1
REMARK minimizedAffinity 11.6869631
REMARK minimizedRMSD -1
REMARK  0 active torsions:
REMARK  status: ('A' for Active; 'I' for Inactive)
ROOT
ATOM      1  C   UNL d   1       1.865   1.374   2.186  0.00  0.00     0.124 A 
ATOM      2  C1  UNL d   1       2.736   2.033   3.043  0.00  0.00     0.062 A 
ATOM      3  C2  UNL d   1       3.917   2.584   2.554  0.00  0.00     0.162 A 
ATOM      4  C3  UNL d   1       4.234   2.480   1.199  0.00  0.00    -0.034 A 
ATOM      5  C4  UNL d   1       3.353   1.815   0.344  0.00  0.00     0.162 A 
ATOM      6  C5  UNL d   1       2.175   1.266   0.838  0.00  0.00     0.062 A 
ATOM      7  F   UNL d   1       1.335   0.630   0.008  0.00  0.00    -0.097 F 
ATOM      8  F1  UNL d   1       3.627   1.697  -0.964  0.00  0.00    -0.096 F 
ATOM      9  I   UNL d   1       5.998   3.303   0.464  0.00  0.00    -0.060 I 
ATOM     10  F2  UNL d   1       4.739   3.215   3.405  0.00  0.00    -0.096 F 
ATOM     11  F3  UNL d   1       2.440   2.138   4.347  0.00  0.00    -0.097 F 
ATOM     12  F4  UNL d   1       0.731   0.844   2.660  0.00  0.00    -0.092 F 
ENDROOT
TORSDOF 0
ENDMDL
