MODEL 1
REMARK minimizedAffinity 1.6076113
REMARK minimizedRMSD -1
REMARK  0 active torsions:
REMARK  status: ('A' for Active; 'I' for Inactive)
ROOT
ATOM      1  C   UNL d   1      -4.085   2.099  -0.611  0.00  0.00     0.077 C 
ATOM      2  C1  UNL d   1      -2.916   1.564   0.161  0.00  0.00    -0.074 A 
ATOM      3  C2  UNL d   1      -3.071   0.501   1.056  0.00  0.00    -0.005 A 
ATOM      4  C3  UNL d   1      -1.972   0.008   1.760  0.00  0.00     0.006 A 
ATOM      5  C4  UNL d   1      -0.709   0.572   1.576  0.00  0.00    -0.005 A 
ATOM      6  C5  UNL d   1      -0.535   1.636   0.685  0.00  0.00    -0.074 A 
ATOM      7  C6  UNL d   1       0.817   2.248   0.468  0.00  0.00     0.077 C 
ATOM      8  C7  UNL d   1      -1.642   2.121  -0.024  0.00  0.00    -0.001 A 
ENDROOT
TORSDOF 0
ENDMDL
