MODEL 1
REMARK minimizedAffinity 1.60571194
REMARK minimizedRMSD -1
REMARK  0 active torsions:
REMARK  status: ('A' for Active; 'I' for Inactive)
ROOT
ATOM      1  C   UNL d   1       1.061   2.706   0.379  0.00  0.00     0.077 C 
ATOM      2  C1  UNL d   1      -0.143   1.817   0.472  0.00  0.00    -0.074 A 
ATOM      3  C2  UNL d   1      -0.070   0.571   1.102  0.00  0.00    -0.005 A 
ATOM      4  C3  UNL d   1      -1.200  -0.241   1.190  0.00  0.00     0.006 A 
ATOM      5  C4  UNL d   1      -2.415   0.185   0.649  0.00  0.00    -0.005 A 
ATOM      6  C5  UNL d   1      -2.508   1.428   0.017  0.00  0.00    -0.074 A 
ATOM      7  C6  UNL d   1      -3.807   1.905  -0.561  0.00  0.00     0.077 C 
ATOM      8  C7  UNL d   1      -1.369   2.241  -0.061  0.00  0.00    -0.001 A 
ENDROOT
TORSDOF 0
ENDMDL
