MODEL 1
REMARK minimizedAffinity 2.02826238
REMARK minimizedRMSD -1
REMARK  0 active torsions:
REMARK  status: ('A' for Active; 'I' for Inactive)
ROOT
ATOM      1  C   UNL d   1      -4.173  -0.394   1.231  0.00  0.00     0.077 C 
ATOM      2  C1  UNL d   1      -3.094   0.600   0.915  0.00  0.00    -0.074 A 
ATOM      3  C2  UNL d   1      -3.363   1.730   0.137  0.00  0.00    -0.005 A 
ATOM      4  C3  UNL d   1      -2.352   2.650  -0.141  0.00  0.00     0.006 A 
ATOM      5  C4  UNL d   1      -1.064   2.449   0.356  0.00  0.00    -0.005 A 
ATOM      6  C5  UNL d   1      -0.776   1.325   1.137  0.00  0.00    -0.074 A 
ATOM      7  C6  UNL d   1       0.601   1.099   1.687  0.00  0.00     0.077 C 
ATOM      8  C7  UNL d   1      -1.799   0.409   1.417  0.00  0.00    -0.001 A 
ENDROOT
TORSDOF 0
ENDMDL
