MODEL 1
REMARK minimizedAffinity -5.05000448
REMARK minimizedRMSD -1
REMARK  0 active torsions:
REMARK  status: ('A' for Active; 'I' for Inactive)
ROOT
ATOM      1  C   UNL d   1      -4.112   2.509  -0.436  0.00  0.00     0.077 C 
ATOM      2  C1  UNL d   1      -2.866   1.803   0.011  0.00  0.00    -0.074 A 
ATOM      3  C2  UNL d   1      -2.937   0.657   0.810  0.00  0.00    -0.005 A 
ATOM      4  C3  UNL d   1      -1.770   0.005   1.210  0.00  0.00     0.006 A 
ATOM      5  C4  UNL d   1      -0.523   0.493   0.816  0.00  0.00    -0.005 A 
ATOM      6  C5  UNL d   1      -0.433   1.637   0.017  0.00  0.00    -0.074 A 
ATOM      7  C6  UNL d   1       0.899   2.168  -0.423  0.00  0.00     0.077 C 
ATOM      8  C7  UNL d   1      -1.610   2.282  -0.386  0.00  0.00    -0.001 A 
ENDROOT
TORSDOF 0
ENDMDL
