MODEL 1
REMARK minimizedAffinity 2.77767038
REMARK minimizedRMSD -1
REMARK  0 active torsions:
REMARK  status: ('A' for Active; 'I' for Inactive)
ROOT
ATOM      1  C   UNL d   1       5.294   5.999   4.785  0.00  0.00     0.077 C 
ATOM      2  C1  UNL d   1       4.751   5.507   3.476  0.00  0.00    -0.074 A 
ATOM      3  C2  UNL d   1       5.243   6.000   2.263  0.00  0.00    -0.005 A 
ATOM      4  C3  UNL d   1       4.734   5.526   1.054  0.00  0.00     0.006 A 
ATOM      5  C4  UNL d   1       3.730   4.557   1.045  0.00  0.00    -0.005 A 
ATOM      6  C5  UNL d   1       3.227   4.052   2.248  0.00  0.00    -0.074 A 
ATOM      7  C6  UNL d   1       2.155   3.003   2.257  0.00  0.00     0.077 C 
ATOM      8  C7  UNL d   1       3.748   4.528   3.459  0.00  0.00    -0.001 A 
ENDROOT
TORSDOF 0
ENDMDL
