MODEL 1
REMARK minimizedAffinity 3.79544497
REMARK minimizedRMSD -1
REMARK  0 active torsions:
REMARK  status: ('A' for Active; 'I' for Inactive)
ROOT
ATOM      1  C   UNL d   1      -0.422  -4.835   2.911  0.00  0.00     0.077 C 
ATOM      2  C1  UNL d   1      -1.276  -3.896   2.111  0.00  0.00    -0.074 A 
ATOM      3  C2  UNL d   1      -1.505  -2.586   2.545  0.00  0.00    -0.005 A 
ATOM      4  C3  UNL d   1      -2.293  -1.721   1.787  0.00  0.00     0.006 A 
ATOM      5  C4  UNL d   1      -2.860  -2.156   0.588  0.00  0.00    -0.005 A 
ATOM      6  C5  UNL d   1      -2.641  -3.462   0.137  0.00  0.00    -0.074 A 
ATOM      7  C6  UNL d   1      -3.234  -3.942  -1.154  0.00  0.00     0.077 C 
ATOM      8  C7  UNL d   1      -1.842  -4.323   0.902  0.00  0.00    -0.001 A 
ENDROOT
TORSDOF 0
ENDMDL
