MODEL 1
REMARK minimizedAffinity 1.6840632
REMARK minimizedRMSD -1
REMARK  0 active torsions:
REMARK  status: ('A' for Active; 'I' for Inactive)
ROOT
ATOM      1  C   UNL d   1       1.877   0.471   0.344  0.00  0.00     0.077 C 
ATOM      2  C1  UNL d   1       1.579   1.451   1.440  0.00  0.00    -0.074 A 
ATOM      3  C2  UNL d   1       2.612   2.047   2.171  0.00  0.00    -0.005 A 
ATOM      4  C3  UNL d   1       2.320   2.964   3.181  0.00  0.00     0.006 A 
ATOM      5  C4  UNL d   1       0.995   3.294   3.469  0.00  0.00    -0.005 A 
ATOM      6  C5  UNL d   1      -0.050   2.709   2.747  0.00  0.00    -0.074 A 
ATOM      7  C6  UNL d   1      -1.479   3.061   3.037  0.00  0.00     0.077 C 
ATOM      8  C7  UNL d   1       0.251   1.794   1.730  0.00  0.00    -0.001 A 
ENDROOT
TORSDOF 0
ENDMDL
