MODEL 1
REMARK minimizedAffinity 3.25064898
REMARK minimizedRMSD -1
REMARK  0 active torsions:
REMARK  status: ('A' for Active; 'I' for Inactive)
ROOT
ATOM      1  C   UNL d   1       1.124   0.908   0.176  0.00  0.00     0.077 C 
ATOM      2  C1  UNL d   1       0.934   1.769   1.389  0.00  0.00    -0.074 A 
ATOM      3  C2  UNL d   1       2.033   2.240   2.115  0.00  0.00    -0.005 A 
ATOM      4  C3  UNL d   1       1.842   3.048   3.236  0.00  0.00     0.006 A 
ATOM      5  C4  UNL d   1       0.552   3.393   3.641  0.00  0.00    -0.005 A 
ATOM      6  C5  UNL d   1      -0.559   2.933   2.927  0.00  0.00    -0.074 A 
ATOM      7  C6  UNL d   1      -1.952   3.303   3.343  0.00  0.00     0.077 C 
ATOM      8  C7  UNL d   1      -0.358   2.127   1.798  0.00  0.00    -0.001 A 
ENDROOT
TORSDOF 0
ENDMDL
