MODEL 1
REMARK minimizedAffinity 2.77594757
REMARK minimizedRMSD -1
REMARK  0 active torsions:
REMARK  status: ('A' for Active; 'I' for Inactive)
ROOT
ATOM      1  C   UNL d   1      -1.996   3.186   2.908  0.00  0.00     0.077 C 
ATOM      2  C1  UNL d   1      -0.581   2.806   2.588  0.00  0.00    -0.074 A 
ATOM      3  C2  UNL d   1       0.486   3.306   3.341  0.00  0.00    -0.005 A 
ATOM      4  C3  UNL d   1       1.796   2.936   3.037  0.00  0.00     0.006 A 
ATOM      5  C4  UNL d   1       2.052   2.064   1.979  0.00  0.00    -0.005 A 
ATOM      6  C5  UNL d   1       0.998   1.553   1.215  0.00  0.00    -0.074 A 
ATOM      7  C6  UNL d   1       1.256   0.607   0.080  0.00  0.00     0.077 C 
ATOM      8  C7  UNL d   1      -0.316   1.924   1.531  0.00  0.00    -0.001 A 
ENDROOT
TORSDOF 0
ENDMDL
