MODEL 1
REMARK minimizedAffinity 3.43361115
REMARK minimizedRMSD -1
REMARK  0 active torsions:
REMARK  status: ('A' for Active; 'I' for Inactive)
ROOT
ATOM      1  C   UNL d   1       3.899   5.999   3.797  0.00  0.00     0.077 C 
ATOM      2  C1  UNL d   1       2.815   5.494   2.892  0.00  0.00    -0.074 A 
ATOM      3  C2  UNL d   1       2.666   5.999   1.597  0.00  0.00    -0.005 A 
ATOM      4  C3  UNL d   1       1.658   5.513   0.764  0.00  0.00     0.006 A 
ATOM      5  C4  UNL d   1       0.791   4.518   1.217  0.00  0.00    -0.005 A 
ATOM      6  C5  UNL d   1       0.926   4.000   2.509  0.00  0.00    -0.074 A 
ATOM      7  C6  UNL d   1       0.008   2.923   3.009  0.00  0.00     0.077 C 
ATOM      8  C7  UNL d   1       1.945   4.489   3.338  0.00  0.00    -0.001 A 
ENDROOT
TORSDOF 0
ENDMDL
