MODEL 1
REMARK minimizedAffinity 6.93679667
REMARK minimizedRMSD -1
REMARK  0 active torsions:
REMARK  status: ('A' for Active; 'I' for Inactive)
ROOT
ATOM      1  C   UNL d   1      -0.464   1.502   0.775  0.00  0.00     0.077 C 
ATOM      2  C1  UNL d   1       0.662   1.416  -0.213  0.00  0.00    -0.074 A 
ATOM      3  C2  UNL d   1       1.922   0.947   0.172  0.00  0.00    -0.005 A 
ATOM      4  C3  UNL d   1       2.956   0.864  -0.760  0.00  0.00     0.006 A 
ATOM      5  C4  UNL d   1       2.741   1.248  -2.084  0.00  0.00    -0.005 A 
ATOM      6  C5  UNL d   1       1.488   1.719  -2.488  0.00  0.00    -0.074 A 
ATOM      7  C6  UNL d   1       1.237   2.127  -3.909  0.00  0.00     0.077 C 
ATOM      8  C7  UNL d   1       0.451   1.793  -1.547  0.00  0.00    -0.001 A 
ENDROOT
TORSDOF 0
ENDMDL
