MODEL 1
REMARK minimizedAffinity -3.62739515
REMARK minimizedRMSD -1
REMARK  0 active torsions:
REMARK  status: ('A' for Active; 'I' for Inactive)
ROOT
ATOM      1  C   UNL d   1       2.605   0.605   0.584  0.00  0.00     0.077 C 
ATOM      2  C1  UNL d   1       1.230   0.992   1.041  0.00  0.00    -0.074 A 
ATOM      3  C2  UNL d   1       1.051   1.869   2.116  0.00  0.00    -0.005 A 
ATOM      4  C3  UNL d   1      -0.234   2.228   2.525  0.00  0.00     0.006 A 
ATOM      5  C4  UNL d   1      -1.350   1.714   1.863  0.00  0.00    -0.005 A 
ATOM      6  C5  UNL d   1      -1.190   0.837   0.786  0.00  0.00    -0.074 A 
ATOM      7  C6  UNL d   1      -2.379   0.285   0.058  0.00  0.00     0.077 C 
ATOM      8  C7  UNL d   1       0.104   0.487   0.377  0.00  0.00    -0.001 A 
ENDROOT
TORSDOF 0
ENDMDL
