MODEL 1
REMARK minimizedAffinity 10.8457661
REMARK minimizedRMSD -1
REMARK  0 active torsions:
REMARK  status: ('A' for Active; 'I' for Inactive)
ROOT
ATOM      1  C   UNL d   1       3.473   1.832   2.024  0.00  0.00     0.077 C 
ATOM      2  C1  UNL d   1       2.013   1.620   1.758  0.00  0.00    -0.074 A 
ATOM      3  C2  UNL d   1       1.579   0.612   0.890  0.00  0.00    -0.005 A 
ATOM      4  C3  UNL d   1       0.217   0.420   0.660  0.00  0.00     0.006 A 
ATOM      5  C4  UNL d   1      -0.724   1.232   1.295  0.00  0.00    -0.005 A 
ATOM      6  C5  UNL d   1      -0.310   2.244   2.167  0.00  0.00    -0.074 A 
ATOM      7  C6  UNL d   1      -1.308   3.119   2.865  0.00  0.00     0.077 C 
ATOM      8  C7  UNL d   1       1.061   2.426   2.398  0.00  0.00    -0.001 A 
ENDROOT
TORSDOF 0
ENDMDL
