MODEL 1
REMARK minimizedAffinity 2.43512654
REMARK minimizedRMSD -1
REMARK  0 active torsions:
REMARK  status: ('A' for Active; 'I' for Inactive)
ROOT
ATOM      1  C   UNL d   1      -1.230   3.391   3.321  0.00  0.00     0.077 C 
ATOM      2  C1  UNL d   1      -0.487   2.508   2.363  0.00  0.00    -0.074 A 
ATOM      3  C2  UNL d   1      -1.172   1.703   1.447  0.00  0.00    -0.005 A 
ATOM      4  C3  UNL d   1      -0.467   0.894   0.556  0.00  0.00     0.006 A 
ATOM      5  C4  UNL d   1       0.928   0.881   0.573  0.00  0.00    -0.005 A 
ATOM      6  C5  UNL d   1       1.631   1.679   1.481  0.00  0.00    -0.074 A 
ATOM      7  C6  UNL d   1       3.130   1.685   1.505  0.00  0.00     0.077 C 
ATOM      8  C7  UNL d   1       0.915   2.495   2.368  0.00  0.00    -0.001 A 
ENDROOT
TORSDOF 0
ENDMDL
