MODEL 1
REMARK minimizedAffinity 0.0850382894
REMARK minimizedRMSD -1
REMARK  0 active torsions:
REMARK  status: ('A' for Active; 'I' for Inactive)
ROOT
ATOM      1  C4' PXY d   1      -3.759   0.733  -3.829  0.00  0.00     0.077 C 
ATOM      2  C1' PXY d   1      -1.783  -2.187   0.752  0.00  0.00     0.077 C 
ATOM      3  C1  PXY d   1      -2.295  -1.429  -0.457  0.00  0.00    -0.082 A 
ATOM      4  C2  PXY d   1      -2.628  -0.154  -0.338  0.00  0.00     0.003 A 
ATOM      5  C3  PXY d   1      -3.123   0.537  -1.414  0.00  0.00     0.003 A 
ATOM      6  C4  PXY d   1      -3.228  -0.068  -2.637  0.00  0.00    -0.082 A 
ATOM      7  C5  PXY d   1      -2.881  -1.366  -2.770  0.00  0.00     0.003 A 
ATOM      8  C6  PXY d   1      -2.419  -2.062  -1.656  0.00  0.00     0.003 A 
ENDROOT
TORSDOF 0
ENDMDL
