MODEL 1
REMARK minimizedAffinity 6.8941083
REMARK minimizedRMSD -1
REMARK  0 active torsions:
REMARK  status: ('A' for Active; 'I' for Inactive)
ROOT
ATOM      1  C4' PXY d   1       0.777  -1.701   5.998  0.00  0.00     0.077 C 
ATOM      2  C1' PXY d   1       3.558  -1.354   0.942  0.00  0.00     0.077 C 
ATOM      3  C1  PXY d   1       2.826  -1.432   2.268  0.00  0.00    -0.082 A 
ATOM      4  C2  PXY d   1       3.076  -2.435   3.094  0.00  0.00     0.003 A 
ATOM      5  C3  PXY d   1       2.400  -2.538   4.283  0.00  0.00     0.003 A 
ATOM      6  C4  PXY d   1       1.498  -1.577   4.653  0.00  0.00    -0.082 A 
ATOM      7  C5  PXY d   1       1.246  -0.545   3.820  0.00  0.00     0.003 A 
ATOM      8  C6  PXY d   1       1.912  -0.480   2.600  0.00  0.00     0.003 A 
ENDROOT
TORSDOF 0
ENDMDL
