MODEL 1
REMARK minimizedAffinity 19.0442619
REMARK minimizedRMSD -1
REMARK  0 active torsions:
REMARK  status: ('A' for Active; 'I' for Inactive)
ROOT
ATOM      1  C4' PXY d   1       0.403   0.796   1.925  0.00  0.00     0.077 C 
ATOM      2  C1' PXY d   1      -3.999  -1.055  -1.333  0.00  0.00     0.077 C 
ATOM      3  C1  PXY d   1      -2.842  -0.560  -0.488  0.00  0.00    -0.082 A 
ATOM      4  C2  PXY d   1      -2.273  -1.376   0.385  0.00  0.00     0.003 A 
ATOM      5  C3  PXY d   1      -1.247  -0.936   1.180  0.00  0.00     0.003 A 
ATOM      6  C4  PXY d   1      -0.762   0.337   1.044  0.00  0.00    -0.082 A 
ATOM      7  C5  PXY d   1      -1.329   1.173   0.148  0.00  0.00     0.003 A 
ATOM      8  C6  PXY d   1      -2.397   0.719  -0.621  0.00  0.00     0.003 A 
ENDROOT
TORSDOF 0
ENDMDL
