MODEL 1
REMARK minimizedAffinity 9.09028339
REMARK minimizedRMSD -1
REMARK  0 active torsions:
REMARK  status: ('A' for Active; 'I' for Inactive)
ROOT
ATOM      1  C4' PXY d   1      -3.393   0.590  -1.234  0.00  0.00     0.077 C 
ATOM      2  C1' PXY d   1      -2.311  -4.865   0.344  0.00  0.00     0.077 C 
ATOM      3  C1  PXY d   1      -2.592  -3.430  -0.058  0.00  0.00    -0.082 A 
ATOM      4  C2  PXY d   1      -3.339  -3.184  -1.122  0.00  0.00     0.003 A 
ATOM      5  C3  PXY d   1      -3.578  -1.893  -1.518  0.00  0.00     0.003 A 
ATOM      6  C4  PXY d   1      -3.090  -0.843  -0.786  0.00  0.00    -0.082 A 
ATOM      7  C5  PXY d   1      -2.336  -1.086   0.307  0.00  0.00     0.003 A 
ATOM      8  C6  PXY d   1      -2.072  -2.404   0.668  0.00  0.00     0.003 A 
ENDROOT
TORSDOF 0
ENDMDL
