MODEL 1
REMARK minimizedAffinity -2.34106874
REMARK minimizedRMSD -1
REMARK  0 active torsions:
REMARK  status: ('A' for Active; 'I' for Inactive)
ROOT
ATOM      1  C4' PXY d   1      -5.357  -2.167  -0.552  0.00  0.00     0.077 C 
ATOM      2  C1' PXY d   1      -0.266  -4.252  -2.328  0.00  0.00     0.077 C 
ATOM      3  C1  PXY d   1      -1.600  -3.711  -1.851  0.00  0.00    -0.082 A 
ATOM      4  C2  PXY d   1      -2.539  -3.412  -2.734  0.00  0.00     0.003 A 
ATOM      5  C3  PXY d   1      -3.738  -2.892  -2.322  0.00  0.00     0.003 A 
ATOM      6  C4  PXY d   1      -3.999  -2.725  -0.988  0.00  0.00    -0.082 A 
ATOM      7  C5  PXY d   1      -3.051  -3.037  -0.080  0.00  0.00     0.003 A 
ATOM      8  C6  PXY d   1      -1.824  -3.525  -0.521  0.00  0.00     0.003 A 
ENDROOT
TORSDOF 0
ENDMDL
