MODEL 1
REMARK minimizedAffinity 6.36771584
REMARK minimizedRMSD -1
REMARK  0 active torsions:
REMARK  status: ('A' for Active; 'I' for Inactive)
ROOT
ATOM      1  C4' PXY d   1      -0.915   2.935   0.860  0.00  0.00     0.077 C 
ATOM      2  C1' PXY d   1       0.784  -2.521   1.733  0.00  0.00     0.077 C 
ATOM      3  C1  PXY d   1       0.329  -1.094   1.496  0.00  0.00    -0.082 A 
ATOM      4  C2  PXY d   1       1.177  -0.097   1.689  0.00  0.00     0.003 A 
ATOM      5  C3  PXY d   1       0.773   1.201   1.510  0.00  0.00     0.003 A 
ATOM      6  C4  PXY d   1      -0.497   1.478   1.078  0.00  0.00    -0.082 A 
ATOM      7  C5  PXY d   1      -1.364   0.465   0.868  0.00  0.00     0.003 A 
ATOM      8  C6  PXY d   1      -0.946  -0.843   1.095  0.00  0.00     0.003 A 
ENDROOT
TORSDOF 0
ENDMDL
