MODEL 1
REMARK minimizedAffinity 5.58933926
REMARK minimizedRMSD -1
REMARK  0 active torsions:
REMARK  status: ('A' for Active; 'I' for Inactive)
ROOT
ATOM      1  C4' PXY d   1      -1.754   0.632   1.067  0.00  0.00     0.077 C 
ATOM      2  C1' PXY d   1       2.257  -3.404   2.084  0.00  0.00     0.077 C 
ATOM      3  C1  PXY d   1       1.200  -2.353   1.808  0.00  0.00    -0.082 A 
ATOM      4  C2  PXY d   1       1.439  -1.088   2.114  0.00  0.00     0.003 A 
ATOM      5  C3  PXY d   1       0.482  -0.130   1.901  0.00  0.00     0.003 A 
ATOM      6  C4  PXY d   1      -0.713  -0.461   1.319  0.00  0.00    -0.082 A 
ATOM      7  C5  PXY d   1      -0.960  -1.748   0.993  0.00  0.00     0.003 A 
ATOM      8  C6  PXY d   1       0.009  -2.712   1.256  0.00  0.00     0.003 A 
ENDROOT
TORSDOF 0
ENDMDL
