MODEL 1
REMARK minimizedAffinity 1.32466137
REMARK minimizedRMSD -1
REMARK  0 active torsions:
REMARK  status: ('A' for Active; 'I' for Inactive)
ROOT
ATOM      1  C4' PXY d   1      -6.000  -1.963  -0.882  0.00  0.00     0.077 C 
ATOM      2  C1' PXY d   1      -0.604  -3.771  -1.896  0.00  0.00     0.077 C 
ATOM      3  C1  PXY d   1      -2.014  -3.286  -1.624  0.00  0.00    -0.082 A 
ATOM      4  C2  PXY d   1      -3.012  -4.155  -1.603  0.00  0.00     0.003 A 
ATOM      5  C3  PXY d   1      -4.298  -3.730  -1.390  0.00  0.00     0.003 A 
ATOM      6  C4  PXY d   1      -4.558  -2.408  -1.143  0.00  0.00    -0.082 A 
ATOM      7  C5  PXY d   1      -3.544  -1.517  -1.152  0.00  0.00     0.003 A 
ATOM      8  C6  PXY d   1      -2.252  -1.964  -1.411  0.00  0.00     0.003 A 
ENDROOT
TORSDOF 0
ENDMDL
