MODEL 1
REMARK minimizedAffinity 4.33037615
REMARK minimizedRMSD -1
REMARK  0 active torsions:
REMARK  status: ('A' for Active; 'I' for Inactive)
ROOT
ATOM      1  C4' PXY d   1       2.126  -2.804   6.000  0.00  0.00     0.077 C 
ATOM      2  C1' PXY d   1       0.634   0.433   1.449  0.00  0.00     0.077 C 
ATOM      3  C1  PXY d   1       1.025  -0.405   2.650  0.00  0.00    -0.082 A 
ATOM      4  C2  PXY d   1       1.661  -1.551   2.469  0.00  0.00     0.003 A 
ATOM      5  C3  PXY d   1       1.994  -2.337   3.542  0.00  0.00     0.003 A 
ATOM      6  C4  PXY d   1       1.720  -1.920   4.817  0.00  0.00    -0.082 A 
ATOM      7  C5  PXY d   1       1.081  -0.747   5.011  0.00  0.00     0.003 A 
ATOM      8  C6  PXY d   1       0.715   0.016   3.906  0.00  0.00     0.003 A 
ENDROOT
TORSDOF 0
ENDMDL
