MODEL 1
REMARK minimizedAffinity 7.37228107
REMARK minimizedRMSD -1
REMARK  0 active torsions:
REMARK  status: ('A' for Active; 'I' for Inactive)
ROOT
ATOM      1  C4' PXY d   1       2.865  -2.825   2.680  0.00  0.00     0.077 C 
ATOM      2  C1' PXY d   1      -0.492   1.259   0.343  0.00  0.00     0.077 C 
ATOM      3  C1  PXY d   1       0.392   0.196   0.966  0.00  0.00    -0.082 A 
ATOM      4  C2  PXY d   1       0.841  -0.800   0.220  0.00  0.00     0.003 A 
ATOM      5  C3  PXY d   1       1.615  -1.787   0.774  0.00  0.00     0.003 A 
ATOM      6  C4  PXY d   1       1.978  -1.725   2.092  0.00  0.00    -0.082 A 
ATOM      7  C5  PXY d   1       1.533  -0.705   2.857  0.00  0.00     0.003 A 
ATOM      8  C6  PXY d   1       0.714   0.264   2.286  0.00  0.00     0.003 A 
ENDROOT
TORSDOF 0
ENDMDL
