MODEL 1
REMARK minimizedAffinity 13.6347218
REMARK minimizedRMSD -1
REMARK  0 active torsions:
REMARK  status: ('A' for Active; 'I' for Inactive)
ROOT
ATOM      1  C4' PXY d   1       1.058   1.369   4.642  0.00  0.00     0.077 C 
ATOM      2  C1' PXY d   1       1.742  -3.019   0.941  0.00  0.00     0.077 C 
ATOM      3  C1  PXY d   1       1.557  -1.877   1.921  0.00  0.00    -0.082 A 
ATOM      4  C2  PXY d   1       1.445  -0.639   1.468  0.00  0.00     0.003 A 
ATOM      5  C3  PXY d   1       1.309   0.410   2.341  0.00  0.00     0.003 A 
ATOM      6  C4  PXY d   1       1.236   0.183   3.689  0.00  0.00    -0.082 A 
ATOM      7  C5  PXY d   1       1.339  -1.078   4.159  0.00  0.00     0.003 A 
ATOM      8  C6  PXY d   1       1.517  -2.125   3.258  0.00  0.00     0.003 A 
ENDROOT
TORSDOF 0
ENDMDL
