MODEL 1
REMARK minimizedAffinity 2.91045475
REMARK minimizedRMSD -1
REMARK  0 active torsions:
REMARK  status: ('A' for Active; 'I' for Inactive)
ROOT
ATOM      1  C4' PXY d   1       1.654  -2.791   6.000  0.00  0.00     0.077 C 
ATOM      2  C1' PXY d   1       1.294   0.637   1.359  0.00  0.00     0.077 C 
ATOM      3  C1  PXY d   1       1.389  -0.251   2.584  0.00  0.00    -0.082 A 
ATOM      4  C2  PXY d   1       1.843  -1.488   2.461  0.00  0.00     0.003 A 
ATOM      5  C3  PXY d   1       1.906  -2.315   3.553  0.00  0.00     0.003 A 
ATOM      6  C4  PXY d   1       1.550  -1.855   4.792  0.00  0.00    -0.082 A 
ATOM      7  C5  PXY d   1       1.095  -0.591   4.927  0.00  0.00     0.003 A 
ATOM      8  C6  PXY d   1       1.000   0.219   3.800  0.00  0.00     0.003 A 
ENDROOT
TORSDOF 0
ENDMDL
