MODEL 1
REMARK minimizedAffinity 2.46888304
REMARK minimizedRMSD -1
REMARK  0 active torsions:
REMARK  status: ('A' for Active; 'I' for Inactive)
ROOT
ATOM      1  C1  DEN d   1      -4.049  -0.426  -0.365  0.00  0.00     0.130 A 
ATOM      2  C2  DEN d   1      -4.009  -0.503   1.093  0.00  0.00    -0.031 A 
ATOM      3  C3  DEN d   1      -2.597  -0.630   1.505  0.00  0.00     0.027 A 
ATOM      4  C4  DEN d   1      -0.479  -0.709   0.035  0.00  0.00     0.027 A 
ATOM      5  C5  DEN d   1      -0.010  -0.689  -1.260  0.00  0.00    -0.003 A 
ATOM      6  C6  DEN d   1      -0.849  -0.614  -2.340  0.00  0.00     0.001 A 
ATOM      7  C7  DEN d   1      -2.201  -0.512  -2.143  0.00  0.00     0.017 A 
ATOM      8  C8  DEN d   1      -2.682  -0.539  -0.840  0.00  0.00    -0.094 A 
ATOM      9  C9  DEN d   1      -1.816  -0.602   0.238  0.00  0.00    -0.072 A 
ENDROOT
TORSDOF 0
ENDMDL
