MODEL 1
REMARK minimizedAffinity -1.84703338
REMARK minimizedRMSD -1
REMARK  0 active torsions:
REMARK  status: ('A' for Active; 'I' for Inactive)
ROOT
ATOM      1  C1  DEN d   1      -3.759   4.698   2.371  0.00  0.00     0.130 A 
ATOM      2  C2  DEN d   1      -4.916   5.435   1.870  0.00  0.00    -0.031 A 
ATOM      3  C3  DEN d   1      -6.000   5.317   2.866  0.00  0.00     0.027 A 
ATOM      4  C4  DEN d   1      -5.997   4.075   5.127  0.00  0.00     0.027 A 
ATOM      5  C5  DEN d   1      -5.246   3.294   5.978  0.00  0.00    -0.003 A 
ATOM      6  C6  DEN d   1      -3.970   2.901   5.673  0.00  0.00     0.001 A 
ATOM      7  C7  DEN d   1      -3.389   3.326   4.508  0.00  0.00     0.017 A 
ATOM      8  C8  DEN d   1      -4.142   4.108   3.642  0.00  0.00    -0.094 A 
ATOM      9  C9  DEN d   1      -5.426   4.505   3.973  0.00  0.00    -0.072 A 
ENDROOT
TORSDOF 0
ENDMDL
