MODEL 1
REMARK minimizedAffinity -0.681160688
REMARK minimizedRMSD -1
REMARK  0 active torsions:
REMARK  status: ('A' for Active; 'I' for Inactive)
ROOT
ATOM      1  C1  DEN d   1      -3.532   2.831   3.706  0.00  0.00     0.130 A 
ATOM      2  C2  DEN d   1      -4.297   3.683   2.800  0.00  0.00    -0.031 A 
ATOM      3  C3  DEN d   1      -4.746   2.854   1.663  0.00  0.00     0.027 A 
ATOM      4  C4  DEN d   1      -4.336   0.346   1.222  0.00  0.00     0.027 A 
ATOM      5  C5  DEN d   1      -3.731  -0.794   1.704  0.00  0.00    -0.003 A 
ATOM      6  C6  DEN d   1      -2.995  -0.798   2.859  0.00  0.00     0.001 A 
ATOM      7  C7  DEN d   1      -2.882   0.351   3.596  0.00  0.00     0.017 A 
ATOM      8  C8  DEN d   1      -3.483   1.506   3.114  0.00  0.00    -0.094 A 
ATOM      9  C9  DEN d   1      -4.233   1.487   1.950  0.00  0.00    -0.072 A 
ENDROOT
TORSDOF 0
ENDMDL
