MODEL 1
REMARK minimizedAffinity -3.06601262
REMARK minimizedRMSD -1
REMARK  0 active torsions:
REMARK  status: ('A' for Active; 'I' for Inactive)
ROOT
ATOM      1  C1  DEN d   1      -5.329   3.618   2.227  0.00  0.00     0.130 A 
ATOM      2  C2  DEN d   1      -5.298   4.836   1.421  0.00  0.00    -0.031 A 
ATOM      3  C3  DEN d   1      -5.510   5.986   2.323  0.00  0.00     0.027 A 
ATOM      4  C4  DEN d   1      -5.876   5.999   4.876  0.00  0.00     0.027 A 
ATOM      5  C5  DEN d   1      -5.995   5.208   5.997  0.00  0.00    -0.003 A 
ATOM      6  C6  DEN d   1      -5.934   3.841   5.936  0.00  0.00     0.001 A 
ATOM      7  C7  DEN d   1      -5.705   3.225   4.734  0.00  0.00     0.017 A 
ATOM      8  C8  DEN d   1      -5.592   4.016   3.598  0.00  0.00    -0.094 A 
ATOM      9  C9  DEN d   1      -5.644   5.396   3.683  0.00  0.00    -0.072 A 
ENDROOT
TORSDOF 0
ENDMDL
