MODEL 1
REMARK minimizedAffinity 1.89312482
REMARK minimizedRMSD -1
REMARK  0 active torsions:
REMARK  status: ('A' for Active; 'I' for Inactive)
ROOT
ATOM      1  C1  DEN d   1      -5.993   2.574   4.635  0.00  0.00     0.130 A 
ATOM      2  C2  DEN d   1      -6.000   3.222   5.944  0.00  0.00    -0.031 A 
ATOM      3  C3  DEN d   1      -5.991   4.683   5.730  0.00  0.00     0.027 A 
ATOM      4  C4  DEN d   1      -5.972   5.999   3.512  0.00  0.00     0.027 A 
ATOM      5  C5  DEN d   1      -5.951   5.885   2.139  0.00  0.00    -0.003 A 
ATOM      6  C6  DEN d   1      -5.908   4.670   1.508  0.00  0.00     0.001 A 
ATOM      7  C7  DEN d   1      -5.931   3.519   2.250  0.00  0.00     0.017 A 
ATOM      8  C8  DEN d   1      -5.945   3.625   3.634  0.00  0.00    -0.094 A 
ATOM      9  C9  DEN d   1      -6.000   4.863   4.253  0.00  0.00    -0.072 A 
ENDROOT
TORSDOF 0
ENDMDL
