MODEL 1
REMARK minimizedAffinity -1.81686032
REMARK minimizedRMSD -1
REMARK  0 active torsions:
REMARK  status: ('A' for Active; 'I' for Inactive)
ROOT
ATOM      1  C1  DEN d   1      -5.427   5.953   3.270  0.00  0.00     0.130 A 
ATOM      2  C2  DEN d   1      -5.414   5.543   1.869  0.00  0.00    -0.031 A 
ATOM      3  C3  DEN d   1      -5.323   4.070   1.825  0.00  0.00     0.027 A 
ATOM      4  C4  DEN d   1      -5.209   2.392   3.781  0.00  0.00     0.027 A 
ATOM      5  C5  DEN d   1      -5.179   2.267   5.153  0.00  0.00    -0.003 A 
ATOM      6  C6  DEN d   1      -5.195   3.355   5.985  0.00  0.00     0.001 A 
ATOM      7  C7  DEN d   1      -5.288   4.615   5.455  0.00  0.00     0.017 A 
ATOM      8  C8  DEN d   1      -5.311   4.749   4.073  0.00  0.00    -0.094 A 
ATOM      9  C9  DEN d   1      -5.306   3.637   3.249  0.00  0.00    -0.072 A 
ENDROOT
TORSDOF 0
ENDMDL
