MODEL 1
REMARK minimizedAffinity -2.15345025
REMARK minimizedRMSD -1
REMARK  0 active torsions:
REMARK  status: ('A' for Active; 'I' for Inactive)
ROOT
ATOM      1  C1  DEN d   1      -5.396   4.558   5.785  0.00  0.00     0.130 A 
ATOM      2  C2  DEN d   1      -5.293   3.118   6.000  0.00  0.00    -0.031 A 
ATOM      3  C3  DEN d   1      -4.997   2.482   4.700  0.00  0.00     0.027 A 
ATOM      4  C4  DEN d   1      -4.686   3.583   2.389  0.00  0.00     0.027 A 
ATOM      5  C5  DEN d   1      -4.692   4.779   1.705  0.00  0.00    -0.003 A 
ATOM      6  C6  DEN d   1      -4.964   5.971   2.321  0.00  0.00     0.001 A 
ATOM      7  C7  DEN d   1      -5.197   6.000   3.671  0.00  0.00     0.017 A 
ATOM      8  C8  DEN d   1      -5.200   4.797   4.366  0.00  0.00    -0.094 A 
ATOM      9  C9  DEN d   1      -4.911   3.604   3.727  0.00  0.00    -0.072 A 
ENDROOT
TORSDOF 0
ENDMDL
