MODEL 1
REMARK minimizedAffinity -4.14435577
REMARK minimizedRMSD -1
REMARK  0 active torsions:
REMARK  status: ('A' for Active; 'I' for Inactive)
ROOT
ATOM      1  C1  DEN d   1      -5.265   4.530   5.801  0.00  0.00     0.130 A 
ATOM      2  C2  DEN d   1      -5.759   3.165   5.957  0.00  0.00    -0.031 A 
ATOM      3  C3  DEN d   1      -6.000   2.609   4.610  0.00  0.00     0.027 A 
ATOM      4  C4  DEN d   1      -5.653   3.723   2.310  0.00  0.00     0.027 A 
ATOM      5  C5  DEN d   1      -5.261   4.878   1.670  0.00  0.00    -0.003 A 
ATOM      6  C6  DEN d   1      -4.879   6.000   2.356  0.00  0.00     0.001 A 
ATOM      7  C7  DEN d   1      -4.836   5.976   3.725  0.00  0.00     0.017 A 
ATOM      8  C8  DEN d   1      -5.237   4.818   4.378  0.00  0.00    -0.094 A 
ATOM      9  C9  DEN d   1      -5.609   3.690   3.666  0.00  0.00    -0.072 A 
ENDROOT
TORSDOF 0
ENDMDL
