MODEL 1
REMARK minimizedAffinity 0.140195683
REMARK minimizedRMSD -1
REMARK  0 active torsions:
REMARK  status: ('A' for Active; 'I' for Inactive)
ROOT
ATOM      1  C1  DEN d   1      -5.999   4.345   2.476  0.00  0.00     0.130 A 
ATOM      2  C2  DEN d   1      -4.926   4.560   1.509  0.00  0.00    -0.031 A 
ATOM      3  C3  DEN d   1      -3.664   4.096   2.118  0.00  0.00     0.027 A 
ATOM      4  C4  DEN d   1      -3.269   3.067   4.450  0.00  0.00     0.027 A 
ATOM      5  C5  DEN d   1      -3.874   2.698   5.630  0.00  0.00    -0.003 A 
ATOM      6  C6  DEN d   1      -5.212   2.881   5.854  0.00  0.00     0.001 A 
ATOM      7  C7  DEN d   1      -6.000   3.408   4.864  0.00  0.00     0.017 A 
ATOM      8  C8  DEN d   1      -5.396   3.790   3.673  0.00  0.00    -0.094 A 
ATOM      9  C9  DEN d   1      -4.043   3.585   3.462  0.00  0.00    -0.072 A 
ENDROOT
TORSDOF 0
ENDMDL
