MODEL 1
REMARK minimizedAffinity -1.39061916
REMARK minimizedRMSD -1
REMARK  0 active torsions:
REMARK  status: ('A' for Active; 'I' for Inactive)
ROOT
ATOM      1  C1  DEN d   1      -5.978   5.314   1.892  0.00  0.00     0.130 A 
ATOM      2  C2  DEN d   1      -5.927   4.015   1.225  0.00  0.00    -0.031 A 
ATOM      3  C3  DEN d   1      -5.912   2.968   2.265  0.00  0.00     0.027 A 
ATOM      4  C4  DEN d   1      -5.967   3.228   4.831  0.00  0.00     0.027 A 
ATOM      5  C5  DEN d   1      -6.000   4.135   5.867  0.00  0.00    -0.003 A 
ATOM      6  C6  DEN d   1      -5.994   5.488   5.653  0.00  0.00     0.001 A 
ATOM      7  C7  DEN d   1      -5.999   5.973   4.371  0.00  0.00     0.017 A 
ATOM      8  C8  DEN d   1      -5.958   5.064   3.322  0.00  0.00    -0.094 A 
ATOM      9  C9  DEN d   1      -5.977   3.700   3.559  0.00  0.00    -0.072 A 
ENDROOT
TORSDOF 0
ENDMDL
