MODEL 1
REMARK minimizedAffinity -3.23239183
REMARK minimizedRMSD -1
REMARK  0 active torsions:
REMARK  status: ('A' for Active; 'I' for Inactive)
ROOT
ATOM      1  C1  DEN d   1      -4.848   2.395   4.514  0.00  0.00     0.130 A 
ATOM      2  C2  DEN d   1      -4.893   2.774   5.923  0.00  0.00    -0.031 A 
ATOM      3  C3  DEN d   1      -5.260   4.203   6.000  0.00  0.00     0.027 A 
ATOM      4  C4  DEN d   1      -5.766   5.853   4.084  0.00  0.00     0.027 A 
ATOM      5  C5  DEN d   1      -5.844   5.995   2.716  0.00  0.00    -0.003 A 
ATOM      6  C6  DEN d   1      -5.565   4.965   1.858  0.00  0.00     0.001 A 
ATOM      7  C7  DEN d   1      -5.238   3.733   2.360  0.00  0.00     0.017 A 
ATOM      8  C8  DEN d   1      -5.150   3.584   3.737  0.00  0.00    -0.094 A 
ATOM      9  C9  DEN d   1      -5.448   4.634   4.589  0.00  0.00    -0.072 A 
ENDROOT
TORSDOF 0
ENDMDL
