MODEL 1
REMARK minimizedAffinity -4.13661909
REMARK minimizedRMSD -1
REMARK  0 active torsions:
REMARK  status: ('A' for Active; 'I' for Inactive)
ROOT
ATOM      1  C1  DEN d   1      -5.202   2.255   4.579  0.00  0.00     0.130 A 
ATOM      2  C2  DEN d   1      -5.659   2.549   5.934  0.00  0.00    -0.031 A 
ATOM      3  C3  DEN d   1      -5.997   3.985   6.000  0.00  0.00     0.027 A 
ATOM      4  C4  DEN d   1      -5.861   5.771   4.143  0.00  0.00     0.027 A 
ATOM      5  C5  DEN d   1      -5.519   6.000   2.829  0.00  0.00    -0.003 A 
ATOM      6  C6  DEN d   1      -5.020   5.012   2.022  0.00  0.00     0.001 A 
ATOM      7  C7  DEN d   1      -4.891   3.739   2.508  0.00  0.00     0.017 A 
ATOM      8  C8  DEN d   1      -5.226   3.502   3.835  0.00  0.00    -0.094 A 
ATOM      9  C9  DEN d   1      -5.740   4.511   4.631  0.00  0.00    -0.072 A 
ENDROOT
TORSDOF 0
ENDMDL
