MODEL 1
REMARK minimizedAffinity -3.53439116
REMARK minimizedRMSD -1
REMARK  0 active torsions:
REMARK  status: ('A' for Active; 'I' for Inactive)
ROOT
ATOM      1  C1  DEN d   1      -5.947   4.084   1.956  0.00  0.00     0.130 A 
ATOM      2  C2  DEN d   1      -5.517   5.462   1.737  0.00  0.00    -0.031 A 
ATOM      3  C3  DEN d   1      -5.022   5.995   3.022  0.00  0.00     0.027 A 
ATOM      4  C4  DEN d   1      -4.876   4.825   5.316  0.00  0.00     0.027 A 
ATOM      5  C5  DEN d   1      -5.133   3.657   5.999  0.00  0.00    -0.003 A 
ATOM      6  C6  DEN d   1      -5.706   2.569   5.394  0.00  0.00     0.001 A 
ATOM      7  C7  DEN d   1      -6.000   2.612   4.057  0.00  0.00     0.017 A 
ATOM      8  C8  DEN d   1      -5.750   3.789   3.364  0.00  0.00    -0.094 A 
ATOM      9  C9  DEN d   1      -5.159   4.874   3.990  0.00  0.00    -0.072 A 
ENDROOT
TORSDOF 0
ENDMDL
