MODEL 1
REMARK minimizedAffinity -4.07370234
REMARK minimizedRMSD -1
REMARK  0 active torsions:
REMARK  status: ('A' for Active; 'I' for Inactive)
ROOT
ATOM      1  C1  DEN d   1      -3.001   2.907   4.776  0.00  0.00     0.130 A 
ATOM      2  C2  DEN d   1      -3.748   2.629   6.000  0.00  0.00    -0.031 A 
ATOM      3  C3  DEN d   1      -5.058   3.303   5.898  0.00  0.00     0.027 A 
ATOM      4  C4  DEN d   1      -5.999   4.738   3.973  0.00  0.00     0.027 A 
ATOM      5  C5  DEN d   1      -5.728   5.265   2.729  0.00  0.00    -0.003 A 
ATOM      6  C6  DEN d   1      -4.526   5.073   2.101  0.00  0.00     0.001 A 
ATOM      7  C7  DEN d   1      -3.566   4.297   2.695  0.00  0.00     0.017 A 
ATOM      8  C8  DEN d   1      -3.829   3.769   3.952  0.00  0.00    -0.094 A 
ATOM      9  C9  DEN d   1      -5.055   3.964   4.565  0.00  0.00    -0.072 A 
ENDROOT
TORSDOF 0
ENDMDL
