MODEL 1
REMARK minimizedAffinity 19.2711124
REMARK minimizedRMSD -1
REMARK  0 active torsions:
REMARK  status: ('A' for Active; 'I' for Inactive)
ROOT
ATOM      1  C2' OXE d   1      -3.003  -0.179  -3.448  0.00  0.00     0.078 C 
ATOM      2  C1' OXE d   1      -0.310  -0.809  -3.928  0.00  0.00     0.078 C 
ATOM      3  C1  OXE d   1      -0.754   0.612  -4.171  0.00  0.00    -0.078 A 
ATOM      4  C2  OXE d   1      -2.084   0.901  -3.978  0.00  0.00    -0.078 A 
ATOM      5  C3  OXE d   1      -2.535   2.208  -4.135  0.00  0.00     0.003 A 
ATOM      6  C4  OXE d   1      -1.681   3.198  -4.635  0.00  0.00    -0.002 A 
ATOM      7  C5  OXE d   1      -0.332   2.916  -4.876  0.00  0.00    -0.002 A 
ATOM      8  C6  OXE d   1       0.156   1.641  -4.609  0.00  0.00     0.003 A 
ENDROOT
TORSDOF 0
ENDMDL
