MODEL 1
REMARK minimizedAffinity 15.7943134
REMARK minimizedRMSD -1
REMARK  0 active torsions:
REMARK  status: ('A' for Active; 'I' for Inactive)
ROOT
ATOM      1  C2' OXE d   1       2.811   2.307   1.743  0.00  0.00     0.078 C 
ATOM      2  C1' OXE d   1       4.327   3.464  -0.317  0.00  0.00     0.078 C 
ATOM      3  C1  OXE d   1       3.336   2.390  -0.690  0.00  0.00    -0.078 A 
ATOM      4  C2  OXE d   1       2.632   1.797   0.330  0.00  0.00    -0.078 A 
ATOM      5  C3  OXE d   1       1.666   0.839   0.034  0.00  0.00     0.003 A 
ATOM      6  C4  OXE d   1       1.514   0.366  -1.275  0.00  0.00    -0.002 A 
ATOM      7  C5  OXE d   1       2.250   0.928  -2.323  0.00  0.00    -0.002 A 
ATOM      8  C6  OXE d   1       3.133   1.969  -2.055  0.00  0.00     0.003 A 
ENDROOT
TORSDOF 0
ENDMDL
