MODEL 1
REMARK minimizedAffinity 14.4594116
REMARK minimizedRMSD -1
REMARK  0 active torsions:
REMARK  status: ('A' for Active; 'I' for Inactive)
ROOT
ATOM      1  C2' OXE d   1      -2.693   5.345  -4.160  0.00  0.00     0.078 C 
ATOM      2  C1' OXE d   1      -5.058   5.987  -5.529  0.00  0.00     0.078 C 
ATOM      3  C1  OXE d   1      -4.671   4.532  -5.437  0.00  0.00    -0.078 A 
ATOM      4  C2  OXE d   1      -3.488   4.231  -4.805  0.00  0.00    -0.078 A 
ATOM      5  C3  OXE d   1      -3.111   2.901  -4.645  0.00  0.00     0.003 A 
ATOM      6  C4  OXE d   1      -3.848   1.877  -5.254  0.00  0.00    -0.002 A 
ATOM      7  C5  OXE d   1      -5.035   2.166  -5.936  0.00  0.00    -0.002 A 
ATOM      8  C6  OXE d   1      -5.481   3.481  -6.000  0.00  0.00     0.003 A 
ENDROOT
TORSDOF 0
ENDMDL
