MODEL 1
REMARK minimizedAffinity 13.7674694
REMARK minimizedRMSD -1
REMARK  0 active torsions:
REMARK  status: ('A' for Active; 'I' for Inactive)
ROOT
ATOM      1  C2' OXE d   1      -0.218  -1.169  -3.407  0.00  0.00     0.078 C 
ATOM      2  C1' OXE d   1      -2.782  -0.089  -3.038  0.00  0.00     0.078 C 
ATOM      3  C1  OXE d   1      -2.185  -0.886  -1.906  0.00  0.00    -0.078 A 
ATOM      4  C2  OXE d   1      -0.950  -1.450  -2.112  0.00  0.00    -0.078 A 
ATOM      5  C3  OXE d   1      -0.330  -2.149  -1.081  0.00  0.00     0.003 A 
ATOM      6  C4  OXE d   1      -1.018  -2.413   0.110  0.00  0.00    -0.002 A 
ATOM      7  C5  OXE d   1      -2.293  -1.881   0.326  0.00  0.00    -0.002 A 
ATOM      8  C6  OXE d   1      -2.873  -1.082  -0.653  0.00  0.00     0.003 A 
ENDROOT
TORSDOF 0
ENDMDL
