MODEL 1
REMARK minimizedAffinity 14.870532
REMARK minimizedRMSD -1
REMARK  0 active torsions:
REMARK  status: ('A' for Active; 'I' for Inactive)
ROOT
ATOM      1  C2' OXE d   1      -4.237   1.985  -5.998  0.00  0.00     0.078 C 
ATOM      2  C1' OXE d   1      -2.553   3.199  -4.108  0.00  0.00     0.078 C 
ATOM      3  C1  OXE d   1      -3.745   3.984  -4.595  0.00  0.00    -0.078 A 
ATOM      4  C2  OXE d   1      -4.538   3.401  -5.554  0.00  0.00    -0.078 A 
ATOM      5  C3  OXE d   1      -5.681   4.059  -5.998  0.00  0.00     0.003 A 
ATOM      6  C4  OXE d   1      -5.946   5.372  -5.590  0.00  0.00    -0.002 A 
ATOM      7  C5  OXE d   1      -5.129   6.000  -4.644  0.00  0.00    -0.002 A 
ATOM      8  C6  OXE d   1      -4.052   5.305  -4.106  0.00  0.00     0.003 A 
ENDROOT
TORSDOF 0
ENDMDL
