MODEL 1
REMARK minimizedAffinity 15.6517601
REMARK minimizedRMSD -1
REMARK  0 active torsions:
REMARK  status: ('A' for Active; 'I' for Inactive)
ROOT
ATOM      1  C2' OXE d   1      -5.601   3.000   2.308  0.00  0.00     0.078 C 
ATOM      2  C1' OXE d   1      -3.237   2.572   0.855  0.00  0.00     0.078 C 
ATOM      3  C1  OXE d   1      -4.056   3.794   0.523  0.00  0.00    -0.078 A 
ATOM      4  C2  OXE d   1      -5.234   3.971   1.207  0.00  0.00    -0.078 A 
ATOM      5  C3  OXE d   1      -6.000   5.111   0.978  0.00  0.00     0.003 A 
ATOM      6  C4  OXE d   1      -5.659   5.999  -0.049  0.00  0.00    -0.002 A 
ATOM      7  C5  OXE d   1      -4.483   5.816  -0.785  0.00  0.00    -0.002 A 
ATOM      8  C6  OXE d   1      -3.650   4.745  -0.483  0.00  0.00     0.003 A 
ENDROOT
TORSDOF 0
ENDMDL
