MODEL 1
REMARK minimizedAffinity 19.7004929
REMARK minimizedRMSD -1
REMARK  0 active torsions:
REMARK  status: ('A' for Active; 'I' for Inactive)
ROOT
ATOM      1  C2' OXE d   1      -0.813  -2.211  -3.188  0.00  0.00     0.078 C 
ATOM      2  C1' OXE d   1      -1.353  -1.038  -0.695  0.00  0.00     0.078 C 
ATOM      3  C1  OXE d   1      -0.123  -0.578  -1.437  0.00  0.00    -0.078 A 
ATOM      4  C2  OXE d   1       0.159  -1.191  -2.634  0.00  0.00    -0.078 A 
ATOM      5  C3  OXE d   1       1.251  -0.767  -3.386  0.00  0.00     0.003 A 
ATOM      6  C4  OXE d   1       2.151   0.170  -2.862  0.00  0.00    -0.002 A 
ATOM      7  C5  OXE d   1       1.904   0.778  -1.626  0.00  0.00    -0.002 A 
ATOM      8  C6  OXE d   1       0.751   0.446  -0.922  0.00  0.00     0.003 A 
ENDROOT
TORSDOF 0
ENDMDL
