MODEL 1
REMARK minimizedAffinity 13.2551279
REMARK minimizedRMSD -1
REMARK  0 active torsions:
REMARK  status: ('A' for Active; 'I' for Inactive)
ROOT
ATOM      1  C2' OXE d   1      -2.835   2.685  -3.798  0.00  0.00     0.078 C 
ATOM      2  C1' OXE d   1      -4.463   2.067  -5.999  0.00  0.00     0.078 C 
ATOM      3  C1  OXE d   1      -4.545   3.463  -5.434  0.00  0.00    -0.078 A 
ATOM      4  C2  OXE d   1      -3.779   3.742  -4.328  0.00  0.00    -0.078 A 
ATOM      5  C3  OXE d   1      -3.775   5.030  -3.800  0.00  0.00     0.003 A 
ATOM      6  C4  OXE d   1      -4.658   6.000  -4.289  0.00  0.00    -0.002 A 
ATOM      7  C5  OXE d   1      -5.476   5.724  -5.390  0.00  0.00    -0.002 A 
ATOM      8  C6  OXE d   1      -5.400   4.476  -6.000  0.00  0.00     0.003 A 
ENDROOT
TORSDOF 0
ENDMDL
