MODEL 1
REMARK minimizedAffinity 15.0487013
REMARK minimizedRMSD -1
REMARK  0 active torsions:
REMARK  status: ('A' for Active; 'I' for Inactive)
ROOT
ATOM      1  C2' OXE d   1      -0.731  -1.904  -1.306  0.00  0.00     0.078 C 
ATOM      2  C1' OXE d   1      -0.274  -4.264   0.143  0.00  0.00     0.078 C 
ATOM      3  C1  OXE d   1      -1.085  -3.178   0.805  0.00  0.00    -0.078 A 
ATOM      4  C2  OXE d   1      -1.264  -2.008   0.107  0.00  0.00    -0.078 A 
ATOM      5  C3  OXE d   1      -2.050  -0.996   0.649  0.00  0.00     0.003 A 
ATOM      6  C4  OXE d   1      -2.531  -1.096   1.960  0.00  0.00    -0.002 A 
ATOM      7  C5  OXE d   1      -2.326  -2.264   2.704  0.00  0.00    -0.002 A 
ATOM      8  C6  OXE d   1      -1.643  -3.328   2.126  0.00  0.00     0.003 A 
ENDROOT
TORSDOF 0
ENDMDL
