MODEL 1
REMARK minimizedAffinity 14.4606428
REMARK minimizedRMSD -1
REMARK  0 active torsions:
REMARK  status: ('A' for Active; 'I' for Inactive)
ROOT
ATOM      1  C2' OXE d   1      -3.068  -0.095   0.401  0.00  0.00     0.078 C 
ATOM      2  C1' OXE d   1      -2.456  -1.866   2.490  0.00  0.00     0.078 C 
ATOM      3  C1  OXE d   1      -1.840  -2.132   1.139  0.00  0.00    -0.078 A 
ATOM      4  C2  OXE d   1      -2.183  -1.288   0.111  0.00  0.00    -0.078 A 
ATOM      5  C3  OXE d   1      -1.601  -1.456  -1.142  0.00  0.00     0.003 A 
ATOM      6  C4  OXE d   1      -0.791  -2.567  -1.404  0.00  0.00    -0.002 A 
ATOM      7  C5  OXE d   1      -0.461  -3.463  -0.381  0.00  0.00    -0.002 A 
ATOM      8  C6  OXE d   1      -0.942  -3.236   0.904  0.00  0.00     0.003 A 
ENDROOT
TORSDOF 0
ENDMDL
