MODEL 1
REMARK minimizedAffinity 9.75635433
REMARK minimizedRMSD -1
REMARK  0 active torsions:
REMARK  status: ('A' for Active; 'I' for Inactive)
ROOT
ATOM      1  C2' OXE d   1      -1.088  -2.136  -3.641  0.00  0.00     0.078 C 
ATOM      2  C1' OXE d   1      -1.564  -1.252  -1.020  0.00  0.00     0.078 C 
ATOM      3  C1  OXE d   1      -0.268  -0.845  -1.676  0.00  0.00    -0.078 A 
ATOM      4  C2  OXE d   1      -0.023  -1.321  -2.941  0.00  0.00    -0.078 A 
ATOM      5  C3  OXE d   1       1.132  -0.931  -3.613  0.00  0.00     0.003 A 
ATOM      6  C4  OXE d   1       2.117  -0.184  -2.955  0.00  0.00    -0.002 A 
ATOM      7  C5  OXE d   1       1.905   0.278  -1.651  0.00  0.00    -0.002 A 
ATOM      8  C6  OXE d   1       0.703  -0.007  -1.014  0.00  0.00     0.003 A 
ENDROOT
TORSDOF 0
ENDMDL
