MODEL 1
REMARK minimizedAffinity 11.217885
REMARK minimizedRMSD -1
REMARK  0 active torsions:
REMARK  status: ('A' for Active; 'I' for Inactive)
ROOT
ATOM      1  C2' OXE d   1       0.098  -4.339   0.996  0.00  0.00     0.078 C 
ATOM      2  C1' OXE d   1      -1.964  -2.991   2.342  0.00  0.00     0.078 C 
ATOM      3  C1  OXE d   1      -1.627  -2.543   0.942  0.00  0.00    -0.078 A 
ATOM      4  C2  OXE d   1      -0.586  -3.177   0.308  0.00  0.00    -0.078 A 
ATOM      5  C3  OXE d   1      -0.269  -2.839  -1.004  0.00  0.00     0.003 A 
ATOM      6  C4  OXE d   1      -0.899  -1.757  -1.630  0.00  0.00    -0.002 A 
ATOM      7  C5  OXE d   1      -1.936  -1.071  -0.987  0.00  0.00    -0.002 A 
ATOM      8  C6  OXE d   1      -2.340  -1.478   0.279  0.00  0.00     0.003 A 
ENDROOT
TORSDOF 0
ENDMDL
