MODEL 1
REMARK minimizedAffinity 6.70060825
REMARK minimizedRMSD -1
REMARK  0 active torsions:
REMARK  status: ('A' for Active; 'I' for Inactive)
ROOT
ATOM      1  C2' OXE d   1      -1.902  -2.126   2.184  0.00  0.00     0.078 C 
ATOM      2  C1' OXE d   1      -0.078  -3.648   0.689  0.00  0.00     0.078 C 
ATOM      3  C1  OXE d   1      -0.983  -2.701  -0.059  0.00  0.00    -0.078 A 
ATOM      4  C2  OXE d   1      -1.905  -1.995   0.676  0.00  0.00    -0.078 A 
ATOM      5  C3  OXE d   1      -2.727  -1.068   0.043  0.00  0.00     0.003 A 
ATOM      6  C4  OXE d   1      -2.731  -0.960  -1.353  0.00  0.00    -0.002 A 
ATOM      7  C5  OXE d   1      -1.827  -1.699  -2.124  0.00  0.00    -0.002 A 
ATOM      8  C6  OXE d   1      -0.920  -2.541  -1.491  0.00  0.00     0.003 A 
ENDROOT
TORSDOF 0
ENDMDL
