MODEL 1
REMARK minimizedAffinity 17.4528999
REMARK minimizedRMSD -1
REMARK  0 active torsions:
REMARK  status: ('A' for Active; 'I' for Inactive)
ROOT
ATOM      1  C2' OXE d   1       4.592   0.645   2.408  0.00  0.00     0.078 C 
ATOM      2  C1' OXE d   1       3.813   3.133   1.368  0.00  0.00     0.078 C 
ATOM      3  C1  OXE d   1       3.328   1.892   0.661  0.00  0.00    -0.078 A 
ATOM      4  C2  OXE d   1       3.752   0.680   1.149  0.00  0.00    -0.078 A 
ATOM      5  C3  OXE d   1       3.290  -0.497   0.567  0.00  0.00     0.003 A 
ATOM      6  C4  OXE d   1       2.522  -0.456  -0.602  0.00  0.00    -0.002 A 
ATOM      7  C5  OXE d   1       2.112   0.769  -1.139  0.00  0.00    -0.002 A 
ATOM      8  C6  OXE d   1       2.470   1.949  -0.497  0.00  0.00     0.003 A 
ENDROOT
TORSDOF 0
ENDMDL
