MODEL 1
REMARK minimizedAffinity 13.6958694
REMARK minimizedRMSD -1
REMARK  0 active torsions:
REMARK  status: ('A' for Active; 'I' for Inactive)
ROOT
ATOM      1  C2' OXE d   1      -0.294  -3.375   0.633  0.00  0.00     0.078 C 
ATOM      2  C1' OXE d   1      -2.328  -1.445   0.781  0.00  0.00     0.078 C 
ATOM      3  C1  OXE d   1      -1.740  -1.746  -0.575  0.00  0.00    -0.078 A 
ATOM      4  C2  OXE d   1      -0.713  -2.657  -0.632  0.00  0.00    -0.078 A 
ATOM      5  C3  OXE d   1      -0.172  -3.012  -1.864  0.00  0.00     0.003 A 
ATOM      6  C4  OXE d   1      -0.559  -2.336  -3.028  0.00  0.00    -0.002 A 
ATOM      7  C5  OXE d   1      -1.575  -1.376  -2.987  0.00  0.00    -0.002 A 
ATOM      8  C6  OXE d   1      -2.204  -1.100  -1.778  0.00  0.00     0.003 A 
ENDROOT
TORSDOF 0
ENDMDL
