MODEL 1
REMARK minimizedAffinity 16.5902271
REMARK minimizedRMSD -1
REMARK  0 active torsions:
REMARK  status: ('A' for Active; 'I' for Inactive)
ROOT
ATOM      1  C2' OXE d   1      -1.211  -2.015  -2.548  0.00  0.00     0.078 C 
ATOM      2  C1' OXE d   1       0.980  -0.543  -3.505  0.00  0.00     0.078 C 
ATOM      3  C1  OXE d   1      -0.402   0.004  -3.763  0.00  0.00    -0.078 A 
ATOM      4  C2  OXE d   1      -1.470  -0.746  -3.332  0.00  0.00    -0.078 A 
ATOM      5  C3  OXE d   1      -2.764  -0.261  -3.496  0.00  0.00     0.003 A 
ATOM      6  C4  OXE d   1      -2.995   0.908  -4.231  0.00  0.00    -0.002 A 
ATOM      7  C5  OXE d   1      -1.923   1.667  -4.713  0.00  0.00    -0.002 A 
ATOM      8  C6  OXE d   1      -0.622   1.252  -4.452  0.00  0.00     0.003 A 
ENDROOT
TORSDOF 0
ENDMDL
