MODEL 1
REMARK minimizedAffinity 4.19972038
REMARK minimizedRMSD -1
REMARK  0 active torsions:
REMARK  status: ('A' for Active; 'I' for Inactive)
ROOT
ATOM      1  C2' OXE d   1      -6.000   4.950   1.804  0.00  0.00     0.078 C 
ATOM      2  C1' OXE d   1      -4.068   3.013   1.174  0.00  0.00     0.078 C 
ATOM      3  C1  OXE d   1      -4.383   4.058   0.132  0.00  0.00    -0.078 A 
ATOM      4  C2  OXE d   1      -5.363   4.973   0.431  0.00  0.00    -0.078 A 
ATOM      5  C3  OXE d   1      -5.655   5.991  -0.472  0.00  0.00     0.003 A 
ATOM      6  C4  OXE d   1      -5.069   6.000  -1.744  0.00  0.00    -0.002 A 
ATOM      7  C5  OXE d   1      -4.097   5.053  -2.084  0.00  0.00    -0.002 A 
ATOM      8  C6  OXE d   1      -3.713   4.103  -1.144  0.00  0.00     0.003 A 
ENDROOT
TORSDOF 0
ENDMDL
