MODEL 1
REMARK minimizedAffinity 1.88443029
REMARK minimizedRMSD -1
REMARK  0 active torsions:
REMARK  status: ('A' for Active; 'I' for Inactive)
ROOT
ATOM      1  C2' OXE d   1      -4.356   1.997  -6.000  0.00  0.00     0.078 C 
ATOM      2  C1' OXE d   1      -2.351   3.236  -4.476  0.00  0.00     0.078 C 
ATOM      3  C1  OXE d   1      -3.627   4.004  -4.717  0.00  0.00    -0.078 A 
ATOM      4  C2  OXE d   1      -4.584   3.409  -5.503  0.00  0.00    -0.078 A 
ATOM      5  C3  OXE d   1      -5.801   4.050  -5.712  0.00  0.00     0.003 A 
ATOM      6  C4  OXE d   1      -6.000   5.360  -5.258  0.00  0.00    -0.002 A 
ATOM      7  C5  OXE d   1      -5.022   6.000  -4.489  0.00  0.00    -0.002 A 
ATOM      8  C6  OXE d   1      -3.850   5.321  -4.174  0.00  0.00     0.003 A 
ENDROOT
TORSDOF 0
ENDMDL
