MODEL 1
REMARK minimizedAffinity 18.5800457
REMARK minimizedRMSD -1
REMARK  0 active torsions:
REMARK  status: ('A' for Active; 'I' for Inactive)
ROOT
ATOM      1  C2' OXE d   1       2.997   1.504  -1.605  0.00  0.00     0.078 C 
ATOM      2  C1' OXE d   1       5.478   1.958  -2.837  0.00  0.00     0.078 C 
ATOM      3  C1  OXE d   1       5.114   2.816  -1.652  0.00  0.00    -0.078 A 
ATOM      4  C2  OXE d   1       3.878   2.619  -1.084  0.00  0.00    -0.078 A 
ATOM      5  C3  OXE d   1       3.514   3.346   0.045  0.00  0.00     0.003 A 
ATOM      6  C4  OXE d   1       4.330   4.383   0.514  0.00  0.00    -0.002 A 
ATOM      7  C5  OXE d   1       5.576   4.627  -0.074  0.00  0.00    -0.002 A 
ATOM      8  C6  OXE d   1       6.000   3.827  -1.129  0.00  0.00     0.003 A 
ENDROOT
TORSDOF 0
ENDMDL
