MODEL 1
REMARK minimizedAffinity -2.82305002
REMARK minimizedRMSD -1
REMARK  1 active torsions:
REMARK  status: ('A' for Active; 'I' for Inactive)
REMARK    1  A    between atoms: C1_2  and  C2_3 
ROOT
ATOM      1  C2  UNL d   1       0.123  -1.438   0.805  0.00  0.00    -0.081 A 
ATOM      2  C3  UNL d   1       1.473  -1.797   0.908  0.00  0.00     0.006 A 
ATOM      3  C4  UNL d   1       2.453  -1.070   0.230  0.00  0.00     0.002 A 
ATOM      4  C5  UNL d   1       2.103   0.034  -0.555  0.00  0.00    -0.080 A 
ATOM      5  C6  UNL d   1       3.149   0.842  -1.264  0.00  0.00     0.076 C 
ATOM      6  C7  UNL d   1       0.753   0.382  -0.673  0.00  0.00     0.002 A 
ATOM      7  C8  UNL d   1      -0.228  -0.345   0.004  0.00  0.00     0.006 A 
ENDROOT
BRANCH   1   8
ATOM      8  C1  UNL d   1      -0.930  -2.181   1.586  0.00  0.00     0.054 C 
ATOM      9  C   UNL d   1      -1.788  -1.227   2.404  0.00  0.00     0.018 C 
ENDBRANCH   1   8
TORSDOF 1
ENDMDL
