MODEL 1
REMARK minimizedAffinity -3.09593153
REMARK minimizedRMSD -1
REMARK  1 active torsions:
REMARK  status: ('A' for Active; 'I' for Inactive)
REMARK    1  A    between atoms: C1_2  and  C2_3 
ROOT
ATOM      1  C2  UNL d   1      -1.385   1.293  -1.193  0.00  0.00    -0.081 A 
ATOM      2  C3  UNL d   1      -0.940   0.117  -1.808  0.00  0.00     0.006 A 
ATOM      3  C4  UNL d   1      -0.361  -0.904  -1.049  0.00  0.00     0.002 A 
ATOM      4  C5  UNL d   1      -0.226  -0.768   0.337  0.00  0.00    -0.080 A 
ATOM      5  C6  UNL d   1       0.366  -1.869   1.167  0.00  0.00     0.076 C 
ATOM      6  C7  UNL d   1      -0.654   0.415   0.949  0.00  0.00     0.002 A 
ATOM      7  C8  UNL d   1      -1.232   1.435   0.190  0.00  0.00     0.006 A 
ENDROOT
BRANCH   1   8
ATOM      8  C1  UNL d   1      -2.068   2.368  -1.999  0.00  0.00     0.054 C 
ATOM      9  C   UNL d   1      -2.487   1.851  -3.368  0.00  0.00     0.018 C 
ENDBRANCH   1   8
TORSDOF 1
ENDMDL
