MODEL 1
REMARK minimizedAffinity -1.30198824
REMARK minimizedRMSD -1
REMARK  1 active torsions:
REMARK  status: ('A' for Active; 'I' for Inactive)
REMARK    1  A    between atoms: C1_2  and  C2_3 
ROOT
ATOM      1  C2  UNL d   1      -2.266   2.751  -3.257  0.00  0.00    -0.081 A 
ATOM      2  C3  UNL d   1      -1.673   3.546  -2.270  0.00  0.00     0.006 A 
ATOM      3  C4  UNL d   1      -0.815   4.591  -2.622  0.00  0.00     0.002 A 
ATOM      4  C5  UNL d   1      -0.543   4.862  -3.967  0.00  0.00    -0.080 A 
ATOM      5  C6  UNL d   1       0.352   6.000  -4.361  0.00  0.00     0.076 C 
ATOM      6  C7  UNL d   1      -1.122   4.056  -4.954  0.00  0.00     0.002 A 
ATOM      7  C8  UNL d   1      -1.979   3.011  -4.602  0.00  0.00     0.006 A 
ENDROOT
BRANCH   1   8
ATOM      8  C1  UNL d   1      -3.242   1.664  -2.883  0.00  0.00     0.054 C 
ATOM      9  C   UNL d   1      -4.505   2.245  -2.263  0.00  0.00     0.018 C 
ENDBRANCH   1   8
TORSDOF 1
ENDMDL
