MODEL 1
REMARK minimizedAffinity -3.35342669
REMARK minimizedRMSD -1
REMARK  1 active torsions:
REMARK  status: ('A' for Active; 'I' for Inactive)
REMARK    1  A    between atoms: C1_2  and  C2_3 
ROOT
ATOM      1  C2  UNL d   1      -0.118   0.869  -0.362  0.00  0.00    -0.081 A 
ATOM      2  C3  UNL d   1       1.170   0.454  -0.725  0.00  0.00     0.006 A 
ATOM      3  C4  UNL d   1       1.717  -0.712  -0.183  0.00  0.00     0.002 A 
ATOM      4  C5  UNL d   1       0.984  -1.485   0.723  0.00  0.00    -0.080 A 
ATOM      5  C6  UNL d   1       1.548  -2.755   1.289  0.00  0.00     0.076 C 
ATOM      6  C7  UNL d   1      -0.295  -1.061   1.099  0.00  0.00     0.002 A 
ATOM      7  C8  UNL d   1      -0.843   0.104   0.558  0.00  0.00     0.006 A 
ENDROOT
BRANCH   1   8
ATOM      8  C1  UNL d   1      -0.735   2.090  -0.994  0.00  0.00     0.054 C 
ATOM      9  C   UNL d   1      -1.811   1.708  -2.001  0.00  0.00     0.018 C 
ENDBRANCH   1   8
TORSDOF 1
ENDMDL
