MODEL 1
REMARK minimizedAffinity -5.79305029
REMARK minimizedRMSD -1
REMARK  1 active torsions:
REMARK  status: ('A' for Active; 'I' for Inactive)
REMARK    1  A    between atoms: C1_2  and  C2_3 
ROOT
ATOM      1  C2  UNL d   1      -0.175   1.130  -0.749  0.00  0.00    -0.081 A 
ATOM      2  C3  UNL d   1       1.118   0.678  -1.042  0.00  0.00     0.006 A 
ATOM      3  C4  UNL d   1       1.637  -0.448  -0.399  0.00  0.00     0.002 A 
ATOM      4  C5  UNL d   1       0.870  -1.145   0.541  0.00  0.00    -0.080 A 
ATOM      5  C6  UNL d   1       1.405  -2.374   1.216  0.00  0.00     0.076 C 
ATOM      6  C7  UNL d   1      -0.414  -0.684   0.847  0.00  0.00     0.002 A 
ATOM      7  C8  UNL d   1      -0.934   0.443   0.205  0.00  0.00     0.006 A 
ENDROOT
BRANCH   1   8
ATOM      8  C1  UNL d   1      -0.762   2.305  -1.488  0.00  0.00     0.054 C 
ATOM      9  C   UNL d   1      -1.990   1.898  -2.289  0.00  0.00     0.018 C 
ENDBRANCH   1   8
TORSDOF 1
ENDMDL
