MODEL 1
REMARK minimizedAffinity 1.76208258
REMARK minimizedRMSD -1
REMARK  1 active torsions:
REMARK  status: ('A' for Active; 'I' for Inactive)
REMARK    1  A    between atoms: C1_2  and  C2_3 
ROOT
ATOM      1  C2  UNL d   1       1.831  -1.597   1.231  0.00  0.00    -0.081 A 
ATOM      2  C3  UNL d   1       2.100  -0.349   0.657  0.00  0.00     0.006 A 
ATOM      3  C4  UNL d   1       1.091   0.363   0.004  0.00  0.00     0.002 A 
ATOM      4  C5  UNL d   1      -0.205  -0.157  -0.078  0.00  0.00    -0.080 A 
ATOM      5  C6  UNL d   1      -1.305   0.611  -0.750  0.00  0.00     0.076 C 
ATOM      6  C7  UNL d   1      -0.470  -1.412   0.480  0.00  0.00     0.002 A 
ATOM      7  C8  UNL d   1       0.539  -2.125   1.132  0.00  0.00     0.006 A 
ENDROOT
BRANCH   1   8
ATOM      8  C1  UNL d   1       2.901  -2.338   1.992  0.00  0.00     0.054 C 
ATOM      9  C   UNL d   1       3.683  -1.400   2.901  0.00  0.00     0.018 C 
ENDBRANCH   1   8
TORSDOF 1
ENDMDL
