MODEL 1
REMARK minimizedAffinity -3.73152733
REMARK minimizedRMSD -1
REMARK  1 active torsions:
REMARK  status: ('A' for Active; 'I' for Inactive)
REMARK    1  A    between atoms: C1_2  and  C2_3 
ROOT
ATOM      1  C2  UNL d   1      -0.326   1.189  -0.625  0.00  0.00    -0.081 A 
ATOM      2  C3  UNL d   1       1.066   1.336  -0.596  0.00  0.00     0.006 A 
ATOM      3  C4  UNL d   1       1.869   0.357  -0.006  0.00  0.00     0.002 A 
ATOM      4  C5  UNL d   1       1.295  -0.788   0.556  0.00  0.00    -0.080 A 
ATOM      5  C6  UNL d   1       2.148  -1.862   1.165  0.00  0.00     0.076 C 
ATOM      6  C7  UNL d   1      -0.097  -0.927   0.542  0.00  0.00     0.002 A 
ATOM      7  C8  UNL d   1      -0.901   0.052  -0.047  0.00  0.00     0.006 A 
ENDROOT
BRANCH   1   8
ATOM      8  C1  UNL d   1      -1.190   2.212  -1.317  0.00  0.00     0.054 C 
ATOM      9  C   UNL d   1      -2.299   1.548  -2.121  0.00  0.00     0.018 C 
ENDBRANCH   1   8
TORSDOF 1
ENDMDL
