MODEL 1
REMARK minimizedAffinity -3.61300039
REMARK minimizedRMSD -1
REMARK  1 active torsions:
REMARK  status: ('A' for Active; 'I' for Inactive)
REMARK    1  A    between atoms: C1_2  and  C2_3 
ROOT
ATOM      1  C2  UNL d   1      -1.616   3.484  -4.057  0.00  0.00    -0.081 A 
ATOM      2  C3  UNL d   1      -3.011   3.510  -3.943  0.00  0.00     0.006 A 
ATOM      3  C4  UNL d   1      -3.686   2.486  -3.274  0.00  0.00     0.002 A 
ATOM      4  C5  UNL d   1      -2.978   1.423  -2.703  0.00  0.00    -0.080 A 
ATOM      5  C6  UNL d   1      -3.688   0.333  -1.957  0.00  0.00     0.076 C 
ATOM      6  C7  UNL d   1      -1.585   1.388  -2.833  0.00  0.00     0.002 A 
ATOM      7  C8  UNL d   1      -0.909   2.411  -3.501  0.00  0.00     0.006 A 
ENDROOT
BRANCH   1   8
ATOM      8  C1  UNL d   1      -0.879   4.619  -4.721  0.00  0.00     0.054 C 
ATOM      9  C   UNL d   1       0.274   5.111  -3.857  0.00  0.00     0.018 C 
ENDBRANCH   1   8
TORSDOF 1
ENDMDL
