MODEL 1
REMARK minimizedAffinity -5.20487976
REMARK minimizedRMSD -1
REMARK  1 active torsions:
REMARK  status: ('A' for Active; 'I' for Inactive)
REMARK    1  A    between atoms: C1_2  and  C2_3 
ROOT
ATOM      1  C2  UNL d   1      -0.536   0.897  -0.894  0.00  0.00    -0.081 A 
ATOM      2  C3  UNL d   1       0.807   0.608  -1.168  0.00  0.00     0.006 A 
ATOM      3  C4  UNL d   1       1.496  -0.340  -0.408  0.00  0.00     0.002 A 
ATOM      4  C5  UNL d   1       0.853  -1.020   0.632  0.00  0.00    -0.080 A 
ATOM      5  C6  UNL d   1       1.573  -2.061   1.436  0.00  0.00     0.076 C 
ATOM      6  C7  UNL d   1      -0.483  -0.719   0.917  0.00  0.00     0.002 A 
ATOM      7  C8  UNL d   1      -1.173   0.229   0.158  0.00  0.00     0.006 A 
ENDROOT
BRANCH   1   8
ATOM      8  C1  UNL d   1      -1.301   1.871  -1.753  0.00  0.00     0.054 C 
ATOM      9  C   UNL d   1      -2.200   1.147  -2.745  0.00  0.00     0.018 C 
ENDBRANCH   1   8
TORSDOF 1
ENDMDL
