MODEL 1
REMARK minimizedAffinity -3.23422432
REMARK minimizedRMSD -1
REMARK  1 active torsions:
REMARK  status: ('A' for Active; 'I' for Inactive)
REMARK    1  A    between atoms: C1_2  and  C2_3 
ROOT
ATOM      1  C2  UNL d   1      -0.069  -1.386   0.906  0.00  0.00    -0.081 A 
ATOM      2  C3  UNL d   1      -1.202  -0.567   0.977  0.00  0.00     0.006 A 
ATOM      3  C4  UNL d   1      -1.211   0.684   0.356  0.00  0.00     0.002 A 
ATOM      4  C5  UNL d   1      -0.092   1.133  -0.354  0.00  0.00    -0.080 A 
ATOM      5  C6  UNL d   1      -0.100   2.461  -1.051  0.00  0.00     0.076 C 
ATOM      6  C7  UNL d   1       1.046   0.322  -0.411  0.00  0.00     0.002 A 
ATOM      7  C8  UNL d   1       1.057  -0.929   0.211  0.00  0.00     0.006 A 
ENDROOT
BRANCH   1   8
ATOM      8  C1  UNL d   1      -0.078  -2.763   1.520  0.00  0.00     0.054 C 
ATOM      9  C   UNL d   1       1.312  -3.381   1.513  0.00  0.00     0.018 C 
ENDBRANCH   1   8
TORSDOF 1
ENDMDL
