MODEL 1
REMARK minimizedAffinity -1.0556066
REMARK minimizedRMSD -1
REMARK  1 active torsions:
REMARK  status: ('A' for Active; 'I' for Inactive)
REMARK    1  A    between atoms: C1_2  and  C2_3 
ROOT
ATOM      1  C2  UNL d   1      -0.460   0.976  -0.618  0.00  0.00    -0.081 A 
ATOM      2  C3  UNL d   1       0.932   0.824  -0.641  0.00  0.00     0.006 A 
ATOM      3  C4  UNL d   1       1.557  -0.104   0.195  0.00  0.00     0.002 A 
ATOM      4  C5  UNL d   1       0.801  -0.900   1.062  0.00  0.00    -0.080 A 
ATOM      5  C6  UNL d   1       1.456  -1.922   1.943  0.00  0.00     0.076 C 
ATOM      6  C7  UNL d   1      -0.588  -0.736   1.098  0.00  0.00     0.002 A 
ATOM      7  C8  UNL d   1      -1.214   0.193   0.263  0.00  0.00     0.006 A 
ENDROOT
BRANCH   1   8
ATOM      8  C1  UNL d   1      -1.143   1.931  -1.564  0.00  0.00     0.054 C 
ATOM      9  C   UNL d   1      -1.887   1.184  -2.661  0.00  0.00     0.018 C 
ENDBRANCH   1   8
TORSDOF 1
ENDMDL
