MODEL 1
REMARK minimizedAffinity -5.45588207
REMARK minimizedRMSD -1
REMARK  1 active torsions:
REMARK  status: ('A' for Active; 'I' for Inactive)
REMARK    1  A    between atoms: C1_2  and  C2_3 
ROOT
ATOM      1  C2  UNL d   1      -0.279   0.735  -0.391  0.00  0.00    -0.081 A 
ATOM      2  C3  UNL d   1       1.093   0.592  -0.627  0.00  0.00     0.006 A 
ATOM      3  C4  UNL d   1       1.777  -0.536  -0.166  0.00  0.00     0.002 A 
ATOM      4  C5  UNL d   1       1.100  -1.541   0.532  0.00  0.00    -0.080 A 
ATOM      5  C6  UNL d   1       1.816  -2.771   1.006  0.00  0.00     0.076 C 
ATOM      6  C7  UNL d   1      -0.268  -1.390   0.783  0.00  0.00     0.002 A 
ATOM      7  C8  UNL d   1      -0.953  -0.262   0.323  0.00  0.00     0.006 A 
ENDROOT
BRANCH   1   8
ATOM      8  C1  UNL d   1      -1.033   1.918  -0.943  0.00  0.00     0.054 C 
ATOM      9  C   UNL d   1      -1.948   1.507  -2.087  0.00  0.00     0.018 C 
ENDBRANCH   1   8
TORSDOF 1
ENDMDL
