MODEL 1
REMARK minimizedAffinity 0.927737892
REMARK minimizedRMSD -1
REMARK  1 active torsions:
REMARK  status: ('A' for Active; 'I' for Inactive)
REMARK    1  A    between atoms: C1_2  and  C2_3 
ROOT
ATOM      1  C2  UNL d   1       3.028   0.998  -4.984  0.00  0.00    -0.077 A 
ATOM      2  C3  UNL d   1       4.213   0.362  -4.587  0.00  0.00     0.002 A 
ATOM      3  C4  UNL d   1       5.447   0.987  -4.772  0.00  0.00     0.002 A 
ATOM      4  C5  UNL d   1       5.508   2.253  -5.351  0.00  0.00    -0.004 A 
ATOM      5  C6  UNL d   1       4.336   2.893  -5.752  0.00  0.00     0.002 A 
ATOM      6  C7  UNL d   1       3.102   2.269  -5.568  0.00  0.00     0.002 A 
ENDROOT
BRANCH   1   7
ATOM      7  C1  UNL d   1       1.692   0.346  -4.740  0.00  0.00     0.055 C 
ATOM      8  C   UNL d   1       1.624  -0.273  -3.351  0.00  0.00     0.019 C 
ENDBRANCH   1   7
TORSDOF 1
ENDMDL
