MODEL 1
REMARK minimizedAffinity 0.770717025
REMARK minimizedRMSD -1
REMARK  1 active torsions:
REMARK  status: ('A' for Active; 'I' for Inactive)
REMARK    1  A    between atoms: C1_2  and  C2_3 
ROOT
ATOM      1  C2  UNL d   1       0.874  -3.333   0.460  0.00  0.00    -0.077 A 
ATOM      2  C3  UNL d   1       1.178  -4.431   1.276  0.00  0.00     0.002 A 
ATOM      3  C4  UNL d   1       0.169  -5.303   1.691  0.00  0.00     0.002 A 
ATOM      4  C5  UNL d   1      -1.148  -5.088   1.291  0.00  0.00    -0.004 A 
ATOM      5  C6  UNL d   1      -1.460  -3.996   0.481  0.00  0.00     0.002 A 
ATOM      6  C7  UNL d   1      -0.454  -3.123   0.067  0.00  0.00     0.002 A 
ENDROOT
BRANCH   1   7
ATOM      7  C1  UNL d   1       1.968  -2.419  -0.029  0.00  0.00     0.055 C 
ATOM      8  C   UNL d   1       1.503  -1.582  -1.211  0.00  0.00     0.019 C 
ENDBRANCH   1   7
TORSDOF 1
ENDMDL
