MODEL 1
REMARK minimizedAffinity -1.21504474
REMARK minimizedRMSD -1
REMARK  1 active torsions:
REMARK  status: ('A' for Active; 'I' for Inactive)
REMARK    1  A    between atoms: C1_2  and  C2_3 
ROOT
ATOM      1  C2  UNL d   1      -3.458   3.341   5.061  0.00  0.00    -0.077 A 
ATOM      2  C3  UNL d   1      -4.406   3.772   5.999  0.00  0.00     0.002 A 
ATOM      3  C4  UNL d   1      -4.846   5.097   6.000  0.00  0.00     0.002 A 
ATOM      4  C5  UNL d   1      -4.347   6.000   5.063  0.00  0.00    -0.004 A 
ATOM      5  C6  UNL d   1      -3.402   5.581   4.127  0.00  0.00     0.002 A 
ATOM      6  C7  UNL d   1      -2.960   4.257   4.126  0.00  0.00     0.002 A 
ENDROOT
BRANCH   1   7
ATOM      7  C1  UNL d   1      -3.018   1.900   5.027  0.00  0.00     0.055 C 
ATOM      8  C   UNL d   1      -4.113   0.975   5.538  0.00  0.00     0.019 C 
ENDBRANCH   1   7
TORSDOF 1
ENDMDL
