MODEL 1
REMARK minimizedAffinity 2.03818989
REMARK minimizedRMSD -1
REMARK  1 active torsions:
REMARK  status: ('A' for Active; 'I' for Inactive)
REMARK    1  A    between atoms: C1_2  and  C2_3 
ROOT
ATOM      1  C2  UNL d   1       1.679  -0.775  -3.679  0.00  0.00    -0.077 A 
ATOM      2  C3  UNL d   1       1.469  -2.156  -3.798  0.00  0.00     0.002 A 
ATOM      3  C4  UNL d   1       1.120  -2.917  -2.680  0.00  0.00     0.002 A 
ATOM      4  C5  UNL d   1       0.975  -2.305  -1.437  0.00  0.00    -0.004 A 
ATOM      5  C6  UNL d   1       1.184  -0.933  -1.308  0.00  0.00     0.002 A 
ATOM      6  C7  UNL d   1       1.534  -0.171  -2.423  0.00  0.00     0.002 A 
ENDROOT
BRANCH   1   7
ATOM      7  C1  UNL d   1       2.007   0.055  -4.892  0.00  0.00     0.055 C 
ATOM      8  C   UNL d   1       3.485   0.414  -4.935  0.00  0.00     0.019 C 
ENDBRANCH   1   7
TORSDOF 1
ENDMDL
