MODEL 1
REMARK minimizedAffinity 2.38765931
REMARK minimizedRMSD -1
REMARK  1 active torsions:
REMARK  status: ('A' for Active; 'I' for Inactive)
REMARK    1  A    between atoms: C1_2  and  C2_3 
ROOT
ATOM      1  C2  UNL d   1       1.168  -1.184  -2.389  0.00  0.00    -0.077 A 
ATOM      2  C3  UNL d   1       0.805  -0.899  -1.065  0.00  0.00     0.002 A 
ATOM      3  C4  UNL d   1       0.470   0.403  -0.689  0.00  0.00     0.002 A 
ATOM      4  C5  UNL d   1       0.491   1.429  -1.631  0.00  0.00    -0.004 A 
ATOM      5  C6  UNL d   1       0.852   1.157  -2.950  0.00  0.00     0.002 A 
ATOM      6  C7  UNL d   1       1.188  -0.144  -3.327  0.00  0.00     0.002 A 
ENDROOT
BRANCH   1   7
ATOM      7  C1  UNL d   1       1.481  -2.597  -2.808  0.00  0.00     0.055 C 
ATOM      8  C   UNL d   1       1.122  -2.834  -4.267  0.00  0.00     0.019 C 
ENDBRANCH   1   7
TORSDOF 1
ENDMDL
