MODEL 1
REMARK minimizedAffinity 2.7853179
REMARK minimizedRMSD -1
REMARK  1 active torsions:
REMARK  status: ('A' for Active; 'I' for Inactive)
REMARK    1  A    between atoms: C1_2  and  C2_3 
ROOT
ATOM      1  C2  UNL d   1       0.955  -0.589  -1.257  0.00  0.00    -0.077 A 
ATOM      2  C3  UNL d   1       0.736   0.646  -1.883  0.00  0.00     0.002 A 
ATOM      3  C4  UNL d   1       0.858   0.767  -3.269  0.00  0.00     0.002 A 
ATOM      4  C5  UNL d   1       1.194  -0.344  -4.040  0.00  0.00    -0.004 A 
ATOM      5  C6  UNL d   1       1.415  -1.576  -3.427  0.00  0.00     0.002 A 
ATOM      6  C7  UNL d   1       1.295  -1.699  -2.042  0.00  0.00     0.002 A 
ENDROOT
BRANCH   1   7
ATOM      7  C1  UNL d   1       0.776  -0.733   0.232  0.00  0.00     0.055 C 
ATOM      8  C   UNL d   1      -0.369  -1.679   0.563  0.00  0.00     0.019 C 
ENDBRANCH   1   7
TORSDOF 1
ENDMDL
