MODEL 1
REMARK minimizedAffinity 1.40014791
REMARK minimizedRMSD -1
REMARK  1 active torsions:
REMARK  status: ('A' for Active; 'I' for Inactive)
REMARK    1  A    between atoms: C1_2  and  C2_3 
ROOT
ATOM      1  C2  UNL d   1      -3.347   2.707   4.915  0.00  0.00    -0.077 A 
ATOM      2  C3  UNL d   1      -4.060   3.255   5.990  0.00  0.00     0.002 A 
ATOM      3  C4  UNL d   1      -4.463   4.592   5.962  0.00  0.00     0.002 A 
ATOM      4  C5  UNL d   1      -4.163   5.389   4.860  0.00  0.00    -0.004 A 
ATOM      5  C6  UNL d   1      -3.453   4.853   3.786  0.00  0.00     0.002 A 
ATOM      6  C7  UNL d   1      -3.048   3.518   3.813  0.00  0.00     0.002 A 
ENDROOT
BRANCH   1   7
ATOM      7  C1  UNL d   1      -2.954   1.253   4.921  0.00  0.00     0.055 C 
ATOM      8  C   UNL d   1      -4.099   0.372   5.399  0.00  0.00     0.019 C 
ENDBRANCH   1   7
TORSDOF 1
ENDMDL
