MODEL 1
REMARK minimizedAffinity 15.3852501
REMARK minimizedRMSD -1
REMARK  0 active torsions:
REMARK  status: ('A' for Active; 'I' for Inactive)
ROOT
ATOM      1  C2' OXE d   1       0.502  -0.282   1.140  0.00  0.00     0.078 C 
ATOM      2  C1' OXE d   1      -1.396  -0.193   3.207  0.00  0.00     0.078 C 
ATOM      3  C1  OXE d   1      -1.863   0.123   1.808  0.00  0.00    -0.078 A 
ATOM      4  C2  OXE d   1      -0.919   0.123   0.811  0.00  0.00    -0.078 A 
ATOM      5  C3  OXE d   1      -1.306   0.354  -0.506  0.00  0.00     0.003 A 
ATOM      6  C4  OXE d   1      -2.620   0.737  -0.801  0.00  0.00    -0.002 A 
ATOM      7  C5  OXE d   1      -3.590   0.782   0.206  0.00  0.00    -0.002 A 
ATOM      8  C6  OXE d   1      -3.238   0.437   1.507  0.00  0.00     0.003 A 
ENDROOT
TORSDOF 0
ENDMDL
