MODEL 1
REMARK minimizedAffinity 3.66262484
REMARK minimizedRMSD -1
REMARK  0 active torsions:
REMARK  status: ('A' for Active; 'I' for Inactive)
ROOT
ATOM      1  C2' OXE d   1       6.000   5.977   2.490  0.00  0.00     0.078 C 
ATOM      2  C1' OXE d   1       4.761   5.327   0.057  0.00  0.00     0.078 C 
ATOM      3  C1  OXE d   1       4.394   4.513   1.272  0.00  0.00    -0.078 A 
ATOM      4  C2  OXE d   1       5.040   4.808   2.449  0.00  0.00    -0.078 A 
ATOM      5  C3  OXE d   1       4.699   4.124   3.612  0.00  0.00     0.003 A 
ATOM      6  C4  OXE d   1       3.817   3.037   3.563  0.00  0.00    -0.002 A 
ATOM      7  C5  OXE d   1       3.178   2.695   2.367  0.00  0.00    -0.002 A 
ATOM      8  C6  OXE d   1       3.423   3.448   1.224  0.00  0.00     0.003 A 
ENDROOT
TORSDOF 0
ENDMDL
