MODEL 1
REMARK minimizedAffinity 0.988289475
REMARK minimizedRMSD -1
REMARK  0 active torsions:
REMARK  status: ('A' for Active; 'I' for Inactive)
ROOT
ATOM      1  C2' OXE d   1       0.856  -0.678   0.026  0.00  0.00     0.078 C 
ATOM      2  C1' OXE d   1      -1.899  -0.263  -0.322  0.00  0.00     0.078 C 
ATOM      3  C1  OXE d   1      -1.378  -0.384   1.089  0.00  0.00    -0.078 A 
ATOM      4  C2  OXE d   1      -0.036  -0.633   1.248  0.00  0.00    -0.078 A 
ATOM      5  C3  OXE d   1       0.506  -0.698   2.529  0.00  0.00     0.003 A 
ATOM      6  C4  OXE d   1      -0.328  -0.666   3.653  0.00  0.00    -0.002 A 
ATOM      7  C5  OXE d   1      -1.703  -0.452   3.512  0.00  0.00    -0.002 A 
ATOM      8  C6  OXE d   1      -2.237  -0.267   2.241  0.00  0.00     0.003 A 
ENDROOT
TORSDOF 0
ENDMDL
