MODEL 1
REMARK minimizedAffinity 0.36591804
REMARK minimizedRMSD -1
REMARK  0 active torsions:
REMARK  status: ('A' for Active; 'I' for Inactive)
ROOT
ATOM      1  C2' OXE d   1      -3.153  -0.229   2.160  0.00  0.00     0.078 C 
ATOM      2  C1' OXE d   1      -3.576  -1.227  -0.429  0.00  0.00     0.078 C 
ATOM      3  C1  OXE d   1      -2.203  -0.703  -0.094  0.00  0.00    -0.078 A 
ATOM      4  C2  OXE d   1      -2.018  -0.173   1.161  0.00  0.00    -0.078 A 
ATOM      5  C3  OXE d   1      -0.756   0.275   1.541  0.00  0.00     0.003 A 
ATOM      6  C4  OXE d   1       0.287   0.332   0.608  0.00  0.00    -0.002 A 
ATOM      7  C5  OXE d   1       0.108  -0.165  -0.688  0.00  0.00    -0.002 A 
ATOM      8  C6  OXE d   1      -1.115  -0.724  -1.040  0.00  0.00     0.003 A 
ENDROOT
TORSDOF 0
ENDMDL
