MODEL 1
REMARK minimizedAffinity -0.875845313
REMARK minimizedRMSD -1
REMARK  0 active torsions:
REMARK  status: ('A' for Active; 'I' for Inactive)
ROOT
ATOM      1  C2' OXE d   1       1.828  -1.085   1.451  0.00  0.00     0.078 C 
ATOM      2  C1' OXE d   1       0.452  -1.223   3.894  0.00  0.00     0.078 C 
ATOM      3  C1  OXE d   1      -0.323  -0.793   2.673  0.00  0.00    -0.078 A 
ATOM      4  C2  OXE d   1       0.370  -0.683   1.491  0.00  0.00    -0.078 A 
ATOM      5  C3  OXE d   1      -0.308  -0.343   0.324  0.00  0.00     0.003 A 
ATOM      6  C4  OXE d   1      -1.655   0.037   0.372  0.00  0.00    -0.002 A 
ATOM      7  C5  OXE d   1      -2.369  -0.030   1.573  0.00  0.00    -0.002 A 
ATOM      8  C6  OXE d   1      -1.730  -0.482   2.722  0.00  0.00     0.003 A 
ENDROOT
TORSDOF 0
ENDMDL
