MODEL 1
REMARK minimizedAffinity -3.04850197
REMARK minimizedRMSD -1
REMARK  0 active torsions:
REMARK  status: ('A' for Active; 'I' for Inactive)
ROOT
ATOM      1  C   UNL d   1       2.225  -0.755  -2.065  0.00  0.00     0.023 A 
ATOM      2  C1  UNL d   1       1.846  -1.609  -1.030  0.00  0.00     0.003 A 
ATOM      3  C2  UNL d   1       0.793  -1.257  -0.183  0.00  0.00     0.048 A 
ATOM      4  C3  UNL d   1       0.123  -0.050  -0.378  0.00  0.00     0.023 A 
ATOM      5  C4  UNL d   1       0.498   0.807  -1.414  0.00  0.00     0.048 A 
ATOM      6  C5  UNL d   1       1.552   0.452  -2.257  0.00  0.00     0.003 A 
ATOM      7  I   UNL d   1      -1.445   0.475   0.881  0.00  0.00    -0.146 I 
ENDROOT
TORSDOF 0
ENDMDL
