MODEL 1
REMARK minimizedAffinity -2.0906992
REMARK minimizedRMSD -1
REMARK  0 active torsions:
REMARK  status: ('A' for Active; 'I' for Inactive)
ROOT
ATOM      1  C   UNL d   1       2.354  -0.364  -2.617  0.00  0.00     0.023 A 
ATOM      2  C1  UNL d   1       1.653   0.843  -2.610  0.00  0.00     0.003 A 
ATOM      3  C2  UNL d   1       0.589   1.028  -1.726  0.00  0.00     0.048 A 
ATOM      4  C3  UNL d   1       0.230   0.004  -0.850  0.00  0.00     0.023 A 
ATOM      5  C4  UNL d   1       0.929  -1.205  -0.853  0.00  0.00     0.048 A 
ATOM      6  C5  UNL d   1       1.992  -1.386  -1.740  0.00  0.00     0.003 A 
ATOM      7  I   UNL d   1      -1.354   0.278   0.467  0.00  0.00    -0.146 I 
ENDROOT
TORSDOF 0
ENDMDL
