MODEL 1
REMARK minimizedAffinity -1.42108536
REMARK minimizedRMSD -1
REMARK  0 active torsions:
REMARK  status: ('A' for Active; 'I' for Inactive)
ROOT
ATOM      1  C   UNL d   1       0.878  -1.047  -0.963  0.00  0.00     0.023 A 
ATOM      2  C1  UNL d   1       0.418   0.270  -0.976  0.00  0.00     0.003 A 
ATOM      3  C2  UNL d   1      -0.551   0.682  -0.059  0.00  0.00     0.048 A 
ATOM      4  C3  UNL d   1      -1.055  -0.229   0.870  0.00  0.00     0.023 A 
ATOM      5  C4  UNL d   1      -0.597  -1.547   0.887  0.00  0.00     0.048 A 
ATOM      6  C5  UNL d   1       0.371  -1.954  -0.033  0.00  0.00     0.003 A 
ATOM      7  I   UNL d   1      -2.497   0.381   2.236  0.00  0.00    -0.146 I 
ENDROOT
TORSDOF 0
ENDMDL
