MODEL 1
REMARK minimizedAffinity -1.28351212
REMARK minimizedRMSD -1
REMARK  0 active torsions:
REMARK  status: ('A' for Active; 'I' for Inactive)
ROOT
ATOM      1  C   UNL d   1      -2.403   1.764   3.443  0.00  0.00     0.023 A 
ATOM      2  C1  UNL d   1      -2.790   0.471   3.090  0.00  0.00     0.003 A 
ATOM      3  C2  UNL d   1      -2.158  -0.183   2.031  0.00  0.00     0.048 A 
ATOM      4  C3  UNL d   1      -1.139   0.460   1.329  0.00  0.00     0.023 A 
ATOM      5  C4  UNL d   1      -0.748   1.754   1.679  0.00  0.00     0.048 A 
ATOM      6  C5  UNL d   1      -1.384   2.405   2.738  0.00  0.00     0.003 A 
ATOM      7  I   UNL d   1      -0.197  -0.512  -0.248  0.00  0.00    -0.146 I 
ENDROOT
TORSDOF 0
ENDMDL
