MODEL 1
REMARK minimizedAffinity -4.81699705
REMARK minimizedRMSD -1
REMARK  0 active torsions:
REMARK  status: ('A' for Active; 'I' for Inactive)
ROOT
ATOM      1  C   UNL d   1       3.194   0.482  -2.357  0.00  0.00     0.023 A 
ATOM      2  C1  UNL d   1       2.244   1.495  -2.488  0.00  0.00     0.003 A 
ATOM      3  C2  UNL d   1       1.054   1.436  -1.760  0.00  0.00     0.048 A 
ATOM      4  C3  UNL d   1       0.822   0.362  -0.901  0.00  0.00     0.023 A 
ATOM      5  C4  UNL d   1       1.770  -0.653  -0.766  0.00  0.00     0.048 A 
ATOM      6  C5  UNL d   1       2.958  -0.590  -1.498  0.00  0.00     0.003 A 
ATOM      7  I   UNL d   1      -0.948   0.272   0.185  0.00  0.00    -0.146 I 
ENDROOT
TORSDOF 0
ENDMDL
