MODEL 1
REMARK minimizedAffinity -4.03988695
REMARK minimizedRMSD -1
REMARK  0 active torsions:
REMARK  status: ('A' for Active; 'I' for Inactive)
ROOT
ATOM      1  C   UNL d   1       2.790   0.600  -2.175  0.00  0.00     0.023 A 
ATOM      2  C1  UNL d   1       2.669  -0.371  -1.181  0.00  0.00     0.003 A 
ATOM      3  C2  UNL d   1       1.509  -0.438  -0.405  0.00  0.00     0.048 A 
ATOM      4  C3  UNL d   1       0.474   0.469  -0.630  0.00  0.00     0.023 A 
ATOM      5  C4  UNL d   1       0.590   1.442  -1.625  0.00  0.00     0.048 A 
ATOM      6  C5  UNL d   1       1.752   1.505  -2.397  0.00  0.00     0.003 A 
ATOM      7  I   UNL d   1      -1.253   0.372   0.522  0.00  0.00    -0.146 I 
ENDROOT
TORSDOF 0
ENDMDL
