MODEL 1
REMARK minimizedAffinity -4.004848
REMARK minimizedRMSD -1
REMARK  0 active torsions:
REMARK  status: ('A' for Active; 'I' for Inactive)
ROOT
ATOM      1  C   UNL d   1       1.330  -0.278  -1.146  0.00  0.00     0.023 A 
ATOM      2  C1  UNL d   1       0.579  -1.333  -0.628  0.00  0.00     0.003 A 
ATOM      3  C2  UNL d   1      -0.413  -1.084   0.323  0.00  0.00     0.048 A 
ATOM      4  C3  UNL d   1      -0.649   0.222   0.751  0.00  0.00     0.023 A 
ATOM      5  C4  UNL d   1       0.100   1.281   0.235  0.00  0.00     0.048 A 
ATOM      6  C5  UNL d   1       1.091   1.027  -0.716  0.00  0.00     0.003 A 
ATOM      7  I   UNL d   1      -2.124   0.594   2.166  0.00  0.00    -0.146 I 
ENDROOT
TORSDOF 0
ENDMDL
