MODEL 1
REMARK minimizedAffinity -4.32262754
REMARK minimizedRMSD -1
REMARK  0 active torsions:
REMARK  status: ('A' for Active; 'I' for Inactive)
ROOT
ATOM      1  C   UNL d   1      -1.581   0.824  -0.296  0.00  0.00     0.023 A 
ATOM      2  C1  UNL d   1      -1.047  -0.407   0.088  0.00  0.00     0.003 A 
ATOM      3  C2  UNL d   1       0.261  -0.743  -0.268  0.00  0.00     0.048 A 
ATOM      4  C3  UNL d   1       1.030   0.157  -1.006  0.00  0.00     0.023 A 
ATOM      5  C4  UNL d   1       0.500   1.389  -1.390  0.00  0.00     0.048 A 
ATOM      6  C5  UNL d   1      -0.808   1.721  -1.034  0.00  0.00     0.003 A 
ATOM      7  I   UNL d   1       2.977  -0.341  -1.535  0.00  0.00    -0.146 I 
ENDROOT
TORSDOF 0
ENDMDL
