MODEL 1
REMARK minimizedAffinity -3.18234158
REMARK minimizedRMSD -1
REMARK  0 active torsions:
REMARK  status: ('A' for Active; 'I' for Inactive)
ROOT
ATOM      1  C   UNL d   1      -1.422   0.255   0.240  0.00  0.00     0.023 A 
ATOM      2  C1  UNL d   1      -0.692   1.306  -0.316  0.00  0.00     0.003 A 
ATOM      3  C2  UNL d   1       0.648   1.121  -0.663  0.00  0.00     0.048 A 
ATOM      4  C3  UNL d   1       1.251  -0.119  -0.453  0.00  0.00     0.023 A 
ATOM      5  C4  UNL d   1       0.525  -1.173   0.102  0.00  0.00     0.048 A 
ATOM      6  C5  UNL d   1      -0.814  -0.983   0.449  0.00  0.00     0.003 A 
ATOM      7  I   UNL d   1       3.245  -0.397  -0.969  0.00  0.00    -0.146 I 
ENDROOT
TORSDOF 0
ENDMDL
