MODEL 1
REMARK minimizedAffinity -4.76681519
REMARK minimizedRMSD -1
REMARK  0 active torsions:
REMARK  status: ('A' for Active; 'I' for Inactive)
ROOT
ATOM      1  C   UNL d   1       3.039   0.534  -2.548  0.00  0.00     0.023 A 
ATOM      2  C1  UNL d   1       1.956   1.400  -2.698  0.00  0.00     0.003 A 
ATOM      3  C2  UNL d   1       0.837   1.271  -1.873  0.00  0.00     0.048 A 
ATOM      4  C3  UNL d   1       0.807   0.274  -0.899  0.00  0.00     0.023 A 
ATOM      5  C4  UNL d   1       1.889  -0.595  -0.744  0.00  0.00     0.048 A 
ATOM      6  C5  UNL d   1       3.005  -0.463  -1.572  0.00  0.00     0.003 A 
ATOM      7  I   UNL d   1      -0.857   0.080   0.330  0.00  0.00    -0.146 I 
ENDROOT
TORSDOF 0
ENDMDL
