MODEL 1
REMARK minimizedAffinity -1.07730174
REMARK minimizedRMSD -1
REMARK  0 active torsions:
REMARK  status: ('A' for Active; 'I' for Inactive)
ROOT
ATOM      1  C   UNL d   1      -2.370   1.380   4.308  0.00  0.00     0.023 A 
ATOM      2  C1  UNL d   1      -2.967   0.352   3.577  0.00  0.00     0.003 A 
ATOM      3  C2  UNL d   1      -2.508   0.049   2.294  0.00  0.00     0.048 A 
ATOM      4  C3  UNL d   1      -1.450   0.776   1.748  0.00  0.00     0.023 A 
ATOM      5  C4  UNL d   1      -0.849   1.804   2.476  0.00  0.00     0.048 A 
ATOM      6  C5  UNL d   1      -1.313   2.104   3.758  0.00  0.00     0.003 A 
ATOM      7  I   UNL d   1      -0.764   0.326  -0.162  0.00  0.00    -0.146 I 
ENDROOT
TORSDOF 0
ENDMDL
