MODEL 1
REMARK minimizedAffinity -2.58304381
REMARK minimizedRMSD -1
REMARK  0 active torsions:
REMARK  status: ('A' for Active; 'I' for Inactive)
ROOT
ATOM      1  C   UNL d   1       1.816  -0.695  -1.557  0.00  0.00     0.023 A 
ATOM      2  C1  UNL d   1       1.111   0.508  -1.601  0.00  0.00     0.003 A 
ATOM      3  C2  UNL d   1       0.251   0.853  -0.557  0.00  0.00     0.048 A 
ATOM      4  C3  UNL d   1       0.100  -0.009   0.529  0.00  0.00     0.023 A 
ATOM      5  C4  UNL d   1       0.804  -1.214   0.577  0.00  0.00     0.048 A 
ATOM      6  C5  UNL d   1       1.662  -1.555  -0.470  0.00  0.00     0.003 A 
ATOM      7  I   UNL d   1      -1.180   0.502   2.084  0.00  0.00    -0.146 I 
ENDROOT
TORSDOF 0
ENDMDL
