MODEL 1
REMARK minimizedAffinity -3.44219208
REMARK minimizedRMSD -1
REMARK  0 active torsions:
REMARK  status: ('A' for Active; 'I' for Inactive)
ROOT
ATOM      1  C   UNL d   1       0.506  -0.702  -1.026  0.00  0.00     0.023 A 
ATOM      2  C1  UNL d   1       0.145   0.639  -0.898  0.00  0.00     0.003 A 
ATOM      3  C2  UNL d   1      -0.644   1.052   0.178  0.00  0.00     0.048 A 
ATOM      4  C3  UNL d   1      -1.069   0.118   1.122  0.00  0.00     0.023 A 
ATOM      5  C4  UNL d   1      -0.709  -1.226   0.999  0.00  0.00     0.048 A 
ATOM      6  C5  UNL d   1       0.079  -1.633  -0.079  0.00  0.00     0.003 A 
ATOM      7  I   UNL d   1      -2.243   0.729   2.724  0.00  0.00    -0.146 I 
ENDROOT
TORSDOF 0
ENDMDL
