MODEL 1
REMARK minimizedAffinity -3.63501906
REMARK minimizedRMSD -1
REMARK  0 active torsions:
REMARK  status: ('A' for Active; 'I' for Inactive)
ROOT
ATOM      1  C   UNL d   1       0.400  -0.797   0.006  0.00  0.00     0.172 C 
ATOM      2  N   UNL d   1      -0.523   0.233   0.423  0.00  0.00    -0.070 N 
ATOM      3  C1  UNL d   1      -0.774   1.399  -0.249  0.00  0.00    -0.004 A 
ATOM      4  C2  UNL d   1      -1.711   2.108   0.472  0.00  0.00    -0.047 A 
ATOM      5  C3  UNL d   1      -2.033   1.341   1.617  0.00  0.00    -0.047 A 
ATOM      6  C4  UNL d   1      -1.283   0.185   1.562  0.00  0.00    -0.004 A 
ENDROOT
TORSDOF 0
ENDMDL
