MODEL 1
REMARK minimizedAffinity -2.16628003
REMARK minimizedRMSD -1
REMARK  0 active torsions:
REMARK  status: ('A' for Active; 'I' for Inactive)
ROOT
ATOM      1  C   UNL d   1      -1.356   1.431   1.404  0.00  0.00     0.172 C 
ATOM      2  N   UNL d   1      -0.455   0.776   0.485  0.00  0.00    -0.070 N 
ATOM      3  C1  UNL d   1      -0.046   1.275  -0.723  0.00  0.00    -0.004 A 
ATOM      4  C2  UNL d   1       0.806   0.354  -1.293  0.00  0.00    -0.047 A 
ATOM      5  C3  UNL d   1       0.912  -0.736  -0.397  0.00  0.00    -0.047 A 
ATOM      6  C4  UNL d   1       0.121  -0.448   0.695  0.00  0.00    -0.004 A 
ENDROOT
TORSDOF 0
ENDMDL
