MODEL 1
REMARK minimizedAffinity -3.43737507
REMARK minimizedRMSD -1
REMARK  0 active torsions:
REMARK  status: ('A' for Active; 'I' for Inactive)
ROOT
ATOM      1  C   UNL d   1       1.110  -1.483  -0.940  0.00  0.00     0.172 C 
ATOM      2  N   UNL d   1       0.650  -2.749  -1.460  0.00  0.00    -0.070 N 
ATOM      3  C1  UNL d   1       0.541  -3.913  -0.746  0.00  0.00    -0.004 A 
ATOM      4  C2  UNL d   1       0.068  -4.888  -1.597  0.00  0.00    -0.047 A 
ATOM      5  C3  UNL d   1      -0.112  -4.290  -2.867  0.00  0.00    -0.047 A 
ATOM      6  C4  UNL d   1       0.256  -2.966  -2.754  0.00  0.00    -0.004 A 
ENDROOT
TORSDOF 0
ENDMDL
