MODEL 1
REMARK minimizedAffinity -3.73012114
REMARK minimizedRMSD -1
REMARK  0 active torsions:
REMARK  status: ('A' for Active; 'I' for Inactive)
ROOT
ATOM      1  C   UNL d   1      -2.131   1.896   1.732  0.00  0.00     0.172 C 
ATOM      2  N   UNL d   1      -1.202   1.195   0.877  0.00  0.00    -0.070 N 
ATOM      3  C1  UNL d   1      -0.715   1.653  -0.318  0.00  0.00    -0.004 A 
ATOM      4  C2  UNL d   1       0.140   0.696  -0.820  0.00  0.00    -0.047 A 
ATOM      5  C3  UNL d   1       0.166  -0.376   0.104  0.00  0.00    -0.047 A 
ATOM      6  C4  UNL d   1      -0.673  -0.040   1.145  0.00  0.00    -0.004 A 
ENDROOT
TORSDOF 0
ENDMDL
