MODEL 1
REMARK minimizedAffinity -3.28105783
REMARK minimizedRMSD -1
REMARK  0 active torsions:
REMARK  status: ('A' for Active; 'I' for Inactive)
ROOT
ATOM      1  C   UNL d   1       0.631  -0.309  -0.640  0.00  0.00     0.172 C 
ATOM      2  N   UNL d   1      -0.319   0.380   0.201  0.00  0.00    -0.070 N 
ATOM      3  C1  UNL d   1      -0.897  -0.128   1.333  0.00  0.00    -0.004 A 
ATOM      4  C2  UNL d   1      -1.740   0.835   1.845  0.00  0.00    -0.047 A 
ATOM      5  C3  UNL d   1      -1.666   1.960   0.989  0.00  0.00    -0.047 A 
ATOM      6  C4  UNL d   1      -0.779   1.651  -0.020  0.00  0.00    -0.004 A 
ENDROOT
TORSDOF 0
ENDMDL
