MODEL 1
REMARK minimizedAffinity 0.509427488
REMARK minimizedRMSD -1
REMARK  0 active torsions:
REMARK  status: ('A' for Active; 'I' for Inactive)
ROOT
ATOM      1  C   UNL d   1       5.999  -0.715  -4.952  0.00  0.00     0.172 C 
ATOM      2  N   UNL d   1       5.294  -1.744  -4.223  0.00  0.00    -0.070 N 
ATOM      3  C1  UNL d   1       5.675  -2.272  -3.019  0.00  0.00    -0.004 A 
ATOM      4  C2  UNL d   1       4.743  -3.222  -2.661  0.00  0.00    -0.047 A 
ATOM      5  C3  UNL d   1       3.769  -3.266  -3.686  0.00  0.00    -0.047 A 
ATOM      6  C4  UNL d   1       4.135  -2.341  -4.641  0.00  0.00    -0.004 A 
ENDROOT
TORSDOF 0
ENDMDL
