MODEL 1
REMARK minimizedAffinity -2.9057405
REMARK minimizedRMSD -1
REMARK  0 active torsions:
REMARK  status: ('A' for Active; 'I' for Inactive)
ROOT
ATOM      1  C   UNL d   1       0.594  -0.714  -0.146  0.00  0.00     0.172 C 
ATOM      2  N   UNL d   1       0.307  -1.528  -1.303  0.00  0.00    -0.070 N 
ATOM      3  C1  UNL d   1      -0.100  -1.063  -2.526  0.00  0.00    -0.004 A 
ATOM      4  C2  UNL d   1      -0.267  -2.150  -3.356  0.00  0.00    -0.047 A 
ATOM      5  C3  UNL d   1       0.049  -3.308  -2.607  0.00  0.00    -0.047 A 
ATOM      6  C4  UNL d   1       0.401  -2.894  -1.340  0.00  0.00    -0.004 A 
ENDROOT
TORSDOF 0
ENDMDL
