MODEL 1
REMARK minimizedAffinity -4.03306484
REMARK minimizedRMSD -1
REMARK  0 active torsions:
REMARK  status: ('A' for Active; 'I' for Inactive)
ROOT
ATOM      1  C   UNL d   1       0.183  -0.309   1.185  0.00  0.00     0.172 C 
ATOM      2  N   UNL d   1      -0.772   0.775   1.175  0.00  0.00    -0.070 N 
ATOM      3  C1  UNL d   1      -1.453   1.228   0.077  0.00  0.00    -0.004 A 
ATOM      4  C2  UNL d   1      -2.263   2.267   0.482  0.00  0.00    -0.047 A 
ATOM      5  C3  UNL d   1      -2.060   2.446   1.871  0.00  0.00    -0.047 A 
ATOM      6  C4  UNL d   1      -1.132   1.509   2.274  0.00  0.00    -0.004 A 
ENDROOT
TORSDOF 0
ENDMDL
