MODEL 1
REMARK minimizedAffinity -3.41546082
REMARK minimizedRMSD -1
REMARK  0 active torsions:
REMARK  status: ('A' for Active; 'I' for Inactive)
ROOT
ATOM      1  C   UNL d   1       0.339  -0.411  -0.389  0.00  0.00     0.172 C 
ATOM      2  N   UNL d   1      -0.401   0.256   0.656  0.00  0.00    -0.070 N 
ATOM      3  C1  UNL d   1      -0.289   0.005   1.998  0.00  0.00    -0.004 A 
ATOM      4  C2  UNL d   1      -1.158   0.846   2.658  0.00  0.00    -0.047 A 
ATOM      5  C3  UNL d   1      -1.816   1.628   1.680  0.00  0.00    -0.047 A 
ATOM      6  C4  UNL d   1      -1.329   1.242   0.449  0.00  0.00    -0.004 A 
ENDROOT
TORSDOF 0
ENDMDL
