MODEL 1
REMARK minimizedAffinity -3.42273259
REMARK minimizedRMSD -1
REMARK  0 active torsions:
REMARK  status: ('A' for Active; 'I' for Inactive)
ROOT
ATOM      1  C   UNL d   1       0.359  -0.873  -0.739  0.00  0.00     0.172 C 
ATOM      2  N   UNL d   1      -0.222  -0.052   0.298  0.00  0.00    -0.070 N 
ATOM      3  C1  UNL d   1      -0.973  -0.506   1.349  0.00  0.00    -0.004 A 
ATOM      4  C2  UNL d   1      -1.337   0.584   2.109  0.00  0.00    -0.047 A 
ATOM      5  C3  UNL d   1      -0.786   1.733   1.494  0.00  0.00    -0.047 A 
ATOM      6  C4  UNL d   1      -0.101   1.311   0.374  0.00  0.00    -0.004 A 
ENDROOT
TORSDOF 0
ENDMDL
