MODEL 1
REMARK minimizedAffinity -3.47509336
REMARK minimizedRMSD -1
REMARK  0 active torsions:
REMARK  status: ('A' for Active; 'I' for Inactive)
ROOT
ATOM      1  C   UNL d   1       0.370   2.726  -1.115  0.00  0.00     0.172 C 
ATOM      2  N   UNL d   1      -0.058   1.869  -0.035  0.00  0.00    -0.070 N 
ATOM      3  C1  UNL d   1      -0.596   2.288   1.152  0.00  0.00    -0.004 A 
ATOM      4  C2  UNL d   1      -0.872   1.170   1.909  0.00  0.00    -0.047 A 
ATOM      5  C3  UNL d   1      -0.485   0.039   1.151  0.00  0.00    -0.047 A 
ATOM      6  C4  UNL d   1       0.015   0.501  -0.048  0.00  0.00    -0.004 A 
ENDROOT
TORSDOF 0
ENDMDL
