MODEL 1
REMARK minimizedAffinity -2.84544754
REMARK minimizedRMSD -1
REMARK  0 active torsions:
REMARK  status: ('A' for Active; 'I' for Inactive)
ROOT
ATOM      1  C   UNL d   1       0.466   0.158  -0.799  0.00  0.00     0.172 C 
ATOM      2  N   UNL d   1       0.261  -1.153  -1.370  0.00  0.00    -0.070 N 
ATOM      3  C1  UNL d   1      -0.508  -1.434  -2.468  0.00  0.00    -0.004 A 
ATOM      4  C2  UNL d   1      -0.445  -2.792  -2.690  0.00  0.00    -0.047 A 
ATOM      5  C3  UNL d   1       0.389  -3.347  -1.691  0.00  0.00    -0.047 A 
ATOM      6  C4  UNL d   1       0.813  -2.310  -0.887  0.00  0.00    -0.004 A 
ENDROOT
TORSDOF 0
ENDMDL
