MODEL 1
REMARK minimizedAffinity -2.49200106
REMARK minimizedRMSD -1
REMARK  0 active torsions:
REMARK  status: ('A' for Active; 'I' for Inactive)
ROOT
ATOM      1  C   UNL d   1      -0.237  -0.089   1.671  0.00  0.00     0.172 C 
ATOM      2  N   UNL d   1      -0.425   0.742   0.505  0.00  0.00    -0.070 N 
ATOM      3  C1  UNL d   1      -1.325   1.768   0.392  0.00  0.00    -0.004 A 
ATOM      4  C2  UNL d   1      -1.193   2.307  -0.869  0.00  0.00    -0.047 A 
ATOM      5  C3  UNL d   1      -0.180   1.580  -1.538  0.00  0.00    -0.047 A 
ATOM      6  C4  UNL d   1       0.278   0.617  -0.664  0.00  0.00    -0.004 A 
ENDROOT
TORSDOF 0
ENDMDL
