MODEL 1
REMARK minimizedAffinity -1.37784767
REMARK minimizedRMSD -1
REMARK  0 active torsions:
REMARK  status: ('A' for Active; 'I' for Inactive)
ROOT
ATOM      1  C   UNL d   1       0.682  -4.015   1.040  0.00  0.00     0.172 C 
ATOM      2  N   UNL d   1      -0.121  -2.817   0.963  0.00  0.00    -0.070 N 
ATOM      3  C1  UNL d   1      -1.484  -2.761   1.077  0.00  0.00    -0.004 A 
ATOM      4  C2  UNL d   1      -1.865  -1.442   0.949  0.00  0.00    -0.047 A 
ATOM      5  C3  UNL d   1      -0.689  -0.680   0.750  0.00  0.00    -0.047 A 
ATOM      6  C4  UNL d   1       0.376  -1.556   0.764  0.00  0.00    -0.004 A 
ENDROOT
TORSDOF 0
ENDMDL
