MODEL 1
REMARK minimizedAffinity -3.42865467
REMARK minimizedRMSD -1
REMARK  0 active torsions:
REMARK  status: ('A' for Active; 'I' for Inactive)
ROOT
ATOM      1  C   UNL d   1       0.114   1.200  -0.239  0.00  0.00     0.172 C 
ATOM      2  N   UNL d   1      -0.324  -0.084   0.255  0.00  0.00    -0.070 N 
ATOM      3  C1  UNL d   1       0.004  -1.300  -0.282  0.00  0.00    -0.004 A 
ATOM      4  C2  UNL d   1      -0.609  -2.275   0.474  0.00  0.00    -0.047 A 
ATOM      5  C3  UNL d   1      -1.332  -1.622   1.501  0.00  0.00    -0.047 A 
ATOM      6  C4  UNL d   1      -1.138  -0.266   1.342  0.00  0.00    -0.004 A 
ENDROOT
TORSDOF 0
ENDMDL
