MODEL 1
REMARK minimizedAffinity -1.84364808
REMARK minimizedRMSD -1
REMARK  0 active torsions:
REMARK  status: ('A' for Active; 'I' for Inactive)
ROOT
ATOM      1  C   UNL d   1       0.003   1.036  -0.070  0.00  0.00     0.172 C 
ATOM      2  N   UNL d   1      -0.423  -0.251   0.427  0.00  0.00    -0.070 N 
ATOM      3  C1  UNL d   1      -0.582  -0.585   1.746  0.00  0.00    -0.004 A 
ATOM      4  C2  UNL d   1      -0.999  -1.898   1.802  0.00  0.00    -0.047 A 
ATOM      5  C3  UNL d   1      -1.092  -2.369   0.471  0.00  0.00    -0.047 A 
ATOM      6  C4  UNL d   1      -0.730  -1.330  -0.360  0.00  0.00    -0.004 A 
ENDROOT
TORSDOF 0
ENDMDL
