MODEL 1
REMARK minimizedAffinity -1.75079858
REMARK minimizedRMSD -1
REMARK  0 active torsions:
REMARK  status: ('A' for Active; 'I' for Inactive)
ROOT
ATOM      1  C   UNL d   1       0.647  -0.362  -2.942  0.00  0.00     0.172 C 
ATOM      2  N   UNL d   1       0.166  -0.328  -1.581  0.00  0.00    -0.070 N 
ATOM      3  C1  UNL d   1      -0.007   0.799  -0.823  0.00  0.00    -0.004 A 
ATOM      4  C2  UNL d   1      -0.480   0.409   0.412  0.00  0.00    -0.047 A 
ATOM      5  C3  UNL d   1      -0.595  -1.002   0.395  0.00  0.00    -0.047 A 
ATOM      6  C4  UNL d   1      -0.188  -1.432  -0.851  0.00  0.00    -0.004 A 
ENDROOT
TORSDOF 0
ENDMDL
