MODEL 1
REMARK minimizedAffinity -3.52071118
REMARK minimizedRMSD -1
REMARK  0 active torsions:
REMARK  status: ('A' for Active; 'I' for Inactive)
ROOT
ATOM      1  C   UNL d   1      -1.062  -0.269   1.147  0.00  0.00     0.172 C 
ATOM      2  N   UNL d   1      -0.441  -1.272   0.315  0.00  0.00    -0.070 N 
ATOM      3  C1  UNL d   1       0.128  -1.051  -0.912  0.00  0.00    -0.004 A 
ATOM      4  C2  UNL d   1       0.608  -2.257  -1.377  0.00  0.00    -0.047 A 
ATOM      5  C3  UNL d   1       0.317  -3.235  -0.397  0.00  0.00    -0.047 A 
ATOM      6  C4  UNL d   1      -0.332  -2.598   0.640  0.00  0.00    -0.004 A 
ENDROOT
TORSDOF 0
ENDMDL
