MODEL 1
REMARK minimizedAffinity -4.02423191
REMARK minimizedRMSD -1
REMARK  0 active torsions:
REMARK  status: ('A' for Active; 'I' for Inactive)
ROOT
ATOM      1  C   UNL d   1       0.801   0.798  -0.025  0.00  0.00     0.172 C 
ATOM      2  N   UNL d   1       0.327  -0.556   0.143  0.00  0.00    -0.070 N 
ATOM      3  C1  UNL d   1       0.990  -1.688  -0.249  0.00  0.00    -0.004 A 
ATOM      4  C2  UNL d   1       0.209  -2.773   0.087  0.00  0.00    -0.047 A 
ATOM      5  C3  UNL d   1      -0.964  -2.275   0.702  0.00  0.00    -0.047 A 
ATOM      6  C4  UNL d   1      -0.865  -0.900   0.724  0.00  0.00    -0.004 A 
ENDROOT
TORSDOF 0
ENDMDL
