MODEL 1
REMARK minimizedAffinity -3.71422791
REMARK minimizedRMSD -1
REMARK  0 active torsions:
REMARK  status: ('A' for Active; 'I' for Inactive)
ROOT
ATOM      1  C   UNL d   1       0.813  -0.073  -2.151  0.00  0.00     0.172 C 
ATOM      2  N   UNL d   1       0.950   1.101  -1.322  0.00  0.00    -0.070 N 
ATOM      3  C1  UNL d   1       2.059   1.902  -1.248  0.00  0.00    -0.004 A 
ATOM      4  C2  UNL d   1       1.791   2.911  -0.349  0.00  0.00    -0.047 A 
ATOM      5  C3  UNL d   1       0.477   2.709   0.136  0.00  0.00    -0.047 A 
ATOM      6  C4  UNL d   1      -0.020   1.582  -0.483  0.00  0.00    -0.004 A 
ENDROOT
TORSDOF 0
ENDMDL
