MODEL 1
REMARK minimizedAffinity -3.81415558
REMARK minimizedRMSD -1
REMARK  0 active torsions:
REMARK  status: ('A' for Active; 'I' for Inactive)
ROOT
ATOM      1  C   UNL d   1       0.009   0.907  -0.037  0.00  0.00     0.172 C 
ATOM      2  N   UNL d   1      -0.373  -0.442   0.307  0.00  0.00    -0.070 N 
ATOM      3  C1  UNL d   1      -0.688  -0.887   1.564  0.00  0.00    -0.004 A 
ATOM      4  C2  UNL d   1      -0.997  -2.227   1.472  0.00  0.00    -0.047 A 
ATOM      5  C3  UNL d   1      -0.862  -2.601   0.114  0.00  0.00    -0.047 A 
ATOM      6  C4  UNL d   1      -0.475  -1.477  -0.585  0.00  0.00    -0.004 A 
ENDROOT
TORSDOF 0
ENDMDL
