MODEL 1
REMARK minimizedAffinity -1.95202148
REMARK minimizedRMSD -1
REMARK  0 active torsions:
REMARK  status: ('A' for Active; 'I' for Inactive)
ROOT
ATOM      1  C   UNL d   1      -0.853  -2.436   0.442  0.00  0.00     0.172 C 
ATOM      2  N   UNL d   1      -0.458  -1.232  -0.250  0.00  0.00    -0.070 N 
ATOM      3  C1  UNL d   1       0.080  -1.174  -1.508  0.00  0.00    -0.004 A 
ATOM      4  C2  UNL d   1       0.318   0.150  -1.805  0.00  0.00    -0.047 A 
ATOM      5  C3  UNL d   1      -0.091   0.915  -0.687  0.00  0.00    -0.047 A 
ATOM      6  C4  UNL d   1      -0.567   0.034   0.261  0.00  0.00    -0.004 A 
ENDROOT
TORSDOF 0
ENDMDL
