MODEL 1
REMARK minimizedAffinity -3.44208646
REMARK minimizedRMSD -1
REMARK  0 active torsions:
REMARK  status: ('A' for Active; 'I' for Inactive)
ROOT
ATOM      1  C   UNL d   1       1.522   3.338   0.532  0.00  0.00     0.172 C 
ATOM      2  N   UNL d   1       1.117   2.250  -0.326  0.00  0.00    -0.070 N 
ATOM      3  C1  UNL d   1      -0.068   1.568  -0.246  0.00  0.00    -0.004 A 
ATOM      4  C2  UNL d   1      -0.071   0.610  -1.237  0.00  0.00    -0.047 A 
ATOM      5  C3  UNL d   1       1.154   0.719  -1.936  0.00  0.00    -0.047 A 
ATOM      6  C4  UNL d   1       1.871   1.742  -1.351  0.00  0.00    -0.004 A 
ENDROOT
TORSDOF 0
ENDMDL
