MODEL 1
REMARK minimizedAffinity 0.0475974567
REMARK minimizedRMSD -1
REMARK  0 active torsions:
REMARK  status: ('A' for Active; 'I' for Inactive)
ROOT
ATOM      1  C   UNL d   1       0.873   3.239   1.408  0.00  0.00     0.172 C 
ATOM      2  N   UNL d   1       0.511   1.907   0.985  0.00  0.00    -0.070 N 
ATOM      3  C1  UNL d   1       0.996   1.261  -0.121  0.00  0.00    -0.004 A 
ATOM      4  C2  UNL d   1       0.408   0.016  -0.174  0.00  0.00    -0.047 A 
ATOM      5  C3  UNL d   1      -0.461  -0.090   0.938  0.00  0.00    -0.047 A 
ATOM      6  C4  UNL d   1      -0.378   1.095   1.638  0.00  0.00    -0.004 A 
ENDROOT
TORSDOF 0
ENDMDL
