MODEL 1
REMARK minimizedAffinity -0.44315514
REMARK minimizedRMSD -1
REMARK  0 active torsions:
REMARK  status: ('A' for Active; 'I' for Inactive)
ROOT
ATOM      1  C   UNL d   1       5.977  -1.059   5.881  0.00  0.00     0.172 C 
ATOM      2  N   UNL d   1       5.022  -2.141   5.928  0.00  0.00    -0.070 N 
ATOM      3  C1  UNL d   1       5.329  -3.476   5.950  0.00  0.00    -0.004 A 
ATOM      4  C2  UNL d   1       4.145  -4.180   5.995  0.00  0.00    -0.047 A 
ATOM      5  C3  UNL d   1       3.090  -3.236   5.998  0.00  0.00    -0.047 A 
ATOM      6  C4  UNL d   1       3.662  -1.982   5.956  0.00  0.00    -0.004 A 
ENDROOT
TORSDOF 0
ENDMDL
