MODEL 1
REMARK minimizedAffinity -2.74247003
REMARK minimizedRMSD -1
REMARK  0 active torsions:
REMARK  status: ('A' for Active; 'I' for Inactive)
ROOT
ATOM      1  C   UNL d   1      -0.066   1.260  -0.163  0.00  0.00     0.172 C 
ATOM      2  N   UNL d   1      -0.394  -0.131   0.045  0.00  0.00    -0.070 N 
ATOM      3  C1  UNL d   1      -1.241  -0.616   1.005  0.00  0.00    -0.004 A 
ATOM      4  C2  UNL d   1      -1.286  -1.988   0.873  0.00  0.00    -0.047 A 
ATOM      5  C3  UNL d   1      -0.436  -2.338  -0.203  0.00  0.00    -0.047 A 
ATOM      6  C4  UNL d   1       0.104  -1.169  -0.697  0.00  0.00    -0.004 A 
ENDROOT
TORSDOF 0
ENDMDL
