MODEL 1
REMARK minimizedAffinity -3.84676647
REMARK minimizedRMSD -1
REMARK  0 active torsions:
REMARK  status: ('A' for Active; 'I' for Inactive)
ROOT
ATOM      1  C   UNL d   1       4.100   0.770   0.060  0.00  0.00    -0.002 A 
ATOM      2  C1  UNL d   1       3.355   1.936   0.168  0.00  0.00     0.010 A 
ATOM      3  C2  UNL d   1       1.960   1.893   0.122  0.00  0.00     0.041 A 
ATOM      4  C3  UNL d   1       1.321   0.648  -0.034  0.00  0.00    -0.075 A 
ATOM      5  S   UNL d   1      -0.376   0.353  -0.117  0.00  0.00     0.015 SA
ATOM      6  C4  UNL d   1      -0.151  -1.327  -0.296  0.00  0.00     0.022 A 
ATOM      7  C5  UNL d   1       1.179  -1.672  -0.295  0.00  0.00     0.026 A 
ATOM      8  C6  UNL d   1       2.050  -0.540  -0.144  0.00  0.00    -0.082 A 
ATOM      9  C7  UNL d   1       3.462  -0.464  -0.095  0.00  0.00     0.045 A 
ENDROOT
TORSDOF 0
ENDMDL
