MODEL 1
REMARK minimizedAffinity 21.6250935
REMARK minimizedRMSD -1
REMARK  0 active torsions:
REMARK  status: ('A' for Active; 'I' for Inactive)
ROOT
ATOM      1  C   UNL d   1      -0.589   1.900   2.699  0.00  0.00     0.124 A 
ATOM      2  C1  UNL d   1       0.232   1.271   1.772  0.00  0.00     0.062 A 
ATOM      3  C2  UNL d   1      -0.129   1.236   0.428  0.00  0.00     0.162 A 
ATOM      4  C3  UNL d   1      -1.316   1.831   0.002  0.00  0.00    -0.034 A 
ATOM      5  C4  UNL d   1      -2.137   2.460   0.939  0.00  0.00     0.162 A 
ATOM      6  C5  UNL d   1      -1.772   2.493   2.281  0.00  0.00     0.062 A 
ATOM      7  F   UNL d   1      -2.567   3.101   3.175  0.00  0.00    -0.097 F 
ATOM      8  F1  UNL d   1      -3.285   3.043   0.563  0.00  0.00    -0.096 F 
ATOM      9  I   UNL d   1      -1.858   1.780  -2.007  0.00  0.00    -0.060 I 
ATOM     10  F2  UNL d   1       0.684   0.622  -0.445  0.00  0.00    -0.096 F 
ATOM     11  F3  UNL d   1       1.375   0.696   2.173  0.00  0.00    -0.097 F 
ATOM     12  F4  UNL d   1      -0.241   1.932   3.991  0.00  0.00    -0.092 F 
ENDROOT
TORSDOF 0
ENDMDL
