MODEL 1
REMARK minimizedAffinity 21.7944393
REMARK minimizedRMSD -1
REMARK  0 active torsions:
REMARK  status: ('A' for Active; 'I' for Inactive)
ROOT
ATOM      1  C   UNL d   1       1.205   3.327   0.373  0.00  0.00     0.124 A 
ATOM      2  C1  UNL d   1       0.125   2.544   0.759  0.00  0.00     0.062 A 
ATOM      3  C2  UNL d   1      -0.931   2.327  -0.121  0.00  0.00     0.162 A 
ATOM      4  C3  UNL d   1      -0.912   2.892  -1.396  0.00  0.00    -0.034 A 
ATOM      5  C4  UNL d   1       0.177   3.679  -1.776  0.00  0.00     0.162 A 
ATOM      6  C5  UNL d   1       1.230   3.893  -0.893  0.00  0.00     0.062 A 
ATOM      7  F   UNL d   1       2.272   4.649  -1.267  0.00  0.00    -0.097 F 
ATOM      8  F1  UNL d   1       0.227   4.237  -2.995  0.00  0.00    -0.096 F 
ATOM      9  I   UNL d   1      -2.490   2.569  -2.715  0.00  0.00    -0.060 I 
ATOM     10  F2  UNL d   1      -1.961   1.566   0.278  0.00  0.00    -0.096 F 
ATOM     11  F3  UNL d   1       0.099   1.997   1.982  0.00  0.00    -0.097 F 
ATOM     12  F4  UNL d   1       2.220   3.535   1.223  0.00  0.00    -0.092 F 
ENDROOT
TORSDOF 0
ENDMDL
