MODEL 1
REMARK minimizedAffinity 20.1383915
REMARK minimizedRMSD -1
REMARK  0 active torsions:
REMARK  status: ('A' for Active; 'I' for Inactive)
ROOT
ATOM      1  C   UNL d   1      -2.176   4.150  -3.984  0.00  0.00     0.124 A 
ATOM      2  C1  UNL d   1      -0.903   4.531  -3.586  0.00  0.00     0.062 A 
ATOM      3  C2  UNL d   1      -0.227   3.805  -2.610  0.00  0.00     0.162 A 
ATOM      4  C3  UNL d   1      -0.824   2.689  -2.024  0.00  0.00    -0.034 A 
ATOM      5  C4  UNL d   1      -2.106   2.312  -2.428  0.00  0.00     0.162 A 
ATOM      6  C5  UNL d   1      -2.777   3.041  -3.405  0.00  0.00     0.062 A 
ATOM      7  F   UNL d   1      -4.008   2.671  -3.788  0.00  0.00    -0.097 F 
ATOM      8  F1  UNL d   1      -2.710   1.244  -1.886  0.00  0.00    -0.096 F 
ATOM      9  I   UNL d   1       0.182   1.600  -0.563  0.00  0.00    -0.060 I 
ATOM     10  F2  UNL d   1       1.003   4.196  -2.245  0.00  0.00    -0.096 F 
ATOM     11  F3  UNL d   1      -0.321   5.603  -4.144  0.00  0.00    -0.097 F 
ATOM     12  F4  UNL d   1      -2.824   4.851  -4.923  0.00  0.00    -0.092 F 
ENDROOT
TORSDOF 0
ENDMDL
