MODEL 1
REMARK minimizedAffinity 23.7045536
REMARK minimizedRMSD -1
REMARK  0 active torsions:
REMARK  status: ('A' for Active; 'I' for Inactive)
ROOT
ATOM      1  C   UNL d   1       0.032   3.372  -2.248  0.00  0.00     0.124 A 
ATOM      2  C1  UNL d   1      -0.937   3.755  -3.165  0.00  0.00     0.062 A 
ATOM      3  C2  UNL d   1      -2.138   3.057  -3.247  0.00  0.00     0.162 A 
ATOM      4  C3  UNL d   1      -2.379   1.970  -2.408  0.00  0.00    -0.034 A 
ATOM      5  C4  UNL d   1      -1.400   1.590  -1.488  0.00  0.00     0.162 A 
ATOM      6  C5  UNL d   1      -0.200   2.290  -1.410  0.00  0.00     0.062 A 
ATOM      7  F   UNL d   1       0.734   1.919  -0.523  0.00  0.00    -0.097 F 
ATOM      8  F1  UNL d   1      -1.598   0.548  -0.666  0.00  0.00    -0.096 F 
ATOM      9  I   UNL d   1      -4.174   0.924  -2.527  0.00  0.00    -0.060 I 
ATOM     10  F2  UNL d   1      -3.056   3.450  -4.143  0.00  0.00    -0.096 F 
ATOM     11  F3  UNL d   1      -0.715   4.800  -3.976  0.00  0.00    -0.097 F 
ATOM     12  F4  UNL d   1       1.187   4.045  -2.172  0.00  0.00    -0.092 F 
ENDROOT
TORSDOF 0
ENDMDL
