MODEL 1
REMARK minimizedAffinity 21.4966145
REMARK minimizedRMSD -1
REMARK  0 active torsions:
REMARK  status: ('A' for Active; 'I' for Inactive)
ROOT
ATOM      1  C   UNL d   1       4.325  -2.517  -0.508  0.00  0.00     0.124 A 
ATOM      2  C1  UNL d   1       2.985  -2.241  -0.271  0.00  0.00     0.062 A 
ATOM      3  C2  UNL d   1       2.025  -3.233  -0.447  0.00  0.00     0.162 A 
ATOM      4  C3  UNL d   1       2.401  -4.511  -0.862  0.00  0.00    -0.034 A 
ATOM      5  C4  UNL d   1       3.750  -4.780  -1.098  0.00  0.00     0.162 A 
ATOM      6  C5  UNL d   1       4.706  -3.786  -0.921  0.00  0.00     0.062 A 
ATOM      7  F   UNL d   1       6.000  -4.054  -1.150  0.00  0.00    -0.097 F 
ATOM      8  F1  UNL d   1       4.146  -5.998  -1.498  0.00  0.00    -0.096 F 
ATOM      9  I   UNL d   1       0.968  -5.997  -1.126  0.00  0.00    -0.060 I 
ATOM     10  F2  UNL d   1       0.738  -2.938  -0.212  0.00  0.00    -0.096 F 
ATOM     11  F3  UNL d   1       2.615  -1.016   0.127  0.00  0.00    -0.097 F 
ATOM     12  F4  UNL d   1       5.247  -1.560  -0.338  0.00  0.00    -0.092 F 
ENDROOT
TORSDOF 0
ENDMDL
