MODEL 1
REMARK minimizedAffinity 18.5670757
REMARK minimizedRMSD -1
REMARK  0 active torsions:
REMARK  status: ('A' for Active; 'I' for Inactive)
ROOT
ATOM      1  C   UNL d   1       4.948  -2.980  -0.825  0.00  0.00     0.124 A 
ATOM      2  C1  UNL d   1       4.916  -4.080  -1.671  0.00  0.00     0.062 A 
ATOM      3  C2  UNL d   1       3.825  -4.943  -1.656  0.00  0.00     0.162 A 
ATOM      4  C3  UNL d   1       2.755  -4.710  -0.791  0.00  0.00    -0.034 A 
ATOM      5  C4  UNL d   1       2.795  -3.602   0.057  0.00  0.00     0.162 A 
ATOM      6  C5  UNL d   1       3.887  -2.742   0.038  0.00  0.00     0.062 A 
ATOM      7  F   UNL d   1       3.916  -1.680   0.856  0.00  0.00    -0.097 F 
ATOM      8  F1  UNL d   1       1.783  -3.349   0.901  0.00  0.00    -0.096 F 
ATOM      9  I   UNL d   1       1.121  -6.000  -0.764  0.00  0.00    -0.060 I 
ATOM     10  F2  UNL d   1       3.821  -5.998  -2.484  0.00  0.00    -0.096 F 
ATOM     11  F3  UNL d   1       5.939  -4.312  -2.506  0.00  0.00    -0.097 F 
ATOM     12  F4  UNL d   1       5.999  -2.151  -0.842  0.00  0.00    -0.092 F 
ENDROOT
TORSDOF 0
ENDMDL
