MODEL 1
REMARK minimizedAffinity -5.80350685
REMARK minimizedRMSD -1
REMARK  0 active torsions:
REMARK  status: ('A' for Active; 'I' for Inactive)
ROOT
ATOM      1  N1  IND d   1       1.677  -1.145   1.274  0.00  0.00    -0.196 N 
ATOM      2  C2  IND d   1       1.210  -1.374   0.010  0.00  0.00     0.054 A 
ATOM      3  C3  IND d   1       0.142  -0.585  -0.248  0.00  0.00    -0.031 A 
ATOM      4  C4  IND d   1      -0.945   1.227   1.223  0.00  0.00     0.051 A 
ATOM      5  C5  IND d   1      -0.891   1.774   2.474  0.00  0.00    -0.031 A 
ATOM      6  C6  IND d   1       0.042   1.370   3.407  0.00  0.00     0.015 A 
ATOM      7  C7  IND d   1       0.967   0.407   3.119  0.00  0.00    -0.016 A 
ATOM      8  C8  IND d   1       0.911  -0.155   1.851  0.00  0.00    -0.047 A 
ATOM      9  C9  IND d   1      -0.060   0.221   0.915  0.00  0.00    -0.096 A 
ATOM     10  HN1 IND d   1       2.337  -1.550   1.646  0.00  0.00     0.298 HD
ENDROOT
TORSDOF 0
ENDMDL
