MODEL 1
REMARK minimizedAffinity 0.998336792
REMARK minimizedRMSD -1
REMARK  0 active torsions:
REMARK  status: ('A' for Active; 'I' for Inactive)
ROOT
ATOM      1  N1  IND d   1       0.586  -1.595  -0.571  0.00  0.00    -0.196 N 
ATOM      2  C2  IND d   1       0.529  -0.429   0.140  0.00  0.00     0.054 A 
ATOM      3  C3  IND d   1      -0.756  -0.043   0.308  0.00  0.00    -0.031 A 
ATOM      4  C4  IND d   1      -2.926  -1.227  -0.409  0.00  0.00     0.051 A 
ATOM      5  C5  IND d   1      -3.383  -2.303  -1.117  0.00  0.00    -0.031 A 
ATOM      6  C6  IND d   1      -2.523  -3.218  -1.688  0.00  0.00     0.015 A 
ATOM      7  C7  IND d   1      -1.168  -3.097  -1.563  0.00  0.00    -0.016 A 
ATOM      8  C8  IND d   1      -0.700  -2.001  -0.850  0.00  0.00    -0.047 A 
ATOM      9  C9  IND d   1      -1.567  -1.046  -0.304  0.00  0.00    -0.096 A 
ATOM     10  HN1 IND d   1       1.305  -2.006  -0.804  0.00  0.00     0.298 HD
ENDROOT
TORSDOF 0
ENDMDL
