MODEL 1
REMARK minimizedAffinity -3.74088955
REMARK minimizedRMSD -1
REMARK  0 active torsions:
REMARK  status: ('A' for Active; 'I' for Inactive)
ROOT
ATOM      1  N1  IND d   1      -2.953  -0.078   1.191  0.00  0.00    -0.196 N 
ATOM      2  C2  IND d   1      -2.997  -0.805   0.034  0.00  0.00     0.054 A 
ATOM      3  C3  IND d   1      -1.757  -0.932  -0.489  0.00  0.00    -0.031 A 
ATOM      4  C4  IND d   1       0.501  -0.114   0.438  0.00  0.00     0.051 A 
ATOM      5  C5  IND d   1       1.046   0.629   1.448  0.00  0.00    -0.031 A 
ATOM      6  C6  IND d   1       0.270   1.183   2.445  0.00  0.00     0.015 A 
ATOM      7  C7  IND d   1      -1.084   1.004   2.477  0.00  0.00    -0.016 A 
ATOM      8  C8  IND d   1      -1.641   0.257   1.449  0.00  0.00    -0.047 A 
ATOM      9  C9  IND d   1      -0.864  -0.272   0.410  0.00  0.00    -0.096 A 
ATOM     10  HN1 IND d   1      -3.630   0.135   1.676  0.00  0.00     0.298 HD
ENDROOT
TORSDOF 0
ENDMDL
