MODEL 1
REMARK minimizedAffinity -4.62773895
REMARK minimizedRMSD -1
REMARK  0 active torsions:
REMARK  status: ('A' for Active; 'I' for Inactive)
ROOT
ATOM      1  N1  IND d   1       0.072  -0.132  -0.373  0.00  0.00    -0.196 N 
ATOM      2  C2  IND d   1      -1.107  -0.772  -0.640  0.00  0.00     0.054 A 
ATOM      3  C3  IND d   1      -1.924  -0.718   0.435  0.00  0.00    -0.031 A 
ATOM      4  C4  IND d   1      -1.573   0.454   2.700  0.00  0.00     0.051 A 
ATOM      5  C5  IND d   1      -0.639   1.138   3.426  0.00  0.00    -0.031 A 
ATOM      6  C6  IND d   1       0.604   1.443   2.910  0.00  0.00     0.015 A 
ATOM      7  C7  IND d   1       0.957   1.082   1.641  0.00  0.00    -0.016 A 
ATOM      8  C8  IND d   1       0.013   0.381   0.904  0.00  0.00    -0.047 A 
ATOM      9  C9  IND d   1      -1.235   0.032   1.436  0.00  0.00    -0.096 A 
ATOM     10  HN1 IND d   1       0.738  -0.062  -0.913  0.00  0.00     0.298 HD
ENDROOT
TORSDOF 0
ENDMDL
