MODEL 1
REMARK minimizedAffinity -5.23350143
REMARK minimizedRMSD -1
REMARK  0 active torsions:
REMARK  status: ('A' for Active; 'I' for Inactive)
ROOT
ATOM      1  N1  IND d   1      -0.321  -1.161  -0.650  0.00  0.00    -0.196 N 
ATOM      2  C2  IND d   1      -0.848   0.021  -0.209  0.00  0.00     0.054 A 
ATOM      3  C3  IND d   1      -2.199  -0.025  -0.244  0.00  0.00    -0.031 A 
ATOM      4  C4  IND d   1      -3.753  -1.971  -0.893  0.00  0.00     0.051 A 
ATOM      5  C5  IND d   1      -3.736  -3.241  -1.397  0.00  0.00    -0.031 A 
ATOM      6  C6  IND d   1      -2.556  -3.897  -1.682  0.00  0.00     0.015 A 
ATOM      7  C7  IND d   1      -1.343  -3.309  -1.460  0.00  0.00    -0.016 A 
ATOM      8  C8  IND d   1      -1.357  -2.016  -0.955  0.00  0.00    -0.047 A 
ATOM      9  C9  IND d   1      -2.552  -1.330  -0.704  0.00  0.00    -0.096 A 
ATOM     10  HN1 IND d   1       0.517  -1.340  -0.724  0.00  0.00     0.298 HD
ENDROOT
TORSDOF 0
ENDMDL
