MODEL 1
REMARK minimizedAffinity 3.43310261
REMARK minimizedRMSD -1
REMARK  0 active torsions:
REMARK  status: ('A' for Active; 'I' for Inactive)
ROOT
ATOM      1  N1  IND d   1       1.278   0.022  -0.461  0.00  0.00    -0.196 N 
ATOM      2  C2  IND d   1      -0.023   0.157  -0.063  0.00  0.00     0.054 A 
ATOM      3  C3  IND d   1      -0.797   0.533  -1.106  0.00  0.00    -0.031 A 
ATOM      4  C4  IND d   1      -0.159   0.884  -3.575  0.00  0.00     0.051 A 
ATOM      5  C5  IND d   1       0.919   0.913  -4.415  0.00  0.00    -0.031 A 
ATOM      6  C6  IND d   1       2.196   0.638  -3.972  0.00  0.00     0.015 A 
ATOM      7  C7  IND d   1       2.444   0.311  -2.669  0.00  0.00    -0.016 A 
ATOM      8  C8  IND d   1       1.353   0.288  -1.811  0.00  0.00    -0.047 A 
ATOM      9  C9  IND d   1       0.060   0.608  -2.246  0.00  0.00    -0.096 A 
ATOM     10  HN1 IND d   1       1.938  -0.193   0.046  0.00  0.00     0.298 HD
ENDROOT
TORSDOF 0
ENDMDL
