MODEL 1
REMARK minimizedAffinity -6.23104906
REMARK minimizedRMSD -1
REMARK  0 active torsions:
REMARK  status: ('A' for Active; 'I' for Inactive)
ROOT
ATOM      1  O1  BZF d   1       0.062   0.848  -0.301  0.00  0.00    -0.204 OA
ATOM      2  C2  BZF d   1      -0.719  -0.266  -0.541  0.00  0.00     0.174 A 
ATOM      3  C3  BZF d   1      -0.018  -1.397  -0.320  0.00  0.00    -0.012 A 
ATOM      4  C3A BZF d   1       1.253  -0.963   0.171  0.00  0.00    -0.107 A 
ATOM      5  C4  BZF d   1       2.376  -1.623   0.582  0.00  0.00     0.055 A 
ATOM      6  C5  BZF d   1       3.474  -0.903   0.934  0.00  0.00    -0.016 A 
ATOM      7  C6  BZF d   1       3.485   0.475   0.881  0.00  0.00     0.022 A 
ATOM      8  C7  BZF d   1       2.394   1.174   0.485  0.00  0.00     0.029 A 
ATOM      9  C7A BZF d   1       1.272   0.451   0.160  0.00  0.00     0.058 A 
ENDROOT
TORSDOF 0
ENDMDL
