MODEL 1
REMARK minimizedAffinity -6.20411634
REMARK minimizedRMSD -1
REMARK  0 active torsions:
REMARK  status: ('A' for Active; 'I' for Inactive)
ROOT
ATOM      1  O1  BZF d   1       0.059   1.289  -0.076  0.00  0.00    -0.204 OA
ATOM      2  C2  BZF d   1      -0.878   0.345  -0.450  0.00  0.00     0.174 A 
ATOM      3  C3  BZF d   1      -0.331  -0.887  -0.481  0.00  0.00    -0.012 A 
ATOM      4  C3A BZF d   1       1.011  -0.715  -0.014  0.00  0.00    -0.107 A 
ATOM      5  C4  BZF d   1       2.050  -1.575   0.194  0.00  0.00     0.055 A 
ATOM      6  C5  BZF d   1       3.252  -1.077   0.587  0.00  0.00    -0.016 A 
ATOM      7  C6  BZF d   1       3.451   0.275   0.775  0.00  0.00     0.022 A 
ATOM      8  C7  BZF d   1       2.448   1.167   0.586  0.00  0.00     0.029 A 
ATOM      9  C7A BZF d   1       1.223   0.663   0.221  0.00  0.00     0.058 A 
ENDROOT
TORSDOF 0
ENDMDL
