MODEL 1
REMARK minimizedAffinity -3.41956949
REMARK minimizedRMSD -1
REMARK  0 active torsions:
REMARK  status: ('A' for Active; 'I' for Inactive)
ROOT
ATOM      1  O1  BZF d   1       0.983   0.915   0.368  0.00  0.00    -0.204 OA
ATOM      2  C2  BZF d   1      -0.322   1.290   0.114  0.00  0.00     0.174 A 
ATOM      3  C3  BZF d   1      -1.001   0.288  -0.481  0.00  0.00    -0.012 A 
ATOM      4  C3A BZF d   1      -0.087  -0.812  -0.523  0.00  0.00    -0.107 A 
ATOM      5  C4  BZF d   1      -0.182  -2.094  -0.983  0.00  0.00     0.055 A 
ATOM      6  C5  BZF d   1       0.916  -2.894  -0.943  0.00  0.00    -0.016 A 
ATOM      7  C6  BZF d   1       2.125  -2.442  -0.455  0.00  0.00     0.022 A 
ATOM      8  C7  BZF d   1       2.267  -1.180   0.017  0.00  0.00     0.029 A 
ATOM      9  C7A BZF d   1       1.150  -0.380   0.008  0.00  0.00     0.058 A 
ENDROOT
TORSDOF 0
ENDMDL
