MODEL 1
REMARK minimizedAffinity -3.53328776
REMARK minimizedRMSD -1
REMARK  0 active torsions:
REMARK  status: ('A' for Active; 'I' for Inactive)
ROOT
ATOM      1  O1  BZF d   1      -0.559  -0.585  -1.320  0.00  0.00    -0.204 OA
ATOM      2  C2  BZF d   1      -1.190   0.601  -0.997  0.00  0.00     0.174 A 
ATOM      3  C3  BZF d   1      -0.619   1.166   0.087  0.00  0.00    -0.012 A 
ATOM      4  C3A BZF d   1       0.493   0.326   0.408  0.00  0.00    -0.107 A 
ATOM      5  C4  BZF d   1       1.456   0.372   1.375  0.00  0.00     0.055 A 
ATOM      6  C5  BZF d   1       2.355  -0.643   1.461  0.00  0.00    -0.016 A 
ATOM      7  C6  BZF d   1       2.318  -1.721   0.600  0.00  0.00     0.022 A 
ATOM      8  C7  BZF d   1       1.384  -1.808  -0.379  0.00  0.00     0.029 A 
ATOM      9  C7A BZF d   1       0.494  -0.768  -0.488  0.00  0.00     0.058 A 
ENDROOT
TORSDOF 0
ENDMDL
