MODEL 1
REMARK minimizedAffinity -6.37175798
REMARK minimizedRMSD -1
REMARK  0 active torsions:
REMARK  status: ('A' for Active; 'I' for Inactive)
ROOT
ATOM      1  O1  BZF d   1       0.031   1.127  -0.369  0.00  0.00    -0.204 OA
ATOM      2  C2  BZF d   1      -0.884   0.109  -0.555  0.00  0.00     0.174 A 
ATOM      3  C3  BZF d   1      -0.318  -1.093  -0.320  0.00  0.00    -0.012 A 
ATOM      4  C3A BZF d   1       1.011  -0.802   0.124  0.00  0.00    -0.107 A 
ATOM      5  C4  BZF d   1       2.059  -1.581   0.524  0.00  0.00     0.055 A 
ATOM      6  C5  BZF d   1       3.245  -0.989   0.825  0.00  0.00    -0.016 A 
ATOM      7  C6  BZF d   1       3.419   0.376   0.732  0.00  0.00     0.022 A 
ATOM      8  C7  BZF d   1       2.407   1.191   0.344  0.00  0.00     0.029 A 
ATOM      9  C7A BZF d   1       1.198   0.599   0.071  0.00  0.00     0.058 A 
ENDROOT
TORSDOF 0
ENDMDL
