MODEL 1
REMARK minimizedAffinity -5.63152838
REMARK minimizedRMSD -1
REMARK  0 active torsions:
REMARK  status: ('A' for Active; 'I' for Inactive)
ROOT
ATOM      1  O1  BZF d   1       0.440   2.126  -0.045  0.00  0.00    -0.204 OA
ATOM      2  C2  BZF d   1      -0.817   1.590  -0.249  0.00  0.00     0.174 A 
ATOM      3  C3  BZF d   1      -0.799   0.252  -0.081  0.00  0.00    -0.012 A 
ATOM      4  C3A BZF d   1       0.533  -0.057   0.338  0.00  0.00    -0.107 A 
ATOM      5  C4  BZF d   1       1.165  -1.220   0.676  0.00  0.00     0.055 A 
ATOM      6  C5  BZF d   1       2.492  -1.189   0.970  0.00  0.00    -0.016 A 
ATOM      7  C6  BZF d   1       3.217  -0.016   0.930  0.00  0.00     0.022 A 
ATOM      8  C7  BZF d   1       2.633   1.163   0.606  0.00  0.00     0.029 A 
ATOM      9  C7A BZF d   1       1.285   1.140   0.341  0.00  0.00     0.058 A 
ENDROOT
TORSDOF 0
ENDMDL
