MODEL 1
REMARK minimizedAffinity -1.54428482
REMARK minimizedRMSD -1
REMARK  0 active torsions:
REMARK  status: ('A' for Active; 'I' for Inactive)
ROOT
ATOM      1  O1  BZF d   1      -0.514   1.899  -0.755  0.00  0.00    -0.204 OA
ATOM      2  C2  BZF d   1      -1.467   0.913  -0.919  0.00  0.00     0.174 A 
ATOM      3  C3  BZF d   1      -1.063  -0.243  -0.354  0.00  0.00    -0.012 A 
ATOM      4  C3A BZF d   1       0.184   0.063   0.278  0.00  0.00    -0.107 A 
ATOM      5  C4  BZF d   1       1.068  -0.671   1.016  0.00  0.00     0.055 A 
ATOM      6  C5  BZF d   1       2.227  -0.092   1.425  0.00  0.00    -0.016 A 
ATOM      7  C6  BZF d   1       2.537   1.214   1.110  0.00  0.00     0.022 A 
ATOM      8  C7  BZF d   1       1.690   1.984   0.385  0.00  0.00     0.029 A 
ATOM      9  C7A BZF d   1       0.502   1.412  -0.002  0.00  0.00     0.058 A 
ENDROOT
TORSDOF 0
ENDMDL
