MODEL 1
REMARK minimizedAffinity -2.8764534
REMARK minimizedRMSD -1
REMARK  0 active torsions:
REMARK  status: ('A' for Active; 'I' for Inactive)
ROOT
ATOM      1  O1  BZF d   1      -1.510  -0.586  -0.514  0.00  0.00    -0.204 OA
ATOM      2  C2  BZF d   1      -2.003   0.656  -0.164  0.00  0.00     0.174 A 
ATOM      3  C3  BZF d   1      -1.031   1.424   0.368  0.00  0.00    -0.012 A 
ATOM      4  C3A BZF d   1       0.164   0.644   0.266  0.00  0.00    -0.107 A 
ATOM      5  C4  BZF d   1       1.465   0.870   0.611  0.00  0.00     0.055 A 
ATOM      6  C5  BZF d   1       2.375  -0.125   0.445  0.00  0.00    -0.016 A 
ATOM      7  C6  BZF d   1       2.018  -1.359  -0.058  0.00  0.00     0.022 A 
ATOM      8  C7  BZF d   1       0.740  -1.629  -0.418  0.00  0.00     0.029 A 
ATOM      9  C7A BZF d   1      -0.176  -0.615  -0.283  0.00  0.00     0.058 A 
ENDROOT
TORSDOF 0
ENDMDL
