MODEL 1
REMARK minimizedAffinity -3.28091812
REMARK minimizedRMSD -1
REMARK  0 active torsions:
REMARK  status: ('A' for Active; 'I' for Inactive)
ROOT
ATOM      1  O1  BZF d   1      -0.352   0.922   0.076  0.00  0.00    -0.204 OA
ATOM      2  C2  BZF d   1      -1.403   0.112  -0.308  0.00  0.00     0.174 A 
ATOM      3  C3  BZF d   1      -0.994  -1.164  -0.457  0.00  0.00    -0.012 A 
ATOM      4  C3A BZF d   1       0.380  -1.168  -0.058  0.00  0.00    -0.107 A 
ATOM      5  C4  BZF d   1       1.330  -2.145   0.029  0.00  0.00     0.055 A 
ATOM      6  C5  BZF d   1       2.597  -1.805   0.384  0.00  0.00    -0.016 A 
ATOM      7  C6  BZF d   1       2.949  -0.499   0.655  0.00  0.00     0.022 A 
ATOM      8  C7  BZF d   1       2.040   0.504   0.587  0.00  0.00     0.029 A 
ATOM      9  C7A BZF d   1       0.752   0.159   0.260  0.00  0.00     0.058 A 
ENDROOT
TORSDOF 0
ENDMDL
