MODEL 1
REMARK minimizedAffinity -3.28202915
REMARK minimizedRMSD -1
REMARK  0 active torsions:
REMARK  status: ('A' for Active; 'I' for Inactive)
ROOT
ATOM      1  O1  BZF d   1      -0.242   1.034   0.608  0.00  0.00    -0.204 OA
ATOM      2  C2  BZF d   1      -1.357   0.662  -0.118  0.00  0.00     0.174 A 
ATOM      3  C3  BZF d   1      -1.143  -0.506  -0.757  0.00  0.00    -0.012 A 
ATOM      4  C3A BZF d   1       0.155  -0.935  -0.335  0.00  0.00    -0.107 A 
ATOM      5  C4  BZF d   1       0.918  -2.032  -0.613  0.00  0.00     0.055 A 
ATOM      6  C5  BZF d   1       2.171  -2.114  -0.095  0.00  0.00    -0.016 A 
ATOM      7  C6  BZF d   1       2.695  -1.115   0.700  0.00  0.00     0.022 A 
ATOM      8  C7  BZF d   1       1.974  -0.010   1.007  0.00  0.00     0.029 A 
ATOM      9  C7A BZF d   1       0.695   0.060   0.512  0.00  0.00     0.058 A 
ENDROOT
TORSDOF 0
ENDMDL
