MODEL 1
REMARK minimizedAffinity 0.610961676
REMARK minimizedRMSD -1
REMARK  0 active torsions:
REMARK  status: ('A' for Active; 'I' for Inactive)
ROOT
ATOM      1  C   UNL d   1       4.022  -3.049   4.182  0.00  0.00     0.077 C 
ATOM      2  C1  UNL d   1       3.017  -2.240   3.418  0.00  0.00    -0.074 A 
ATOM      3  C2  UNL d   1       1.673  -2.623   3.369  0.00  0.00    -0.005 A 
ATOM      4  C3  UNL d   1       0.748  -1.855   2.662  0.00  0.00     0.006 A 
ATOM      5  C4  UNL d   1       1.156  -0.699   1.997  0.00  0.00    -0.005 A 
ATOM      6  C5  UNL d   1       2.496  -0.299   2.035  0.00  0.00    -0.074 A 
ATOM      7  C6  UNL d   1       2.950   0.946   1.334  0.00  0.00     0.077 C 
ATOM      8  C7  UNL d   1       3.419  -1.072   2.753  0.00  0.00    -0.001 A 
ENDROOT
TORSDOF 0
ENDMDL
