MODEL 1
REMARK minimizedAffinity -0.771924555
REMARK minimizedRMSD -1
REMARK  0 active torsions:
REMARK  status: ('A' for Active; 'I' for Inactive)
ROOT
ATOM      1  C   UNL d   1       2.566  -4.759   4.128  0.00  0.00     0.077 C 
ATOM      2  C1  UNL d   1       1.978  -3.719   3.221  0.00  0.00    -0.074 A 
ATOM      3  C2  UNL d   1       1.735  -2.420   3.678  0.00  0.00    -0.005 A 
ATOM      4  C3  UNL d   1       1.197  -1.462   2.819  0.00  0.00     0.006 A 
ATOM      5  C4  UNL d   1       0.897  -1.792   1.497  0.00  0.00    -0.005 A 
ATOM      6  C5  UNL d   1       1.133  -3.086   1.022  0.00  0.00    -0.074 A 
ATOM      7  C6  UNL d   1       0.826  -3.455  -0.399  0.00  0.00     0.077 C 
ATOM      8  C7  UNL d   1       1.681  -4.042   1.889  0.00  0.00    -0.001 A 
ENDROOT
TORSDOF 0
ENDMDL
