MODEL 1
REMARK minimizedAffinity 0.555721998
REMARK minimizedRMSD -1
REMARK  0 active torsions:
REMARK  status: ('A' for Active; 'I' for Inactive)
ROOT
ATOM      1  C   UNL d   1      -6.000   0.035   2.104  0.00  0.00     0.077 C 
ATOM      2  C1  UNL d   1      -5.339   0.936   1.104  0.00  0.00    -0.074 A 
ATOM      3  C2  UNL d   1      -4.492   1.970   1.516  0.00  0.00    -0.005 A 
ATOM      4  C3  UNL d   1      -3.877   2.794   0.574  0.00  0.00     0.006 A 
ATOM      5  C4  UNL d   1      -4.103   2.594  -0.788  0.00  0.00    -0.005 A 
ATOM      6  C5  UNL d   1      -4.946   1.565  -1.220  0.00  0.00    -0.074 A 
ATOM      7  C6  UNL d   1      -5.191   1.329  -2.681  0.00  0.00     0.077 C 
ATOM      8  C7  UNL d   1      -5.554   0.736  -0.267  0.00  0.00    -0.001 A 
ENDROOT
TORSDOF 0
ENDMDL
