MODEL 1
REMARK minimizedAffinity 7.58159828
REMARK minimizedRMSD -1
REMARK  0 active torsions:
REMARK  status: ('A' for Active; 'I' for Inactive)
ROOT
ATOM      1  C   UNL d   1      -5.910  -0.302   1.033  0.00  0.00     0.077 C 
ATOM      2  C1  UNL d   1      -5.321   1.074   1.124  0.00  0.00    -0.074 A 
ATOM      3  C2  UNL d   1      -5.995   2.101   1.795  0.00  0.00    -0.005 A 
ATOM      4  C3  UNL d   1      -5.431   3.374   1.879  0.00  0.00     0.006 A 
ATOM      5  C4  UNL d   1      -4.190   3.633   1.296  0.00  0.00    -0.005 A 
ATOM      6  C5  UNL d   1      -3.502   2.619   0.622  0.00  0.00    -0.074 A 
ATOM      7  C6  UNL d   1      -2.163   2.878  -0.003  0.00  0.00     0.077 C 
ATOM      8  C7  UNL d   1      -4.072   1.341   0.547  0.00  0.00    -0.001 A 
ENDROOT
TORSDOF 0
ENDMDL
