MODEL 1
REMARK minimizedAffinity 1.18534815
REMARK minimizedRMSD -1
REMARK  0 active torsions:
REMARK  status: ('A' for Active; 'I' for Inactive)
ROOT
ATOM      1  C   UNL d   1      -5.987   2.971  -2.976  0.00  0.00     0.077 C 
ATOM      2  C1  UNL d   1      -5.984   2.954  -1.476  0.00  0.00    -0.074 A 
ATOM      3  C2  UNL d   1      -5.992   4.146  -0.744  0.00  0.00    -0.005 A 
ATOM      4  C3  UNL d   1      -5.998   4.115   0.650  0.00  0.00     0.006 A 
ATOM      5  C4  UNL d   1      -5.997   2.894   1.326  0.00  0.00    -0.005 A 
ATOM      6  C5  UNL d   1      -5.990   1.692   0.611  0.00  0.00    -0.074 A 
ATOM      7  C6  UNL d   1      -5.998   0.371   1.321  0.00  0.00     0.077 C 
ATOM      8  C7  UNL d   1      -5.990   1.732  -0.790  0.00  0.00    -0.001 A 
ENDROOT
TORSDOF 0
ENDMDL
