MODEL 1
REMARK minimizedAffinity 11.7845821
REMARK minimizedRMSD -1
REMARK  0 active torsions:
REMARK  status: ('A' for Active; 'I' for Inactive)
ROOT
ATOM      1  C   UNL d   1       0.757  -2.995  -0.852  0.00  0.00     0.077 C 
ATOM      2  C1  UNL d   1       1.112  -2.098   0.297  0.00  0.00    -0.074 A 
ATOM      3  C2  UNL d   1       1.407  -0.746   0.089  0.00  0.00    -0.005 A 
ATOM      4  C3  UNL d   1       1.726   0.078   1.168  0.00  0.00     0.006 A 
ATOM      5  C4  UNL d   1       1.753  -0.440   2.464  0.00  0.00    -0.005 A 
ATOM      6  C5  UNL d   1       1.459  -1.788   2.691  0.00  0.00    -0.074 A 
ATOM      7  C6  UNL d   1       1.474  -2.358   4.078  0.00  0.00     0.077 C 
ATOM      8  C7  UNL d   1       1.133  -2.608   1.602  0.00  0.00    -0.001 A 
ENDROOT
TORSDOF 0
ENDMDL
