MODEL 1
REMARK minimizedAffinity -1.13102078
REMARK minimizedRMSD -1
REMARK  0 active torsions:
REMARK  status: ('A' for Active; 'I' for Inactive)
ROOT
ATOM      1  C   UNL d   1      -4.123   2.360  -3.251  0.00  0.00     0.077 C 
ATOM      2  C1  UNL d   1      -4.423   2.571  -1.797  0.00  0.00    -0.074 A 
ATOM      3  C2  UNL d   1      -5.732   2.796  -1.358  0.00  0.00    -0.005 A 
ATOM      4  C3  UNL d   1      -5.997   2.981  -0.002  0.00  0.00     0.006 A 
ATOM      5  C4  UNL d   1      -4.958   2.945   0.929  0.00  0.00    -0.005 A 
ATOM      6  C5  UNL d   1      -3.643   2.721   0.509  0.00  0.00    -0.074 A 
ATOM      7  C6  UNL d   1      -2.515   2.669   1.497  0.00  0.00     0.077 C 
ATOM      8  C7  UNL d   1      -3.386   2.528  -0.856  0.00  0.00    -0.001 A 
ENDROOT
TORSDOF 0
ENDMDL
