MODEL 1
REMARK minimizedAffinity 1.48092139
REMARK minimizedRMSD -1
REMARK  0 active torsions:
REMARK  status: ('A' for Active; 'I' for Inactive)
ROOT
ATOM      1  C   UNL d   1      -1.519   3.016   1.191  0.00  0.00     0.077 C 
ATOM      2  C1  UNL d   1      -2.973   3.381   1.131  0.00  0.00    -0.074 A 
ATOM      3  C2  UNL d   1      -3.535   4.252   2.069  0.00  0.00    -0.005 A 
ATOM      4  C3  UNL d   1      -4.887   4.589   1.994  0.00  0.00     0.006 A 
ATOM      5  C4  UNL d   1      -5.688   4.060   0.982  0.00  0.00    -0.005 A 
ATOM      6  C5  UNL d   1      -5.143   3.187   0.034  0.00  0.00    -0.074 A 
ATOM      7  C6  UNL d   1      -5.988   2.617  -1.066  0.00  0.00     0.077 C 
ATOM      8  C7  UNL d   1      -3.783   2.859   0.112  0.00  0.00    -0.001 A 
ENDROOT
TORSDOF 0
ENDMDL
