MODEL 1
REMARK minimizedAffinity -5.49713326
REMARK minimizedRMSD -1
REMARK  2 active torsions:
REMARK  status: ('A' for Active; 'I' for Inactive)
REMARK    1  A    between atoms: C1_2  and  C2_3 
REMARK    2  A    between atoms: C2_3  and  C3_4 
ROOT
ATOM      1  C3  UNL d   1      -0.007   0.252  -0.218  0.00  0.00    -0.075 A 
ATOM      2  C4  UNL d   1      -1.119   0.579   0.571  0.00  0.00     0.002 A 
ATOM      3  C5  UNL d   1      -1.036   0.541   1.964  0.00  0.00     0.002 A 
ATOM      4  C6  UNL d   1       0.154   0.166   2.583  0.00  0.00    -0.004 A 
ATOM      5  C7  UNL d   1       1.260  -0.177   1.809  0.00  0.00     0.002 A 
ATOM      6  C8  UNL d   1       1.181  -0.136   0.415  0.00  0.00     0.002 A 
ENDROOT
BRANCH   1   7
ATOM      7  C2  UNL d   1      -0.083   0.320  -1.725  0.00  0.00     0.056 C 
BRANCH   7   8
ATOM      8  C1  UNL d   1      -0.568   1.669  -2.265  0.00  0.00     0.007 C 
ATOM      9  C   UNL d   1       0.398   2.812  -1.982  0.00  0.00     0.009 C 
ENDBRANCH   7   8
ENDBRANCH   1   7
TORSDOF 2
ENDMDL
