MODEL 1
REMARK minimizedAffinity -5.06778193
REMARK minimizedRMSD -1
REMARK  2 active torsions:
REMARK  status: ('A' for Active; 'I' for Inactive)
REMARK    1  A    between atoms: C1_2  and  C2_3 
REMARK    2  A    between atoms: C2_3  and  C3_4 
ROOT
ATOM      1  C3  UNL d   1      -0.380   0.252  -0.248  0.00  0.00    -0.075 A 
ATOM      2  C4  UNL d   1      -1.142   0.813   0.787  0.00  0.00     0.002 A 
ATOM      3  C5  UNL d   1      -0.920   0.439   2.113  0.00  0.00     0.002 A 
ATOM      4  C6  UNL d   1       0.057  -0.505   2.420  0.00  0.00    -0.004 A 
ATOM      5  C7  UNL d   1       0.809  -1.081   1.398  0.00  0.00     0.002 A 
ATOM      6  C8  UNL d   1       0.592  -0.706   0.071  0.00  0.00     0.002 A 
ENDROOT
BRANCH   1   7
ATOM      7  C2  UNL d   1      -0.596   0.674  -1.682  0.00  0.00     0.056 C 
BRANCH   7   8
ATOM      8  C1  UNL d   1      -0.554   2.190  -1.899  0.00  0.00     0.007 C 
ATOM      9  C   UNL d   1      -1.556   2.675  -2.937  0.00  0.00     0.009 C 
ENDBRANCH   7   8
ENDBRANCH   1   7
TORSDOF 2
ENDMDL
