MODEL 1
REMARK minimizedAffinity -5.34373808
REMARK minimizedRMSD -1
REMARK  2 active torsions:
REMARK  status: ('A' for Active; 'I' for Inactive)
REMARK    1  A    between atoms: C1_2  and  C2_3 
REMARK    2  A    between atoms: C2_3  and  C3_4 
ROOT
ATOM      1  C3  UNL d   1      -0.830   0.170  -0.240  0.00  0.00    -0.075 A 
ATOM      2  C4  UNL d   1      -1.352  -0.054   1.043  0.00  0.00     0.002 A 
ATOM      3  C5  UNL d   1      -0.544  -0.565   2.058  0.00  0.00     0.002 A 
ATOM      4  C6  UNL d   1       0.792  -0.870   1.802  0.00  0.00    -0.004 A 
ATOM      5  C7  UNL d   1       1.317  -0.668   0.527  0.00  0.00     0.002 A 
ATOM      6  C8  UNL d   1       0.511  -0.151  -0.489  0.00  0.00     0.002 A 
ENDROOT
BRANCH   1   7
ATOM      7  C2  UNL d   1      -1.693   0.751  -1.334  0.00  0.00     0.056 C 
BRANCH   7   8
ATOM      8  C1  UNL d   1      -1.185   2.088  -1.885  0.00  0.00     0.007 C 
ATOM      9  C   UNL d   1      -2.269   3.154  -1.967  0.00  0.00     0.009 C 
ENDBRANCH   7   8
ENDBRANCH   1   7
TORSDOF 2
ENDMDL
