MODEL 1
REMARK minimizedAffinity -5.2173419
REMARK minimizedRMSD -1
REMARK  2 active torsions:
REMARK  status: ('A' for Active; 'I' for Inactive)
REMARK    1  A    between atoms: C1_2  and  C2_3 
REMARK    2  A    between atoms: C2_3  and  C3_4 
ROOT
ATOM      1  C3  UNL d   1      -0.044  -0.024  -0.556  0.00  0.00    -0.075 A 
ATOM      2  C4  UNL d   1       1.210  -0.418  -0.069  0.00  0.00     0.002 A 
ATOM      3  C5  UNL d   1       1.385  -0.709   1.284  0.00  0.00     0.002 A 
ATOM      4  C6  UNL d   1       0.313  -0.600   2.167  0.00  0.00    -0.004 A 
ATOM      5  C7  UNL d   1      -0.933  -0.194   1.697  0.00  0.00     0.002 A 
ATOM      6  C8  UNL d   1      -1.112   0.094   0.343  0.00  0.00     0.002 A 
ENDROOT
BRANCH   1   7
ATOM      7  C2  UNL d   1      -0.247   0.264  -2.025  0.00  0.00     0.056 C 
BRANCH   7   8
ATOM      8  C1  UNL d   1      -1.127   1.488  -2.304  0.00  0.00     0.007 C 
ATOM      9  C   UNL d   1      -0.523   2.439  -3.329  0.00  0.00     0.009 C 
ENDBRANCH   7   8
ENDBRANCH   1   7
TORSDOF 2
ENDMDL
