MODEL 1
REMARK minimizedAffinity -2.68793464
REMARK minimizedRMSD -1
REMARK  2 active torsions:
REMARK  status: ('A' for Active; 'I' for Inactive)
REMARK    1  A    between atoms: C1_2  and  C2_3 
REMARK    2  A    between atoms: C2_3  and  C3_4 
ROOT
ATOM      1  C3  UNL d   1      -0.669   1.399  -0.579  0.00  0.00    -0.075 A 
ATOM      2  C4  UNL d   1       0.287   0.466  -1.005  0.00  0.00     0.002 A 
ATOM      3  C5  UNL d   1       0.632  -0.615  -0.194  0.00  0.00     0.002 A 
ATOM      4  C6  UNL d   1       0.035  -0.772   1.054  0.00  0.00    -0.004 A 
ATOM      5  C7  UNL d   1      -0.904   0.158   1.495  0.00  0.00     0.002 A 
ATOM      6  C8  UNL d   1      -1.255   1.238   0.684  0.00  0.00     0.002 A 
ENDROOT
BRANCH   1   7
ATOM      7  C2  UNL d   1      -1.069   2.556  -1.464  0.00  0.00     0.056 C 
BRANCH   7   8
ATOM      8  C1  UNL d   1       0.010   2.973  -2.469  0.00  0.00     0.007 C 
ATOM      9  C   UNL d   1      -0.562   3.489  -3.783  0.00  0.00     0.009 C 
ENDBRANCH   7   8
ENDBRANCH   1   7
TORSDOF 2
ENDMDL
