MODEL 1
REMARK minimizedAffinity -4.02989244
REMARK minimizedRMSD -1
REMARK  2 active torsions:
REMARK  status: ('A' for Active; 'I' for Inactive)
REMARK    1  A    between atoms: C1_2  and  C2_3 
REMARK    2  A    between atoms: C2_3  and  C3_4 
ROOT
ATOM      1  C3  UNL d   1      -0.576   0.635  -0.993  0.00  0.00    -0.075 A 
ATOM      2  C4  UNL d   1      -1.473   0.330   0.041  0.00  0.00     0.002 A 
ATOM      3  C5  UNL d   1      -1.049  -0.391   1.157  0.00  0.00     0.002 A 
ATOM      4  C6  UNL d   1       0.272  -0.825   1.249  0.00  0.00    -0.004 A 
ATOM      5  C7  UNL d   1       1.168  -0.542   0.220  0.00  0.00     0.002 A 
ATOM      6  C8  UNL d   1       0.747   0.183  -0.896  0.00  0.00     0.002 A 
ENDROOT
BRANCH   1   7
ATOM      7  C2  UNL d   1      -1.022   1.441  -2.190  0.00  0.00     0.056 C 
BRANCH   7   8
ATOM      8  C1  UNL d   1       0.039   2.413  -2.717  0.00  0.00     0.007 C 
ATOM      9  C   UNL d   1      -0.554   3.687  -3.305  0.00  0.00     0.009 C 
ENDBRANCH   7   8
ENDBRANCH   1   7
TORSDOF 2
ENDMDL
