MODEL 1
REMARK minimizedAffinity -2.12590051
REMARK minimizedRMSD -1
REMARK  2 active torsions:
REMARK  status: ('A' for Active; 'I' for Inactive)
REMARK    1  A    between atoms: C1_2  and  C2_3 
REMARK    2  A    between atoms: C2_3  and  C3_4 
ROOT
ATOM      1  C3  UNL d   1      -0.367  -0.191  -0.391  0.00  0.00    -0.075 A 
ATOM      2  C4  UNL d   1      -1.518  -0.124   0.408  0.00  0.00     0.002 A 
ATOM      3  C5  UNL d   1      -1.435  -0.318   1.787  0.00  0.00     0.002 A 
ATOM      4  C6  UNL d   1      -0.205  -0.590   2.383  0.00  0.00    -0.004 A 
ATOM      5  C7  UNL d   1       0.942  -0.675   1.597  0.00  0.00     0.002 A 
ATOM      6  C8  UNL d   1       0.863  -0.477   0.217  0.00  0.00     0.002 A 
ENDROOT
BRANCH   1   7
ATOM      7  C2  UNL d   1      -0.446   0.047  -1.880  0.00  0.00     0.056 C 
BRANCH   7   8
ATOM      8  C1  UNL d   1      -0.299   1.517  -2.285  0.00  0.00     0.007 C 
ATOM      9  C   UNL d   1      -1.594   2.130  -2.801  0.00  0.00     0.009 C 
ENDBRANCH   7   8
ENDBRANCH   1   7
TORSDOF 2
ENDMDL
