MODEL 1
REMARK minimizedAffinity 4.73246384
REMARK minimizedRMSD -1
REMARK  0 active torsions:
REMARK  status: ('A' for Active; 'I' for Inactive)
ROOT
ATOM      1  N1  IND d   1       1.312  -1.157   2.959  0.00  0.00    -0.196 N 
ATOM      2  C2  IND d   1       0.771  -1.503   4.166  0.00  0.00     0.054 A 
ATOM      3  C3  IND d   1      -0.546  -1.201   4.196  0.00  0.00    -0.031 A 
ATOM      4  C4  IND d   1      -2.043  -0.230   2.340  0.00  0.00     0.051 A 
ATOM      5  C5  IND d   1      -1.995   0.280   1.073  0.00  0.00    -0.031 A 
ATOM      6  C6  IND d   1      -0.818   0.335   0.354  0.00  0.00     0.015 A 
ATOM      7  C7  IND d   1       0.357  -0.130   0.874  0.00  0.00    -0.016 A 
ATOM      8  C8  IND d   1       0.312  -0.642   2.163  0.00  0.00    -0.047 A 
ATOM      9  C9  IND d   1      -0.870  -0.662   2.913  0.00  0.00    -0.096 A 
ATOM     10  HN1 IND d   1       2.137  -1.247   2.735  0.00  0.00     0.298 HD
ENDROOT
TORSDOF 0
ENDMDL
