MODEL 1
REMARK minimizedAffinity 7.32033205
REMARK minimizedRMSD -1
REMARK  0 active torsions:
REMARK  status: ('A' for Active; 'I' for Inactive)
ROOT
ATOM      1  N1  IND d   1       0.677  -0.554   1.828  0.00  0.00    -0.196 N 
ATOM      2  C2  IND d   1       1.422  -0.651   0.685  0.00  0.00     0.054 A 
ATOM      3  C3  IND d   1       0.632  -0.518  -0.404  0.00  0.00    -0.031 A 
ATOM      4  C4  IND d   1      -1.892  -0.032  -0.544  0.00  0.00     0.051 A 
ATOM      5  C5  IND d   1      -3.008   0.103   0.234  0.00  0.00    -0.031 A 
ATOM      6  C6  IND d   1      -2.951   0.028   1.611  0.00  0.00     0.015 A 
ATOM      7  C7  IND d   1      -1.768  -0.176   2.264  0.00  0.00    -0.016 A 
ATOM      8  C8  IND d   1      -0.634  -0.321   1.477  0.00  0.00    -0.047 A 
ATOM      9  C9  IND d   1      -0.693  -0.287   0.078  0.00  0.00    -0.096 A 
ATOM     10  HN1 IND d   1       0.978  -0.627   2.630  0.00  0.00     0.298 HD
ENDROOT
TORSDOF 0
ENDMDL
