MODEL 1
REMARK minimizedAffinity 1.0375998
REMARK minimizedRMSD -1
REMARK  0 active torsions:
REMARK  status: ('A' for Active; 'I' for Inactive)
ROOT
ATOM      1  N1  IND d   1       0.224  -0.277  -0.039  0.00  0.00    -0.196 N 
ATOM      2  C2  IND d   1      -0.820   0.195  -0.786  0.00  0.00     0.054 A 
ATOM      3  C3  IND d   1      -1.893   0.431   0.002  0.00  0.00    -0.031 A 
ATOM      4  C4  IND d   1      -2.127   0.209   2.556  0.00  0.00     0.051 A 
ATOM      5  C5  IND d   1      -1.456  -0.220   3.666  0.00  0.00    -0.031 A 
ATOM      6  C6  IND d   1      -0.163  -0.697   3.597  0.00  0.00     0.015 A 
ATOM      7  C7  IND d   1       0.514  -0.753   2.411  0.00  0.00    -0.016 A 
ATOM      8  C8  IND d   1      -0.168  -0.324   1.281  0.00  0.00    -0.047 A 
ATOM      9  C9  IND d   1      -1.495   0.121   1.338  0.00  0.00    -0.096 A 
ATOM     10  HN1 IND d   1       0.995  -0.507  -0.343  0.00  0.00     0.298 HD
ENDROOT
TORSDOF 0
ENDMDL
