MODEL 1
REMARK minimizedAffinity 8.48385906
REMARK minimizedRMSD -1
REMARK  0 active torsions:
REMARK  status: ('A' for Active; 'I' for Inactive)
ROOT
ATOM      1  N1  IND d   1      -0.616   5.307   1.508  0.00  0.00    -0.196 N 
ATOM      2  C2  IND d   1      -1.581   5.646   0.600  0.00  0.00     0.054 A 
ATOM      3  C3  IND d   1      -1.016   6.000  -0.576  0.00  0.00    -0.031 A 
ATOM      4  C4  IND d   1       1.465   5.999  -1.265  0.00  0.00     0.051 A 
ATOM      5  C5  IND d   1       2.721   5.802  -0.765  0.00  0.00    -0.031 A 
ATOM      6  C6  IND d   1       2.934   5.420   0.543  0.00  0.00     0.015 A 
ATOM      7  C7  IND d   1       1.892   5.208   1.402  0.00  0.00    -0.016 A 
ATOM      8  C8  IND d   1       0.615   5.414   0.900  0.00  0.00    -0.047 A 
ATOM      9  C9  IND d   1       0.395   5.843  -0.415  0.00  0.00    -0.096 A 
ATOM     10  HN1 IND d   1      -0.755   5.068   2.322  0.00  0.00     0.298 HD
ENDROOT
TORSDOF 0
ENDMDL
