MODEL 1
REMARK minimizedAffinity 3.22023082
REMARK minimizedRMSD -1
REMARK  0 active torsions:
REMARK  status: ('A' for Active; 'I' for Inactive)
ROOT
ATOM      1  N1  IND d   1       1.137  -0.819   2.729  0.00  0.00    -0.196 N 
ATOM      2  C2  IND d   1       0.819  -1.004   4.045  0.00  0.00     0.054 A 
ATOM      3  C3  IND d   1      -0.485  -0.718   4.258  0.00  0.00    -0.031 A 
ATOM      4  C4  IND d   1      -2.304  -0.025   2.573  0.00  0.00     0.051 A 
ATOM      5  C5  IND d   1      -2.486   0.309   1.261  0.00  0.00    -0.031 A 
ATOM      6  C6  IND d   1      -1.448   0.282   0.351  0.00  0.00     0.015 A 
ATOM      7  C7  IND d   1      -0.187  -0.094   0.720  0.00  0.00    -0.016 A 
ATOM      8  C8  IND d   1       0.002  -0.428   2.054  0.00  0.00    -0.047 A 
ATOM      9  C9  IND d   1      -1.038  -0.360   2.990  0.00  0.00    -0.096 A 
ATOM     10  HN1 IND d   1       1.916  -0.928   2.381  0.00  0.00     0.298 HD
ENDROOT
TORSDOF 0
ENDMDL
