MODEL 1
REMARK minimizedAffinity -3.5192101
REMARK minimizedRMSD -1
REMARK  0 active torsions:
REMARK  status: ('A' for Active; 'I' for Inactive)
ROOT
ATOM      1  C   UNL d   1       0.236   0.833  -1.018  0.00  0.00     0.020 A 
ATOM      2  C1  UNL d   1       0.501  -0.422  -1.566  0.00  0.00     0.020 A 
ATOM      3  C2  UNL d   1      -0.082  -1.563  -1.011  0.00  0.00     0.034 A 
ATOM      4  C3  UNL d   1      -0.933  -1.452   0.095  0.00  0.00     0.017 A 
ATOM      5  C4  UNL d   1      -1.197  -0.192   0.644  0.00  0.00     0.017 A 
ATOM      6  C5  UNL d   1      -0.611   0.947   0.085  0.00  0.00     0.034 A 
ATOM      7 Cl   UNL d   1      -2.236   0.025   2.009  0.00  0.00    -0.070 Cl
ATOM      8 Cl1  UNL d   1      -1.619  -2.905   0.730  0.00  0.00    -0.070 Cl
ENDROOT
TORSDOF 0
ENDMDL
