MODEL 1
REMARK minimizedAffinity -4.61039448
REMARK minimizedRMSD -1
REMARK  0 active torsions:
REMARK  status: ('A' for Active; 'I' for Inactive)
ROOT
ATOM      1  C   UNL d   1      -0.241  -3.180   0.616  0.00  0.00     0.020 A 
ATOM      2  C1  UNL d   1       1.024  -2.819   0.155  0.00  0.00     0.020 A 
ATOM      3  C2  UNL d   1       1.333  -1.474  -0.058  0.00  0.00     0.034 A 
ATOM      4  C3  UNL d   1       0.375  -0.484   0.191  0.00  0.00     0.017 A 
ATOM      5  C4  UNL d   1      -0.895  -0.847   0.654  0.00  0.00     0.017 A 
ATOM      6  C5  UNL d   1      -1.199  -2.196   0.865  0.00  0.00     0.034 A 
ATOM      7 Cl   UNL d   1      -2.129   0.317   0.983  0.00  0.00    -0.070 Cl
ATOM      8 Cl1  UNL d   1       0.826   1.159  -0.094  0.00  0.00    -0.070 Cl
ENDROOT
TORSDOF 0
ENDMDL
