MODEL 1
REMARK minimizedAffinity -4.16930771
REMARK minimizedRMSD -1
REMARK  0 active torsions:
REMARK  status: ('A' for Active; 'I' for Inactive)
ROOT
ATOM      1  C   UNL d   1      -0.593  -2.808   0.771  0.00  0.00     0.020 A 
ATOM      2  C1  UNL d   1       0.417  -2.385  -0.092  0.00  0.00     0.020 A 
ATOM      3  C2  UNL d   1       0.538  -1.033  -0.416  0.00  0.00     0.034 A 
ATOM      4  C3  UNL d   1      -0.352  -0.097   0.123  0.00  0.00     0.017 A 
ATOM      5  C4  UNL d   1      -1.366  -0.522   0.990  0.00  0.00     0.017 A 
ATOM      6  C5  UNL d   1      -1.482  -1.878   1.311  0.00  0.00     0.034 A 
ATOM      7 Cl   UNL d   1      -2.502   0.574   1.695  0.00  0.00    -0.070 Cl
ATOM      8 Cl1  UNL d   1      -0.143   1.560  -0.321  0.00  0.00    -0.070 Cl
ENDROOT
TORSDOF 0
ENDMDL
