MODEL 1
REMARK minimizedAffinity -4.65028954
REMARK minimizedRMSD -1
REMARK  0 active torsions:
REMARK  status: ('A' for Active; 'I' for Inactive)
ROOT
ATOM      1  C   UNL d   1      -0.742   0.730  -1.672  0.00  0.00     0.020 A 
ATOM      2  C1  UNL d   1      -0.149  -0.364  -2.301  0.00  0.00     0.020 A 
ATOM      3  C2  UNL d   1       0.084  -1.539  -1.584  0.00  0.00     0.034 A 
ATOM      4  C3  UNL d   1      -0.276  -1.624  -0.234  0.00  0.00     0.017 A 
ATOM      5  C4  UNL d   1      -0.871  -0.525   0.397  0.00  0.00     0.017 A 
ATOM      6  C5  UNL d   1      -1.102   0.650  -0.326  0.00  0.00     0.034 A 
ATOM      7 Cl   UNL d   1      -1.343  -0.554   2.059  0.00  0.00    -0.070 Cl
ATOM      8 Cl1  UNL d   1       0.041  -3.108   0.591  0.00  0.00    -0.070 Cl
ENDROOT
TORSDOF 0
ENDMDL
