MODEL 1
REMARK minimizedAffinity -4.96217489
REMARK minimizedRMSD -1
REMARK  0 active torsions:
REMARK  status: ('A' for Active; 'I' for Inactive)
ROOT
ATOM      1  C   UNL d   1       0.768  -3.094  -1.496  0.00  0.00     0.020 A 
ATOM      2  C1  UNL d   1       0.306  -3.427  -0.223  0.00  0.00     0.020 A 
ATOM      3  C2  UNL d   1      -0.431  -2.500   0.516  0.00  0.00     0.034 A 
ATOM      4  C3  UNL d   1      -0.708  -1.235  -0.016  0.00  0.00     0.017 A 
ATOM      5  C4  UNL d   1      -0.244  -0.902  -1.293  0.00  0.00     0.017 A 
ATOM      6  C5  UNL d   1       0.494  -1.834  -2.030  0.00  0.00     0.034 A 
ATOM      7 Cl   UNL d   1      -0.546   0.639  -2.016  0.00  0.00    -0.070 Cl
ATOM      8 Cl1  UNL d   1      -1.626  -0.139   0.955  0.00  0.00    -0.070 Cl
ENDROOT
TORSDOF 0
ENDMDL
