MODEL 1
REMARK minimizedAffinity -0.267010123
REMARK minimizedRMSD -1
REMARK  0 active torsions:
REMARK  status: ('A' for Active; 'I' for Inactive)
ROOT
ATOM      1  C   UNL d   1       0.295   1.703  -0.065  0.00  0.00     0.020 A 
ATOM      2  C1  UNL d   1      -0.534   1.214   0.945  0.00  0.00     0.020 A 
ATOM      3  C2  UNL d   1      -0.997  -0.102   0.892  0.00  0.00     0.034 A 
ATOM      4  C3  UNL d   1      -0.633  -0.935  -0.172  0.00  0.00     0.017 A 
ATOM      5  C4  UNL d   1       0.200  -0.444  -1.185  0.00  0.00     0.017 A 
ATOM      6  C5  UNL d   1       0.661   0.875  -1.127  0.00  0.00     0.034 A 
ATOM      7 Cl   UNL d   1       0.693  -1.411  -2.530  0.00  0.00    -0.070 Cl
ATOM      8 Cl1  UNL d   1      -1.242  -2.551  -0.173  0.00  0.00    -0.070 Cl
ENDROOT
TORSDOF 0
ENDMDL
