MODEL 1
REMARK minimizedAffinity -4.53788805
REMARK minimizedRMSD -1
REMARK  0 active torsions:
REMARK  status: ('A' for Active; 'I' for Inactive)
ROOT
ATOM      1  C   UNL d   1       0.836  -2.348  -0.599  0.00  0.00     0.020 A 
ATOM      2  C1  UNL d   1      -0.094  -2.903   0.279  0.00  0.00     0.020 A 
ATOM      3  C2  UNL d   1      -0.980  -2.075   0.972  0.00  0.00     0.034 A 
ATOM      4  C3  UNL d   1      -0.937  -0.688   0.789  0.00  0.00     0.017 A 
ATOM      5  C4  UNL d   1      -0.003  -0.132  -0.093  0.00  0.00     0.017 A 
ATOM      6  C5  UNL d   1       0.881  -0.966  -0.785  0.00  0.00     0.034 A 
ATOM      7 Cl   UNL d   1       0.110   1.570  -0.371  0.00  0.00    -0.070 Cl
ATOM      8 Cl1  UNL d   1      -2.063   0.275   1.678  0.00  0.00    -0.070 Cl
ENDROOT
TORSDOF 0
ENDMDL
