MODEL 1
REMARK minimizedAffinity -4.31347132
REMARK minimizedRMSD -1
REMARK  0 active torsions:
REMARK  status: ('A' for Active; 'I' for Inactive)
ROOT
ATOM      1  C   UNL d   1       0.126  -3.053   0.472  0.00  0.00     0.020 A 
ATOM      2  C1  UNL d   1       0.412  -2.430  -0.742  0.00  0.00     0.020 A 
ATOM      3  C2  UNL d   1       0.316  -1.042  -0.854  0.00  0.00     0.034 A 
ATOM      4  C3  UNL d   1      -0.067  -0.271   0.250  0.00  0.00     0.017 A 
ATOM      5  C4  UNL d   1      -0.354  -0.897   1.468  0.00  0.00     0.017 A 
ATOM      6  C5  UNL d   1      -0.256  -2.288   1.575  0.00  0.00     0.034 A 
ATOM      7 Cl   UNL d   1      -0.833  -0.014   2.875  0.00  0.00    -0.070 Cl
ATOM      8 Cl1  UNL d   1      -0.165   1.441   0.040  0.00  0.00    -0.070 Cl
ENDROOT
TORSDOF 0
ENDMDL
