MODEL 1
REMARK minimizedAffinity -4.26991367
REMARK minimizedRMSD -1
REMARK  0 active torsions:
REMARK  status: ('A' for Active; 'I' for Inactive)
ROOT
ATOM      1  C   UNL d   1      -0.234  -2.763   0.393  0.00  0.00     0.020 A 
ATOM      2  C1  UNL d   1       0.622  -2.205  -0.555  0.00  0.00     0.020 A 
ATOM      3  C2  UNL d   1       0.797  -0.821  -0.609  0.00  0.00     0.034 A 
ATOM      4  C3  UNL d   1       0.116   0.010   0.288  0.00  0.00     0.017 A 
ATOM      5  C4  UNL d   1      -0.743  -0.551   1.240  0.00  0.00     0.017 A 
ATOM      6  C5  UNL d   1      -0.915  -1.938   1.289  0.00  0.00     0.034 A 
ATOM      7 Cl   UNL d   1      -1.618   0.410   2.379  0.00  0.00    -0.070 Cl
ATOM      8 Cl1  UNL d   1       0.381   1.713   0.164  0.00  0.00    -0.070 Cl
ENDROOT
TORSDOF 0
ENDMDL
