MODEL 1
REMARK minimizedAffinity -1.21127176
REMARK minimizedRMSD -1
REMARK  0 active torsions:
REMARK  status: ('A' for Active; 'I' for Inactive)
ROOT
ATOM      1  C   UNL d   1      -1.621  -2.293   0.771  0.00  0.00     0.020 A 
ATOM      2  C1  UNL d   1      -1.828  -1.072   1.411  0.00  0.00     0.020 A 
ATOM      3  C2  UNL d   1      -1.146   0.068   0.976  0.00  0.00     0.034 A 
ATOM      4  C3  UNL d   1      -0.256  -0.013  -0.100  0.00  0.00     0.017 A 
ATOM      5  C4  UNL d   1      -0.050  -1.239  -0.742  0.00  0.00     0.017 A 
ATOM      6  C5  UNL d   1      -0.734  -2.377  -0.303  0.00  0.00     0.034 A 
ATOM      7 Cl   UNL d   1       1.033  -1.417  -2.077  0.00  0.00    -0.070 Cl
ATOM      8 Cl1  UNL d   1       0.552   1.436  -0.584  0.00  0.00    -0.070 Cl
ENDROOT
TORSDOF 0
ENDMDL
