MODEL 1
REMARK minimizedAffinity -2.00950837
REMARK minimizedRMSD -1
REMARK  0 active torsions:
REMARK  status: ('A' for Active; 'I' for Inactive)
ROOT
ATOM      1  C   UNL d   1      -0.637  -1.410   1.556  0.00  0.00     0.020 A 
ATOM      2  C1  UNL d   1      -0.737  -2.094   0.345  0.00  0.00     0.020 A 
ATOM      3  C2  UNL d   1      -0.459  -1.434  -0.854  0.00  0.00     0.034 A 
ATOM      4  C3  UNL d   1      -0.079  -0.087  -0.844  0.00  0.00     0.017 A 
ATOM      5  C4  UNL d   1       0.021   0.598   0.372  0.00  0.00     0.017 A 
ATOM      6  C5  UNL d   1      -0.259  -0.067   1.569  0.00  0.00     0.034 A 
ATOM      7 Cl   UNL d   1       0.484   2.261   0.463  0.00  0.00    -0.070 Cl
ATOM      8 Cl1  UNL d   1       0.251   0.665  -2.364  0.00  0.00    -0.070 Cl
ENDROOT
TORSDOF 0
ENDMDL
