MODEL 1
REMARK minimizedAffinity -2.59714556
REMARK minimizedRMSD -1
REMARK  0 active torsions:
REMARK  status: ('A' for Active; 'I' for Inactive)
ROOT
ATOM      1  C   UNL d   1      -0.394   0.776  -1.685  0.00  0.00     0.020 A 
ATOM      2  C1  UNL d   1       0.186  -0.307  -2.344  0.00  0.00     0.020 A 
ATOM      3  C2  UNL d   1       0.397  -1.508  -1.663  0.00  0.00     0.034 A 
ATOM      4  C3  UNL d   1       0.027  -1.629  -0.318  0.00  0.00     0.017 A 
ATOM      5  C4  UNL d   1      -0.556  -0.541   0.342  0.00  0.00     0.017 A 
ATOM      6  C5  UNL d   1      -0.764   0.659  -0.345  0.00  0.00     0.034 A 
ATOM      7 Cl   UNL d   1      -1.039  -0.614   2.000  0.00  0.00    -0.070 Cl
ATOM      8 Cl1  UNL d   1       0.316  -3.143   0.462  0.00  0.00    -0.070 Cl
ENDROOT
TORSDOF 0
ENDMDL
