MODEL 1
REMARK minimizedAffinity -4.90810728
REMARK minimizedRMSD -1
REMARK  0 active torsions:
REMARK  status: ('A' for Active; 'I' for Inactive)
ROOT
ATOM      1  C   UNL d   1      -0.019  -3.187  -0.003  0.00  0.00     0.020 A 
ATOM      2  C1  UNL d   1       0.442  -2.414  -1.067  0.00  0.00     0.020 A 
ATOM      3  C2  UNL d   1       0.367  -1.021  -1.003  0.00  0.00     0.034 A 
ATOM      4  C3  UNL d   1      -0.170  -0.397   0.129  0.00  0.00     0.017 A 
ATOM      5  C4  UNL d   1      -0.633  -1.174   1.197  0.00  0.00     0.017 A 
ATOM      6  C5  UNL d   1      -0.556  -2.568   1.127  0.00  0.00     0.034 A 
ATOM      7 Cl   UNL d   1      -1.310  -0.476   2.626  0.00  0.00    -0.070 Cl
ATOM      8 Cl1  UNL d   1      -0.232   1.330   0.141  0.00  0.00    -0.070 Cl
ENDROOT
TORSDOF 0
ENDMDL
