MODEL 1
REMARK minimizedAffinity -4.33105469
REMARK minimizedRMSD -1
REMARK  0 active torsions:
REMARK  status: ('A' for Active; 'I' for Inactive)
ROOT
ATOM      1  C   UNL d   1       0.860  -2.507  -0.078  0.00  0.00     0.020 A 
ATOM      2  C1  UNL d   1      -0.260  -3.061   0.542  0.00  0.00     0.020 A 
ATOM      3  C2  UNL d   1      -1.292  -2.233   0.988  0.00  0.00     0.034 A 
ATOM      4  C3  UNL d   1      -1.207  -0.847   0.814  0.00  0.00     0.017 A 
ATOM      5  C4  UNL d   1      -0.083  -0.292   0.192  0.00  0.00     0.017 A 
ATOM      6  C5  UNL d   1       0.947  -1.125  -0.253  0.00  0.00     0.034 A 
ATOM      7 Cl   UNL d   1       0.093   1.410  -0.058  0.00  0.00    -0.070 Cl
ATOM      8 Cl1  UNL d   1      -2.521   0.117   1.390  0.00  0.00    -0.070 Cl
ENDROOT
TORSDOF 0
ENDMDL
