MODEL 1
REMARK minimizedAffinity -6.31812
REMARK minimizedRMSD -1
REMARK  0 active torsions:
REMARK  status: ('A' for Active; 'I' for Inactive)
ROOT
ATOM      1  C   UNL d   1       0.377  -2.562  -1.362  0.00  0.00     0.020 A 
ATOM      2  C1  UNL d   1      -0.382  -3.214  -0.390  0.00  0.00     0.020 A 
ATOM      3  C2  UNL d   1      -1.035  -2.474   0.598  0.00  0.00     0.034 A 
ATOM      4  C3  UNL d   1      -0.931  -1.078   0.616  0.00  0.00     0.017 A 
ATOM      5  C4  UNL d   1      -0.170  -0.425  -0.359  0.00  0.00     0.017 A 
ATOM      6  C5  UNL d   1       0.483  -1.171  -1.346  0.00  0.00     0.034 A 
ATOM      7 Cl   UNL d   1       0.005   1.294  -0.401  0.00  0.00    -0.070 Cl
ATOM      8 Cl1  UNL d   1      -1.766  -0.227   1.867  0.00  0.00    -0.070 Cl
ENDROOT
TORSDOF 0
ENDMDL
