MODEL 1
REMARK minimizedAffinity -3.3874886
REMARK minimizedRMSD -1
REMARK  0 active torsions:
REMARK  status: ('A' for Active; 'I' for Inactive)
ROOT
ATOM      1  C   UNL d   1      -0.778  -1.403   1.354  0.00  0.00     0.020 A 
ATOM      2  C1  UNL d   1      -0.570  -2.632   0.730  0.00  0.00     0.020 A 
ATOM      3  C2  UNL d   1      -0.307  -2.684  -0.641  0.00  0.00     0.034 A 
ATOM      4  C3  UNL d   1      -0.251  -1.504  -1.392  0.00  0.00     0.017 A 
ATOM      5  C4  UNL d   1      -0.460  -0.270  -0.764  0.00  0.00     0.017 A 
ATOM      6  C5  UNL d   1      -0.723  -0.225   0.609  0.00  0.00     0.034 A 
ATOM      7 Cl   UNL d   1      -0.406   1.228  -1.624  0.00  0.00    -0.070 Cl
ATOM      8 Cl1  UNL d   1       0.079  -1.642  -3.082  0.00  0.00    -0.070 Cl
ENDROOT
TORSDOF 0
ENDMDL
