MODEL 1
REMARK minimizedAffinity -4.43582773
REMARK minimizedRMSD -1
REMARK  0 active torsions:
REMARK  status: ('A' for Active; 'I' for Inactive)
ROOT
ATOM      1  C   UNL d   1      -2.403  -1.122   0.195  0.00  0.00     0.124 A 
ATOM      2  C1  UNL d   1      -1.953  -0.334  -0.855  0.00  0.00     0.062 A 
ATOM      3  C2  UNL d   1      -0.622   0.069  -0.907  0.00  0.00     0.162 A 
ATOM      4  C3  UNL d   1       0.270  -0.317   0.094  0.00  0.00    -0.034 A 
ATOM      5  C4  UNL d   1      -0.191  -1.109   1.148  0.00  0.00     0.162 A 
ATOM      6  C5  UNL d   1      -1.522  -1.509   1.195  0.00  0.00     0.062 A 
ATOM      7  F   UNL d   1      -1.955  -2.270   2.211  0.00  0.00    -0.097 F 
ATOM      8  F1  UNL d   1       0.640  -1.497   2.127  0.00  0.00    -0.096 F 
ATOM      9  I   UNL d   1       2.261   0.284   0.020  0.00  0.00    -0.060 I 
ATOM     10  F2  UNL d   1      -0.214   0.830  -1.933  0.00  0.00    -0.096 F 
ATOM     11  F3  UNL d   1      -2.803   0.042  -1.822  0.00  0.00    -0.097 F 
ATOM     12  F4  UNL d   1      -3.685  -1.507   0.243  0.00  0.00    -0.092 F 
ENDROOT
TORSDOF 0
ENDMDL
