MODEL 1
REMARK minimizedAffinity -1.97724938
REMARK minimizedRMSD -1
REMARK  0 active torsions:
REMARK  status: ('A' for Active; 'I' for Inactive)
ROOT
ATOM      1  C   UNL d   1      -2.304  -0.882  -0.464  0.00  0.00     0.124 A 
ATOM      2  C1  UNL d   1      -1.665  -0.773   0.764  0.00  0.00     0.062 A 
ATOM      3  C2  UNL d   1      -0.446  -0.110   0.862  0.00  0.00     0.162 A 
ATOM      4  C3  UNL d   1       0.143   0.451  -0.271  0.00  0.00    -0.034 A 
ATOM      5  C4  UNL d   1      -0.505   0.337  -1.503  0.00  0.00     0.162 A 
ATOM      6  C5  UNL d   1      -1.724  -0.327  -1.595  0.00  0.00     0.062 A 
ATOM      7  F   UNL d   1      -2.339  -0.431  -2.782  0.00  0.00    -0.097 F 
ATOM      8  F1  UNL d   1       0.033   0.865  -2.612  0.00  0.00    -0.096 F 
ATOM      9  I   UNL d   1       1.967   1.444  -0.129  0.00  0.00    -0.060 I 
ATOM     10  F2  UNL d   1       0.149  -0.021   2.060  0.00  0.00    -0.096 F 
ATOM     11  F3  UNL d   1      -2.224  -1.310   1.858  0.00  0.00    -0.097 F 
ATOM     12  F4  UNL d   1      -3.477  -1.521  -0.556  0.00  0.00    -0.092 F 
ENDROOT
TORSDOF 0
ENDMDL
