MODEL 1
REMARK minimizedAffinity 1.84919834
REMARK minimizedRMSD -1
REMARK  0 active torsions:
REMARK  status: ('A' for Active; 'I' for Inactive)
ROOT
ATOM      1  C   UNL d   1      -1.576  -1.285  -0.416  0.00  0.00     0.124 A 
ATOM      2  C1  UNL d   1      -0.811  -1.340   0.741  0.00  0.00     0.062 A 
ATOM      3  C2  UNL d   1       0.345  -0.574   0.852  0.00  0.00     0.162 A 
ATOM      4  C3  UNL d   1       0.744   0.255  -0.197  0.00  0.00    -0.034 A 
ATOM      5  C4  UNL d   1      -0.030   0.304  -1.358  0.00  0.00     0.162 A 
ATOM      6  C5  UNL d   1      -1.185  -0.464  -1.464  0.00  0.00     0.062 A 
ATOM      7  F   UNL d   1      -1.923  -0.410  -2.582  0.00  0.00    -0.097 F 
ATOM      8  F1  UNL d   1       0.325   1.090  -2.385  0.00  0.00    -0.096 F 
ATOM      9  I   UNL d   1       2.473   1.402  -0.034  0.00  0.00    -0.060 I 
ATOM     10  F2  UNL d   1       1.065  -0.646   1.982  0.00  0.00    -0.096 F 
ATOM     11  F3  UNL d   1      -1.187  -2.133   1.754  0.00  0.00    -0.097 F 
ATOM     12  F4  UNL d   1      -2.688  -2.024  -0.521  0.00  0.00    -0.092 F 
ENDROOT
TORSDOF 0
ENDMDL
