MODEL 1
REMARK minimizedAffinity -1.86129773
REMARK minimizedRMSD -1
REMARK  0 active torsions:
REMARK  status: ('A' for Active; 'I' for Inactive)
ROOT
ATOM      1  C   UNL d   1       1.263  -0.015  -0.678  0.00  0.00     0.124 A 
ATOM      2  C1  UNL d   1       0.335   0.362  -1.638  0.00  0.00     0.062 A 
ATOM      3  C2  UNL d   1      -1.019   0.103  -1.443  0.00  0.00     0.162 A 
ATOM      4  C3  UNL d   1      -1.452  -0.536  -0.281  0.00  0.00    -0.034 A 
ATOM      5  C4  UNL d   1      -0.512  -0.913   0.679  0.00  0.00     0.162 A 
ATOM      6  C5  UNL d   1       0.839  -0.652   0.479  0.00  0.00     0.062 A 
ATOM      7  F   UNL d   1       1.735  -1.018   1.408  0.00  0.00    -0.097 F 
ATOM      8  F1  UNL d   1      -0.895  -1.530   1.807  0.00  0.00    -0.096 F 
ATOM      9  I   UNL d   1      -3.475  -0.925   0.015  0.00  0.00    -0.060 I 
ATOM     10  F2  UNL d   1      -1.894   0.479  -2.387  0.00  0.00    -0.096 F 
ATOM     11  F3  UNL d   1       0.742   0.977  -2.758  0.00  0.00    -0.097 F 
ATOM     12  F4  UNL d   1       2.565   0.235  -0.869  0.00  0.00    -0.092 F 
ENDROOT
TORSDOF 0
ENDMDL
