MODEL 1
REMARK minimizedAffinity 2.74480152
REMARK minimizedRMSD -1
REMARK  0 active torsions:
REMARK  status: ('A' for Active; 'I' for Inactive)
ROOT
ATOM      1  C   UNL d   1       1.640   0.842   0.402  0.00  0.00     0.124 A 
ATOM      2  C1  UNL d   1       0.653   1.779   0.129  0.00  0.00     0.062 A 
ATOM      3  C2  UNL d   1      -0.682   1.391   0.062  0.00  0.00     0.162 A 
ATOM      4  C3  UNL d   1      -1.039   0.059   0.271  0.00  0.00    -0.034 A 
ATOM      5  C4  UNL d   1      -0.041  -0.878   0.544  0.00  0.00     0.162 A 
ATOM      6  C5  UNL d   1       1.292  -0.486   0.610  0.00  0.00     0.062 A 
ATOM      7  F   UNL d   1       2.243  -1.393   0.874  0.00  0.00    -0.097 F 
ATOM      8  F1  UNL d   1      -0.350  -2.167   0.749  0.00  0.00    -0.096 F 
ATOM      9  I   UNL d   1      -3.034  -0.525   0.172  0.00  0.00    -0.060 I 
ATOM     10  F2  UNL d   1      -1.614   2.318  -0.204  0.00  0.00    -0.096 F 
ATOM     11  F3  UNL d   1       0.987   3.062  -0.073  0.00  0.00    -0.097 F 
ATOM     12  F4  UNL d   1       2.924   1.217   0.465  0.00  0.00    -0.092 F 
ENDROOT
TORSDOF 0
ENDMDL
