MODEL 1
REMARK minimizedAffinity 1.19530046
REMARK minimizedRMSD -1
REMARK  0 active torsions:
REMARK  status: ('A' for Active; 'I' for Inactive)
ROOT
ATOM      1  C   UNL d   1      -1.845  -0.862  -0.079  0.00  0.00     0.124 A 
ATOM      2  C1  UNL d   1      -0.757  -1.263   0.683  0.00  0.00     0.062 A 
ATOM      3  C2  UNL d   1       0.408  -0.501   0.695  0.00  0.00     0.162 A 
ATOM      4  C3  UNL d   1       0.490   0.671  -0.058  0.00  0.00    -0.034 A 
ATOM      5  C4  UNL d   1      -0.609   1.066  -0.823  0.00  0.00     0.162 A 
ATOM      6  C5  UNL d   1      -1.771   0.301  -0.831  0.00  0.00     0.062 A 
ATOM      7  F   UNL d   1      -2.821   0.690  -1.568  0.00  0.00    -0.097 F 
ATOM      8  F1  UNL d   1      -0.564   2.187  -1.559  0.00  0.00    -0.096 F 
ATOM      9  I   UNL d   1       2.230   1.813  -0.044  0.00  0.00    -0.060 I 
ATOM     10  F2  UNL d   1       1.445  -0.911   1.440  0.00  0.00    -0.096 F 
ATOM     11  F3  UNL d   1      -0.826  -2.387   1.410  0.00  0.00    -0.097 F 
ATOM     12  F4  UNL d   1      -2.964  -1.598  -0.089  0.00  0.00    -0.092 F 
ENDROOT
TORSDOF 0
ENDMDL
