MODEL 1
REMARK minimizedAffinity -0.578386605
REMARK minimizedRMSD -1
REMARK  0 active torsions:
REMARK  status: ('A' for Active; 'I' for Inactive)
ROOT
ATOM      1  C   UNL d   1      -0.554   0.520  -1.450  0.00  0.00     0.124 A 
ATOM      2  C1  UNL d   1      -1.808  -0.041  -1.255  0.00  0.00     0.062 A 
ATOM      3  C2  UNL d   1      -2.075  -0.773  -0.101  0.00  0.00     0.162 A 
ATOM      4  C3  UNL d   1      -1.086  -0.947   0.867  0.00  0.00    -0.034 A 
ATOM      5  C4  UNL d   1       0.173  -0.380   0.663  0.00  0.00     0.162 A 
ATOM      6  C5  UNL d   1       0.435   0.351  -0.492  0.00  0.00     0.062 A 
ATOM      7  F   UNL d   1       1.647   0.892  -0.679  0.00  0.00    -0.097 F 
ATOM      8  F1  UNL d   1       1.147  -0.528   1.573  0.00  0.00    -0.096 F 
ATOM      9  I   UNL d   1      -1.482  -2.042   2.592  0.00  0.00    -0.060 I 
ATOM     10  F2  UNL d   1      -3.296  -1.305   0.061  0.00  0.00    -0.096 F 
ATOM     11  F3  UNL d   1      -2.765   0.121  -2.179  0.00  0.00    -0.097 F 
ATOM     12  F4  UNL d   1      -0.300   1.224  -2.561  0.00  0.00    -0.092 F 
ENDROOT
TORSDOF 0
ENDMDL
