MODEL 1
REMARK minimizedAffinity -2.21266294
REMARK minimizedRMSD -1
REMARK  0 active torsions:
REMARK  status: ('A' for Active; 'I' for Inactive)
ROOT
ATOM      1  C   UNL d   1      -2.431  -1.070  -0.391  0.00  0.00     0.124 A 
ATOM      2  C1  UNL d   1      -1.843  -0.317  -1.398  0.00  0.00     0.062 A 
ATOM      3  C2  UNL d   1      -0.605   0.284  -1.191  0.00  0.00     0.162 A 
ATOM      4  C3  UNL d   1       0.054   0.135   0.029  0.00  0.00    -0.034 A 
ATOM      5  C4  UNL d   1      -0.544  -0.622   1.038  0.00  0.00     0.162 A 
ATOM      6  C5  UNL d   1      -1.781  -1.221   0.826  0.00  0.00     0.062 A 
ATOM      7  F   UNL d   1      -2.347  -1.948   1.801  0.00  0.00    -0.097 F 
ATOM      8  F1  UNL d   1       0.063  -0.786   2.223  0.00  0.00    -0.096 F 
ATOM      9  I   UNL d   1       1.906   1.033   0.343  0.00  0.00    -0.060 I 
ATOM     10  F2  UNL d   1      -0.061   1.005  -2.182  0.00  0.00    -0.096 F 
ATOM     11  F3  UNL d   1      -2.470  -0.168  -2.574  0.00  0.00    -0.097 F 
ATOM     12  F4  UNL d   1      -3.623  -1.647  -0.592  0.00  0.00    -0.092 F 
ENDROOT
TORSDOF 0
ENDMDL
