MODEL 1
REMARK minimizedAffinity 0.633050382
REMARK minimizedRMSD -1
REMARK  0 active torsions:
REMARK  status: ('A' for Active; 'I' for Inactive)
ROOT
ATOM      1  C   UNL d   1       0.074   0.385  -1.578  0.00  0.00     0.124 A 
ATOM      2  C1  UNL d   1      -1.088  -0.368  -1.482  0.00  0.00     0.062 A 
ATOM      3  C2  UNL d   1      -1.299  -1.194  -0.382  0.00  0.00     0.162 A 
ATOM      4  C3  UNL d   1      -0.345  -1.270   0.633  0.00  0.00    -0.034 A 
ATOM      5  C4  UNL d   1       0.822  -0.511   0.530  0.00  0.00     0.162 A 
ATOM      6  C5  UNL d   1       1.028   0.313  -0.572  0.00  0.00     0.062 A 
ATOM      7  F   UNL d   1       2.151   1.039  -0.663  0.00  0.00    -0.097 F 
ATOM      8  F1  UNL d   1       1.759  -0.561   1.488  0.00  0.00    -0.096 F 
ATOM      9  I   UNL d   1      -0.656  -2.504   2.281  0.00  0.00    -0.060 I 
ATOM     10  F2  UNL d   1      -2.431  -1.910  -0.316  0.00  0.00    -0.096 F 
ATOM     11  F3  UNL d   1      -2.010  -0.301  -2.453  0.00  0.00    -0.097 F 
ATOM     12  F4  UNL d   1       0.275   1.178  -2.639  0.00  0.00    -0.092 F 
ENDROOT
TORSDOF 0
ENDMDL
