MODEL 1
REMARK minimizedAffinity 4.23120403
REMARK minimizedRMSD -1
REMARK  0 active torsions:
REMARK  status: ('A' for Active; 'I' for Inactive)
ROOT
ATOM      1  C   UNL d   1      -2.176  -0.950  -0.485  0.00  0.00     0.124 A 
ATOM      2  C1  UNL d   1      -1.470  -0.435  -1.563  0.00  0.00     0.062 A 
ATOM      3  C2  UNL d   1      -0.154  -0.012  -1.401  0.00  0.00     0.162 A 
ATOM      4  C3  UNL d   1       0.466  -0.103  -0.154  0.00  0.00    -0.034 A 
ATOM      5  C4  UNL d   1      -0.251  -0.621   0.926  0.00  0.00     0.162 A 
ATOM      6  C5  UNL d   1      -1.566  -1.042   0.758  0.00  0.00     0.062 A 
ATOM      7  F   UNL d   1      -2.247  -1.539   1.801  0.00  0.00    -0.097 F 
ATOM      8  F1  UNL d   1       0.314  -0.723   2.138  0.00  0.00    -0.096 F 
ATOM      9  I   UNL d   1       2.434   0.528   0.093  0.00  0.00    -0.060 I 
ATOM     10  F2  UNL d   1       0.504   0.481  -2.460  0.00  0.00    -0.096 F 
ATOM     11  F3  UNL d   1      -2.057  -0.344  -2.765  0.00  0.00    -0.097 F 
ATOM     12  F4  UNL d   1      -3.443  -1.355  -0.644  0.00  0.00    -0.092 F 
ENDROOT
TORSDOF 0
ENDMDL
