MODEL 1
REMARK minimizedAffinity -2.36905885
REMARK minimizedRMSD -1
REMARK  0 active torsions:
REMARK  status: ('A' for Active; 'I' for Inactive)
ROOT
ATOM      1  C   UNL d   1      -2.275  -0.992   0.000  0.00  0.00     0.124 A 
ATOM      2  C1  UNL d   1      -1.380  -1.071   1.058  0.00  0.00     0.062 A 
ATOM      3  C2  UNL d   1      -0.152  -0.421   0.986  0.00  0.00     0.162 A 
ATOM      4  C3  UNL d   1       0.190   0.315  -0.149  0.00  0.00    -0.034 A 
ATOM      5  C4  UNL d   1      -0.715   0.389  -1.210  0.00  0.00     0.162 A 
ATOM      6  C5  UNL d   1      -1.942  -0.262  -1.133  0.00  0.00     0.062 A 
ATOM      7  F   UNL d   1      -2.805  -0.185  -2.156  0.00  0.00    -0.097 F 
ATOM      8  F1  UNL d   1      -0.419   1.087  -2.316  0.00  0.00    -0.096 F 
ATOM      9  I   UNL d   1       2.026   1.287  -0.262  0.00  0.00    -0.060 I 
ATOM     10  F2  UNL d   1       0.693  -0.514   2.023  0.00  0.00    -0.096 F 
ATOM     11  F3  UNL d   1      -1.700  -1.775   2.153  0.00  0.00    -0.097 F 
ATOM     12  F4  UNL d   1      -3.457  -1.618   0.072  0.00  0.00    -0.092 F 
ENDROOT
TORSDOF 0
ENDMDL
