MODEL 1
REMARK minimizedAffinity -2.04180193
REMARK minimizedRMSD -1
REMARK  0 active torsions:
REMARK  status: ('A' for Active; 'I' for Inactive)
ROOT
ATOM      1  C   UNL d   1       1.565   1.143   1.233  0.00  0.00     0.124 A 
ATOM      2  C1  UNL d   1       1.254  -0.200   1.390  0.00  0.00     0.062 A 
ATOM      3  C2  UNL d   1       0.063  -0.707   0.880  0.00  0.00     0.162 A 
ATOM      4  C3  UNL d   1      -0.827   0.130   0.207  0.00  0.00    -0.034 A 
ATOM      5  C4  UNL d   1      -0.508   1.480   0.054  0.00  0.00     0.162 A 
ATOM      6  C5  UNL d   1       0.684   1.982   0.566  0.00  0.00     0.062 A 
ATOM      7  F   UNL d   1       0.983   3.280   0.413  0.00  0.00    -0.097 F 
ATOM      8  F1  UNL d   1      -1.341   2.313  -0.588  0.00  0.00    -0.096 F 
ATOM      9  I   UNL d   1      -2.610  -0.624  -0.557  0.00  0.00    -0.060 I 
ATOM     10  F2  UNL d   1      -0.212  -2.010   1.046  0.00  0.00    -0.096 F 
ATOM     11  F3  UNL d   1       2.104  -1.013   2.036  0.00  0.00    -0.097 F 
ATOM     12  F4  UNL d   1       2.712   1.629   1.726  0.00  0.00    -0.092 F 
ENDROOT
TORSDOF 0
ENDMDL
