MODEL 1
REMARK minimizedAffinity -4.34144211
REMARK minimizedRMSD -1
REMARK  0 active torsions:
REMARK  status: ('A' for Active; 'I' for Inactive)
ROOT
ATOM      1  C   UNL d   1      -1.821  -1.066   0.115  0.00  0.00     0.124 A 
ATOM      2  C1  UNL d   1      -1.471  -0.364  -1.030  0.00  0.00     0.062 A 
ATOM      3  C2  UNL d   1      -0.311   0.405  -1.053  0.00  0.00     0.162 A 
ATOM      4  C3  UNL d   1       0.509   0.476   0.073  0.00  0.00    -0.034 A 
ATOM      5  C4  UNL d   1       0.150  -0.233   1.221  0.00  0.00     0.162 A 
ATOM      6  C5  UNL d   1      -1.010  -1.000   1.239  0.00  0.00     0.062 A 
ATOM      7  F   UNL d   1      -1.346  -1.678   2.346  0.00  0.00    -0.097 F 
ATOM      8  F1  UNL d   1       0.916  -0.187   2.322  0.00  0.00    -0.096 F 
ATOM      9  I   UNL d   1       2.244   1.624   0.043  0.00  0.00    -0.060 I 
ATOM     10  F2  UNL d   1       0.002   1.073  -2.173  0.00  0.00    -0.096 F 
ATOM     11  F3  UNL d   1      -2.253  -0.425  -2.118  0.00  0.00    -0.097 F 
ATOM     12  F4  UNL d   1      -2.938  -1.804   0.134  0.00  0.00    -0.092 F 
ENDROOT
TORSDOF 0
ENDMDL
