MODEL 1
REMARK minimizedAffinity 3.95657563
REMARK minimizedRMSD -1
REMARK  0 active torsions:
REMARK  status: ('A' for Active; 'I' for Inactive)
ROOT
ATOM      1  C   UNL d   1       1.787   0.049   0.898  0.00  0.00     0.124 A 
ATOM      2  C1  UNL d   1       1.126  -1.045   1.437  0.00  0.00     0.062 A 
ATOM      3  C2  UNL d   1      -0.195  -1.308   1.086  0.00  0.00     0.162 A 
ATOM      4  C3  UNL d   1      -0.864  -0.475   0.189  0.00  0.00    -0.034 A 
ATOM      5  C4  UNL d   1      -0.192   0.625  -0.348  0.00  0.00     0.162 A 
ATOM      6  C5  UNL d   1       1.128   0.883   0.006  0.00  0.00     0.062 A 
ATOM      7  F   UNL d   1       1.765   1.942  -0.515  0.00  0.00    -0.097 F 
ATOM      8  F1  UNL d   1      -0.805   1.447  -1.213  0.00  0.00    -0.096 F 
ATOM      9  I   UNL d   1      -2.839  -0.864  -0.339  0.00  0.00    -0.060 I 
ATOM     10  F2  UNL d   1      -0.810  -2.373   1.622  0.00  0.00    -0.096 F 
ATOM     11  F3  UNL d   1       1.760  -1.852   2.300  0.00  0.00    -0.097 F 
ATOM     12  F4  UNL d   1       3.058   0.300   1.239  0.00  0.00    -0.092 F 
ENDROOT
TORSDOF 0
ENDMDL
