MODEL 1
REMARK minimizedAffinity -0.539818585
REMARK minimizedRMSD -1
REMARK  0 active torsions:
REMARK  status: ('A' for Active; 'I' for Inactive)
ROOT
ATOM      1  C   UNL d   1      -1.571  -0.591  -1.015  0.00  0.00     0.124 A 
ATOM      2  C1  UNL d   1      -1.978  -0.172   0.244  0.00  0.00     0.062 A 
ATOM      3  C2  UNL d   1      -1.145   0.632   1.017  0.00  0.00     0.162 A 
ATOM      4  C3  UNL d   1       0.103   1.024   0.533  0.00  0.00    -0.034 A 
ATOM      5  C4  UNL d   1       0.505   0.598  -0.734  0.00  0.00     0.162 A 
ATOM      6  C5  UNL d   1      -0.330  -0.206  -1.503  0.00  0.00     0.062 A 
ATOM      7  F   UNL d   1       0.065  -0.610  -2.719  0.00  0.00    -0.097 F 
ATOM      8  F1  UNL d   1       1.699   0.956  -1.231  0.00  0.00    -0.096 F 
ATOM      9  I   UNL d   1       1.350   2.226   1.685  0.00  0.00    -0.060 I 
ATOM     10  F2  UNL d   1      -1.564   1.022   2.230  0.00  0.00    -0.096 F 
ATOM     11  F3  UNL d   1      -3.176  -0.544   0.718  0.00  0.00    -0.097 F 
ATOM     12  F4  UNL d   1      -2.373  -1.366  -1.756  0.00  0.00    -0.092 F 
ENDROOT
TORSDOF 0
ENDMDL
