MODEL 1
REMARK minimizedAffinity 11.8295946
REMARK minimizedRMSD -1
REMARK  3 active torsions:
REMARK  status: ('A' for Active; 'I' for Inactive)
REMARK    1  A    between atoms: C3'_2  and  C2'_3 
REMARK    2  A    between atoms: C2'_3  and  C1'_4 
REMARK    3  A    between atoms: C1'_4  and  C1_5 
ROOT
ATOM      1  C1  N4B d   1      -0.421  -5.036  -3.379  0.00  0.00    -0.075 A 
ATOM      2  C2  N4B d   1       0.876  -4.517  -3.584  0.00  0.00     0.002 A 
ATOM      3  C3  N4B d   1       1.532  -3.883  -2.558  0.00  0.00     0.002 A 
ATOM      4  C4  N4B d   1       0.906  -3.740  -1.328  0.00  0.00    -0.004 A 
ATOM      5  C5  N4B d   1      -0.336  -4.267  -1.130  0.00  0.00     0.002 A 
ATOM      6  C6  N4B d   1      -1.006  -4.910  -2.152  0.00  0.00     0.002 A 
ENDROOT
BRANCH   1   7
ATOM      7  C1' N4B d   1      -1.212  -5.662  -4.495  0.00  0.00     0.057 C 
BRANCH   7   8
ATOM      8  C2' N4B d   1      -2.647  -5.145  -4.442  0.00  0.00     0.009 C 
BRANCH   8   9
ATOM      9  C3' N4B d   1      -3.558  -5.901  -5.394  0.00  0.00     0.004 C 
ATOM     10  C4' N4B d   1      -4.618  -5.029  -5.999  0.00  0.00     0.003 C 
ENDBRANCH   8   9
ENDBRANCH   7   8
ENDBRANCH   1   7
TORSDOF 3
ENDMDL
