MODEL 1
REMARK minimizedAffinity 3.93669748
REMARK minimizedRMSD -1
REMARK  3 active torsions:
REMARK  status: ('A' for Active; 'I' for Inactive)
REMARK    1  A    between atoms: C3'_2  and  C2'_3 
REMARK    2  A    between atoms: C2'_3  and  C1'_4 
REMARK    3  A    between atoms: C1'_4  and  C1_5 
ROOT
ATOM      1  C1  N4B d   1       1.292   2.750   0.320  0.00  0.00    -0.075 A 
ATOM      2  C2  N4B d   1      -0.110   2.750   0.484  0.00  0.00     0.002 A 
ATOM      3  C3  N4B d   1      -0.896   3.540  -0.319  0.00  0.00     0.002 A 
ATOM      4  C4  N4B d   1      -0.302   4.350  -1.275  0.00  0.00    -0.004 A 
ATOM      5  C5  N4B d   1       1.051   4.325  -1.445  0.00  0.00     0.002 A 
ATOM      6  C6  N4B d   1       1.853   3.533  -0.648  0.00  0.00     0.002 A 
ENDROOT
BRANCH   1   7
ATOM      7  C1' N4B d   1       2.199   1.968   1.231  0.00  0.00     0.057 C 
BRANCH   7   8
ATOM      8  C2' N4B d   1       1.820   2.255   2.681  0.00  0.00     0.009 C 
BRANCH   8   9
ATOM      9  C3' N4B d   1       2.893   1.791   3.651  0.00  0.00     0.004 C 
ATOM     10  C4' N4B d   1       3.634   0.582   3.162  0.00  0.00     0.003 C 
ENDBRANCH   8   9
ENDBRANCH   7   8
ENDBRANCH   1   7
TORSDOF 3
ENDMDL
