MODEL 1
REMARK minimizedAffinity 15.5476913
REMARK minimizedRMSD -1
REMARK  3 active torsions:
REMARK  status: ('A' for Active; 'I' for Inactive)
REMARK    1  A    between atoms: C3'_2  and  C2'_3 
REMARK    2  A    between atoms: C2'_3  and  C1'_4 
REMARK    3  A    between atoms: C1'_4  and  C1_5 
ROOT
ATOM      1  C1  N4B d   1      -4.413   1.156  -3.056  0.00  0.00    -0.075 A 
ATOM      2  C2  N4B d   1      -3.945   0.917  -4.367  0.00  0.00     0.002 A 
ATOM      3  C3  N4B d   1      -3.550   1.969  -5.157  0.00  0.00     0.002 A 
ATOM      4  C4  N4B d   1      -3.631   3.263  -4.666  0.00  0.00    -0.004 A 
ATOM      5  C5  N4B d   1      -4.060   3.483  -3.390  0.00  0.00     0.002 A 
ATOM      6  C6  N4B d   1      -4.457   2.435  -2.583  0.00  0.00     0.002 A 
ENDROOT
BRANCH   1   7
ATOM      7  C1' N4B d   1      -4.937   0.046  -2.185  0.00  0.00     0.057 C 
BRANCH   7   8
ATOM      8  C2' N4B d   1      -4.944   0.510  -0.732  0.00  0.00     0.009 C 
BRANCH   8   9
ATOM      9  C3' N4B d   1      -3.753  -0.028   0.042  0.00  0.00     0.004 C 
ATOM     10  C4' N4B d   1      -4.017  -0.135   1.514  0.00  0.00     0.003 C 
ENDBRANCH   8   9
ENDBRANCH   7   8
ENDBRANCH   1   7
TORSDOF 3
ENDMDL
