MODEL 1
REMARK minimizedAffinity 9.09250546
REMARK minimizedRMSD -1
REMARK  3 active torsions:
REMARK  status: ('A' for Active; 'I' for Inactive)
REMARK    1  A    between atoms: C3'_2  and  C2'_3 
REMARK    2  A    between atoms: C2'_3  and  C1'_4 
REMARK    3  A    between atoms: C1'_4  and  C1_5 
ROOT
ATOM      1  C1  N4B d   1      -2.574  -4.851  -4.872  0.00  0.00    -0.075 A 
ATOM      2  C2  N4B d   1      -3.072  -3.600  -5.297  0.00  0.00     0.002 A 
ATOM      3  C3  N4B d   1      -4.328  -3.512  -5.847  0.00  0.00     0.002 A 
ATOM      4  C4  N4B d   1      -5.092  -4.660  -5.999  0.00  0.00    -0.004 A 
ATOM      5  C5  N4B d   1      -4.613  -5.860  -5.563  0.00  0.00     0.002 A 
ATOM      6  C6  N4B d   1      -3.355  -5.963  -5.004  0.00  0.00     0.002 A 
ENDROOT
BRANCH   1   7
ATOM      7  C1' N4B d   1      -1.174  -5.010  -4.344  0.00  0.00     0.057 C 
BRANCH   7   8
ATOM      8  C2' N4B d   1      -1.140  -4.579  -2.881  0.00  0.00     0.009 C 
BRANCH   8   9
ATOM      9  C3' N4B d   1       0.105  -3.771  -2.556  0.00  0.00     0.004 C 
ATOM     10  C4' N4B d   1       0.861  -4.316  -1.381  0.00  0.00     0.003 C 
ENDBRANCH   8   9
ENDBRANCH   7   8
ENDBRANCH   1   7
TORSDOF 3
ENDMDL
