MODEL 1
REMARK minimizedAffinity 6.45904398
REMARK minimizedRMSD -1
REMARK  3 active torsions:
REMARK  status: ('A' for Active; 'I' for Inactive)
REMARK    1  A    between atoms: C3'_2  and  C2'_3 
REMARK    2  A    between atoms: C2'_3  and  C1'_4 
REMARK    3  A    between atoms: C1'_4  and  C1_5 
ROOT
ATOM      1  C1  N4B d   1       0.698   0.613  -0.426  0.00  0.00    -0.075 A 
ATOM      2  C2  N4B d   1       1.243   1.603  -1.274  0.00  0.00     0.002 A 
ATOM      3  C3  N4B d   1       0.569   2.783  -1.473  0.00  0.00     0.002 A 
ATOM      4  C4  N4B d   1      -0.654   2.987  -0.852  0.00  0.00    -0.004 A 
ATOM      5  C5  N4B d   1      -1.161   2.037  -0.015  0.00  0.00     0.002 A 
ATOM      6  C6  N4B d   1      -0.493   0.848   0.197  0.00  0.00     0.002 A 
ENDROOT
BRANCH   1   7
ATOM      7  C1' N4B d   1       1.356  -0.728  -0.246  0.00  0.00     0.057 C 
BRANCH   7   8
ATOM      8  C2' N4B d   1       0.325  -1.827  -0.483  0.00  0.00     0.009 C 
BRANCH   8   9
ATOM      9  C3' N4B d   1       0.972  -3.196  -0.605  0.00  0.00     0.004 C 
ATOM     10  C4' N4B d   1       0.286  -4.076  -1.607  0.00  0.00     0.003 C 
ENDBRANCH   8   9
ENDBRANCH   7   8
ENDBRANCH   1   7
TORSDOF 3
ENDMDL
