MODEL 1
REMARK minimizedAffinity 10.1734695
REMARK minimizedRMSD -1
REMARK  3 active torsions:
REMARK  status: ('A' for Active; 'I' for Inactive)
REMARK    1  A    between atoms: C3'_2  and  C2'_3 
REMARK    2  A    between atoms: C2'_3  and  C1'_4 
REMARK    3  A    between atoms: C1'_4  and  C1_5 
ROOT
ATOM      1  C1  N4B d   1      -1.164   3.046  -0.041  0.00  0.00    -0.075 A 
ATOM      2  C2  N4B d   1       0.146   3.064  -0.569  0.00  0.00     0.002 A 
ATOM      3  C3  N4B d   1       1.135   2.316   0.022  0.00  0.00     0.002 A 
ATOM      4  C4  N4B d   1       0.843   1.559   1.147  0.00  0.00    -0.004 A 
ATOM      5  C5  N4B d   1      -0.431   1.527   1.635  0.00  0.00     0.002 A 
ATOM      6  C6  N4B d   1      -1.435   2.271   1.049  0.00  0.00     0.002 A 
ENDROOT
BRANCH   1   7
ATOM      7  C1' N4B d   1      -2.257   3.914  -0.601  0.00  0.00     0.057 C 
BRANCH   7   8
ATOM      8  C2' N4B d   1      -2.275   5.243   0.148  0.00  0.00     0.009 C 
BRANCH   8   9
ATOM      9  C3' N4B d   1      -3.454   5.343   1.100  0.00  0.00     0.004 C 
ATOM     10  C4' N4B d   1      -3.097   5.999   2.401  0.00  0.00     0.003 C 
ENDBRANCH   8   9
ENDBRANCH   7   8
ENDBRANCH   1   7
TORSDOF 3
ENDMDL
