MODEL 1
REMARK minimizedAffinity -4.33481073
REMARK minimizedRMSD -1
REMARK  0 active torsions:
REMARK  status: ('A' for Active; 'I' for Inactive)
ROOT
ATOM      1  C   UNL d   1      -1.601   2.275   1.752  0.00  0.00     0.078 C 
ATOM      2  C1  UNL d   1      -0.736   1.611   0.723  0.00  0.00    -0.077 A 
ATOM      3  C2  UNL d   1      -0.054   0.423   1.012  0.00  0.00    -0.001 A 
ATOM      4  C3  UNL d   1       0.755  -0.179   0.048  0.00  0.00     0.003 A 
ATOM      5  C4  UNL d   1       0.891   0.400  -1.212  0.00  0.00    -0.005 A 
ATOM      6  C5  UNL d   1       0.218   1.583  -1.509  0.00  0.00     0.003 A 
ATOM      7  C6  UNL d   1      -0.592   2.187  -0.545  0.00  0.00    -0.001 A 
ENDROOT
TORSDOF 0
ENDMDL
