MODEL 1
REMARK minimizedAffinity -3.44706726
REMARK minimizedRMSD -1
REMARK  0 active torsions:
REMARK  status: ('A' for Active; 'I' for Inactive)
ROOT
ATOM      1  C   UNL d   1      -0.456   3.019  -1.708  0.00  0.00     0.078 C 
ATOM      2  C1  UNL d   1      -0.322   2.172  -0.478  0.00  0.00    -0.077 A 
ATOM      3  C2  UNL d   1      -0.612   2.691   0.790  0.00  0.00    -0.001 A 
ATOM      4  C3  UNL d   1      -0.473   1.894   1.928  0.00  0.00     0.003 A 
ATOM      5  C4  UNL d   1      -0.044   0.574   1.809  0.00  0.00    -0.005 A 
ATOM      6  C5  UNL d   1       0.248   0.049   0.552  0.00  0.00     0.003 A 
ATOM      7  C6  UNL d   1       0.111   0.845  -0.587  0.00  0.00    -0.001 A 
ENDROOT
TORSDOF 0
ENDMDL
