MODEL 1
REMARK minimizedAffinity -5.56210518
REMARK minimizedRMSD -1
REMARK  0 active torsions:
REMARK  status: ('A' for Active; 'I' for Inactive)
ROOT
ATOM      1  C   UNL d   1      -0.002  -0.616  -0.004  0.00  0.00     0.078 C 
ATOM      2  C1  UNL d   1      -0.352   0.835   0.133  0.00  0.00    -0.077 A 
ATOM      3  C2  UNL d   1      -0.513   1.648  -0.996  0.00  0.00    -0.001 A 
ATOM      4  C3  UNL d   1      -0.829   3.000  -0.852  0.00  0.00     0.003 A 
ATOM      5  C4  UNL d   1      -0.987   3.551   0.418  0.00  0.00    -0.005 A 
ATOM      6  C5  UNL d   1      -0.828   2.750   1.547  0.00  0.00     0.003 A 
ATOM      7  C6  UNL d   1      -0.511   1.398   1.406  0.00  0.00    -0.001 A 
ENDROOT
TORSDOF 0
ENDMDL
