MODEL 1
REMARK minimizedAffinity -4.99573946
REMARK minimizedRMSD -1
REMARK  0 active torsions:
REMARK  status: ('A' for Active; 'I' for Inactive)
ROOT
ATOM      1  C   UNL d   1      -1.338   3.222  -0.413  0.00  0.00     0.078 C 
ATOM      2  C1  UNL d   1      -0.855   2.100   0.458  0.00  0.00    -0.077 A 
ATOM      3  C2  UNL d   1      -0.883   2.208   1.853  0.00  0.00    -0.001 A 
ATOM      4  C3  UNL d   1      -0.421   1.161   2.652  0.00  0.00     0.003 A 
ATOM      5  C4  UNL d   1       0.072  -0.002   2.064  0.00  0.00    -0.005 A 
ATOM      6  C5  UNL d   1       0.106  -0.118   0.675  0.00  0.00     0.003 A 
ATOM      7  C6  UNL d   1      -0.355   0.929  -0.125  0.00  0.00    -0.001 A 
ENDROOT
TORSDOF 0
ENDMDL
