MODEL 1
REMARK minimizedAffinity -5.95316172
REMARK minimizedRMSD -1
REMARK  0 active torsions:
REMARK  status: ('A' for Active; 'I' for Inactive)
ROOT
ATOM      1  C   UNL d   1      -0.043  -0.233  -0.863  0.00  0.00     0.078 C 
ATOM      2  C1  UNL d   1      -0.434   1.051  -0.194  0.00  0.00    -0.077 A 
ATOM      3  C2  UNL d   1      -0.878   2.148  -0.942  0.00  0.00    -0.001 A 
ATOM      4  C3  UNL d   1      -1.230   3.340  -0.307  0.00  0.00     0.003 A 
ATOM      5  C4  UNL d   1      -1.140   3.447   1.080  0.00  0.00    -0.005 A 
ATOM      6  C5  UNL d   1      -0.697   2.361   1.832  0.00  0.00     0.003 A 
ATOM      7  C6  UNL d   1      -0.345   1.169   1.199  0.00  0.00    -0.001 A 
ENDROOT
TORSDOF 0
ENDMDL
