MODEL 1
REMARK minimizedAffinity -4.82728291
REMARK minimizedRMSD -1
REMARK  0 active torsions:
REMARK  status: ('A' for Active; 'I' for Inactive)
ROOT
ATOM      1  C   UNL d   1      -1.478   2.675   1.493  0.00  0.00     0.078 C 
ATOM      2  C1  UNL d   1      -0.661   1.681   0.724  0.00  0.00    -0.077 A 
ATOM      3  C2  UNL d   1      -0.594   1.730  -0.674  0.00  0.00    -0.001 A 
ATOM      4  C3  UNL d   1       0.163   0.792  -1.378  0.00  0.00     0.003 A 
ATOM      5  C4  UNL d   1       0.858  -0.203  -0.693  0.00  0.00    -0.005 A 
ATOM      6  C5  UNL d   1       0.795  -0.261   0.698  0.00  0.00     0.003 A 
ATOM      7  C6  UNL d   1       0.039   0.676   1.404  0.00  0.00    -0.001 A 
ENDROOT
TORSDOF 0
ENDMDL
