MODEL 1
REMARK minimizedAffinity -0.915798783
REMARK minimizedRMSD -1
REMARK  0 active torsions:
REMARK  status: ('A' for Active; 'I' for Inactive)
ROOT
ATOM      1  C   UNL d   1      -0.423  -3.169  -0.996  0.00  0.00     0.078 C 
ATOM      2  C1  UNL d   1      -0.061  -1.913  -0.261  0.00  0.00    -0.077 A 
ATOM      3  C2  UNL d   1       0.171  -0.716  -0.950  0.00  0.00    -0.001 A 
ATOM      4  C3  UNL d   1       0.516   0.443  -0.254  0.00  0.00     0.003 A 
ATOM      5  C4  UNL d   1       0.634   0.417   1.134  0.00  0.00    -0.005 A 
ATOM      6  C5  UNL d   1       0.407  -0.770   1.828  0.00  0.00     0.003 A 
ATOM      7  C6  UNL d   1       0.062  -1.930   1.134  0.00  0.00    -0.001 A 
ENDROOT
TORSDOF 0
ENDMDL
