MODEL 1
REMARK minimizedAffinity -3.00836349
REMARK minimizedRMSD -1
REMARK  0 active torsions:
REMARK  status: ('A' for Active; 'I' for Inactive)
ROOT
ATOM      1  C   UNL d   1       0.498  -1.608  -0.764  0.00  0.00     0.078 C 
ATOM      2  C1  UNL d   1       0.428  -0.406   0.131  0.00  0.00    -0.077 A 
ATOM      3  C2  UNL d   1       0.566   0.888  -0.387  0.00  0.00    -0.001 A 
ATOM      4  C3  UNL d   1       0.509   1.996   0.459  0.00  0.00     0.003 A 
ATOM      5  C4  UNL d   1       0.314   1.823   1.828  0.00  0.00    -0.005 A 
ATOM      6  C5  UNL d   1       0.178   0.539   2.352  0.00  0.00     0.003 A 
ATOM      7  C6  UNL d   1       0.235  -0.571   1.508  0.00  0.00    -0.001 A 
ENDROOT
TORSDOF 0
ENDMDL
