MODEL 1
REMARK minimizedAffinity -3.80528808
REMARK minimizedRMSD -1
REMARK  0 active torsions:
REMARK  status: ('A' for Active; 'I' for Inactive)
ROOT
ATOM      1  C   UNL d   1      -0.014  -0.308   0.019  0.00  0.00     0.172 C 
ATOM      2  N   UNL d   1      -0.390   1.059   0.292  0.00  0.00    -0.070 N 
ATOM      3  C1  UNL d   1      -0.507   1.622   1.535  0.00  0.00    -0.004 A 
ATOM      4  C2  UNL d   1      -0.883   2.937   1.369  0.00  0.00    -0.047 A 
ATOM      5  C3  UNL d   1      -0.997   3.173  -0.021  0.00  0.00    -0.047 A 
ATOM      6  C4  UNL d   1      -0.686   1.993  -0.665  0.00  0.00    -0.004 A 
ENDROOT
TORSDOF 0
ENDMDL
