MODEL 1
REMARK minimizedAffinity -3.64361405
REMARK minimizedRMSD -1
REMARK  0 active torsions:
REMARK  status: ('A' for Active; 'I' for Inactive)
ROOT
ATOM      1  C   UNL d   1       0.330  -0.699  -0.388  0.00  0.00     0.172 C 
ATOM      2  N   UNL d   1      -0.152   0.289   0.549  0.00  0.00    -0.070 N 
ATOM      3  C1  UNL d   1      -0.929   1.372   0.236  0.00  0.00    -0.004 A 
ATOM      4  C2  UNL d   1      -1.173   2.067   1.402  0.00  0.00    -0.047 A 
ATOM      5  C3  UNL d   1      -0.519   1.377   2.450  0.00  0.00    -0.047 A 
ATOM      6  C4  UNL d   1       0.106   0.281   1.894  0.00  0.00    -0.004 A 
ENDROOT
TORSDOF 0
ENDMDL
