MODEL 1
REMARK minimizedAffinity -4.15492725
REMARK minimizedRMSD -1
REMARK  0 active torsions:
REMARK  status: ('A' for Active; 'I' for Inactive)
ROOT
ATOM      1  C   UNL d   1       0.049   0.060   0.938  0.00  0.00     0.172 C 
ATOM      2  N   UNL d   1      -0.436   1.417   0.856  0.00  0.00    -0.070 N 
ATOM      3  C1  UNL d   1      -0.519   2.300   1.900  0.00  0.00    -0.004 A 
ATOM      4  C2  UNL d   1      -1.030   3.484   1.412  0.00  0.00    -0.047 A 
ATOM      5  C3  UNL d   1      -1.263   3.305   0.028  0.00  0.00    -0.047 A 
ATOM      6  C4  UNL d   1      -0.887   2.017  -0.290  0.00  0.00    -0.004 A 
ENDROOT
TORSDOF 0
ENDMDL
