MODEL 1
REMARK minimizedAffinity -3.59948087
REMARK minimizedRMSD -1
REMARK  0 active torsions:
REMARK  status: ('A' for Active; 'I' for Inactive)
ROOT
ATOM      1  C   UNL d   1      -1.151   2.387   1.576  0.00  0.00     0.172 C 
ATOM      2  N   UNL d   1      -0.467   1.462   0.703  0.00  0.00    -0.070 N 
ATOM      3  C1  UNL d   1       0.255   0.370   1.105  0.00  0.00    -0.004 A 
ATOM      4  C2  UNL d   1       0.746  -0.250  -0.023  0.00  0.00    -0.047 A 
ATOM      5  C3  UNL d   1       0.306   0.495  -1.142  0.00  0.00    -0.047 A 
ATOM      6  C4  UNL d   1      -0.443   1.550  -0.664  0.00  0.00    -0.004 A 
ENDROOT
TORSDOF 0
ENDMDL
