MODEL 1
REMARK minimizedAffinity -2.20826864
REMARK minimizedRMSD -1
REMARK  0 active torsions:
REMARK  status: ('A' for Active; 'I' for Inactive)
ROOT
ATOM      1  C   UNL d   1       0.496  -1.146  -0.528  0.00  0.00     0.172 C 
ATOM      2  N   UNL d   1       0.424  -0.124   0.490  0.00  0.00    -0.070 N 
ATOM      3  C1  UNL d   1       0.076  -0.325   1.799  0.00  0.00    -0.004 A 
ATOM      4  C2  UNL d   1       0.127   0.894   2.441  0.00  0.00    -0.047 A 
ATOM      5  C3  UNL d   1       0.517   1.861   1.484  0.00  0.00    -0.047 A 
ATOM      6  C4  UNL d   1       0.695   1.203   0.285  0.00  0.00    -0.004 A 
ENDROOT
TORSDOF 0
ENDMDL
