MODEL 1
REMARK minimizedAffinity -1.64894462
REMARK minimizedRMSD -1
REMARK  0 active torsions:
REMARK  status: ('A' for Active; 'I' for Inactive)
ROOT
ATOM      1  O1  BZF d   1      -2.676   3.087   0.246  0.00  0.00    -0.204 OA
ATOM      2  C2  BZF d   1      -3.868   2.493   0.613  0.00  0.00     0.174 A 
ATOM      3  C3  BZF d   1      -3.664   1.226   1.027  0.00  0.00    -0.012 A 
ATOM      4  C3A BZF d   1      -2.245   1.045   0.999  0.00  0.00    -0.107 A 
ATOM      5  C4  BZF d   1      -1.425   0.000   1.315  0.00  0.00     0.055 A 
ATOM      6  C5  BZF d   1      -0.088   0.123   1.106  0.00  0.00    -0.016 A 
ATOM      7  C6  BZF d   1       0.462   1.273   0.578  0.00  0.00     0.022 A 
ATOM      8  C7  BZF d   1      -0.310   2.338   0.254  0.00  0.00     0.029 A 
ATOM      9  C7A BZF d   1      -1.658   2.229   0.495  0.00  0.00     0.058 A 
ENDROOT
TORSDOF 0
ENDMDL
