MODEL 1
REMARK minimizedAffinity 3.07838726
REMARK minimizedRMSD -1
REMARK  0 active torsions:
REMARK  status: ('A' for Active; 'I' for Inactive)
ROOT
ATOM      1  O1  BZF d   1      -3.018   2.465  -1.154  0.00  0.00    -0.204 OA
ATOM      2  C2  BZF d   1      -4.105   2.292  -0.319  0.00  0.00     0.174 A 
ATOM      3  C3  BZF d   1      -3.712   1.831   0.887  0.00  0.00    -0.012 A 
ATOM      4  C3A BZF d   1      -2.283   1.797   0.829  0.00  0.00    -0.107 A 
ATOM      5  C4  BZF d   1      -1.316   1.444   1.726  0.00  0.00     0.055 A 
ATOM      6  C5  BZF d   1      -0.015   1.453   1.333  0.00  0.00    -0.016 A 
ATOM      7  C6  BZF d   1       0.353   1.805   0.051  0.00  0.00     0.022 A 
ATOM      8  C7  BZF d   1      -0.570   2.168  -0.873  0.00  0.00     0.029 A 
ATOM      9  C7A BZF d   1      -1.883   2.191  -0.468  0.00  0.00     0.058 A 
ENDROOT
TORSDOF 0
ENDMDL
