MODEL 1
REMARK minimizedAffinity -0.391923279
REMARK minimizedRMSD -1
REMARK  0 active torsions:
REMARK  status: ('A' for Active; 'I' for Inactive)
ROOT
ATOM      1  O1  BZF d   1       1.228  -6.000  -4.291  0.00  0.00    -0.204 OA
ATOM      2  C2  BZF d   1       2.230  -5.743  -3.376  0.00  0.00     0.174 A 
ATOM      3  C3  BZF d   1       1.710  -5.389  -2.183  0.00  0.00    -0.012 A 
ATOM      4  C3A BZF d   1       0.294  -5.516  -2.338  0.00  0.00    -0.107 A 
ATOM      5  C4  BZF d   1      -0.764  -5.320  -1.496  0.00  0.00     0.055 A 
ATOM      6  C5  BZF d   1      -2.027  -5.460  -1.979  0.00  0.00    -0.016 A 
ATOM      7  C6  BZF d   1      -2.268  -5.790  -3.296  0.00  0.00     0.022 A 
ATOM      8  C7  BZF d   1      -1.251  -6.000  -4.167  0.00  0.00     0.029 A 
ATOM      9  C7A BZF d   1       0.026  -5.891  -3.675  0.00  0.00     0.058 A 
ENDROOT
TORSDOF 0
ENDMDL
