MODEL 1
REMARK minimizedAffinity -0.0388048552
REMARK minimizedRMSD -1
REMARK  0 active torsions:
REMARK  status: ('A' for Active; 'I' for Inactive)
ROOT
ATOM      1  O1  BZF d   1      -4.567   0.424   1.409  0.00  0.00    -0.204 OA
ATOM      2  C2  BZF d   1      -5.460   1.406   1.025  0.00  0.00     0.174 A 
ATOM      3  C3  BZF d   1      -4.815   2.438   0.443  0.00  0.00    -0.012 A 
ATOM      4  C3A BZF d   1      -3.443   2.038   0.382  0.00  0.00    -0.107 A 
ATOM      5  C4  BZF d   1      -2.313   2.632  -0.103  0.00  0.00     0.055 A 
ATOM      6  C5  BZF d   1      -1.117   2.006   0.058  0.00  0.00    -0.016 A 
ATOM      7  C6  BZF d   1      -1.014   0.791   0.702  0.00  0.00     0.022 A 
ATOM      8  C7  BZF d   1      -2.108   0.161   1.196  0.00  0.00     0.029 A 
ATOM      9  C7A BZF d   1      -3.322   0.775   1.006  0.00  0.00     0.058 A 
ENDROOT
TORSDOF 0
ENDMDL
