MODEL 1
REMARK minimizedAffinity 5.85728312
REMARK minimizedRMSD -1
REMARK  0 active torsions:
REMARK  status: ('A' for Active; 'I' for Inactive)
ROOT
ATOM      1  O1  BZF d   1      -2.604  -0.208   1.869  0.00  0.00    -0.204 OA
ATOM      2  C2  BZF d   1      -3.821   0.018   1.257  0.00  0.00     0.174 A 
ATOM      3  C3  BZF d   1      -3.763   1.106   0.462  0.00  0.00    -0.012 A 
ATOM      4  C3A BZF d   1      -2.399   1.536   0.513  0.00  0.00    -0.107 A 
ATOM      5  C4  BZF d   1      -1.714   2.558  -0.080  0.00  0.00     0.055 A 
ATOM      6  C5  BZF d   1      -0.406   2.748   0.236  0.00  0.00    -0.016 A 
ATOM      7  C6  BZF d   1       0.245   1.940   1.145  0.00  0.00     0.022 A 
ATOM      8  C7  BZF d   1      -0.391   0.911   1.756  0.00  0.00     0.029 A 
ATOM      9  C7A BZF d   1      -1.703   0.696   1.413  0.00  0.00     0.058 A 
ENDROOT
TORSDOF 0
ENDMDL
