MODEL 1
REMARK minimizedAffinity 3.43079472
REMARK minimizedRMSD -1
REMARK  0 active torsions:
REMARK  status: ('A' for Active; 'I' for Inactive)
ROOT
ATOM      1  O1  BZF d   1      -2.320   0.039   1.392  0.00  0.00    -0.204 OA
ATOM      2  C2  BZF d   1      -1.936  -0.679   2.508  0.00  0.00     0.174 A 
ATOM      3  C3  BZF d   1      -0.594  -0.681   2.637  0.00  0.00    -0.012 A 
ATOM      4  C3A BZF d   1      -0.113   0.162   1.585  0.00  0.00    -0.107 A 
ATOM      5  C4  BZF d   1       1.133   0.567   1.202  0.00  0.00     0.055 A 
ATOM      6  C5  BZF d   1       1.265   1.333   0.087  0.00  0.00    -0.016 A 
ATOM      7  C6  BZF d   1       0.174   1.707  -0.670  0.00  0.00     0.022 A 
ATOM      8  C7  BZF d   1      -1.083   1.334  -0.326  0.00  0.00     0.029 A 
ATOM      9  C7A BZF d   1      -1.222   0.588   0.818  0.00  0.00     0.058 A 
ENDROOT
TORSDOF 0
ENDMDL
