MODEL 1
REMARK minimizedAffinity -2.94826484
REMARK minimizedRMSD -1
REMARK  0 active torsions:
REMARK  status: ('A' for Active; 'I' for Inactive)
ROOT
ATOM      1  O1  BZF d   1      -4.355   0.579   1.186  0.00  0.00    -0.204 OA
ATOM      2  C2  BZF d   1      -5.134   1.655   0.805  0.00  0.00     0.174 A 
ATOM      3  C3  BZF d   1      -4.375   2.623   0.253  0.00  0.00    -0.012 A 
ATOM      4  C3A BZF d   1      -3.051   2.084   0.208  0.00  0.00    -0.107 A 
ATOM      5  C4  BZF d   1      -1.856   2.565  -0.247  0.00  0.00     0.055 A 
ATOM      6  C5  BZF d   1      -0.735   1.816  -0.078  0.00  0.00    -0.016 A 
ATOM      7  C6  BZF d   1      -0.771   0.586   0.546  0.00  0.00     0.022 A 
ATOM      8  C7  BZF d   1      -1.933   0.065   1.009  0.00  0.00     0.029 A 
ATOM      9  C7A BZF d   1      -3.073   0.805   0.810  0.00  0.00     0.058 A 
ENDROOT
TORSDOF 0
ENDMDL
