MODEL 1
REMARK minimizedAffinity 4.79767179
REMARK minimizedRMSD -1
REMARK  0 active torsions:
REMARK  status: ('A' for Active; 'I' for Inactive)
ROOT
ATOM      1  O1  BZF d   1      -3.114   0.521   1.775  0.00  0.00    -0.204 OA
ATOM      2  C2  BZF d   1      -2.777  -0.790   2.052  0.00  0.00     0.174 A 
ATOM      3  C3  BZF d   1      -1.470  -1.010   1.803  0.00  0.00    -0.012 A 
ATOM      4  C3A BZF d   1      -0.938   0.264   1.430  0.00  0.00    -0.107 A 
ATOM      5  C4  BZF d   1       0.310   0.695   1.080  0.00  0.00     0.055 A 
ATOM      6  C5  BZF d   1       0.480   1.989   0.701  0.00  0.00    -0.016 A 
ATOM      7  C6  BZF d   1      -0.574   2.877   0.656  0.00  0.00     0.022 A 
ATOM      8  C7  BZF d   1      -1.830   2.497   0.999  0.00  0.00     0.029 A 
ATOM      9  C7A BZF d   1      -1.999   1.199   1.413  0.00  0.00     0.058 A 
ENDROOT
TORSDOF 0
ENDMDL
