MODEL 1
REMARK minimizedAffinity 8.84410858
REMARK minimizedRMSD -1
REMARK  0 active torsions:
REMARK  status: ('A' for Active; 'I' for Inactive)
ROOT
ATOM      1  O1  BZF d   1      -3.223   1.730   0.750  0.00  0.00    -0.204 OA
ATOM      2  C2  BZF d   1      -3.221   2.625  -0.302  0.00  0.00     0.174 A 
ATOM      3  C3  BZF d   1      -1.960   2.904  -0.690  0.00  0.00    -0.012 A 
ATOM      4  C3A BZF d   1      -1.125   2.065   0.112  0.00  0.00    -0.107 A 
ATOM      5  C4  BZF d   1       0.226   1.875   0.181  0.00  0.00     0.055 A 
ATOM      6  C5  BZF d   1       0.727   1.036   1.125  0.00  0.00    -0.016 A 
ATOM      7  C6  BZF d   1      -0.091   0.375   2.018  0.00  0.00     0.022 A 
ATOM      8  C7  BZF d   1      -1.437   0.528   1.985  0.00  0.00     0.029 A 
ATOM      9  C7A BZF d   1      -1.950   1.350   1.011  0.00  0.00     0.058 A 
ENDROOT
TORSDOF 0
ENDMDL
