MODEL 1
REMARK minimizedAffinity 2.1817925
REMARK minimizedRMSD -1
REMARK  0 active torsions:
REMARK  status: ('A' for Active; 'I' for Inactive)
ROOT
ATOM      1  O1  BZF d   1       0.015  -0.116   1.459  0.00  0.00    -0.204 OA
ATOM      2  C2  BZF d   1       0.994   0.856   1.542  0.00  0.00     0.174 A 
ATOM      3  C3  BZF d   1       0.505   2.059   1.179  0.00  0.00    -0.012 A 
ATOM      4  C3A BZF d   1      -0.888   1.842   0.937  0.00  0.00    -0.107 A 
ATOM      5  C4  BZF d   1      -1.915   2.661   0.561  0.00  0.00     0.055 A 
ATOM      6  C5  BZF d   1      -3.142   2.122   0.339  0.00  0.00    -0.016 A 
ATOM      7  C6  BZF d   1      -3.378   0.770   0.479  0.00  0.00     0.022 A 
ATOM      8  C7  BZF d   1      -2.392  -0.081   0.855  0.00  0.00     0.029 A 
ATOM      9  C7A BZF d   1      -1.158   0.465   1.112  0.00  0.00     0.058 A 
ENDROOT
TORSDOF 0
ENDMDL
