MODEL 1
REMARK minimizedAffinity -2.27883863
REMARK minimizedRMSD -1
REMARK  0 active torsions:
REMARK  status: ('A' for Active; 'I' for Inactive)
ROOT
ATOM      1  O1  BZF d   1      -1.478   2.997   0.245  0.00  0.00    -0.204 OA
ATOM      2  C2  BZF d   1      -0.243   2.471   0.572  0.00  0.00     0.174 A 
ATOM      3  C3  BZF d   1      -0.375   1.244   1.117  0.00  0.00    -0.012 A 
ATOM      4  C3A BZF d   1      -1.773   0.950   1.046  0.00  0.00    -0.107 A 
ATOM      5  C4  BZF d   1      -2.525  -0.129   1.415  0.00  0.00     0.055 A 
ATOM      6  C5  BZF d   1      -3.876  -0.070   1.278  0.00  0.00    -0.016 A 
ATOM      7  C6  BZF d   1      -4.507   1.051   0.781  0.00  0.00     0.022 A 
ATOM      8  C7  BZF d   1      -3.803   2.143   0.397  0.00  0.00     0.029 A 
ATOM      9  C7A BZF d   1      -2.436   2.075   0.504  0.00  0.00     0.058 A 
ENDROOT
TORSDOF 0
ENDMDL
