MODEL 1
REMARK minimizedAffinity -2.68398714
REMARK minimizedRMSD -1
REMARK  0 active torsions:
REMARK  status: ('A' for Active; 'I' for Inactive)
ROOT
ATOM      1  O1  BZF d   1      -3.357   3.026   0.518  0.00  0.00    -0.204 OA
ATOM      2  C2  BZF d   1      -4.373   2.109   0.710  0.00  0.00     0.174 A 
ATOM      3  C3  BZF d   1      -3.876   0.860   0.814  0.00  0.00    -0.012 A 
ATOM      4  C3A BZF d   1      -2.454   1.016   0.771  0.00  0.00    -0.107 A 
ATOM      5  C4  BZF d   1      -1.411   0.138   0.845  0.00  0.00     0.055 A 
ATOM      6  C5  BZF d   1      -0.143   0.605   0.698  0.00  0.00    -0.016 A 
ATOM      7  C6  BZF d   1       0.117   1.940   0.470  0.00  0.00     0.022 A 
ATOM      8  C7  BZF d   1      -0.885   2.850   0.393  0.00  0.00     0.029 A 
ATOM      9  C7A BZF d   1      -2.165   2.386   0.575  0.00  0.00     0.058 A 
ENDROOT
TORSDOF 0
ENDMDL
