MODEL 1
REMARK minimizedAffinity 1.71223032
REMARK minimizedRMSD -1
REMARK  0 active torsions:
REMARK  status: ('A' for Active; 'I' for Inactive)
ROOT
ATOM      1  O1  BZF d   1      -3.519   1.646   0.700  0.00  0.00    -0.204 OA
ATOM      2  C2  BZF d   1      -3.644   2.931   0.207  0.00  0.00     0.174 A 
ATOM      3  C3  BZF d   1      -2.432   3.474  -0.026  0.00  0.00    -0.012 A 
ATOM      4  C3A BZF d   1      -1.492   2.432   0.257  0.00  0.00    -0.107 A 
ATOM      5  C4  BZF d   1      -0.130   2.354   0.197  0.00  0.00     0.055 A 
ATOM      6  C5  BZF d   1       0.485   1.216   0.611  0.00  0.00    -0.016 A 
ATOM      7  C6  BZF d   1      -0.229   0.139   1.094  0.00  0.00     0.022 A 
ATOM      8  C7  BZF d   1      -1.582   0.167   1.168  0.00  0.00     0.029 A 
ATOM      9  C7A BZF d   1      -2.209   1.304   0.719  0.00  0.00     0.058 A 
ENDROOT
TORSDOF 0
ENDMDL
