MODEL 1
REMARK minimizedAffinity -3.33907866
REMARK minimizedRMSD -1
REMARK  0 active torsions:
REMARK  status: ('A' for Active; 'I' for Inactive)
ROOT
ATOM      1  O1  BZF d   1      -3.034   2.763  -0.790  0.00  0.00    -0.204 OA
ATOM      2  C2  BZF d   1      -4.153   2.293  -0.129  0.00  0.00     0.174 A 
ATOM      3  C3  BZF d   1      -3.815   1.348   0.772  0.00  0.00    -0.012 A 
ATOM      4  C3A BZF d   1      -2.386   1.284   0.733  0.00  0.00    -0.107 A 
ATOM      5  C4  BZF d   1      -1.461   0.544   1.411  0.00  0.00     0.055 A 
ATOM      6  C5  BZF d   1      -0.147   0.669   1.085  0.00  0.00    -0.016 A 
ATOM      7  C6  BZF d   1       0.274   1.519   0.083  0.00  0.00     0.022 A 
ATOM      8  C7  BZF d   1      -0.606   2.277  -0.614  0.00  0.00     0.029 A 
ATOM      9  C7A BZF d   1      -1.931   2.178  -0.265  0.00  0.00     0.058 A 
ENDROOT
TORSDOF 0
ENDMDL
