MODEL 1
REMARK minimizedAffinity -1.46266687
REMARK minimizedRMSD -1
REMARK  0 active torsions:
REMARK  status: ('A' for Active; 'I' for Inactive)
ROOT
ATOM      1  O1  BZF d   1      -3.529   0.639   1.015  0.00  0.00    -0.204 OA
ATOM      2  C2  BZF d   1      -4.464   1.597   0.673  0.00  0.00     0.174 A 
ATOM      3  C3  BZF d   1      -3.891   2.596  -0.028  0.00  0.00    -0.012 A 
ATOM      4  C3A BZF d   1      -2.530   2.196  -0.210  0.00  0.00    -0.107 A 
ATOM      5  C4  BZF d   1      -1.461   2.765  -0.842  0.00  0.00     0.055 A 
ATOM      6  C5  BZF d   1      -0.250   2.151  -0.773  0.00  0.00    -0.016 A 
ATOM      7  C6  BZF d   1      -0.072   0.973  -0.077  0.00  0.00     0.022 A 
ATOM      8  C7  BZF d   1      -1.103   0.369   0.561  0.00  0.00     0.029 A 
ATOM      9  C7A BZF d   1      -2.335   0.969   0.465  0.00  0.00     0.058 A 
ENDROOT
TORSDOF 0
ENDMDL
