MODEL 1
REMARK minimizedAffinity 0.66985482
REMARK minimizedRMSD -1
REMARK  0 active torsions:
REMARK  status: ('A' for Active; 'I' for Inactive)
ROOT
ATOM      1  O1  BZF d   1      -2.842   2.685  -0.543  0.00  0.00    -0.204 OA
ATOM      2  C2  BZF d   1      -4.007   2.248   0.059  0.00  0.00     0.174 A 
ATOM      3  C3  BZF d   1      -3.750   1.254   0.933  0.00  0.00    -0.012 A 
ATOM      4  C3A BZF d   1      -2.325   1.120   0.943  0.00  0.00    -0.107 A 
ATOM      5  C4  BZF d   1      -1.463   0.310   1.625  0.00  0.00     0.055 A 
ATOM      6  C5  BZF d   1      -0.134   0.380   1.351  0.00  0.00    -0.016 A 
ATOM      7  C6  BZF d   1       0.366   1.245   0.399  0.00  0.00     0.022 A 
ATOM      8  C7  BZF d   1      -0.449   2.072  -0.300  0.00  0.00     0.029 A 
ATOM      9  C7A BZF d   1      -1.789   2.026  -0.002  0.00  0.00     0.058 A 
ENDROOT
TORSDOF 0
ENDMDL
