MODEL 1
REMARK minimizedAffinity 3.02334547
REMARK minimizedRMSD -1
REMARK  0 active torsions:
REMARK  status: ('A' for Active; 'I' for Inactive)
ROOT
ATOM      1  O1  BZF d   1      -5.055   1.045   1.249  0.00  0.00    -0.204 OA
ATOM      2  C2  BZF d   1      -5.746   2.174   0.852  0.00  0.00     0.174 A 
ATOM      3  C3  BZF d   1      -4.906   3.086   0.320  0.00  0.00    -0.012 A 
ATOM      4  C3A BZF d   1      -3.623   2.453   0.305  0.00  0.00    -0.107 A 
ATOM      5  C4  BZF d   1      -2.387   2.847  -0.121  0.00  0.00     0.055 A 
ATOM      6  C5  BZF d   1      -1.327   2.019   0.074  0.00  0.00    -0.016 A 
ATOM      7  C6  BZF d   1      -1.466   0.794   0.694  0.00  0.00     0.022 A 
ATOM      8  C7  BZF d   1      -2.673   0.358   1.129  0.00  0.00     0.029 A 
ATOM      9  C7A BZF d   1      -3.752   1.178   0.904  0.00  0.00     0.058 A 
ENDROOT
TORSDOF 0
ENDMDL
