MODEL 1
REMARK minimizedAffinity -3.34449911
REMARK minimizedRMSD -1
REMARK  0 active torsions:
REMARK  status: ('A' for Active; 'I' for Inactive)
ROOT
ATOM      1  O1  BZF d   1      -3.328   0.563   1.194  0.00  0.00    -0.204 OA
ATOM      2  C2  BZF d   1      -4.239   1.341   0.507  0.00  0.00     0.174 A 
ATOM      3  C3  BZF d   1      -3.610   2.165  -0.356  0.00  0.00    -0.012 A 
ATOM      4  C3A BZF d   1      -2.225   1.818  -0.266  0.00  0.00    -0.107 A 
ATOM      5  C4  BZF d   1      -1.100   2.274  -0.892  0.00  0.00     0.055 A 
ATOM      6  C5  BZF d   1       0.109   1.776  -0.523  0.00  0.00    -0.016 A 
ATOM      7  C6  BZF d   1       0.231   0.826   0.470  0.00  0.00     0.022 A 
ATOM      8  C7  BZF d   1      -0.857   0.340   1.117  0.00  0.00     0.029 A 
ATOM      9  C7A BZF d   1      -2.083   0.817   0.723  0.00  0.00     0.058 A 
ENDROOT
TORSDOF 0
ENDMDL
