MODEL 1
REMARK minimizedAffinity 6.27204752
REMARK minimizedRMSD -1
REMARK  0 active torsions:
REMARK  status: ('A' for Active; 'I' for Inactive)
ROOT
ATOM      1  O1  BZF d   1       1.967   1.280   2.651  0.00  0.00    -0.204 OA
ATOM      2  C2  BZF d   1       2.490   1.196   1.375  0.00  0.00     0.174 A 
ATOM      3  C3  BZF d   1       1.545   1.469   0.452  0.00  0.00    -0.012 A 
ATOM      4  C3A BZF d   1       0.381   1.831   1.201  0.00  0.00    -0.107 A 
ATOM      5  C4  BZF d   1      -0.879   2.223   0.847  0.00  0.00     0.055 A 
ATOM      6  C5  BZF d   1      -1.803   2.432   1.821  0.00  0.00    -0.016 A 
ATOM      7  C6  BZF d   1      -1.504   2.255   3.156  0.00  0.00     0.022 A 
ATOM      8  C7  BZF d   1      -0.267   1.872   3.556  0.00  0.00     0.029 A 
ATOM      9  C7A BZF d   1       0.679   1.692   2.576  0.00  0.00     0.058 A 
ENDROOT
TORSDOF 0
ENDMDL
