MODEL 1
REMARK minimizedAffinity 2.43712544
REMARK minimizedRMSD -1
REMARK  0 active torsions:
REMARK  status: ('A' for Active; 'I' for Inactive)
ROOT
ATOM      1  C1  DEN d   1       4.796  -0.334   0.570  0.00  0.00     0.130 A 
ATOM      2  C2  DEN d   1       5.943  -1.171   0.912  0.00  0.00    -0.031 A 
ATOM      3  C3  DEN d   1       5.434  -2.484   1.355  0.00  0.00     0.027 A 
ATOM      4  C4  DEN d   1       2.994  -3.301   1.540  0.00  0.00     0.027 A 
ATOM      5  C5  DEN d   1       1.675  -2.943   1.372  0.00  0.00    -0.003 A 
ATOM      6  C6  DEN d   1       1.305  -1.690   0.960  0.00  0.00     0.001 A 
ATOM      7  C7  DEN d   1       2.267  -0.763   0.660  0.00  0.00     0.017 A 
ATOM      8  C8  DEN d   1       3.600  -1.114   0.834  0.00  0.00    -0.094 A 
ATOM      9  C9  DEN d   1       3.953  -2.390   1.239  0.00  0.00    -0.072 A 
ENDROOT
TORSDOF 0
ENDMDL
