MODEL 1
REMARK minimizedAffinity 8.82770157
REMARK minimizedRMSD -1
REMARK  0 active torsions:
REMARK  status: ('A' for Active; 'I' for Inactive)
ROOT
ATOM      1  C1  DEN d   1      -0.578  -1.550   3.788  0.00  0.00     0.130 A 
ATOM      2  C2  DEN d   1      -1.467  -0.522   3.253  0.00  0.00    -0.031 A 
ATOM      3  C3  DEN d   1      -1.169  -0.363   1.816  0.00  0.00     0.027 A 
ATOM      4  C4  DEN d   1       0.569  -1.606   0.372  0.00  0.00     0.027 A 
ATOM      5  C5  DEN d   1       1.564  -2.558   0.384  0.00  0.00    -0.003 A 
ATOM      6  C6  DEN d   1       1.935  -3.212   1.529  0.00  0.00     0.001 A 
ATOM      7  C7  DEN d   1       1.276  -2.954   2.702  0.00  0.00     0.017 A 
ATOM      8  C8  DEN d   1       0.276  -1.989   2.699  0.00  0.00    -0.094 A 
ATOM      9  C9  DEN d   1      -0.092  -1.348   1.528  0.00  0.00    -0.072 A 
ENDROOT
TORSDOF 0
ENDMDL
