MODEL 1
REMARK minimizedAffinity 1.42581725
REMARK minimizedRMSD -1
REMARK  0 active torsions:
REMARK  status: ('A' for Active; 'I' for Inactive)
ROOT
ATOM      1  C1  DEN d   1      -1.602  -1.191   2.314  0.00  0.00     0.130 A 
ATOM      2  C2  DEN d   1      -0.753  -1.333   3.493  0.00  0.00    -0.031 A 
ATOM      3  C3  DEN d   1       0.607  -1.685   3.037  0.00  0.00     0.027 A 
ATOM      4  C4  DEN d   1       1.475  -2.018   0.631  0.00  0.00     0.027 A 
ATOM      5  C5  DEN d   1       1.122  -2.015  -0.701  0.00  0.00    -0.003 A 
ATOM      6  C6  DEN d   1      -0.161  -1.773  -1.115  0.00  0.00     0.001 A 
ATOM      7  C7  DEN d   1      -1.128  -1.478  -0.192  0.00  0.00     0.017 A 
ATOM      8  C8  DEN d   1      -0.782  -1.487   1.153  0.00  0.00    -0.094 A 
ATOM      9  C9  DEN d   1       0.523  -1.722   1.552  0.00  0.00    -0.072 A 
ENDROOT
TORSDOF 0
ENDMDL
