MODEL 1
REMARK minimizedAffinity 4.32718563
REMARK minimizedRMSD -1
REMARK  0 active torsions:
REMARK  status: ('A' for Active; 'I' for Inactive)
ROOT
ATOM      1  C1  DEN d   1      -0.919  -2.637   2.621  0.00  0.00     0.130 A 
ATOM      2  C2  DEN d   1      -0.882  -1.246   3.063  0.00  0.00    -0.031 A 
ATOM      3  C3  DEN d   1       0.421  -0.676   2.668  0.00  0.00     0.027 A 
ATOM      4  C4  DEN d   1       2.374  -1.804   1.416  0.00  0.00     0.027 A 
ATOM      5  C5  DEN d   1       2.812  -2.979   0.845  0.00  0.00    -0.003 A 
ATOM      6  C6  DEN d   1       2.057  -4.121   0.856  0.00  0.00     0.001 A 
ATOM      7  C7  DEN d   1       0.804  -4.102   1.410  0.00  0.00     0.017 A 
ATOM      8  C8  DEN d   1       0.359  -2.924   1.994  0.00  0.00    -0.094 A 
ATOM      9  C9  DEN d   1       1.132  -1.776   1.962  0.00  0.00    -0.072 A 
ENDROOT
TORSDOF 0
ENDMDL
