MODEL 1
REMARK minimizedAffinity 6.15363312
REMARK minimizedRMSD -1
REMARK  0 active torsions:
REMARK  status: ('A' for Active; 'I' for Inactive)
ROOT
ATOM      1  C1  DEN d   1       0.989  -1.452   2.966  0.00  0.00     0.130 A 
ATOM      2  C2  DEN d   1       1.472  -2.121   1.761  0.00  0.00    -0.031 A 
ATOM      3  C3  DEN d   1       2.049  -1.095   0.870  0.00  0.00     0.027 A 
ATOM      4  C4  DEN d   1       2.245   1.451   1.239  0.00  0.00     0.027 A 
ATOM      5  C5  DEN d   1       1.966   2.484   2.105  0.00  0.00    -0.003 A 
ATOM      6  C6  DEN d   1       1.316   2.284   3.295  0.00  0.00     0.001 A 
ATOM      7  C7  DEN d   1       0.964   1.015   3.671  0.00  0.00     0.017 A 
ATOM      8  C8  DEN d   1       1.236  -0.031   2.799  0.00  0.00    -0.094 A 
ATOM      9  C9  DEN d   1       1.905   0.190   1.607  0.00  0.00    -0.072 A 
ENDROOT
TORSDOF 0
ENDMDL
