MODEL 1
REMARK minimizedAffinity 13.8462725
REMARK minimizedRMSD -1
REMARK  0 active torsions:
REMARK  status: ('A' for Active; 'I' for Inactive)
ROOT
ATOM      1  C1  DEN d   1       0.553  -5.227   1.560  0.00  0.00     0.130 A 
ATOM      2  C2  DEN d   1       1.797  -4.676   1.029  0.00  0.00    -0.031 A 
ATOM      3  C3  DEN d   1       1.808  -3.226   1.304  0.00  0.00     0.027 A 
ATOM      4  C4  DEN d   1       0.031  -1.787   2.499  0.00  0.00     0.027 A 
ATOM      5  C5  DEN d   1      -1.201  -1.807   3.114  0.00  0.00    -0.003 A 
ATOM      6  C6  DEN d   1      -1.945  -2.953   3.223  0.00  0.00     0.001 A 
ATOM      7  C7  DEN d   1      -1.442  -4.136   2.749  0.00  0.00     0.017 A 
ATOM      8  C8  DEN d   1      -0.203  -4.122   2.121  0.00  0.00    -0.094 A 
ATOM      9  C9  DEN d   1       0.538  -2.956   2.032  0.00  0.00    -0.072 A 
ENDROOT
TORSDOF 0
ENDMDL
