MODEL 1
REMARK minimizedAffinity 8.39760876
REMARK minimizedRMSD -1
REMARK  0 active torsions:
REMARK  status: ('A' for Active; 'I' for Inactive)
ROOT
ATOM      1  C1  DEN d   1       0.398  -0.560   3.309  0.00  0.00     0.130 A 
ATOM      2  C2  DEN d   1       0.933  -1.697   2.566  0.00  0.00    -0.031 A 
ATOM      3  C3  DEN d   1      -0.091  -2.130   1.594  0.00  0.00     0.027 A 
ATOM      4  C4  DEN d   1      -2.439  -1.152   1.166  0.00  0.00     0.027 A 
ATOM      5  C5  DEN d   1      -3.342  -0.189   1.558  0.00  0.00    -0.003 A 
ATOM      6  C6  DEN d   1      -3.078   0.688   2.576  0.00  0.00     0.001 A 
ATOM      7  C7  DEN d   1      -1.862   0.650   3.207  0.00  0.00     0.017 A 
ATOM      8  C8  DEN d   1      -0.949  -0.323   2.822  0.00  0.00    -0.094 A 
ATOM      9  C9  DEN d   1      -1.230  -1.193   1.782  0.00  0.00    -0.072 A 
ENDROOT
TORSDOF 0
ENDMDL
