MODEL 1
REMARK minimizedAffinity -0.157516733
REMARK minimizedRMSD -1
REMARK  0 active torsions:
REMARK  status: ('A' for Active; 'I' for Inactive)
ROOT
ATOM      1  C   UNL d   1      -3.254  -5.245   1.075  0.00  0.00     0.020 A 
ATOM      2  C1  UNL d   1      -4.141  -4.201   1.336  0.00  0.00     0.020 A 
ATOM      3  C2  UNL d   1      -4.369  -3.220   0.368  0.00  0.00     0.034 A 
ATOM      4  C3  UNL d   1      -3.710  -3.281  -0.865  0.00  0.00     0.017 A 
ATOM      5  C4  UNL d   1      -2.820  -4.329  -1.126  0.00  0.00     0.017 A 
ATOM      6  C5  UNL d   1      -2.595  -5.309  -0.154  0.00  0.00     0.034 A 
ATOM      7 Cl   UNL d   1      -1.969  -4.472  -2.624  0.00  0.00    -0.070 Cl
ATOM      8 Cl1  UNL d   1      -4.040  -2.035  -2.015  0.00  0.00    -0.070 Cl
ENDROOT
TORSDOF 0
ENDMDL
