MODEL 1
REMARK minimizedAffinity 1.47879851
REMARK minimizedRMSD -1
REMARK  0 active torsions:
REMARK  status: ('A' for Active; 'I' for Inactive)
ROOT
ATOM      1  C   UNL d   1      -5.983   0.966  -5.112  0.00  0.00     0.020 A 
ATOM      2  C1  UNL d   1      -5.979   2.086  -5.942  0.00  0.00     0.020 A 
ATOM      3  C2  UNL d   1      -5.982   3.367  -5.386  0.00  0.00     0.034 A 
ATOM      4  C3  UNL d   1      -5.988   3.531  -3.996  0.00  0.00     0.017 A 
ATOM      5  C4  UNL d   1      -5.992   2.406  -3.164  0.00  0.00     0.017 A 
ATOM      6  C5  UNL d   1      -5.990   1.126  -3.726  0.00  0.00     0.034 A 
ATOM      7 Cl   UNL d   1      -6.000   2.528  -1.440  0.00  0.00    -0.070 Cl
ATOM      8 Cl1  UNL d   1      -5.990   5.144  -3.377  0.00  0.00    -0.070 Cl
ENDROOT
TORSDOF 0
ENDMDL
