MODEL 1
REMARK minimizedAffinity -1.03826988
REMARK minimizedRMSD -1
REMARK  0 active torsions:
REMARK  status: ('A' for Active; 'I' for Inactive)
ROOT
ATOM      1  C   UNL d   1      -1.148   5.414  -5.186  0.00  0.00     0.020 A 
ATOM      2  C1  UNL d   1      -0.115   5.877  -6.000  0.00  0.00     0.020 A 
ATOM      3  C2  UNL d   1       1.185   5.400  -5.816  0.00  0.00     0.034 A 
ATOM      4  C3  UNL d   1       1.455   4.459  -4.816  0.00  0.00     0.017 A 
ATOM      5  C4  UNL d   1       0.417   3.995  -4.000  0.00  0.00     0.017 A 
ATOM      6  C5  UNL d   1      -0.883   4.475  -4.188  0.00  0.00     0.034 A 
ATOM      7 Cl   UNL d   1       0.672   2.834  -2.746  0.00  0.00    -0.070 Cl
ATOM      8 Cl1  UNL d   1       3.085   3.913  -4.646  0.00  0.00    -0.070 Cl
ENDROOT
TORSDOF 0
ENDMDL
