MODEL 1
REMARK minimizedAffinity 8.8180542
REMARK minimizedRMSD -1
REMARK  0 active torsions:
REMARK  status: ('A' for Active; 'I' for Inactive)
ROOT
ATOM      1  C   UNL d   1      -0.510   5.543  -5.014  0.00  0.00     0.020 A 
ATOM      2  C1  UNL d   1       0.470   5.858  -5.955  0.00  0.00     0.020 A 
ATOM      3  C2  UNL d   1       1.748   5.308  -5.843  0.00  0.00     0.034 A 
ATOM      4  C3  UNL d   1       2.051   4.439  -4.788  0.00  0.00     0.017 A 
ATOM      5  C4  UNL d   1       1.067   4.123  -3.845  0.00  0.00     0.017 A 
ATOM      6  C5  UNL d   1      -0.212   4.677  -3.961  0.00  0.00     0.034 A 
ATOM      7 Cl   UNL d   1       1.365   3.059  -2.516  0.00  0.00    -0.070 Cl
ATOM      8 Cl1  UNL d   1       3.652   3.795  -4.712  0.00  0.00    -0.070 Cl
ENDROOT
TORSDOF 0
ENDMDL
