MODEL 1
REMARK minimizedAffinity 4.39452934
REMARK minimizedRMSD -1
REMARK  0 active torsions:
REMARK  status: ('A' for Active; 'I' for Inactive)
ROOT
ATOM      1  C   UNL d   1       2.915  -0.501  -0.657  0.00  0.00     0.020 A 
ATOM      2  C1  UNL d   1       3.120  -0.261   0.701  0.00  0.00     0.020 A 
ATOM      3  C2  UNL d   1       2.890   1.011   1.228  0.00  0.00     0.034 A 
ATOM      4  C3  UNL d   1       2.453   2.049   0.397  0.00  0.00     0.017 A 
ATOM      5  C4  UNL d   1       2.247   1.808  -0.966  0.00  0.00     0.017 A 
ATOM      6  C5  UNL d   1       2.479   0.532  -1.489  0.00  0.00     0.034 A 
ATOM      7 Cl   UNL d   1       1.709   3.038  -2.054  0.00  0.00    -0.070 Cl
ATOM      8 Cl1  UNL d   1       2.188   3.598   1.117  0.00  0.00    -0.070 Cl
ENDROOT
TORSDOF 0
ENDMDL
