MODEL 1
REMARK minimizedAffinity 3.13100362
REMARK minimizedRMSD -1
REMARK  0 active torsions:
REMARK  status: ('A' for Active; 'I' for Inactive)
ROOT
ATOM      1  C   UNL d   1      -4.889  -5.987  -6.000  0.00  0.00     0.020 A 
ATOM      2  C1  UNL d   1      -5.588  -5.956  -4.793  0.00  0.00     0.020 A 
ATOM      3  C2  UNL d   1      -4.891  -5.937  -3.583  0.00  0.00     0.034 A 
ATOM      4  C3  UNL d   1      -3.492  -5.949  -3.576  0.00  0.00     0.017 A 
ATOM      5  C4  UNL d   1      -2.791  -5.979  -4.788  0.00  0.00     0.017 A 
ATOM      6  C5  UNL d   1      -3.493  -5.998  -5.996  0.00  0.00     0.034 A 
ATOM      7 Cl   UNL d   1      -1.064  -5.994  -4.859  0.00  0.00    -0.070 Cl
ATOM      8 Cl1  UNL d   1      -2.695  -5.923  -2.043  0.00  0.00    -0.070 Cl
ENDROOT
TORSDOF 0
ENDMDL
