MODEL 1
REMARK minimizedAffinity 8.53189564
REMARK minimizedRMSD -1
REMARK  0 active torsions:
REMARK  status: ('A' for Active; 'I' for Inactive)
ROOT
ATOM      1  C   UNL d   1      -5.946  -0.634  -5.773  0.00  0.00     0.020 A 
ATOM      2  C1  UNL d   1      -5.956   0.742  -5.997  0.00  0.00     0.020 A 
ATOM      3  C2  UNL d   1      -5.969   1.626  -4.916  0.00  0.00     0.034 A 
ATOM      4  C3  UNL d   1      -5.972   1.134  -3.606  0.00  0.00     0.017 A 
ATOM      5  C4  UNL d   1      -5.962  -0.247  -3.381  0.00  0.00     0.017 A 
ATOM      6  C5  UNL d   1      -5.949  -1.127  -4.468  0.00  0.00     0.034 A 
ATOM      7 Cl   UNL d   1      -5.965  -0.929  -1.793  0.00  0.00    -0.070 Cl
ATOM      8 Cl1  UNL d   1      -5.988   2.284  -2.316  0.00  0.00    -0.070 Cl
ENDROOT
TORSDOF 0
ENDMDL
