MODEL 1
REMARK minimizedAffinity 3.54547811
REMARK minimizedRMSD -1
REMARK  0 active torsions:
REMARK  status: ('A' for Active; 'I' for Inactive)
ROOT
ATOM      1  C   UNL d   1      -5.975  -5.385  -4.116  0.00  0.00     0.020 A 
ATOM      2  C1  UNL d   1      -5.855  -5.815  -5.436  0.00  0.00     0.020 A 
ATOM      3  C2  UNL d   1      -4.590  -5.998  -5.999  0.00  0.00     0.034 A 
ATOM      4  C3  UNL d   1      -3.440  -5.750  -5.240  0.00  0.00     0.017 A 
ATOM      5  C4  UNL d   1      -3.562  -5.318  -3.915  0.00  0.00     0.017 A 
ATOM      6  C5  UNL d   1      -4.831  -5.136  -3.357  0.00  0.00     0.034 A 
ATOM      7 Cl   UNL d   1      -2.189  -4.991  -2.917  0.00  0.00    -0.070 Cl
ATOM      8 Cl1  UNL d   1      -1.908  -5.997  -6.000  0.00  0.00    -0.070 Cl
ENDROOT
TORSDOF 0
ENDMDL
