MODEL 1
REMARK minimizedAffinity 8.28130054
REMARK minimizedRMSD -1
REMARK  0 active torsions:
REMARK  status: ('A' for Active; 'I' for Inactive)
ROOT
ATOM      1  C   UNL d   1      -5.998   2.357  -3.988  0.00  0.00     0.020 A 
ATOM      2  C1  UNL d   1      -5.879   0.968  -3.955  0.00  0.00     0.020 A 
ATOM      3  C2  UNL d   1      -5.760   0.307  -2.731  0.00  0.00     0.034 A 
ATOM      4  C3  UNL d   1      -5.761   1.033  -1.535  0.00  0.00     0.017 A 
ATOM      5  C4  UNL d   1      -5.881   2.427  -1.569  0.00  0.00     0.017 A 
ATOM      6  C5  UNL d   1      -5.999   3.085  -2.797  0.00  0.00     0.034 A 
ATOM      7 Cl   UNL d   1      -5.890   3.392  -0.135  0.00  0.00    -0.070 Cl
ATOM      8 Cl1  UNL d   1      -5.612   0.149  -0.058  0.00  0.00    -0.070 Cl
ENDROOT
TORSDOF 0
ENDMDL
