MODEL 1
REMARK minimizedAffinity 4.98776865
REMARK minimizedRMSD -1
REMARK  0 active torsions:
REMARK  status: ('A' for Active; 'I' for Inactive)
ROOT
ATOM      1  C   UNL d   1      -1.973  -0.259   4.501  0.00  0.00     0.020 A 
ATOM      2  C1  UNL d   1      -1.531  -0.809   3.299  0.00  0.00     0.020 A 
ATOM      3  C2  UNL d   1      -2.377  -0.832   2.189  0.00  0.00     0.034 A 
ATOM      4  C3  UNL d   1      -3.670  -0.304   2.278  0.00  0.00     0.017 A 
ATOM      5  C4  UNL d   1      -4.113   0.248   3.486  0.00  0.00     0.017 A 
ATOM      6  C5  UNL d   1      -3.261   0.268   4.595  0.00  0.00     0.034 A 
ATOM      7 Cl   UNL d   1      -5.695   0.919   3.673  0.00  0.00    -0.070 Cl
ATOM      8 Cl1  UNL d   1      -4.663  -0.365   0.866  0.00  0.00    -0.070 Cl
ENDROOT
TORSDOF 0
ENDMDL
