MODEL 1
REMARK minimizedAffinity -1.06459129
REMARK minimizedRMSD -1
REMARK  0 active torsions:
REMARK  status: ('A' for Active; 'I' for Inactive)
ROOT
ATOM      1  C   UNL d   1      -3.001  -0.252   5.519  0.00  0.00     0.020 A 
ATOM      2  C1  UNL d   1      -4.135  -0.947   5.100  0.00  0.00     0.020 A 
ATOM      3  C2  UNL d   1      -4.200  -1.457   3.801  0.00  0.00     0.034 A 
ATOM      4  C3  UNL d   1      -3.131  -1.271   2.917  0.00  0.00     0.017 A 
ATOM      5  C4  UNL d   1      -1.994  -0.573   3.339  0.00  0.00     0.017 A 
ATOM      6  C5  UNL d   1      -1.933  -0.065   4.640  0.00  0.00     0.034 A 
ATOM      7 Cl   UNL d   1      -0.635  -0.304   2.305  0.00  0.00    -0.070 Cl
ATOM      8 Cl1  UNL d   1      -3.281  -1.929   1.326  0.00  0.00    -0.070 Cl
ENDROOT
TORSDOF 0
ENDMDL
