MODEL 1
REMARK minimizedAffinity 2.11612821
REMARK minimizedRMSD -1
REMARK  0 active torsions:
REMARK  status: ('A' for Active; 'I' for Inactive)
ROOT
ATOM      1  C   UNL d   1      -0.309  -3.012   1.462  0.00  0.00     0.020 A 
ATOM      2  C1  UNL d   1       0.507  -2.759   2.564  0.00  0.00     0.020 A 
ATOM      3  C2  UNL d   1       0.106  -1.837   3.533  0.00  0.00     0.034 A 
ATOM      4  C3  UNL d   1      -1.114  -1.164   3.402  0.00  0.00     0.017 A 
ATOM      5  C4  UNL d   1      -1.932  -1.418   2.296  0.00  0.00     0.017 A 
ATOM      6  C5  UNL d   1      -1.526  -2.343   1.329  0.00  0.00     0.034 A 
ATOM      7 Cl   UNL d   1      -3.452  -0.627   2.065  0.00  0.00    -0.070 Cl
ATOM      8 Cl1  UNL d   1      -1.546  -0.037   4.638  0.00  0.00    -0.070 Cl
ENDROOT
TORSDOF 0
ENDMDL
