MODEL 1
REMARK minimizedAffinity 7.05912161
REMARK minimizedRMSD -1
REMARK  0 active torsions:
REMARK  status: ('A' for Active; 'I' for Inactive)
ROOT
ATOM      1  C   UNL d   1      -5.989   0.924  -1.627  0.00  0.00     0.020 A 
ATOM      2  C1  UNL d   1      -5.971   1.896  -2.627  0.00  0.00     0.020 A 
ATOM      3  C2  UNL d   1      -5.961   1.515  -3.970  0.00  0.00     0.034 A 
ATOM      4  C3  UNL d   1      -5.969   0.159  -4.318  0.00  0.00     0.017 A 
ATOM      5  C4  UNL d   1      -5.988  -0.816  -3.314  0.00  0.00     0.017 A 
ATOM      6  C5  UNL d   1      -5.998  -0.429  -1.970  0.00  0.00     0.034 A 
ATOM      7 Cl   UNL d   1      -6.000  -2.508  -3.665  0.00  0.00    -0.070 Cl
ATOM      8 Cl1  UNL d   1      -5.957  -0.239  -5.999  0.00  0.00    -0.070 Cl
ENDROOT
TORSDOF 0
ENDMDL
