MODEL 1
REMARK minimizedAffinity 3.25297236
REMARK minimizedRMSD -1
REMARK  0 active torsions:
REMARK  status: ('A' for Active; 'I' for Inactive)
ROOT
ATOM      1  C   UNL d   1      -5.996   0.750  -1.077  0.00  0.00     0.020 A 
ATOM      2  C1  UNL d   1      -5.995   1.888  -1.883  0.00  0.00     0.020 A 
ATOM      3  C2  UNL d   1      -5.995   1.758  -3.274  0.00  0.00     0.034 A 
ATOM      4  C3  UNL d   1      -5.996   0.488  -3.862  0.00  0.00     0.017 A 
ATOM      5  C4  UNL d   1      -5.997  -0.654  -3.051  0.00  0.00     0.017 A 
ATOM      6  C5  UNL d   1      -5.997  -0.518  -1.660  0.00  0.00     0.034 A 
ATOM      7 Cl   UNL d   1      -5.998  -2.254  -3.704  0.00  0.00    -0.070 Cl
ATOM      8 Cl1  UNL d   1      -5.996   0.401  -5.588  0.00  0.00    -0.070 Cl
ENDROOT
TORSDOF 0
ENDMDL
