MODEL 1
REMARK minimizedAffinity 4.80877113
REMARK minimizedRMSD -1
REMARK  0 active torsions:
REMARK  status: ('A' for Active; 'I' for Inactive)
ROOT
ATOM      1  C   UNL d   1      -5.957  -1.503  -4.401  0.00  0.00     0.020 A 
ATOM      2  C1  UNL d   1      -5.958  -0.297  -5.101  0.00  0.00     0.020 A 
ATOM      3  C2  UNL d   1      -5.969   0.914  -4.405  0.00  0.00     0.034 A 
ATOM      4  C3  UNL d   1      -5.980   0.921  -3.005  0.00  0.00     0.017 A 
ATOM      5  C4  UNL d   1      -5.979  -0.290  -2.304  0.00  0.00     0.017 A 
ATOM      6  C5  UNL d   1      -5.967  -1.499  -3.006  0.00  0.00     0.034 A 
ATOM      7 Cl   UNL d   1      -5.992  -0.361  -0.577  0.00  0.00    -0.070 Cl
ATOM      8 Cl1  UNL d   1      -5.993   2.455  -2.210  0.00  0.00    -0.070 Cl
ENDROOT
TORSDOF 0
ENDMDL
