MODEL 1
REMARK minimizedAffinity 2.88545799
REMARK minimizedRMSD -1
REMARK  0 active torsions:
REMARK  status: ('A' for Active; 'I' for Inactive)
ROOT
ATOM      1  C   UNL d   1      -5.961   1.129  -3.961  0.00  0.00     0.020 A 
ATOM      2  C1  UNL d   1      -5.970  -0.071  -3.250  0.00  0.00     0.020 A 
ATOM      3  C2  UNL d   1      -5.982  -0.055  -1.854  0.00  0.00     0.034 A 
ATOM      4  C3  UNL d   1      -5.984   1.163  -1.164  0.00  0.00     0.017 A 
ATOM      5  C4  UNL d   1      -5.975   2.366  -1.878  0.00  0.00     0.017 A 
ATOM      6  C5  UNL d   1      -5.963   2.345  -3.276  0.00  0.00     0.034 A 
ATOM      7 Cl   UNL d   1      -5.977   3.908  -1.097  0.00  0.00    -0.070 Cl
ATOM      8 Cl1  UNL d   1      -5.999   1.108   0.563  0.00  0.00    -0.070 Cl
ENDROOT
TORSDOF 0
ENDMDL
