MODEL 1
REMARK minimizedAffinity 8.44156456
REMARK minimizedRMSD -1
REMARK  0 active torsions:
REMARK  status: ('A' for Active; 'I' for Inactive)
ROOT
ATOM      1  C   UNL d   1      -0.804   5.244  -5.949  0.00  0.00     0.020 A 
ATOM      2  C1  UNL d   1       0.078   4.165  -5.999  0.00  0.00     0.020 A 
ATOM      3  C2  UNL d   1       0.599   3.634  -4.818  0.00  0.00     0.034 A 
ATOM      4  C3  UNL d   1       0.239   4.182  -3.581  0.00  0.00     0.017 A 
ATOM      5  C4  UNL d   1      -0.646   5.265  -3.532  0.00  0.00     0.017 A 
ATOM      6  C5  UNL d   1      -1.165   5.793  -4.718  0.00  0.00     0.034 A 
ATOM      7 Cl   UNL d   1      -1.136   5.995  -2.044  0.00  0.00    -0.070 Cl
ATOM      8 Cl1  UNL d   1       0.922   3.475  -2.160  0.00  0.00    -0.070 Cl
ENDROOT
TORSDOF 0
ENDMDL
