MODEL 1
REMARK minimizedAffinity 5.78489161
REMARK minimizedRMSD -1
REMARK  0 active torsions:
REMARK  status: ('A' for Active; 'I' for Inactive)
ROOT
ATOM      1  C   UNL d   1      -5.975   1.539  -2.385  0.00  0.00     0.020 A 
ATOM      2  C1  UNL d   1      -5.976   2.911  -2.634  0.00  0.00     0.020 A 
ATOM      3  C2  UNL d   1      -5.984   3.814  -1.569  0.00  0.00     0.034 A 
ATOM      4  C3  UNL d   1      -5.990   3.346  -0.250  0.00  0.00     0.017 A 
ATOM      5  C4  UNL d   1      -5.989   1.969  -0.001  0.00  0.00     0.017 A 
ATOM      6  C5  UNL d   1      -5.981   1.069  -1.071  0.00  0.00     0.034 A 
ATOM      7 Cl   UNL d   1      -5.997   1.316   1.599  0.00  0.00    -0.070 Cl
ATOM      8 Cl1  UNL d   1      -5.999   4.519   1.018  0.00  0.00    -0.070 Cl
ENDROOT
TORSDOF 0
ENDMDL
