MODEL 1
REMARK minimizedAffinity 1.21590507
REMARK minimizedRMSD -1
REMARK  0 active torsions:
REMARK  status: ('A' for Active; 'I' for Inactive)
ROOT
ATOM      1  C   UNL d   1      -3.704  -2.163   1.786  0.00  0.00     0.020 A 
ATOM      2  C1  UNL d   1      -4.822  -2.091   2.616  0.00  0.00     0.020 A 
ATOM      3  C2  UNL d   1      -4.743  -1.419   3.838  0.00  0.00     0.034 A 
ATOM      4  C3  UNL d   1      -3.543  -0.817   4.234  0.00  0.00     0.017 A 
ATOM      5  C4  UNL d   1      -2.421  -0.890   3.400  0.00  0.00     0.017 A 
ATOM      6  C5  UNL d   1      -2.506  -1.563   2.177  0.00  0.00     0.034 A 
ATOM      7 Cl   UNL d   1      -0.906  -0.171   3.819  0.00  0.00    -0.070 Cl
ATOM      8 Cl1  UNL d   1      -3.516  -0.003   5.757  0.00  0.00    -0.070 Cl
ENDROOT
TORSDOF 0
ENDMDL
