MODEL 1
REMARK minimizedAffinity 2.80117798
REMARK minimizedRMSD -1
REMARK  0 active torsions:
REMARK  status: ('A' for Active; 'I' for Inactive)
ROOT
ATOM      1  C   UNL d   1      -4.130  -2.794   1.060  0.00  0.00     0.020 A 
ATOM      2  C1  UNL d   1      -5.151  -2.745   2.009  0.00  0.00     0.020 A 
ATOM      3  C2  UNL d   1      -4.995  -1.977   3.164  0.00  0.00     0.034 A 
ATOM      4  C3  UNL d   1      -3.814  -1.255   3.375  0.00  0.00     0.017 A 
ATOM      5  C4  UNL d   1      -2.790  -1.304   2.422  0.00  0.00     0.017 A 
ATOM      6  C5  UNL d   1      -2.952  -2.075   1.267  0.00  0.00     0.034 A 
ATOM      7 Cl   UNL d   1      -1.306  -0.440   2.612  0.00  0.00    -0.070 Cl
ATOM      8 Cl1  UNL d   1      -3.689  -0.326   4.826  0.00  0.00    -0.070 Cl
ENDROOT
TORSDOF 0
ENDMDL
