MODEL 1
REMARK minimizedAffinity -3.66152167
REMARK minimizedRMSD -1
REMARK  0 active torsions:
REMARK  status: ('A' for Active; 'I' for Inactive)
ROOT
ATOM      1  O1  BZF d   1      -2.994  -0.712   1.404  0.00  0.00    -0.204 OA
ATOM      2  C2  BZF d   1      -3.648   0.502   1.320  0.00  0.00     0.174 A 
ATOM      3  C3  BZF d   1      -2.822   1.458   0.848  0.00  0.00    -0.012 A 
ATOM      4  C3A BZF d   1      -1.601   0.780   0.536  0.00  0.00    -0.107 A 
ATOM      5  C4  BZF d   1      -0.406   1.190   0.017  0.00  0.00     0.055 A 
ATOM      6  C5  BZF d   1       0.608   0.292  -0.094  0.00  0.00    -0.016 A 
ATOM      7  C6  BZF d   1       0.464  -1.020   0.307  0.00  0.00     0.022 A 
ATOM      8  C7  BZF d   1      -0.704  -1.474   0.824  0.00  0.00     0.029 A 
ATOM      9  C7A BZF d   1      -1.741  -0.577   0.907  0.00  0.00     0.058 A 
ENDROOT
TORSDOF 0
ENDMDL
