MODEL 1
REMARK minimizedAffinity -3.52016497
REMARK minimizedRMSD -1
REMARK  0 active torsions:
REMARK  status: ('A' for Active; 'I' for Inactive)
ROOT
ATOM      1  O1  BZF d   1      -0.129  -0.035  -1.614  0.00  0.00    -0.204 OA
ATOM      2  C2  BZF d   1       0.599  -0.954  -0.883  0.00  0.00     0.174 A 
ATOM      3  C3  BZF d   1       0.179  -0.986   0.398  0.00  0.00    -0.012 A 
ATOM      4  C3A BZF d   1      -0.938  -0.094   0.450  0.00  0.00    -0.107 A 
ATOM      5  C4  BZF d   1      -1.789   0.288   1.448  0.00  0.00     0.055 A 
ATOM      6  C5  BZF d   1      -2.730   1.234   1.188  0.00  0.00    -0.016 A 
ATOM      7  C6  BZF d   1      -2.845   1.821  -0.055  0.00  0.00     0.022 A 
ATOM      8  C7  BZF d   1      -2.027   1.471  -1.077  0.00  0.00     0.029 A 
ATOM      9  C7A BZF d   1      -1.096   0.492  -0.827  0.00  0.00     0.058 A 
ENDROOT
TORSDOF 0
ENDMDL
