MODEL 1
REMARK minimizedAffinity -1.99885404
REMARK minimizedRMSD -1
REMARK  0 active torsions:
REMARK  status: ('A' for Active; 'I' for Inactive)
ROOT
ATOM      1  O1  BZF d   1       0.418   1.510  -0.393  0.00  0.00    -0.204 OA
ATOM      2  C2  BZF d   1      -0.926   1.197  -0.332  0.00  0.00     0.174 A 
ATOM      3  C3  BZF d   1      -1.104  -0.138  -0.265  0.00  0.00    -0.012 A 
ATOM      4  C3A BZF d   1       0.215  -0.690  -0.192  0.00  0.00    -0.107 A 
ATOM      5  C4  BZF d   1       0.695  -1.964  -0.092  0.00  0.00     0.055 A 
ATOM      6  C5  BZF d   1       2.038  -2.168  -0.117  0.00  0.00    -0.016 A 
ATOM      7  C6  BZF d   1       2.929  -1.122  -0.246  0.00  0.00     0.022 A 
ATOM      8  C7  BZF d   1       2.500   0.160  -0.343  0.00  0.00     0.029 A 
ATOM      9  C7A BZF d   1       1.144   0.372  -0.285  0.00  0.00     0.058 A 
ENDROOT
TORSDOF 0
ENDMDL
