MODEL 1
REMARK minimizedAffinity -2.61929846
REMARK minimizedRMSD -1
REMARK  0 active torsions:
REMARK  status: ('A' for Active; 'I' for Inactive)
ROOT
ATOM      1  O1  BZF d   1       0.403   1.557  -0.381  0.00  0.00    -0.204 OA
ATOM      2  C2  BZF d   1      -0.629   0.648  -0.515  0.00  0.00     0.174 A 
ATOM      3  C3  BZF d   1      -0.148  -0.599  -0.694  0.00  0.00    -0.012 A 
ATOM      4  C3A BZF d   1       1.273  -0.475  -0.578  0.00  0.00    -0.107 A 
ATOM      5  C4  BZF d   1       2.302  -1.370  -0.646  0.00  0.00     0.055 A 
ATOM      6  C5  BZF d   1       3.579  -0.915  -0.564  0.00  0.00    -0.016 A 
ATOM      7  C6  BZF d   1       3.864   0.427  -0.420  0.00  0.00     0.022 A 
ATOM      8  C7  BZF d   1       2.877   1.352  -0.343  0.00  0.00     0.029 A 
ATOM      9  C7A BZF d   1       1.584   0.892  -0.392  0.00  0.00     0.058 A 
ENDROOT
TORSDOF 0
ENDMDL
