MODEL 1
REMARK minimizedAffinity -5.94877148
REMARK minimizedRMSD -1
REMARK  0 active torsions:
REMARK  status: ('A' for Active; 'I' for Inactive)
ROOT
ATOM      1  O1  BZF d   1       3.146   1.062   0.403  0.00  0.00    -0.204 OA
ATOM      2  C2  BZF d   1       3.637  -0.181   0.753  0.00  0.00     0.174 A 
ATOM      3  C3  BZF d   1       2.651  -1.102   0.753  0.00  0.00    -0.012 A 
ATOM      4  C3A BZF d   1       1.488  -0.408   0.290  0.00  0.00    -0.107 A 
ATOM      5  C4  BZF d   1       0.197  -0.789   0.060  0.00  0.00     0.055 A 
ATOM      6  C5  BZF d   1      -0.710   0.149  -0.320  0.00  0.00    -0.016 A 
ATOM      7  C6  BZF d   1      -0.363   1.475  -0.474  0.00  0.00     0.022 A 
ATOM      8  C7  BZF d   1       0.907   1.900  -0.262  0.00  0.00     0.029 A 
ATOM      9  C7A BZF d   1       1.833   0.949   0.090  0.00  0.00     0.058 A 
ENDROOT
TORSDOF 0
ENDMDL
