MODEL 1
REMARK minimizedAffinity -0.325693071
REMARK minimizedRMSD -1
REMARK  0 active torsions:
REMARK  status: ('A' for Active; 'I' for Inactive)
ROOT
ATOM      1  O1  BZF d   1      -0.534  -0.681   0.340  0.00  0.00    -0.204 OA
ATOM      2  C2  BZF d   1      -1.644  -0.000  -0.121  0.00  0.00     0.174 A 
ATOM      3  C3  BZF d   1      -1.318   1.256  -0.486  0.00  0.00    -0.012 A 
ATOM      4  C3A BZF d   1       0.101   1.339  -0.324  0.00  0.00    -0.107 A 
ATOM      5  C4  BZF d   1       1.014   2.331  -0.540  0.00  0.00     0.055 A 
ATOM      6  C5  BZF d   1       2.315   2.114  -0.212  0.00  0.00    -0.016 A 
ATOM      7  C6  BZF d   1       2.736   0.921   0.338  0.00  0.00     0.022 A 
ATOM      8  C7  BZF d   1       1.867  -0.094   0.566  0.00  0.00     0.029 A 
ATOM      9  C7A BZF d   1       0.558   0.110   0.205  0.00  0.00     0.058 A 
ENDROOT
TORSDOF 0
ENDMDL
