MODEL 1
REMARK minimizedAffinity -0.644979239
REMARK minimizedRMSD -1
REMARK  0 active torsions:
REMARK  status: ('A' for Active; 'I' for Inactive)
ROOT
ATOM      1  O1  BZF d   1       1.769   1.851   0.035  0.00  0.00    -0.204 OA
ATOM      2  C2  BZF d   1       3.127   1.610   0.121  0.00  0.00     0.174 A 
ATOM      3  C3  BZF d   1       3.387   0.293  -0.003  0.00  0.00    -0.012 A 
ATOM      4  C3A BZF d   1       2.121  -0.318  -0.270  0.00  0.00    -0.107 A 
ATOM      5  C4  BZF d   1       1.731  -1.606  -0.504  0.00  0.00     0.055 A 
ATOM      6  C5  BZF d   1       0.408  -1.877  -0.656  0.00  0.00    -0.016 A 
ATOM      7  C6  BZF d   1      -0.550  -0.888  -0.575  0.00  0.00     0.022 A 
ATOM      8  C7  BZF d   1      -0.211   0.405  -0.350  0.00  0.00     0.029 A 
ATOM      9  C7A BZF d   1       1.128   0.687  -0.228  0.00  0.00     0.058 A 
ENDROOT
TORSDOF 0
ENDMDL
