MODEL 1
REMARK minimizedAffinity -0.781564772
REMARK minimizedRMSD -1
REMARK  0 active torsions:
REMARK  status: ('A' for Active; 'I' for Inactive)
ROOT
ATOM      1  O1  BZF d   1       0.318  -1.926  -1.051  0.00  0.00    -0.204 OA
ATOM      2  C2  BZF d   1       1.565  -2.361  -0.645  0.00  0.00     0.174 A 
ATOM      3  C3  BZF d   1       2.313  -1.328  -0.208  0.00  0.00    -0.012 A 
ATOM      4  C3A BZF d   1       1.450  -0.188  -0.263  0.00  0.00    -0.107 A 
ATOM      5  C4  BZF d   1       1.613   1.130   0.058  0.00  0.00     0.055 A 
ATOM      6  C5  BZF d   1       0.596   1.999  -0.184  0.00  0.00    -0.016 A 
ATOM      7  C6  BZF d   1      -0.593   1.586  -0.749  0.00  0.00     0.022 A 
ATOM      8  C7  BZF d   1      -0.802   0.289  -1.080  0.00  0.00     0.029 A 
ATOM      9  C7A BZF d   1       0.211  -0.598  -0.807  0.00  0.00     0.058 A 
ENDROOT
TORSDOF 0
ENDMDL
