MODEL 1
REMARK minimizedAffinity -2.42099786
REMARK minimizedRMSD -1
REMARK  0 active torsions:
REMARK  status: ('A' for Active; 'I' for Inactive)
ROOT
ATOM      1  O1  BZF d   1      -3.103  -0.871   1.608  0.00  0.00    -0.204 OA
ATOM      2  C2  BZF d   1      -3.857   0.283   1.523  0.00  0.00     0.174 A 
ATOM      3  C3  BZF d   1      -3.230   1.211   0.771  0.00  0.00    -0.012 A 
ATOM      4  C3A BZF d   1      -2.049   0.565   0.285  0.00  0.00    -0.107 A 
ATOM      5  C4  BZF d   1      -1.027   0.966  -0.527  0.00  0.00     0.055 A 
ATOM      6  C5  BZF d   1       0.012   0.118  -0.748  0.00  0.00    -0.016 A 
ATOM      7  C6  BZF d   1       0.064  -1.133  -0.170  0.00  0.00     0.022 A 
ATOM      8  C7  BZF d   1      -0.929  -1.577   0.639  0.00  0.00     0.029 A 
ATOM      9  C7A BZF d   1      -1.996  -0.735   0.838  0.00  0.00     0.058 A 
ENDROOT
TORSDOF 0
ENDMDL
