MODEL 1
REMARK minimizedAffinity 1.12274122
REMARK minimizedRMSD -1
REMARK  0 active torsions:
REMARK  status: ('A' for Active; 'I' for Inactive)
ROOT
ATOM      1  C   UNL d   1       4.756  -4.911  -1.587  0.00  0.00     0.078 C 
ATOM      2  C1  UNL d   1       4.771  -5.267  -3.044  0.00  0.00    -0.077 A 
ATOM      3  C2  UNL d   1       3.598  -5.230  -3.807  0.00  0.00    -0.001 A 
ATOM      4  C3  UNL d   1       3.625  -5.574  -5.160  0.00  0.00     0.003 A 
ATOM      5  C4  UNL d   1       4.822  -5.958  -5.761  0.00  0.00    -0.005 A 
ATOM      6  C5  UNL d   1       5.994  -6.000  -5.009  0.00  0.00     0.003 A 
ATOM      7  C6  UNL d   1       5.969  -5.656  -3.656  0.00  0.00    -0.001 A 
ENDROOT
TORSDOF 0
ENDMDL
