MODEL 1
REMARK minimizedAffinity -0.584248662
REMARK minimizedRMSD -1
REMARK  0 active torsions:
REMARK  status: ('A' for Active; 'I' for Inactive)
ROOT
ATOM      1  C   UNL d   1      -1.739   3.356  -4.926  0.00  0.00     0.078 C 
ATOM      2  C1  UNL d   1      -3.223   3.227  -5.099  0.00  0.00    -0.077 A 
ATOM      3  C2  UNL d   1      -3.944   4.159  -5.855  0.00  0.00    -0.001 A 
ATOM      4  C3  UNL d   1      -5.327   4.032  -5.999  0.00  0.00     0.003 A 
ATOM      5  C4  UNL d   1      -6.000   2.975  -5.389  0.00  0.00    -0.005 A 
ATOM      6  C5  UNL d   1      -5.290   2.044  -4.633  0.00  0.00     0.003 A 
ATOM      7  C6  UNL d   1      -3.908   2.170  -4.487  0.00  0.00    -0.001 A 
ENDROOT
TORSDOF 0
ENDMDL
