MODEL 1
REMARK minimizedAffinity 2.77208042
REMARK minimizedRMSD -1
REMARK  0 active torsions:
REMARK  status: ('A' for Active; 'I' for Inactive)
ROOT
ATOM      1  C   UNL d   1       5.994   5.231  -5.633  0.00  0.00     0.078 C 
ATOM      2  C1  UNL d   1       5.026   4.159  -5.232  0.00  0.00    -0.077 A 
ATOM      3  C2  UNL d   1       3.885   3.893  -5.999  0.00  0.00    -0.001 A 
ATOM      4  C3  UNL d   1       2.987   2.899  -5.608  0.00  0.00     0.003 A 
ATOM      5  C4  UNL d   1       3.220   2.162  -4.448  0.00  0.00    -0.005 A 
ATOM      6  C5  UNL d   1       4.351   2.421  -3.677  0.00  0.00     0.003 A 
ATOM      7  C6  UNL d   1       5.250   3.415  -4.067  0.00  0.00    -0.001 A 
ENDROOT
TORSDOF 0
ENDMDL
