MODEL 1
REMARK minimizedAffinity 9.71697521
REMARK minimizedRMSD -1
REMARK  0 active torsions:
REMARK  status: ('A' for Active; 'I' for Inactive)
ROOT
ATOM      1  C   UNL d   1       2.568   1.881   2.861  0.00  0.00     0.078 C 
ATOM      2  C1  UNL d   1       3.741   2.277   3.706  0.00  0.00    -0.077 A 
ATOM      3  C2  UNL d   1       3.709   3.439   4.486  0.00  0.00    -0.001 A 
ATOM      4  C3  UNL d   1       4.812   3.801   5.260  0.00  0.00     0.003 A 
ATOM      5  C4  UNL d   1       5.957   3.007   5.261  0.00  0.00    -0.005 A 
ATOM      6  C5  UNL d   1       6.000   1.850   4.486  0.00  0.00     0.003 A 
ATOM      7  C6  UNL d   1       4.897   1.486   3.711  0.00  0.00    -0.001 A 
ENDROOT
TORSDOF 0
ENDMDL
