MODEL 1
REMARK minimizedAffinity 2.72625422
REMARK minimizedRMSD -1
REMARK  0 active torsions:
REMARK  status: ('A' for Active; 'I' for Inactive)
ROOT
ATOM      1  C   UNL d   1      -0.893   2.576   2.871  0.00  0.00     0.078 C 
ATOM      2  C1  UNL d   1       0.511   2.266   2.445  0.00  0.00    -0.077 A 
ATOM      3  C2  UNL d   1       1.540   2.144   3.387  0.00  0.00    -0.001 A 
ATOM      4  C3  UNL d   1       2.845   1.865   2.976  0.00  0.00     0.003 A 
ATOM      5  C4  UNL d   1       3.132   1.707   1.621  0.00  0.00    -0.005 A 
ATOM      6  C5  UNL d   1       2.115   1.829   0.677  0.00  0.00     0.003 A 
ATOM      7  C6  UNL d   1       0.810   2.108   1.086  0.00  0.00    -0.001 A 
ENDROOT
TORSDOF 0
ENDMDL
