MODEL 1
REMARK minimizedAffinity 7.27522898
REMARK minimizedRMSD -1
REMARK  0 active torsions:
REMARK  status: ('A' for Active; 'I' for Inactive)
ROOT
ATOM      1  C   UNL d   1       4.706  -0.999  -1.218  0.00  0.00     0.078 C 
ATOM      2  C1  UNL d   1       4.013   0.281  -0.860  0.00  0.00    -0.077 A 
ATOM      3  C2  UNL d   1       3.088   0.331   0.190  0.00  0.00    -0.001 A 
ATOM      4  C3  UNL d   1       2.443   1.528   0.507  0.00  0.00     0.003 A 
ATOM      5  C4  UNL d   1       2.716   2.684  -0.223  0.00  0.00    -0.005 A 
ATOM      6  C5  UNL d   1       3.633   2.643  -1.271  0.00  0.00     0.003 A 
ATOM      7  C6  UNL d   1       4.279   1.447  -1.589  0.00  0.00    -0.001 A 
ENDROOT
TORSDOF 0
ENDMDL
