MODEL 1
REMARK minimizedAffinity -1.33305085
REMARK minimizedRMSD -1
REMARK  0 active torsions:
REMARK  status: ('A' for Active; 'I' for Inactive)
ROOT
ATOM      1  C   UNL d   1       6.000  -3.396  -3.161  0.00  0.00     0.078 C 
ATOM      2  C1  UNL d   1       5.248  -4.306  -4.086  0.00  0.00    -0.077 A 
ATOM      3  C2  UNL d   1       5.902  -4.981  -5.123  0.00  0.00    -0.001 A 
ATOM      4  C3  UNL d   1       5.187  -5.818  -5.983  0.00  0.00     0.003 A 
ATOM      5  C4  UNL d   1       3.814  -5.985  -5.814  0.00  0.00    -0.005 A 
ATOM      6  C5  UNL d   1       3.154  -5.316  -4.786  0.00  0.00     0.003 A 
ATOM      7  C6  UNL d   1       3.867  -4.479  -3.926  0.00  0.00    -0.001 A 
ENDROOT
TORSDOF 0
ENDMDL
