MODEL 1
REMARK minimizedAffinity 1.64998949
REMARK minimizedRMSD -1
REMARK  0 active torsions:
REMARK  status: ('A' for Active; 'I' for Inactive)
ROOT
ATOM      1  C   UNL d   1       2.092  -5.988  -5.317  0.00  0.00     0.078 C 
ATOM      2  C1  UNL d   1       3.451  -5.356  -5.355  0.00  0.00    -0.077 A 
ATOM      3  C2  UNL d   1       4.528  -5.999  -5.978  0.00  0.00    -0.001 A 
ATOM      4  C3  UNL d   1       5.790  -5.404  -5.998  0.00  0.00     0.003 A 
ATOM      5  C4  UNL d   1       5.988  -4.163  -5.394  0.00  0.00    -0.005 A 
ATOM      6  C5  UNL d   1       4.924  -3.517  -4.770  0.00  0.00     0.003 A 
ATOM      7  C6  UNL d   1       3.661  -4.111  -4.749  0.00  0.00    -0.001 A 
ENDROOT
TORSDOF 0
ENDMDL
