MODEL 1
REMARK minimizedAffinity 1.35992169
REMARK minimizedRMSD -1
REMARK  0 active torsions:
REMARK  status: ('A' for Active; 'I' for Inactive)
ROOT
ATOM      1  C   UNL d   1       5.769  -4.631  -4.837  0.00  0.00     0.078 C 
ATOM      2  C1  UNL d   1       4.326  -5.040  -4.851  0.00  0.00    -0.077 A 
ATOM      3  C2  UNL d   1       3.745  -5.594  -5.998  0.00  0.00    -0.001 A 
ATOM      4  C3  UNL d   1       2.398  -5.961  -6.000  0.00  0.00     0.003 A 
ATOM      5  C4  UNL d   1       1.622  -5.779  -4.857  0.00  0.00    -0.005 A 
ATOM      6  C5  UNL d   1       2.191  -5.227  -3.712  0.00  0.00     0.003 A 
ATOM      7  C6  UNL d   1       3.537  -4.858  -3.708  0.00  0.00    -0.001 A 
ENDROOT
TORSDOF 0
ENDMDL
