MODEL 1
REMARK minimizedAffinity 12.2552881
REMARK minimizedRMSD -1
REMARK  0 active torsions:
REMARK  status: ('A' for Active; 'I' for Inactive)
ROOT
ATOM      1  C   UNL d   1      -1.844  -2.733   1.897  0.00  0.00     0.078 C 
ATOM      2  C1  UNL d   1      -2.199  -3.848   2.835  0.00  0.00    -0.077 A 
ATOM      3  C2  UNL d   1      -2.952  -4.945   2.398  0.00  0.00    -0.001 A 
ATOM      4  C3  UNL d   1      -3.283  -5.971   3.285  0.00  0.00     0.003 A 
ATOM      5  C4  UNL d   1      -2.868  -5.910   4.613  0.00  0.00    -0.005 A 
ATOM      6  C5  UNL d   1      -2.120  -4.821   5.057  0.00  0.00     0.003 A 
ATOM      7  C6  UNL d   1      -1.787  -3.794   4.172  0.00  0.00    -0.001 A 
ENDROOT
TORSDOF 0
ENDMDL
