MODEL 1
REMARK minimizedAffinity 8.99378777
REMARK minimizedRMSD -1
REMARK  0 active torsions:
REMARK  status: ('A' for Active; 'I' for Inactive)
ROOT
ATOM      1  C   UNL d   1       1.615  -4.861  -5.885  0.00  0.00     0.078 C 
ATOM      2  C1  UNL d   1       3.096  -4.867  -5.649  0.00  0.00    -0.077 A 
ATOM      3  C2  UNL d   1       3.873  -5.986  -5.973  0.00  0.00    -0.001 A 
ATOM      4  C3  UNL d   1       5.249  -5.981  -5.739  0.00  0.00     0.003 A 
ATOM      5  C4  UNL d   1       5.860  -4.860  -5.180  0.00  0.00    -0.005 A 
ATOM      6  C5  UNL d   1       5.095  -3.743  -4.853  0.00  0.00     0.003 A 
ATOM      7  C6  UNL d   1       3.718  -3.746  -5.086  0.00  0.00    -0.001 A 
ENDROOT
TORSDOF 0
ENDMDL
