MODEL 1
REMARK minimizedAffinity 12.6520758
REMARK minimizedRMSD -1
REMARK  0 active torsions:
REMARK  status: ('A' for Active; 'I' for Inactive)
ROOT
ATOM      1  C   UNL d   1       1.149  -5.269  -2.682  0.00  0.00     0.078 C 
ATOM      2  C1  UNL d   1       2.190  -5.361  -3.759  0.00  0.00    -0.077 A 
ATOM      3  C2  UNL d   1       1.886  -5.911  -5.010  0.00  0.00    -0.001 A 
ATOM      4  C3  UNL d   1       2.867  -6.000  -5.999  0.00  0.00     0.003 A 
ATOM      5  C4  UNL d   1       4.158  -5.541  -5.747  0.00  0.00    -0.005 A 
ATOM      6  C5  UNL d   1       4.470  -4.993  -4.504  0.00  0.00     0.003 A 
ATOM      7  C6  UNL d   1       3.491  -4.904  -3.514  0.00  0.00    -0.001 A 
ENDROOT
TORSDOF 0
ENDMDL
