MODEL 1
REMARK minimizedAffinity 2.1369555
REMARK minimizedRMSD -1
REMARK  0 active torsions:
REMARK  status: ('A' for Active; 'I' for Inactive)
ROOT
ATOM      1  C   UNL d   1       5.980   2.625  -2.267  0.00  0.00     0.078 C 
ATOM      2  C1  UNL d   1       5.230   2.726  -3.562  0.00  0.00    -0.077 A 
ATOM      3  C2  UNL d   1       4.128   1.903  -3.823  0.00  0.00    -0.001 A 
ATOM      4  C3  UNL d   1       3.445   2.002  -5.037  0.00  0.00     0.003 A 
ATOM      5  C4  UNL d   1       3.858   2.921  -5.999  0.00  0.00    -0.005 A 
ATOM      6  C5  UNL d   1       4.956   3.742  -5.749  0.00  0.00     0.003 A 
ATOM      7  C6  UNL d   1       5.639   3.645  -4.536  0.00  0.00    -0.001 A 
ENDROOT
TORSDOF 0
ENDMDL
