MODEL 1
REMARK minimizedAffinity 5.56424093
REMARK minimizedRMSD -1
REMARK  0 active torsions:
REMARK  status: ('A' for Active; 'I' for Inactive)
ROOT
ATOM      1  C   UNL d   1      -2.353  -2.231   1.439  0.00  0.00     0.078 C 
ATOM      2  C1  UNL d   1      -2.262  -3.497   0.639  0.00  0.00    -0.077 A 
ATOM      3  C2  UNL d   1      -2.513  -4.742   1.229  0.00  0.00    -0.001 A 
ATOM      4  C3  UNL d   1      -2.416  -5.912   0.475  0.00  0.00     0.003 A 
ATOM      5  C4  UNL d   1      -2.066  -5.850  -0.873  0.00  0.00    -0.005 A 
ATOM      6  C5  UNL d   1      -1.812  -4.615  -1.467  0.00  0.00     0.003 A 
ATOM      7  C6  UNL d   1      -1.909  -3.444  -0.715  0.00  0.00    -0.001 A 
ENDROOT
TORSDOF 0
ENDMDL
