MODEL 1
REMARK minimizedAffinity 13.6627693
REMARK minimizedRMSD -1
REMARK  0 active torsions:
REMARK  status: ('A' for Active; 'I' for Inactive)
ROOT
ATOM      1  C   UNL d   1       3.816   1.858   2.768  0.00  0.00     0.078 C 
ATOM      2  C1  UNL d   1       2.583   2.078   1.944  0.00  0.00    -0.077 A 
ATOM      3  C2  UNL d   1       2.632   2.815   0.755  0.00  0.00    -0.001 A 
ATOM      4  C3  UNL d   1       1.474   3.019   0.003  0.00  0.00     0.003 A 
ATOM      5  C4  UNL d   1       0.258   2.491   0.433  0.00  0.00    -0.005 A 
ATOM      6  C5  UNL d   1       0.199   1.759   1.616  0.00  0.00     0.003 A 
ATOM      7  C6  UNL d   1       1.356   1.553   2.369  0.00  0.00    -0.001 A 
ENDROOT
TORSDOF 0
ENDMDL
