MODEL 1
REMARK minimizedAffinity 10.1478605
REMARK minimizedRMSD -1
REMARK  0 active torsions:
REMARK  status: ('A' for Active; 'I' for Inactive)
ROOT
ATOM      1  C   UNL d   1      -0.522   2.255   1.539  0.00  0.00     0.078 C 
ATOM      2  C1  UNL d   1       0.965   2.141   1.379  0.00  0.00    -0.077 A 
ATOM      3  C2  UNL d   1       1.819   2.256   2.482  0.00  0.00    -0.001 A 
ATOM      4  C3  UNL d   1       3.202   2.157   2.318  0.00  0.00     0.003 A 
ATOM      5  C4  UNL d   1       3.742   1.944   1.051  0.00  0.00    -0.005 A 
ATOM      6  C5  UNL d   1       2.899   1.831  -0.053  0.00  0.00     0.003 A 
ATOM      7  C6  UNL d   1       1.517   1.929   0.110  0.00  0.00    -0.001 A 
ENDROOT
TORSDOF 0
ENDMDL
