MODEL 1
REMARK minimizedAffinity 8.7316227
REMARK minimizedRMSD -1
REMARK  0 active torsions:
REMARK  status: ('A' for Active; 'I' for Inactive)
ROOT
ATOM      1  C   UNL d   1       1.123   1.309   0.835  0.00  0.00     0.078 C 
ATOM      2  C1  UNL d   1       2.510   1.867   0.947  0.00  0.00    -0.077 A 
ATOM      3  C2  UNL d   1       3.074   2.154   2.196  0.00  0.00    -0.001 A 
ATOM      4  C3  UNL d   1       4.363   2.682   2.285  0.00  0.00     0.003 A 
ATOM      5  C4  UNL d   1       5.099   2.929   1.127  0.00  0.00    -0.005 A 
ATOM      6  C5  UNL d   1       4.546   2.648  -0.120  0.00  0.00     0.003 A 
ATOM      7  C6  UNL d   1       3.257   2.120  -0.211  0.00  0.00    -0.001 A 
ENDROOT
TORSDOF 0
ENDMDL
