MODEL 1
REMARK minimizedAffinity 9.25416088
REMARK minimizedRMSD -1
REMARK  0 active torsions:
REMARK  status: ('A' for Active; 'I' for Inactive)
ROOT
ATOM      1  C   UNL d   1       3.990   1.209   2.960  0.00  0.00     0.078 C 
ATOM      2  C1  UNL d   1       2.986   1.505   1.886  0.00  0.00    -0.077 A 
ATOM      3  C2  UNL d   1       3.362   1.550   0.538  0.00  0.00    -0.001 A 
ATOM      4  C3  UNL d   1       2.418   1.836  -0.449  0.00  0.00     0.003 A 
ATOM      5  C4  UNL d   1       1.092   2.080  -0.100  0.00  0.00    -0.005 A 
ATOM      6  C5  UNL d   1       0.708   2.040   1.239  0.00  0.00     0.003 A 
ATOM      7  C6  UNL d   1       1.651   1.754   2.228  0.00  0.00    -0.001 A 
ENDROOT
TORSDOF 0
ENDMDL
