MODEL 1
REMARK minimizedAffinity -0.998703063
REMARK minimizedRMSD -1
REMARK  0 active torsions:
REMARK  status: ('A' for Active; 'I' for Inactive)
ROOT
ATOM      1  C   UNL d   1      -0.653   2.742   3.685  0.00  0.00     0.078 C 
ATOM      2  C1  UNL d   1       0.232   2.225   2.591  0.00  0.00    -0.077 A 
ATOM      3  C2  UNL d   1      -0.293   1.468   1.536  0.00  0.00    -0.001 A 
ATOM      4  C3  UNL d   1       0.544   0.985   0.529  0.00  0.00     0.003 A 
ATOM      5  C4  UNL d   1       1.912   1.252   0.568  0.00  0.00    -0.005 A 
ATOM      6  C5  UNL d   1       2.443   2.002   1.615  0.00  0.00     0.003 A 
ATOM      7  C6  UNL d   1       1.607   2.486   2.623  0.00  0.00    -0.001 A 
ENDROOT
TORSDOF 0
ENDMDL
