MODEL 1
REMARK minimizedAffinity -3.86286402
REMARK minimizedRMSD -1
REMARK  0 active torsions:
REMARK  status: ('A' for Active; 'I' for Inactive)
ROOT
ATOM      1  N1  IND d   1      -1.479   0.203  -1.198  0.00  0.00    -0.196 N 
ATOM      2  C2  IND d   1      -2.625  -0.535  -1.090  0.00  0.00     0.054 A 
ATOM      3  C3  IND d   1      -2.432  -1.585  -0.260  0.00  0.00    -0.031 A 
ATOM      4  C4  IND d   1      -0.348  -2.226   1.110  0.00  0.00     0.051 A 
ATOM      5  C5  IND d   1       0.957  -1.876   1.312  0.00  0.00    -0.031 A 
ATOM      6  C6  IND d   1       1.528  -0.791   0.678  0.00  0.00     0.015 A 
ATOM      7  C7  IND d   1       0.808  -0.006  -0.178  0.00  0.00    -0.016 A 
ATOM      8  C8  IND d   1      -0.516  -0.363  -0.391  0.00  0.00    -0.047 A 
ATOM      9  C9  IND d   1      -1.088  -1.488   0.216  0.00  0.00    -0.096 A 
ATOM     10  HN1 IND d   1      -1.377   0.902  -1.687  0.00  0.00     0.298 HD
ENDROOT
TORSDOF 0
ENDMDL
