MODEL 1
REMARK minimizedAffinity -3.83773327
REMARK minimizedRMSD -1
REMARK  0 active torsions:
REMARK  status: ('A' for Active; 'I' for Inactive)
ROOT
ATOM      1  N1  IND d   1       0.630   0.037   1.426  0.00  0.00    -0.196 N 
ATOM      2  C2  IND d   1       1.719   0.642   0.864  0.00  0.00     0.054 A 
ATOM      3  C3  IND d   1       1.509   0.860  -0.453  0.00  0.00    -0.031 A 
ATOM      4  C4  IND d   1      -0.588   0.398  -1.873  0.00  0.00     0.051 A 
ATOM      5  C5  IND d   1      -1.826  -0.178  -1.811  0.00  0.00    -0.031 A 
ATOM      6  C6  IND d   1      -2.319  -0.720  -0.642  0.00  0.00     0.015 A 
ATOM      7  C7  IND d   1      -1.595  -0.697   0.516  0.00  0.00    -0.016 A 
ATOM      8  C8  IND d   1      -0.335  -0.119   0.454  0.00  0.00    -0.047 A 
ATOM      9  C9  IND d   1       0.189   0.395  -0.739  0.00  0.00    -0.096 A 
ATOM     10  HN1 IND d   1       0.559  -0.206   2.248  0.00  0.00     0.298 HD
ENDROOT
TORSDOF 0
ENDMDL
