MODEL 1
REMARK minimizedAffinity -3.3520751
REMARK minimizedRMSD -1
REMARK  0 active torsions:
REMARK  status: ('A' for Active; 'I' for Inactive)
ROOT
ATOM      1  N1  IND d   1       0.464  -0.083  -1.272  0.00  0.00    -0.196 N 
ATOM      2  C2  IND d   1       1.198   0.322  -0.193  0.00  0.00     0.054 A 
ATOM      3  C3  IND d   1       0.428   0.347   0.918  0.00  0.00    -0.031 A 
ATOM      4  C4  IND d   1      -2.037  -0.333   1.214  0.00  0.00     0.051 A 
ATOM      5  C5  IND d   1      -3.137  -0.734   0.507  0.00  0.00    -0.031 A 
ATOM      6  C6  IND d   1      -3.090  -0.945  -0.856  0.00  0.00     0.015 A 
ATOM      7  C7  IND d   1      -1.935  -0.773  -1.564  0.00  0.00    -0.016 A 
ATOM      8  C8  IND d   1      -0.818  -0.360  -0.851  0.00  0.00    -0.047 A 
ATOM      9  C9  IND d   1      -0.870  -0.103   0.525  0.00  0.00    -0.096 A 
ATOM     10  HN1 IND d   1       0.754  -0.153  -2.079  0.00  0.00     0.298 HD
ENDROOT
TORSDOF 0
ENDMDL
