MODEL 1
REMARK minimizedAffinity -5.0257678
REMARK minimizedRMSD -1
REMARK  0 active torsions:
REMARK  status: ('A' for Active; 'I' for Inactive)
ROOT
ATOM      1  N1  IND d   1      -1.358   0.408  -0.926  0.00  0.00    -0.196 N 
ATOM      2  C2  IND d   1      -2.544  -0.156  -0.546  0.00  0.00     0.054 A 
ATOM      3  C3  IND d   1      -2.340  -1.065   0.434  0.00  0.00    -0.031 A 
ATOM      4  C4  IND d   1      -0.157  -1.713   1.636  0.00  0.00     0.051 A 
ATOM      5  C5  IND d   1       1.192  -1.494   1.611  0.00  0.00    -0.031 A 
ATOM      6  C6  IND d   1       1.771  -0.611   0.723  0.00  0.00     0.015 A 
ATOM      7  C7  IND d   1       1.019   0.099  -0.169  0.00  0.00    -0.016 A 
ATOM      8  C8  IND d   1      -0.351  -0.125  -0.152  0.00  0.00    -0.047 A 
ATOM      9  C9  IND d   1      -0.940  -1.052   0.718  0.00  0.00    -0.096 A 
ATOM     10  HN1 IND d   1      -1.258   0.997  -1.544  0.00  0.00     0.298 HD
ENDROOT
TORSDOF 0
ENDMDL
