MODEL 1
REMARK minimizedAffinity -4.11543036
REMARK minimizedRMSD -1
REMARK  0 active torsions:
REMARK  status: ('A' for Active; 'I' for Inactive)
ROOT
ATOM      1  N1  IND d   1       0.707   0.207   1.344  0.00  0.00    -0.196 N 
ATOM      2  C2  IND d   1       1.703   0.823   0.639  0.00  0.00     0.054 A 
ATOM      3  C3  IND d   1       1.309   1.046  -0.635  0.00  0.00    -0.031 A 
ATOM      4  C4  IND d   1      -0.962   0.574  -1.751  0.00  0.00     0.051 A 
ATOM      5  C5  IND d   1      -2.174  -0.013  -1.520  0.00  0.00    -0.031 A 
ATOM      6  C6  IND d   1      -2.496  -0.565  -0.297  0.00  0.00     0.015 A 
ATOM      7  C7  IND d   1      -1.617  -0.540   0.749  0.00  0.00    -0.016 A 
ATOM      8  C8  IND d   1      -0.383   0.048   0.515  0.00  0.00    -0.047 A 
ATOM      9  C9  IND d   1      -0.034   0.572  -0.736  0.00  0.00    -0.096 A 
ATOM     10  HN1 IND d   1       0.753  -0.039   2.166  0.00  0.00     0.298 HD
ENDROOT
TORSDOF 0
ENDMDL
