MODEL 1
REMARK minimizedAffinity -4.07947302
REMARK minimizedRMSD -1
REMARK  0 active torsions:
REMARK  status: ('A' for Active; 'I' for Inactive)
ROOT
ATOM      1  N1  IND d   1      -0.345  -2.088   1.335  0.00  0.00    -0.196 N 
ATOM      2  C2  IND d   1      -1.545  -2.734   1.226  0.00  0.00     0.054 A 
ATOM      3  C3  IND d   1      -2.279  -2.197   0.226  0.00  0.00    -0.031 A 
ATOM      4  C4  IND d   1      -1.667  -0.319  -1.425  0.00  0.00     0.051 A 
ATOM      5  C5  IND d   1      -0.694   0.601  -1.698  0.00  0.00    -0.031 A 
ATOM      6  C6  IND d   1       0.470   0.671  -0.960  0.00  0.00     0.015 A 
ATOM      7  C7  IND d   1       0.710  -0.187   0.075  0.00  0.00    -0.016 A 
ATOM      8  C8  IND d   1      -0.279  -1.118   0.359  0.00  0.00    -0.047 A 
ATOM      9  C9  IND d   1      -1.481  -1.167  -0.359  0.00  0.00    -0.096 A 
ATOM     10  HN1 IND d   1       0.265  -2.258   1.916  0.00  0.00     0.298 HD
ENDROOT
TORSDOF 0
ENDMDL
