MODEL 1
REMARK minimizedAffinity -4.08899212
REMARK minimizedRMSD -1
REMARK  0 active torsions:
REMARK  status: ('A' for Active; 'I' for Inactive)
ROOT
ATOM      1  N1  IND d   1      -1.689   0.716  -0.522  0.00  0.00    -0.196 N 
ATOM      2  C2  IND d   1      -2.847   0.084  -0.168  0.00  0.00     0.054 A 
ATOM      3  C3  IND d   1      -2.587  -0.931   0.687  0.00  0.00    -0.031 A 
ATOM      4  C4  IND d   1      -0.345  -1.668   1.716  0.00  0.00     0.051 A 
ATOM      5  C5  IND d   1       0.997  -1.417   1.666  0.00  0.00    -0.031 A 
ATOM      6  C6  IND d   1       1.524  -0.420   0.870  0.00  0.00     0.015 A 
ATOM      7  C7  IND d   1       0.722   0.374   0.100  0.00  0.00    -0.016 A 
ATOM      8  C8  IND d   1      -0.641   0.117   0.142  0.00  0.00    -0.047 A 
ATOM      9  C9  IND d   1      -1.177  -0.921   0.916  0.00  0.00    -0.096 A 
ATOM     10  HN1 IND d   1      -1.625   1.377  -1.068  0.00  0.00     0.298 HD
ENDROOT
TORSDOF 0
ENDMDL
