MODEL 1
REMARK minimizedAffinity -4.70674706
REMARK minimizedRMSD -1
REMARK  0 active torsions:
REMARK  status: ('A' for Active; 'I' for Inactive)
ROOT
ATOM      1  N1  IND d   1       0.611  -1.016   0.831  0.00  0.00    -0.196 N 
ATOM      2  C2  IND d   1       1.031   0.019   0.043  0.00  0.00     0.054 A 
ATOM      3  C3  IND d   1       0.001   0.502  -0.688  0.00  0.00    -0.031 A 
ATOM      4  C4  IND d   1      -2.479  -0.188  -0.676  0.00  0.00     0.051 A 
ATOM      5  C5  IND d   1      -3.337  -1.111  -0.147  0.00  0.00    -0.031 A 
ATOM      6  C6  IND d   1      -2.916  -2.066   0.755  0.00  0.00     0.015 A 
ATOM      7  C7  IND d   1      -1.617  -2.128   1.172  0.00  0.00    -0.016 A 
ATOM      8  C8  IND d   1      -0.740  -1.197   0.632  0.00  0.00    -0.047 A 
ATOM      9  C9  IND d   1      -1.153  -0.252  -0.316  0.00  0.00    -0.096 A 
ATOM     10  HN1 IND d   1       1.107  -1.476   1.362  0.00  0.00     0.298 HD
ENDROOT
TORSDOF 0
ENDMDL
