MODEL 1
REMARK minimizedAffinity -1.03967452
REMARK minimizedRMSD -1
REMARK  0 active torsions:
REMARK  status: ('A' for Active; 'I' for Inactive)
ROOT
ATOM      1  N1  IND d   1       0.732  -0.267   0.938  0.00  0.00    -0.196 N 
ATOM      2  C2  IND d   1       1.556   0.307   0.010  0.00  0.00     0.054 A 
ATOM      3  C3  IND d   1       0.868   0.589  -1.119  0.00  0.00    -0.031 A 
ATOM      4  C4  IND d   1      -1.638   0.289  -1.625  0.00  0.00     0.051 A 
ATOM      5  C5  IND d   1      -2.789  -0.228  -1.100  0.00  0.00    -0.031 A 
ATOM      6  C6  IND d   1      -2.826  -0.793   0.159  0.00  0.00     0.015 A 
ATOM      7  C7  IND d   1      -1.711  -0.853   0.946  0.00  0.00    -0.016 A 
ATOM      8  C8  IND d   1      -0.539  -0.335   0.413  0.00  0.00    -0.047 A 
ATOM      9  C9  IND d   1      -0.486   0.201  -0.880  0.00  0.00    -0.096 A 
ATOM     10  HN1 IND d   1       0.969  -0.539   1.719  0.00  0.00     0.298 HD
ENDROOT
TORSDOF 0
ENDMDL
