MODEL 1
REMARK minimizedAffinity -1.34200549
REMARK minimizedRMSD -1
REMARK  0 active torsions:
REMARK  status: ('A' for Active; 'I' for Inactive)
ROOT
ATOM      1  N1  IND d   1       0.724  -0.187   0.385  0.00  0.00    -0.196 N 
ATOM      2  C2  IND d   1       0.646   0.665  -0.681  0.00  0.00     0.054 A 
ATOM      3  C3  IND d   1      -0.490   0.442  -1.379  0.00  0.00    -0.031 A 
ATOM      4  C4  IND d   1      -2.412  -1.200  -0.895  0.00  0.00     0.051 A 
ATOM      5  C5  IND d   1      -2.777  -2.213  -0.053  0.00  0.00    -0.031 A 
ATOM      6  C6  IND d   1      -1.979  -2.608   1.001  0.00  0.00     0.015 A 
ATOM      7  C7  IND d   1      -0.786  -1.995   1.260  0.00  0.00    -0.016 A 
ATOM      8  C8  IND d   1      -0.409  -0.971   0.403  0.00  0.00    -0.047 A 
ATOM      9  C9  IND d   1      -1.195  -0.594  -0.694  0.00  0.00    -0.096 A 
ATOM     10  HN1 IND d   1       1.371  -0.227   0.950  0.00  0.00     0.298 HD
ENDROOT
TORSDOF 0
ENDMDL
