MODEL 1
REMARK minimizedAffinity -2.65068483
REMARK minimizedRMSD -1
REMARK  0 active torsions:
REMARK  status: ('A' for Active; 'I' for Inactive)
ROOT
ATOM      1  N1  IND d   1       0.402  -0.044  -1.293  0.00  0.00    -0.196 N 
ATOM      2  C2  IND d   1       1.216   0.279  -0.243  0.00  0.00     0.054 A 
ATOM      3  C3  IND d   1       0.542   0.172   0.924  0.00  0.00    -0.031 A 
ATOM      4  C4  IND d   1      -1.872  -0.612   1.353  0.00  0.00     0.051 A 
ATOM      5  C5  IND d   1      -3.018  -0.977   0.703  0.00  0.00    -0.031 A 
ATOM      6  C6  IND d   1      -3.082  -1.055  -0.673  0.00  0.00     0.015 A 
ATOM      7  C7  IND d   1      -1.995  -0.779  -1.454  0.00  0.00    -0.016 A 
ATOM      8  C8  IND d   1      -0.833  -0.401  -0.798  0.00  0.00    -0.047 A 
ATOM      9  C9  IND d   1      -0.773  -0.279   0.597  0.00  0.00    -0.096 A 
ATOM     10  HN1 IND d   1       0.624  -0.027  -2.124  0.00  0.00     0.298 HD
ENDROOT
TORSDOF 0
ENDMDL
