MODEL 1
REMARK minimizedAffinity -3.93002009
REMARK minimizedRMSD -1
REMARK  0 active torsions:
REMARK  status: ('A' for Active; 'I' for Inactive)
ROOT
ATOM      1  N1  IND d   1       0.473  -0.082   1.309  0.00  0.00    -0.196 N 
ATOM      2  C2  IND d   1       1.297   0.484   0.377  0.00  0.00     0.054 A 
ATOM      3  C3  IND d   1       0.685   0.529  -0.827  0.00  0.00    -0.031 A 
ATOM      4  C4  IND d   1      -1.704  -0.177  -1.475  0.00  0.00     0.051 A 
ATOM      5  C5  IND d   1      -2.822  -0.783  -0.973  0.00  0.00    -0.031 A 
ATOM      6  C6  IND d   1      -2.901  -1.192   0.343  0.00  0.00     0.015 A 
ATOM      7  C7  IND d   1      -1.865  -0.999   1.212  0.00  0.00    -0.016 A 
ATOM      8  C8  IND d   1      -0.726  -0.391   0.704  0.00  0.00    -0.047 A 
ATOM      9  C9  IND d   1      -0.624  -0.012  -0.641  0.00  0.00    -0.096 A 
ATOM     10  HN1 IND d   1       0.670  -0.223   2.134  0.00  0.00     0.298 HD
ENDROOT
TORSDOF 0
ENDMDL
