MODEL 1
REMARK minimizedAffinity 1.13871944
REMARK minimizedRMSD -1
REMARK  0 active torsions:
REMARK  status: ('A' for Active; 'I' for Inactive)
ROOT
ATOM      1  N1  IND d   1       0.813   0.250   1.810  0.00  0.00    -0.196 N 
ATOM      2  C2  IND d   1       0.499  -0.403   0.651  0.00  0.00     0.054 A 
ATOM      3  C3  IND d   1       1.172   0.136  -0.390  0.00  0.00    -0.031 A 
ATOM      4  C4  IND d   1       2.919   2.028  -0.405  0.00  0.00     0.051 A 
ATOM      5  C5  IND d   1       3.509   2.955   0.407  0.00  0.00    -0.031 A 
ATOM      6  C6  IND d   1       3.228   3.027   1.756  0.00  0.00     0.015 A 
ATOM      7  C7  IND d   1       2.350   2.164   2.348  0.00  0.00    -0.016 A 
ATOM      8  C8  IND d   1       1.743   1.226   1.525  0.00  0.00    -0.047 A 
ATOM      9  C9  IND d   1       1.992   1.175   0.148  0.00  0.00    -0.096 A 
ATOM     10  HN1 IND d   1       0.486   0.079   2.587  0.00  0.00     0.298 HD
ENDROOT
TORSDOF 0
ENDMDL
