MODEL 1
REMARK minimizedAffinity -4.56173468
REMARK minimizedRMSD -1
REMARK  0 active torsions:
REMARK  status: ('A' for Active; 'I' for Inactive)
ROOT
ATOM      1  N1  IND d   1       0.759  -0.720   1.007  0.00  0.00    -0.196 N 
ATOM      2  C2  IND d   1       1.710   0.041   0.385  0.00  0.00     0.054 A 
ATOM      3  C3  IND d   1       1.170   0.708  -0.659  0.00  0.00    -0.031 A 
ATOM      4  C4  IND d   1      -1.273   0.779  -1.468  0.00  0.00     0.051 A 
ATOM      5  C5  IND d   1      -2.499   0.221  -1.240  0.00  0.00    -0.031 A 
ATOM      6  C6  IND d   1      -2.707  -0.696  -0.230  0.00  0.00     0.015 A 
ATOM      7  C7  IND d   1      -1.694  -1.082   0.601  0.00  0.00    -0.016 A 
ATOM      8  C8  IND d   1      -0.446  -0.522   0.369  0.00  0.00    -0.047 A 
ATOM      9  C9  IND d   1      -0.219   0.376  -0.682  0.00  0.00    -0.096 A 
ATOM     10  HN1 IND d   1       0.892  -1.235   1.682  0.00  0.00     0.298 HD
ENDROOT
TORSDOF 0
ENDMDL
