MODEL 1
REMARK minimizedAffinity -5.16434526
REMARK minimizedRMSD -1
REMARK  0 active torsions:
REMARK  status: ('A' for Active; 'I' for Inactive)
ROOT
ATOM      1  N1  IND d   1       0.555  -0.463   0.491  0.00  0.00    -0.196 N 
ATOM      2  C2  IND d   1       1.149  -0.217  -0.715  0.00  0.00     0.054 A 
ATOM      3  C3  IND d   1       0.214  -0.098  -1.684  0.00  0.00    -0.031 A 
ATOM      4  C4  IND d   1      -2.353  -0.171  -1.497  0.00  0.00     0.051 A 
ATOM      5  C5  IND d   1      -3.362  -0.407  -0.606  0.00  0.00    -0.031 A 
ATOM      6  C6  IND d   1      -3.112  -0.677   0.724  0.00  0.00     0.015 A 
ATOM      7  C7  IND d   1      -1.838  -0.709   1.217  0.00  0.00    -0.016 A 
ATOM      8  C8  IND d   1      -0.811  -0.477   0.313  0.00  0.00    -0.047 A 
ATOM      9  C9  IND d   1      -1.056  -0.244  -1.046  0.00  0.00    -0.096 A 
ATOM     10  HN1 IND d   1       0.966  -0.589   1.236  0.00  0.00     0.298 HD
ENDROOT
TORSDOF 0
ENDMDL
