MODEL 1
REMARK minimizedAffinity 10.6411991
REMARK minimizedRMSD -1
REMARK  1 active torsions:
REMARK  status: ('A' for Active; 'I' for Inactive)
REMARK    1  A    between atoms: N_2  and  C1_3 
ROOT
ATOM      1  C1  UNL d   1       1.792   1.378  -4.161  0.00  0.00     0.143 A 
ATOM      2  C2  UNL d   1       2.263   2.273  -5.128  0.00  0.00    -0.057 A 
ATOM      3  C3  UNL d   1       1.385   2.932  -5.997  0.00  0.00     0.033 A 
ATOM      4  C4  UNL d   1       0.018   2.684  -5.934  0.00  0.00    -0.042 A 
ATOM      5  C5  UNL d   1      -0.470   1.779  -4.998  0.00  0.00     0.033 A 
ATOM      6  C6  UNL d   1       0.411   1.130  -4.128  0.00  0.00    -0.057 A 
ENDROOT
BRANCH   1   7
ATOM      7  N   UNL d   1       2.623   0.618  -3.334  0.00  0.00    -0.732 N 
ATOM      8  C   UNL d   1       2.996   1.100  -2.022  0.00  0.00     0.284 C 
ATOM      9  H3  UNL d   1       2.399  -0.374  -3.364  0.00  0.00     0.395 HD
ENDBRANCH   1   7
TORSDOF 1
ENDMDL
