MODEL 1
REMARK minimizedAffinity 6.8462019
REMARK minimizedRMSD -1
REMARK  1 active torsions:
REMARK  status: ('A' for Active; 'I' for Inactive)
REMARK    1  A    between atoms: N_2  and  C1_3 
ROOT
ATOM      1  C1  UNL d   1       4.833   4.181   3.496  0.00  0.00     0.143 A 
ATOM      2  C2  UNL d   1       5.616   3.428   4.377  0.00  0.00    -0.057 A 
ATOM      3  C3  UNL d   1       6.000   3.937   5.624  0.00  0.00     0.033 A 
ATOM      4  C4  UNL d   1       5.630   5.224   6.000  0.00  0.00    -0.042 A 
ATOM      5  C5  UNL d   1       4.872   6.000   5.130  0.00  0.00     0.033 A 
ATOM      6  C6  UNL d   1       4.486   5.483   3.889  0.00  0.00    -0.057 A 
ENDROOT
BRANCH   1   7
ATOM      7  N   UNL d   1       4.502   3.768   2.203  0.00  0.00    -0.732 N 
ATOM      8  C   UNL d   1       3.438   4.420   1.471  0.00  0.00     0.284 C 
ATOM      9  H3  UNL d   1       5.323   3.556   1.641  0.00  0.00     0.395 HD
ENDBRANCH   1   7
TORSDOF 1
ENDMDL
