MODEL 1
REMARK minimizedAffinity 7.56709337
REMARK minimizedRMSD -1
REMARK  1 active torsions:
REMARK  status: ('A' for Active; 'I' for Inactive)
REMARK    1  A    between atoms: N_2  and  C1_3 
ROOT
ATOM      1  C1  UNL d   1      -1.101   2.175  -5.994  0.00  0.00     0.143 A 
ATOM      2  C2  UNL d   1      -2.116   1.212  -5.985  0.00  0.00    -0.057 A 
ATOM      3  C3  UNL d   1      -3.467   1.580  -6.000  0.00  0.00     0.033 A 
ATOM      4  C4  UNL d   1      -3.828   2.924  -5.995  0.00  0.00    -0.042 A 
ATOM      5  C5  UNL d   1      -2.836   3.898  -5.979  0.00  0.00     0.033 A 
ATOM      6  C6  UNL d   1      -1.489   3.524  -5.970  0.00  0.00    -0.057 A 
ENDROOT
BRANCH   1   7
ATOM      7  N   UNL d   1       0.258   1.874  -5.880  0.00  0.00    -0.732 N 
ATOM      8  C   UNL d   1       0.739   1.031  -4.806  0.00  0.00     0.284 C 
ATOM      9  H3  UNL d   1       0.691   1.686  -6.781  0.00  0.00     0.395 HD
ENDBRANCH   1   7
TORSDOF 1
ENDMDL
