MODEL 1
REMARK minimizedAffinity -1.12712359
REMARK minimizedRMSD -1
REMARK  1 active torsions:
REMARK  status: ('A' for Active; 'I' for Inactive)
REMARK    1  A    between atoms: N_2  and  C1_3 
ROOT
ATOM      1  C1  UNL d   1       3.034   3.568   1.702  0.00  0.00     0.143 A 
ATOM      2  C2  UNL d   1       3.465   4.759   1.108  0.00  0.00    -0.057 A 
ATOM      3  C3  UNL d   1       3.494   5.960   1.828  0.00  0.00     0.033 A 
ATOM      4  C4  UNL d   1       3.062   5.996   3.149  0.00  0.00    -0.042 A 
ATOM      5  C5  UNL d   1       2.606   4.830   3.752  0.00  0.00     0.033 A 
ATOM      6  C6  UNL d   1       2.586   3.632   3.031  0.00  0.00    -0.057 A 
ENDROOT
BRANCH   1   7
ATOM      7  N   UNL d   1       2.889   2.362   1.011  0.00  0.00    -0.732 N 
ATOM      8  C   UNL d   1       2.206   1.241   1.620  0.00  0.00     0.284 C 
ATOM      9  H3  UNL d   1       2.665   2.502   0.029  0.00  0.00     0.395 HD
ENDBRANCH   1   7
TORSDOF 1
ENDMDL
