MODEL 1
REMARK minimizedAffinity -0.0848923102
REMARK minimizedRMSD -1
REMARK  1 active torsions:
REMARK  status: ('A' for Active; 'I' for Inactive)
REMARK    1  A    between atoms: N_2  and  C1_3 
ROOT
ATOM      1  C1  UNL d   1       3.759   4.869   2.893  0.00  0.00     0.143 A 
ATOM      2  C2  UNL d   1       4.077   5.995   2.125  0.00  0.00    -0.057 A 
ATOM      3  C3  UNL d   1       4.081   5.941   0.726  0.00  0.00     0.033 A 
ATOM      4  C4  UNL d   1       3.796   4.749   0.069  0.00  0.00    -0.042 A 
ATOM      5  C5  UNL d   1       3.502   3.611   0.812  0.00  0.00     0.033 A 
ATOM      6  C6  UNL d   1       3.492   3.673   2.209  0.00  0.00    -0.057 A 
ENDROOT
BRANCH   1   7
ATOM      7  N   UNL d   1       3.834   4.833   4.288  0.00  0.00    -0.732 N 
ATOM      8  C   UNL d   1       3.496   5.999   5.075  0.00  0.00     0.284 C 
ATOM      9  H3  UNL d   1       3.487   3.957   4.673  0.00  0.00     0.395 HD
ENDBRANCH   1   7
TORSDOF 1
ENDMDL
