MODEL 1
REMARK minimizedAffinity 2.87895203
REMARK minimizedRMSD -1
REMARK  1 active torsions:
REMARK  status: ('A' for Active; 'I' for Inactive)
REMARK    1  A    between atoms: N_2  and  C1_3 
ROOT
ATOM      1  C1  UNL d   1      -3.061   3.765  -5.948  0.00  0.00     0.143 A 
ATOM      2  C2  UNL d   1      -3.904   2.649  -5.960  0.00  0.00    -0.057 A 
ATOM      3  C3  UNL d   1      -5.297   2.791  -5.998  0.00  0.00     0.033 A 
ATOM      4  C4  UNL d   1      -5.873   4.057  -5.993  0.00  0.00    -0.042 A 
ATOM      5  C5  UNL d   1      -5.055   5.181  -5.956  0.00  0.00     0.033 A 
ATOM      6  C6  UNL d   1      -3.665   5.032  -5.925  0.00  0.00    -0.057 A 
ENDROOT
BRANCH   1   7
ATOM      7  N   UNL d   1      -1.673   3.690  -5.811  0.00  0.00    -0.732 N 
ATOM      8  C   UNL d   1      -0.985   2.425  -5.962  0.00  0.00     0.284 C 
ATOM      9  H3  UNL d   1      -1.196   4.477  -6.247  0.00  0.00     0.395 HD
ENDBRANCH   1   7
TORSDOF 1
ENDMDL
