MODEL 1
REMARK minimizedAffinity -0.093625918
REMARK minimizedRMSD -1
REMARK  1 active torsions:
REMARK  status: ('A' for Active; 'I' for Inactive)
REMARK    1  A    between atoms: N_2  and  C1_3 
ROOT
ATOM      1  C1  UNL d   1      -3.576   2.543  -5.999  0.00  0.00     0.143 A 
ATOM      2  C2  UNL d   1      -4.931   2.195  -5.991  0.00  0.00    -0.057 A 
ATOM      3  C3  UNL d   1      -5.932   3.173  -5.993  0.00  0.00     0.033 A 
ATOM      4  C4  UNL d   1      -5.595   4.522  -5.975  0.00  0.00    -0.042 A 
ATOM      5  C5  UNL d   1      -4.255   4.892  -5.958  0.00  0.00     0.033 A 
ATOM      6  C6  UNL d   1      -3.259   3.910  -5.962  0.00  0.00    -0.057 A 
ENDROOT
BRANCH   1   7
ATOM      7  N   UNL d   1      -2.534   1.618  -5.897  0.00  0.00    -0.732 N 
ATOM      8  C   UNL d   1      -1.257   2.005  -5.336  0.00  0.00     0.284 C 
ATOM      9  H3  UNL d   1      -2.857   0.700  -5.602  0.00  0.00     0.395 HD
ENDBRANCH   1   7
TORSDOF 1
ENDMDL
