MODEL 1
REMARK minimizedAffinity 11.8081932
REMARK minimizedRMSD -1
REMARK  1 active torsions:
REMARK  status: ('A' for Active; 'I' for Inactive)
REMARK    1  A    between atoms: N_2  and  C1_3 
ROOT
ATOM      1  C1  UNL d   1       3.406  -0.163  -2.549  0.00  0.00     0.143 A 
ATOM      2  C2  UNL d   1       4.491   0.692  -2.329  0.00  0.00    -0.057 A 
ATOM      3  C3  UNL d   1       5.714   0.206  -1.850  0.00  0.00     0.033 A 
ATOM      4  C4  UNL d   1       5.864  -1.145  -1.554  0.00  0.00    -0.042 A 
ATOM      5  C5  UNL d   1       4.791  -2.009  -1.742  0.00  0.00     0.033 A 
ATOM      6  C6  UNL d   1       3.575  -1.518  -2.227  0.00  0.00    -0.057 A 
ENDROOT
BRANCH   1   7
ATOM      7  N   UNL d   1       2.135   0.275  -2.930  0.00  0.00    -0.732 N 
ATOM      8  C   UNL d   1       1.734   0.253  -4.320  0.00  0.00     0.284 C 
ATOM      9  H3  UNL d   1       1.410  -0.027  -2.283  0.00  0.00     0.395 HD
ENDBRANCH   1   7
TORSDOF 1
ENDMDL
