MODEL 1
REMARK minimizedAffinity 2.51959085
REMARK minimizedRMSD -1
REMARK  1 active torsions:
REMARK  status: ('A' for Active; 'I' for Inactive)
REMARK    1  A    between atoms: N_2  and  C1_3 
ROOT
ATOM      1  C1  UNL d   1       0.396   0.577   1.033  0.00  0.00     0.143 A 
ATOM      2  C2  UNL d   1       1.074  -0.643   1.124  0.00  0.00    -0.057 A 
ATOM      3  C3  UNL d   1       0.381  -1.859   1.154  0.00  0.00     0.033 A 
ATOM      4  C4  UNL d   1      -1.010  -1.875   1.122  0.00  0.00    -0.042 A 
ATOM      5  C5  UNL d   1      -1.706  -0.673   1.056  0.00  0.00     0.033 A 
ATOM      6  C6  UNL d   1      -1.008   0.538   1.020  0.00  0.00    -0.057 A 
ENDROOT
BRANCH   1   7
ATOM      7  N   UNL d   1       1.024   1.823   1.098  0.00  0.00    -0.732 N 
ATOM      8  C   UNL d   1       1.163   2.642  -0.087  0.00  0.00     0.284 C 
ATOM      9  H3  UNL d   1       0.769   2.343   1.935  0.00  0.00     0.395 HD
ENDBRANCH   1   7
TORSDOF 1
ENDMDL
