MODEL 1
REMARK minimizedAffinity -1.97411764
REMARK minimizedRMSD -1
REMARK  1 active torsions:
REMARK  status: ('A' for Active; 'I' for Inactive)
REMARK    1  A    between atoms: N_2  and  C1_3 
ROOT
ATOM      1  C1  UNL d   1      -1.370   3.510  -5.920  0.00  0.00     0.143 A 
ATOM      2  C2  UNL d   1      -2.285   4.568  -5.975  0.00  0.00    -0.057 A 
ATOM      3  C3  UNL d   1      -3.665   4.334  -5.993  0.00  0.00     0.033 A 
ATOM      4  C4  UNL d   1      -4.156   3.032  -5.986  0.00  0.00    -0.042 A 
ATOM      5  C5  UNL d   1      -3.265   1.965  -5.957  0.00  0.00     0.033 A 
ATOM      6  C6  UNL d   1      -1.888   2.206  -5.933  0.00  0.00    -0.057 A 
ENDROOT
BRANCH   1   7
ATOM      7  N   UNL d   1       0.015   3.675  -5.999  0.00  0.00    -0.732 N 
ATOM      8  C   UNL d   1       0.907   2.725  -5.370  0.00  0.00     0.284 C 
ATOM      9  H3  UNL d   1       0.317   3.982  -6.921  0.00  0.00     0.395 HD
ENDBRANCH   1   7
TORSDOF 1
ENDMDL
