MODEL 1
REMARK minimizedAffinity 2.70937324
REMARK minimizedRMSD -1
REMARK  1 active torsions:
REMARK  status: ('A' for Active; 'I' for Inactive)
REMARK    1  A    between atoms: N_2  and  C1_3 
ROOT
ATOM      1  C1  UNL d   1      -1.611   2.413  -5.886  0.00  0.00     0.143 A 
ATOM      2  C2  UNL d   1      -0.334   1.846  -5.814  0.00  0.00    -0.057 A 
ATOM      3  C3  UNL d   1       0.816   2.646  -5.807  0.00  0.00     0.033 A 
ATOM      4  C4  UNL d   1       0.709   4.029  -5.901  0.00  0.00    -0.042 A 
ATOM      5  C5  UNL d   1      -0.549   4.613  -5.998  0.00  0.00     0.033 A 
ATOM      6  C6  UNL d   1      -1.694   3.810  -5.998  0.00  0.00    -0.057 A 
ENDROOT
BRANCH   1   7
ATOM      7  N   UNL d   1      -2.787   1.668  -5.996  0.00  0.00    -0.732 N 
ATOM      8  C   UNL d   1      -4.079   2.317  -5.932  0.00  0.00     0.284 C 
ATOM      9  H3  UNL d   1      -2.722   0.941  -6.706  0.00  0.00     0.395 HD
ENDBRANCH   1   7
TORSDOF 1
ENDMDL
