MODEL 1
REMARK minimizedAffinity 0.726418138
REMARK minimizedRMSD -1
REMARK  1 active torsions:
REMARK  status: ('A' for Active; 'I' for Inactive)
REMARK    1  A    between atoms: N_2  and  C1_3 
ROOT
ATOM      1  C1  UNL d   1       0.240   2.252  -5.670  0.00  0.00     0.143 A 
ATOM      2  C2  UNL d   1      -1.072   1.767  -5.665  0.00  0.00    -0.057 A 
ATOM      3  C3  UNL d   1      -2.165   2.625  -5.842  0.00  0.00     0.033 A 
ATOM      4  C4  UNL d   1      -1.964   3.992  -6.000  0.00  0.00    -0.042 A 
ATOM      5  C5  UNL d   1      -0.670   4.500  -5.983  0.00  0.00     0.033 A 
ATOM      6  C6  UNL d   1       0.417   3.638  -5.812  0.00  0.00    -0.057 A 
ENDROOT
BRANCH   1   7
ATOM      7  N   UNL d   1       1.362   1.465  -5.400  0.00  0.00    -0.732 N 
ATOM      8  C   UNL d   1       1.476   0.750  -4.147  0.00  0.00     0.284 C 
ATOM      9  H3  UNL d   1       1.667   0.933  -6.211  0.00  0.00     0.395 HD
ENDBRANCH   1   7
TORSDOF 1
ENDMDL
