MODEL 1
REMARK minimizedAffinity 3.80079675
REMARK minimizedRMSD -1
REMARK  0 active torsions:
REMARK  status: ('A' for Active; 'I' for Inactive)
ROOT
ATOM      1  C   UNL d   1       3.158  -0.878  -4.104  0.00  0.00     0.172 C 
ATOM      2  N   UNL d   1       1.932  -1.638  -4.034  0.00  0.00    -0.070 N 
ATOM      3  C1  UNL d   1       1.154  -1.797  -2.918  0.00  0.00    -0.004 A 
ATOM      4  C2  UNL d   1       0.078  -2.586  -3.263  0.00  0.00    -0.047 A 
ATOM      5  C3  UNL d   1       0.215  -2.913  -4.633  0.00  0.00    -0.047 A 
ATOM      6  C4  UNL d   1       1.371  -2.313  -5.085  0.00  0.00    -0.004 A 
ENDROOT
TORSDOF 0
ENDMDL
