MODEL 1
REMARK minimizedAffinity -2.15147662
REMARK minimizedRMSD -1
REMARK  0 active torsions:
REMARK  status: ('A' for Active; 'I' for Inactive)
ROOT
ATOM      1  C   UNL d   1       1.124  -5.996   5.853  0.00  0.00     0.172 C 
ATOM      2  N   UNL d   1       1.135  -5.997   4.409  0.00  0.00    -0.070 N 
ATOM      3  C1  UNL d   1       2.253  -5.994   3.619  0.00  0.00    -0.004 A 
ATOM      4  C2  UNL d   1       1.841  -5.996   2.304  0.00  0.00    -0.047 A 
ATOM      5  C3  UNL d   1       0.426  -6.000   2.304  0.00  0.00    -0.047 A 
ATOM      6  C4  UNL d   1       0.015  -6.000   3.620  0.00  0.00    -0.004 A 
ENDROOT
TORSDOF 0
ENDMDL
