MODEL 1
REMARK minimizedAffinity 1.06499636
REMARK minimizedRMSD -1
REMARK  0 active torsions:
REMARK  status: ('A' for Active; 'I' for Inactive)
ROOT
ATOM      1  C   UNL d   1       1.553  -6.000   5.983  0.00  0.00     0.172 C 
ATOM      2  N   UNL d   1       1.257  -5.991   4.570  0.00  0.00    -0.070 N 
ATOM      3  C1  UNL d   1       0.004  -6.000   4.017  0.00  0.00    -0.004 A 
ATOM      4  C2  UNL d   1       0.148  -5.986   2.647  0.00  0.00    -0.047 A 
ATOM      5  C3  UNL d   1       1.535  -5.970   2.366  0.00  0.00    -0.047 A 
ATOM      6  C4  UNL d   1       2.198  -5.974   3.575  0.00  0.00    -0.004 A 
ENDROOT
TORSDOF 0
ENDMDL
