MODEL 1
REMARK minimizedAffinity -1.31403732
REMARK minimizedRMSD -1
REMARK  0 active torsions:
REMARK  status: ('A' for Active; 'I' for Inactive)
ROOT
ATOM      1  C   UNL d   1       1.500  -4.990   5.442  0.00  0.00     0.172 C 
ATOM      2  N   UNL d   1       1.213  -5.400   4.088  0.00  0.00    -0.070 N 
ATOM      3  C1  UNL d   1      -0.034  -5.623   3.568  0.00  0.00    -0.004 A 
ATOM      4  C2  UNL d   1       0.118  -5.997   2.251  0.00  0.00    -0.047 A 
ATOM      5  C3  UNL d   1       1.505  -6.000   1.969  0.00  0.00    -0.047 A 
ATOM      6  C4  UNL d   1       2.159  -5.627   3.124  0.00  0.00    -0.004 A 
ENDROOT
TORSDOF 0
ENDMDL
