MODEL 1
REMARK minimizedAffinity 2.23146558
REMARK minimizedRMSD -1
REMARK  0 active torsions:
REMARK  status: ('A' for Active; 'I' for Inactive)
ROOT
ATOM      1  C   UNL d   1       2.797  -5.971   2.675  0.00  0.00     0.172 C 
ATOM      2  N   UNL d   1       1.354  -5.983   2.636  0.00  0.00    -0.070 N 
ATOM      3  C1  UNL d   1       0.585  -5.989   1.503  0.00  0.00    -0.004 A 
ATOM      4  C2  UNL d   1      -0.737  -6.000   1.889  0.00  0.00    -0.047 A 
ATOM      5  C3  UNL d   1      -0.765  -5.999   3.304  0.00  0.00    -0.047 A 
ATOM      6  C4  UNL d   1       0.543  -5.989   3.741  0.00  0.00    -0.004 A 
ENDROOT
TORSDOF 0
ENDMDL
