MODEL 1
REMARK minimizedAffinity 0.7907691
REMARK minimizedRMSD -1
REMARK  0 active torsions:
REMARK  status: ('A' for Active; 'I' for Inactive)
ROOT
ATOM      1  C   UNL d   1      -0.928  -6.000   1.889  0.00  0.00     0.172 C 
ATOM      2  N   UNL d   1      -1.405  -4.638   1.844  0.00  0.00    -0.070 N 
ATOM      3  C1  UNL d   1      -1.477  -3.853   0.724  0.00  0.00    -0.004 A 
ATOM      4  C2  UNL d   1      -1.983  -2.627   1.099  0.00  0.00    -0.047 A 
ATOM      5  C3  UNL d   1      -2.224  -2.677   2.493  0.00  0.00    -0.047 A 
ATOM      6  C4  UNL d   1      -1.857  -3.933   2.929  0.00  0.00    -0.004 A 
ENDROOT
TORSDOF 0
ENDMDL
