MODEL 1
REMARK minimizedAffinity 3.19124484
REMARK minimizedRMSD -1
REMARK  0 active torsions:
REMARK  status: ('A' for Active; 'I' for Inactive)
ROOT
ATOM      1  C   UNL d   1       0.765  -5.986   5.040  0.00  0.00     0.172 C 
ATOM      2  N   UNL d   1       0.216  -5.992   3.704  0.00  0.00    -0.070 N 
ATOM      3  C1  UNL d   1      -1.117  -5.996   3.389  0.00  0.00    -0.004 A 
ATOM      4  C2  UNL d   1      -1.225  -6.000   2.015  0.00  0.00    -0.047 A 
ATOM      5  C3  UNL d   1       0.087  -5.999   1.486  0.00  0.00    -0.047 A 
ATOM      6  C4  UNL d   1       0.960  -5.994   2.554  0.00  0.00    -0.004 A 
ENDROOT
TORSDOF 0
ENDMDL
