MODEL 1
REMARK minimizedAffinity 1.79835594
REMARK minimizedRMSD -1
REMARK  0 active torsions:
REMARK  status: ('A' for Active; 'I' for Inactive)
ROOT
ATOM      1  C   UNL d   1       2.918  -0.897   1.735  0.00  0.00     0.172 C 
ATOM      2  N   UNL d   1       1.609  -0.336   1.498  0.00  0.00    -0.070 N 
ATOM      3  C1  UNL d   1       0.436  -0.790   2.040  0.00  0.00    -0.004 A 
ATOM      4  C2  UNL d   1      -0.583   0.010   1.570  0.00  0.00    -0.047 A 
ATOM      5  C3  UNL d   1      -0.003   0.978   0.716  0.00  0.00    -0.047 A 
ATOM      6  C4  UNL d   1       1.355   0.741   0.690  0.00  0.00    -0.004 A 
ENDROOT
TORSDOF 0
ENDMDL
