MODEL 1
REMARK minimizedAffinity -1.24262702
REMARK minimizedRMSD -1
REMARK  0 active torsions:
REMARK  status: ('A' for Active; 'I' for Inactive)
ROOT
ATOM      1  C   UNL d   1      -0.454   0.514   2.208  0.00  0.00     0.172 C 
ATOM      2  N   UNL d   1      -1.139  -0.755   2.291  0.00  0.00    -0.070 N 
ATOM      3  C1  UNL d   1      -1.110  -1.741   1.341  0.00  0.00    -0.004 A 
ATOM      4  C2  UNL d   1      -1.887  -2.785   1.793  0.00  0.00    -0.047 A 
ATOM      5  C3  UNL d   1      -2.402  -2.414   3.058  0.00  0.00    -0.047 A 
ATOM      6  C4  UNL d   1      -1.923  -1.152   3.341  0.00  0.00    -0.004 A 
ENDROOT
TORSDOF 0
ENDMDL
