MODEL 1
REMARK minimizedAffinity 2.35444856
REMARK minimizedRMSD -1
REMARK  0 active torsions:
REMARK  status: ('A' for Active; 'I' for Inactive)
ROOT
ATOM      1  C   UNL d   1      -5.257   2.836   5.587  0.00  0.00     0.172 C 
ATOM      2  N   UNL d   1      -5.275   1.450   5.183  0.00  0.00    -0.070 N 
ATOM      3  C1  UNL d   1      -5.609   0.986   3.938  0.00  0.00    -0.004 A 
ATOM      4  C2  UNL d   1      -5.503  -0.388   3.958  0.00  0.00    -0.047 A 
ATOM      5  C3  UNL d   1      -5.093  -0.763   5.260  0.00  0.00    -0.047 A 
ATOM      6  C4  UNL d   1      -4.960   0.395   5.997  0.00  0.00    -0.004 A 
ENDROOT
TORSDOF 0
ENDMDL
