MODEL 1
REMARK minimizedAffinity -0.963155508
REMARK minimizedRMSD -1
REMARK  0 active torsions:
REMARK  status: ('A' for Active; 'I' for Inactive)
ROOT
ATOM      1  C   UNL d   1      -3.603   1.370   3.253  0.00  0.00     0.172 C 
ATOM      2  N   UNL d   1      -2.394   0.649   2.929  0.00  0.00    -0.070 N 
ATOM      3  C1  UNL d   1      -1.216   1.212   2.514  0.00  0.00    -0.004 A 
ATOM      4  C2  UNL d   1      -0.311   0.193   2.310  0.00  0.00    -0.047 A 
ATOM      5  C3  UNL d   1      -0.968  -1.024   2.610  0.00  0.00    -0.047 A 
ATOM      6  C4  UNL d   1      -2.256  -0.712   2.990  0.00  0.00    -0.004 A 
ENDROOT
TORSDOF 0
ENDMDL
