MODEL 1
REMARK minimizedAffinity -2.12082458
REMARK minimizedRMSD -1
REMARK  0 active torsions:
REMARK  status: ('A' for Active; 'I' for Inactive)
ROOT
ATOM      1  C   UNL d   1      -5.264  -1.009   5.998  0.00  0.00     0.172 C 
ATOM      2  N   UNL d   1      -5.301   0.314   5.420  0.00  0.00    -0.070 N 
ATOM      3  C1  UNL d   1      -5.857   1.423   6.000  0.00  0.00    -0.004 A 
ATOM      4  C2  UNL d   1      -5.686   2.482   5.135  0.00  0.00    -0.047 A 
ATOM      5  C3  UNL d   1      -5.004   1.992   3.995  0.00  0.00    -0.047 A 
ATOM      6  C4  UNL d   1      -4.778   0.647   4.199  0.00  0.00    -0.004 A 
ENDROOT
TORSDOF 0
ENDMDL
