MODEL 1
REMARK minimizedAffinity 0.0515792407
REMARK minimizedRMSD -1
REMARK  0 active torsions:
REMARK  status: ('A' for Active; 'I' for Inactive)
ROOT
ATOM      1  C   UNL d   1      -4.682   1.563   3.975  0.00  0.00     0.172 C 
ATOM      2  N   UNL d   1      -3.364   1.016   3.760  0.00  0.00    -0.070 N 
ATOM      3  C1  UNL d   1      -2.339   1.637   3.097  0.00  0.00    -0.004 A 
ATOM      4  C2  UNL d   1      -1.253   0.789   3.109  0.00  0.00    -0.047 A 
ATOM      5  C3  UNL d   1      -1.638  -0.382   3.803  0.00  0.00    -0.047 A 
ATOM      6  C4  UNL d   1      -2.949  -0.215   4.195  0.00  0.00    -0.004 A 
ENDROOT
TORSDOF 0
ENDMDL
