MODEL 1
REMARK minimizedAffinity -1.06138599
REMARK minimizedRMSD -1
REMARK  0 active torsions:
REMARK  status: ('A' for Active; 'I' for Inactive)
ROOT
ATOM      1  C   UNL d   1      -2.591  -6.000   2.617  0.00  0.00     0.172 C 
ATOM      2  N   UNL d   1      -1.383  -5.363   3.089  0.00  0.00    -0.070 N 
ATOM      3  C1  UNL d   1      -0.322  -5.999   3.675  0.00  0.00    -0.004 A 
ATOM      4  C2  UNL d   1       0.626  -5.046   3.979  0.00  0.00    -0.047 A 
ATOM      5  C3  UNL d   1       0.116  -3.794   3.562  0.00  0.00    -0.047 A 
ATOM      6  C4  UNL d   1      -1.129  -4.019   3.014  0.00  0.00    -0.004 A 
ENDROOT
TORSDOF 0
ENDMDL
