MODEL 1
REMARK minimizedAffinity 2.92764592
REMARK minimizedRMSD -1
REMARK  0 active torsions:
REMARK  status: ('A' for Active; 'I' for Inactive)
ROOT
ATOM      1  C   UNL d   1       0.485  -2.238  -4.472  0.00  0.00     0.172 C 
ATOM      2  N   UNL d   1      -0.846  -2.143  -3.920  0.00  0.00    -0.070 N 
ATOM      3  C1  UNL d   1      -1.821  -3.100  -4.018  0.00  0.00    -0.004 A 
ATOM      4  C2  UNL d   1      -2.940  -2.632  -3.364  0.00  0.00    -0.047 A 
ATOM      5  C3  UNL d   1      -2.627  -1.348  -2.856  0.00  0.00    -0.047 A 
ATOM      6  C4  UNL d   1      -1.325  -1.071  -3.215  0.00  0.00    -0.004 A 
ENDROOT
TORSDOF 0
ENDMDL
