MODEL 1
REMARK minimizedAffinity -3.71756005
REMARK minimizedRMSD -1
REMARK  1 active torsions:
REMARK  status: ('A' for Active; 'I' for Inactive)
REMARK    1  A    between atoms: N_2  and  C1_3 
ROOT
ATOM      1  C1  UNL d   1      -0.279  -0.099   0.202  0.00  0.00     0.143 A 
ATOM      2  C2  UNL d   1      -0.759  -1.399   0.007  0.00  0.00    -0.057 A 
ATOM      3  C3  UNL d   1      -2.050  -1.765   0.407  0.00  0.00     0.033 A 
ATOM      4  C4  UNL d   1      -2.877  -0.840   1.037  0.00  0.00    -0.042 A 
ATOM      5  C5  UNL d   1      -2.412   0.450   1.263  0.00  0.00     0.033 A 
ATOM      6  C6  UNL d   1      -1.124   0.811   0.855  0.00  0.00    -0.057 A 
ENDROOT
BRANCH   1   7
ATOM      7  N   UNL d   1       1.029   0.298  -0.084  0.00  0.00    -0.732 N 
ATOM      8  C   UNL d   1       2.154  -0.506   0.344  0.00  0.00     0.284 C 
ATOM      9  H3  UNL d   1       1.123   0.678  -1.024  0.00  0.00     0.395 HD
ENDBRANCH   1   7
TORSDOF 1
ENDMDL
