MODEL 1
REMARK minimizedAffinity -3.30576134
REMARK minimizedRMSD -1
REMARK  1 active torsions:
REMARK  status: ('A' for Active; 'I' for Inactive)
REMARK    1  A    between atoms: N_2  and  C1_3 
ROOT
ATOM      1  C1  UNL d   1      -0.041   0.048   0.060  0.00  0.00     0.143 A 
ATOM      2  C2  UNL d   1       0.752  -0.992   0.557  0.00  0.00    -0.057 A 
ATOM      3  C3  UNL d   1       0.178  -2.167   1.057  0.00  0.00     0.033 A 
ATOM      4  C4  UNL d   1      -1.205  -2.312   1.095  0.00  0.00    -0.042 A 
ATOM      5  C5  UNL d   1      -2.013  -1.281   0.629  0.00  0.00     0.033 A 
ATOM      6  C6  UNL d   1      -1.434  -0.113   0.125  0.00  0.00    -0.057 A 
ENDROOT
BRANCH   1   7
ATOM      7  N   UNL d   1       0.466   1.280  -0.359  0.00  0.00    -0.732 N 
ATOM      8  C   UNL d   1       0.719   1.535  -1.761  0.00  0.00     0.284 C 
ATOM      9  H3  UNL d   1       0.044   2.062   0.136  0.00  0.00     0.395 HD
ENDBRANCH   1   7
TORSDOF 1
ENDMDL
