MODEL 1
REMARK minimizedAffinity -5.41335726
REMARK minimizedRMSD -1
REMARK  1 active torsions:
REMARK  status: ('A' for Active; 'I' for Inactive)
REMARK    1  A    between atoms: N_2  and  C1_3 
ROOT
ATOM      1  C1  UNL d   1      -1.021  -0.260   0.454  0.00  0.00     0.143 A 
ATOM      2  C2  UNL d   1      -1.004  -1.656   0.550  0.00  0.00    -0.057 A 
ATOM      3  C3  UNL d   1      -1.889  -2.336   1.396  0.00  0.00     0.033 A 
ATOM      4  C4  UNL d   1      -2.789  -1.627   2.185  0.00  0.00    -0.042 A 
ATOM      5  C5  UNL d   1      -2.806  -0.238   2.124  0.00  0.00     0.033 A 
ATOM      6  C6  UNL d   1      -1.925   0.434   1.272  0.00  0.00    -0.057 A 
ENDROOT
BRANCH   1   7
ATOM      7  N   UNL d   1      -0.101   0.479  -0.295  0.00  0.00    -0.732 N 
ATOM      8  C   UNL d   1       0.622   1.580   0.305  0.00  0.00     0.284 C 
ATOM      9  H3  UNL d   1       0.465  -0.108  -0.903  0.00  0.00     0.395 HD
ENDBRANCH   1   7
TORSDOF 1
ENDMDL
