MODEL 1
REMARK minimizedAffinity -4.40070581
REMARK minimizedRMSD -1
REMARK  1 active torsions:
REMARK  status: ('A' for Active; 'I' for Inactive)
REMARK    1  A    between atoms: N_2  and  C1_3 
ROOT
ATOM      1  C1  UNL d   1      -1.260  -1.102   1.030  0.00  0.00     0.143 A 
ATOM      2  C2  UNL d   1      -1.680   0.108   1.592  0.00  0.00    -0.057 A 
ATOM      3  C3  UNL d   1      -1.293   1.336   1.042  0.00  0.00     0.033 A 
ATOM      4  C4  UNL d   1      -0.453   1.376  -0.066  0.00  0.00    -0.042 A 
ATOM      5  C5  UNL d   1      -0.003   0.185  -0.626  0.00  0.00     0.033 A 
ATOM      6  C6  UNL d   1      -0.399  -1.038  -0.076  0.00  0.00    -0.057 A 
ENDROOT
BRANCH   1   7
ATOM      7  N   UNL d   1      -1.530  -2.354   1.589  0.00  0.00    -0.732 N 
ATOM      8  C   UNL d   1      -0.603  -2.961   2.520  0.00  0.00     0.284 C 
ATOM      9  H3  UNL d   1      -2.509  -2.462   1.846  0.00  0.00     0.395 HD
ENDBRANCH   1   7
TORSDOF 1
ENDMDL
