MODEL 1
REMARK minimizedAffinity -4.31134367
REMARK minimizedRMSD -1
REMARK  1 active torsions:
REMARK  status: ('A' for Active; 'I' for Inactive)
REMARK    1  A    between atoms: N_2  and  C1_3 
ROOT
ATOM      1  C1  UNL d   1       0.032  -0.026  -0.248  0.00  0.00     0.143 A 
ATOM      2  C2  UNL d   1       0.914  -1.051   0.110  0.00  0.00    -0.057 A 
ATOM      3  C3  UNL d   1       0.447  -2.262   0.635  0.00  0.00     0.033 A 
ATOM      4  C4  UNL d   1      -0.915  -2.459   0.839  0.00  0.00    -0.042 A 
ATOM      5  C5  UNL d   1      -1.809  -1.445   0.515  0.00  0.00     0.033 A 
ATOM      6  C6  UNL d   1      -1.336  -0.240  -0.015  0.00  0.00    -0.057 A 
ENDROOT
BRANCH   1   7
ATOM      7  N   UNL d   1       0.441   1.237  -0.682  0.00  0.00    -0.732 N 
ATOM      8  C   UNL d   1       0.495   1.549  -2.094  0.00  0.00     0.284 C 
ATOM      9  H3  UNL d   1       0.067   1.986  -0.104  0.00  0.00     0.395 HD
ENDBRANCH   1   7
TORSDOF 1
ENDMDL
