MODEL 1
REMARK minimizedAffinity 1.83202589
REMARK minimizedRMSD -1
REMARK  1 active torsions:
REMARK  status: ('A' for Active; 'I' for Inactive)
REMARK    1  A    between atoms: N_2  and  C1_3 
ROOT
ATOM      1  C1  UNL d   1      -0.968  -2.141   2.597  0.00  0.00     0.143 A 
ATOM      2  C2  UNL d   1       0.090  -3.056   2.558  0.00  0.00    -0.057 A 
ATOM      3  C3  UNL d   1       0.710  -3.499   3.733  0.00  0.00     0.033 A 
ATOM      4  C4  UNL d   1       0.301  -3.010   4.969  0.00  0.00    -0.042 A 
ATOM      5  C5  UNL d   1      -0.732  -2.081   5.030  0.00  0.00     0.033 A 
ATOM      6  C6  UNL d   1      -1.352  -1.648   3.853  0.00  0.00    -0.057 A 
ENDROOT
BRANCH   1   7
ATOM      7  N   UNL d   1      -1.560  -1.589   1.458  0.00  0.00    -0.732 N 
ATOM      8  C   UNL d   1      -1.291  -0.218   1.080  0.00  0.00     0.284 C 
ATOM      9  H3  UNL d   1      -1.581  -2.239   0.676  0.00  0.00     0.395 HD
ENDBRANCH   1   7
TORSDOF 1
ENDMDL
