MODEL 1
REMARK minimizedAffinity -1.08372271
REMARK minimizedRMSD -1
REMARK  1 active torsions:
REMARK  status: ('A' for Active; 'I' for Inactive)
REMARK    1  A    between atoms: N_2  and  C1_3 
ROOT
ATOM      1  C1  UNL d   1      -0.286   0.982  -0.156  0.00  0.00     0.143 A 
ATOM      2  C2  UNL d   1      -0.542  -0.361  -0.452  0.00  0.00    -0.057 A 
ATOM      3  C3  UNL d   1      -1.764  -0.958  -0.116  0.00  0.00     0.033 A 
ATOM      4  C4  UNL d   1      -2.742  -0.227   0.550  0.00  0.00    -0.042 A 
ATOM      5  C5  UNL d   1      -2.499   1.102   0.876  0.00  0.00     0.033 A 
ATOM      6  C6  UNL d   1      -1.280   1.694   0.533  0.00  0.00    -0.057 A 
ENDROOT
BRANCH   1   7
ATOM      7  N   UNL d   1       0.945   1.606  -0.375  0.00  0.00    -0.732 N 
ATOM      8  C   UNL d   1       1.238   2.233  -1.645  0.00  0.00     0.284 C 
ATOM      9  H3  UNL d   1       1.261   2.136   0.434  0.00  0.00     0.395 HD
ENDBRANCH   1   7
TORSDOF 1
ENDMDL
