MODEL 1
REMARK minimizedAffinity -3.68452597
REMARK minimizedRMSD -1
REMARK  1 active torsions:
REMARK  status: ('A' for Active; 'I' for Inactive)
REMARK    1  A    between atoms: N_2  and  C1_3 
ROOT
ATOM      1  C1  UNL d   1      -0.096  -0.560   0.036  0.00  0.00     0.143 A 
ATOM      2  C2  UNL d   1      -1.473  -0.769  -0.091  0.00  0.00    -0.057 A 
ATOM      3  C3  UNL d   1      -2.131  -1.752   0.657  0.00  0.00     0.033 A 
ATOM      4  C4  UNL d   1      -1.415  -2.566   1.529  0.00  0.00    -0.042 A 
ATOM      5  C5  UNL d   1      -0.041  -2.394   1.653  0.00  0.00     0.033 A 
ATOM      6  C6  UNL d   1       0.609  -1.405   0.908  0.00  0.00    -0.057 A 
ENDROOT
BRANCH   1   7
ATOM      7  N   UNL d   1       0.632   0.335  -0.752  0.00  0.00    -0.732 N 
ATOM      8  C   UNL d   1       0.210   0.639  -2.103  0.00  0.00     0.284 C 
ATOM      9  H3  UNL d   1       0.954   1.144  -0.226  0.00  0.00     0.395 HD
ENDBRANCH   1   7
TORSDOF 1
ENDMDL
