MODEL 1
REMARK minimizedAffinity -3.23548555
REMARK minimizedRMSD -1
REMARK  1 active torsions:
REMARK  status: ('A' for Active; 'I' for Inactive)
REMARK    1  A    between atoms: N_2  and  C1_3 
ROOT
ATOM      1  C1  UNL d   1       0.528   0.391  -0.150  0.00  0.00     0.143 A 
ATOM      2  C2  UNL d   1       1.299  -0.697   0.274  0.00  0.00    -0.057 A 
ATOM      3  C3  UNL d   1       0.702  -1.848   0.802  0.00  0.00     0.033 A 
ATOM      4  C4  UNL d   1      -0.680  -1.919   0.945  0.00  0.00    -0.042 A 
ATOM      5  C5  UNL d   1      -1.464  -0.840   0.554  0.00  0.00     0.033 A 
ATOM      6  C6  UNL d   1      -0.863   0.304   0.020  0.00  0.00    -0.057 A 
ENDROOT
BRANCH   1   7
ATOM      7  N   UNL d   1       1.067   1.602  -0.592  0.00  0.00    -0.732 N 
ATOM      8  C   UNL d   1       0.824   2.068  -1.940  0.00  0.00     0.284 C 
ATOM      9  H3  UNL d   1       1.018   2.331   0.116  0.00  0.00     0.395 HD
ENDBRANCH   1   7
TORSDOF 1
ENDMDL
