MODEL 1
REMARK minimizedAffinity -2.22155428
REMARK minimizedRMSD -1
REMARK  1 active torsions:
REMARK  status: ('A' for Active; 'I' for Inactive)
REMARK    1  A    between atoms: N_2  and  C1_3 
ROOT
ATOM      1  C1  UNL d   1       0.473  -0.641   0.713  0.00  0.00     0.143 A 
ATOM      2  C2  UNL d   1      -0.666  -0.512  -0.089  0.00  0.00    -0.057 A 
ATOM      3  C3  UNL d   1      -1.793  -1.317   0.114  0.00  0.00     0.033 A 
ATOM      4  C4  UNL d   1      -1.789  -2.290   1.109  0.00  0.00    -0.042 A 
ATOM      5  C5  UNL d   1      -0.659  -2.453   1.902  0.00  0.00     0.033 A 
ATOM      6  C6  UNL d   1       0.461  -1.641   1.698  0.00  0.00    -0.057 A 
ENDROOT
BRANCH   1   7
ATOM      7  N   UNL d   1       1.661   0.062   0.497  0.00  0.00    -0.732 N 
ATOM      8  C   UNL d   1       2.939  -0.528   0.832  0.00  0.00     0.284 C 
ATOM      9  H3  UNL d   1       1.656   0.570  -0.385  0.00  0.00     0.395 HD
ENDBRANCH   1   7
TORSDOF 1
ENDMDL
