MODEL 1
REMARK minimizedAffinity -4.25688696
REMARK minimizedRMSD -1
REMARK  1 active torsions:
REMARK  status: ('A' for Active; 'I' for Inactive)
REMARK    1  A    between atoms: N_2  and  C1_3 
ROOT
ATOM      1  C1  UNL d   1      -1.081  -1.123   0.363  0.00  0.00     0.143 A 
ATOM      2  C2  UNL d   1      -1.541   0.053   0.964  0.00  0.00    -0.057 A 
ATOM      3  C3  UNL d   1      -0.826   1.252   0.856  0.00  0.00     0.033 A 
ATOM      4  C4  UNL d   1       0.382   1.289   0.167  0.00  0.00    -0.042 A 
ATOM      5  C5  UNL d   1       0.871   0.126  -0.418  0.00  0.00     0.033 A 
ATOM      6  C6  UNL d   1       0.148  -1.067  -0.313  0.00  0.00    -0.057 A 
ENDROOT
BRANCH   1   7
ATOM      7  N   UNL d   1      -1.697  -2.368   0.517  0.00  0.00    -0.732 N 
ATOM      8  C   UNL d   1      -1.523  -3.130   1.735  0.00  0.00     0.284 C 
ATOM      9  H3  UNL d   1      -2.646  -2.380   0.150  0.00  0.00     0.395 HD
ENDBRANCH   1   7
TORSDOF 1
ENDMDL
