MODEL 1
REMARK minimizedAffinity -3.10012197
REMARK minimizedRMSD -1
REMARK  1 active torsions:
REMARK  status: ('A' for Active; 'I' for Inactive)
REMARK    1  A    between atoms: N_2  and  C1_3 
ROOT
ATOM      1  C1  UNL d   1      -0.032   0.325  -0.112  0.00  0.00     0.143 A 
ATOM      2  C2  UNL d   1      -0.995   0.360   0.903  0.00  0.00    -0.057 A 
ATOM      3  C3  UNL d   1      -1.323  -0.790   1.632  0.00  0.00     0.033 A 
ATOM      4  C4  UNL d   1      -0.711  -2.005   1.339  0.00  0.00    -0.042 A 
ATOM      5  C5  UNL d   1       0.230  -2.067   0.318  0.00  0.00     0.033 A 
ATOM      6  C6  UNL d   1       0.558  -0.915  -0.402  0.00  0.00    -0.057 A 
ENDROOT
BRANCH   1   7
ATOM      7  N   UNL d   1       0.266   1.412  -0.938  0.00  0.00    -0.732 N 
ATOM      8  C   UNL d   1       1.640   1.770  -1.217  0.00  0.00     0.284 C 
ATOM      9  H3  UNL d   1      -0.350   1.466  -1.746  0.00  0.00     0.395 HD
ENDBRANCH   1   7
TORSDOF 1
ENDMDL
