MODEL 1
REMARK minimizedAffinity -2.35241508
REMARK minimizedRMSD -1
REMARK  1 active torsions:
REMARK  status: ('A' for Active; 'I' for Inactive)
REMARK    1  A    between atoms: N_2  and  C1_3 
ROOT
ATOM      1  C1  UNL d   1       0.491   0.169   0.154  0.00  0.00     0.143 A 
ATOM      2  C2  UNL d   1      -0.819  -0.132   0.544  0.00  0.00    -0.057 A 
ATOM      3  C3  UNL d   1      -1.170  -1.417   0.976  0.00  0.00     0.033 A 
ATOM      4  C4  UNL d   1      -0.221  -2.434   0.999  0.00  0.00    -0.042 A 
ATOM      5  C5  UNL d   1       1.081  -2.163   0.593  0.00  0.00     0.033 A 
ATOM      6  C6  UNL d   1       1.427  -0.877   0.168  0.00  0.00    -0.057 A 
ENDROOT
BRANCH   1   7
ATOM      7  N   UNL d   1       0.880   1.400  -0.379  0.00  0.00    -0.732 N 
ATOM      8  C   UNL d   1       1.134   1.543  -1.796  0.00  0.00     0.284 C 
ATOM      9  H3  UNL d   1       0.372   2.180   0.033  0.00  0.00     0.395 HD
ENDBRANCH   1   7
TORSDOF 1
ENDMDL
