MODEL 1
REMARK minimizedAffinity 1.46284485
REMARK minimizedRMSD -1
REMARK  0 active torsions:
REMARK  status: ('A' for Active; 'I' for Inactive)
ROOT
ATOM      1  C   UNL d   1      -1.840   1.537   1.600  0.00  0.00     0.124 A 
ATOM      2  C1  UNL d   1      -2.740   0.550   1.221  0.00  0.00     0.062 A 
ATOM      3  C2  UNL d   1      -3.114  -0.440   2.125  0.00  0.00     0.162 A 
ATOM      4  C3  UNL d   1      -2.589  -0.448   3.418  0.00  0.00    -0.034 A 
ATOM      5  C4  UNL d   1      -1.683   0.547   3.790  0.00  0.00     0.162 A 
ATOM      6  C5  UNL d   1      -1.313   1.534   2.883  0.00  0.00     0.062 A 
ATOM      7  F   UNL d   1      -0.443   2.487   3.250  0.00  0.00    -0.097 F 
ATOM      8  F1  UNL d   1      -1.159   0.569   5.025  0.00  0.00    -0.096 F 
ATOM      9  I   UNL d   1      -3.145  -1.927   4.772  0.00  0.00    -0.060 I 
ATOM     10  F2  UNL d   1      -3.986  -1.381   1.733  0.00  0.00    -0.096 F 
ATOM     11  F3  UNL d   1      -3.251   0.550  -0.018  0.00  0.00    -0.097 F 
ATOM     12  F4  UNL d   1      -1.481   2.488   0.727  0.00  0.00    -0.092 F 
ENDROOT
TORSDOF 0
ENDMDL
