MODEL 1
REMARK minimizedAffinity -3.57628083
REMARK minimizedRMSD -1
REMARK  0 active torsions:
REMARK  status: ('A' for Active; 'I' for Inactive)
ROOT
ATOM      1  C   UNL d   1      -3.501  -0.201   3.856  0.00  0.00     0.124 A 
ATOM      2  C1  UNL d   1      -2.687   0.918   3.968  0.00  0.00     0.062 A 
ATOM      3  C2  UNL d   1      -1.907   1.326   2.890  0.00  0.00     0.162 A 
ATOM      4  C3  UNL d   1      -1.939   0.617   1.689  0.00  0.00    -0.034 A 
ATOM      5  C4  UNL d   1      -2.760  -0.508   1.585  0.00  0.00     0.162 A 
ATOM      6  C5  UNL d   1      -3.537  -0.912   2.665  0.00  0.00     0.062 A 
ATOM      7  F   UNL d   1      -4.323  -1.993   2.556  0.00  0.00    -0.097 F 
ATOM      8  F1  UNL d   1      -2.814  -1.213   0.445  0.00  0.00    -0.096 F 
ATOM      9  I   UNL d   1      -0.775   1.224   0.075  0.00  0.00    -0.060 I 
ATOM     10  F2  UNL d   1      -1.130   2.411   3.026  0.00  0.00    -0.096 F 
ATOM     11  F3  UNL d   1      -2.650   1.606   5.118  0.00  0.00    -0.097 F 
ATOM     12  F4  UNL d   1      -4.250  -0.592   4.896  0.00  0.00    -0.092 F 
ENDROOT
TORSDOF 0
ENDMDL
