MODEL 1
REMARK minimizedAffinity 2.15523124
REMARK minimizedRMSD -1
REMARK  0 active torsions:
REMARK  status: ('A' for Active; 'I' for Inactive)
ROOT
ATOM      1  C   UNL d   1      -2.576   0.845   3.525  0.00  0.00     0.124 A 
ATOM      2  C1  UNL d   1      -2.633   0.019   2.411  0.00  0.00     0.062 A 
ATOM      3  C2  UNL d   1      -3.349  -1.173   2.459  0.00  0.00     0.162 A 
ATOM      4  C3  UNL d   1      -4.017  -1.546   3.626  0.00  0.00    -0.034 A 
ATOM      5  C4  UNL d   1      -3.954  -0.710   4.743  0.00  0.00     0.162 A 
ATOM      6  C5  UNL d   1      -3.237   0.480   4.689  0.00  0.00     0.062 A 
ATOM      7  F   UNL d   1      -3.183   1.277   5.767  0.00  0.00    -0.097 F 
ATOM      8  F1  UNL d   1      -4.584  -1.039   5.880  0.00  0.00    -0.096 F 
ATOM      9  I   UNL d   1      -5.090  -3.328   3.702  0.00  0.00    -0.060 I 
ATOM     10  F2  UNL d   1      -3.387  -1.951   1.368  0.00  0.00    -0.096 F 
ATOM     11  F3  UNL d   1      -1.995   0.370   1.285  0.00  0.00    -0.097 F 
ATOM     12  F4  UNL d   1      -1.885   1.991   3.476  0.00  0.00    -0.092 F 
ENDROOT
TORSDOF 0
ENDMDL
