MODEL 1
REMARK minimizedAffinity 1.57059932
REMARK minimizedRMSD -1
REMARK  0 active torsions:
REMARK  status: ('A' for Active; 'I' for Inactive)
ROOT
ATOM      1  C   UNL d   1       1.523   1.625  -1.825  0.00  0.00     0.124 A 
ATOM      2  C1  UNL d   1       0.237   1.589  -1.304  0.00  0.00     0.062 A 
ATOM      3  C2  UNL d   1      -0.252   0.421  -0.726  0.00  0.00     0.162 A 
ATOM      4  C3  UNL d   1       0.546  -0.721  -0.665  0.00  0.00    -0.034 A 
ATOM      5  C4  UNL d   1       1.838  -0.678  -1.192  0.00  0.00     0.162 A 
ATOM      6  C5  UNL d   1       2.322   0.492  -1.768  0.00  0.00     0.062 A 
ATOM      7  F   UNL d   1       3.565   0.524  -2.271  0.00  0.00    -0.097 F 
ATOM      8  F1  UNL d   1       2.632  -1.758  -1.150  0.00  0.00    -0.096 F 
ATOM      9  I   UNL d   1      -0.181  -2.470   0.198  0.00  0.00    -0.060 I 
ATOM     10  F2  UNL d   1      -1.498   0.415  -0.231  0.00  0.00    -0.096 F 
ATOM     11  F3  UNL d   1      -0.537   2.682  -1.358  0.00  0.00    -0.097 F 
ATOM     12  F4  UNL d   1       1.991   2.750  -2.381  0.00  0.00    -0.092 F 
ENDROOT
TORSDOF 0
ENDMDL
