MODEL 1
REMARK minimizedAffinity 0.501724005
REMARK minimizedRMSD -1
REMARK  0 active torsions:
REMARK  status: ('A' for Active; 'I' for Inactive)
ROOT
ATOM      1  C   UNL d   1      -2.575  -0.212   3.474  0.00  0.00     0.124 A 
ATOM      2  C1  UNL d   1      -1.711   0.869   3.581  0.00  0.00     0.062 A 
ATOM      3  C2  UNL d   1      -1.009   1.317   2.466  0.00  0.00     0.162 A 
ATOM      4  C3  UNL d   1      -1.168   0.684   1.233  0.00  0.00    -0.034 A 
ATOM      5  C4  UNL d   1      -2.038  -0.404   1.134  0.00  0.00     0.162 A 
ATOM      6  C5  UNL d   1      -2.738  -0.847   2.251  0.00  0.00     0.062 A 
ATOM      7  F   UNL d   1      -3.572  -1.892   2.145  0.00  0.00    -0.097 F 
ATOM      8  F1  UNL d   1      -2.214  -1.035  -0.037  0.00  0.00    -0.096 F 
ATOM      9  I   UNL d   1      -0.119   1.350  -0.436  0.00  0.00    -0.060 I 
ATOM     10  F2  UNL d   1      -0.181   2.364   2.599  0.00  0.00    -0.096 F 
ATOM     11  F3  UNL d   1      -1.552   1.484   4.762  0.00  0.00    -0.097 F 
ATOM     12  F4  UNL d   1      -3.249  -0.642   4.549  0.00  0.00    -0.092 F 
ENDROOT
TORSDOF 0
ENDMDL
