MODEL 1
REMARK minimizedAffinity 13.7313709
REMARK minimizedRMSD -1
REMARK  0 active torsions:
REMARK  status: ('A' for Active; 'I' for Inactive)
ROOT
ATOM      1  C   UNL d   1      -1.771  -2.245  -1.142  0.00  0.00     0.124 A 
ATOM      2  C1  UNL d   1      -0.604  -2.761  -1.690  0.00  0.00     0.062 A 
ATOM      3  C2  UNL d   1       0.552  -1.987  -1.729  0.00  0.00     0.162 A 
ATOM      4  C3  UNL d   1       0.548  -0.689  -1.218  0.00  0.00    -0.034 A 
ATOM      5  C4  UNL d   1      -0.630  -0.177  -0.670  0.00  0.00     0.162 A 
ATOM      6  C5  UNL d   1      -1.783  -0.954  -0.633  0.00  0.00     0.062 A 
ATOM      7  F   UNL d   1      -2.909  -0.454  -0.104  0.00  0.00    -0.097 F 
ATOM      8  F1  UNL d   1      -0.669   1.067  -0.170  0.00  0.00    -0.096 F 
ATOM      9  I   UNL d   1       2.275   0.471  -1.274  0.00  0.00    -0.060 I 
ATOM     10  F2  UNL d   1       1.665  -2.511  -2.263  0.00  0.00    -0.096 F 
ATOM     11  F3  UNL d   1      -0.591  -4.007  -2.183  0.00  0.00    -0.097 F 
ATOM     12  F4  UNL d   1      -2.883  -2.991  -1.107  0.00  0.00    -0.092 F 
ENDROOT
TORSDOF 0
ENDMDL
