MODEL 1
REMARK minimizedAffinity 0.548504531
REMARK minimizedRMSD -1
REMARK  0 active torsions:
REMARK  status: ('A' for Active; 'I' for Inactive)
ROOT
ATOM      1  C   UNL d   1       1.307  -1.692  -1.378  0.00  0.00     0.124 A 
ATOM      2  C1  UNL d   1       1.960  -0.467  -1.357  0.00  0.00     0.062 A 
ATOM      3  C2  UNL d   1       1.339   0.647  -0.800  0.00  0.00     0.162 A 
ATOM      4  C3  UNL d   1       0.057   0.542  -0.259  0.00  0.00    -0.034 A 
ATOM      5  C4  UNL d   1      -0.593  -0.693  -0.285  0.00  0.00     0.162 A 
ATOM      6  C5  UNL d   1       0.032  -1.804  -0.842  0.00  0.00     0.062 A 
ATOM      7  F   UNL d   1      -0.600  -2.986  -0.862  0.00  0.00    -0.097 F 
ATOM      8  F1  UNL d   1      -1.825  -0.830   0.227  0.00  0.00    -0.096 F 
ATOM      9  I   UNL d   1      -0.875   2.206   0.575  0.00  0.00    -0.060 I 
ATOM     10  F2  UNL d   1       1.993   1.819  -0.793  0.00  0.00    -0.096 F 
ATOM     11  F3  UNL d   1       3.191  -0.356  -1.875  0.00  0.00    -0.097 F 
ATOM     12  F4  UNL d   1       1.907  -2.762  -1.915  0.00  0.00    -0.092 F 
ENDROOT
TORSDOF 0
ENDMDL
