MODEL 1
REMARK minimizedAffinity -0.440588087
REMARK minimizedRMSD -1
REMARK  0 active torsions:
REMARK  status: ('A' for Active; 'I' for Inactive)
ROOT
ATOM      1  C   UNL d   1       1.310  -1.697  -1.028  0.00  0.00     0.124 A 
ATOM      2  C1  UNL d   1       2.247  -0.678  -0.933  0.00  0.00     0.062 A 
ATOM      3  C2  UNL d   1       1.850   0.608  -0.579  0.00  0.00     0.162 A 
ATOM      4  C3  UNL d   1       0.507   0.882  -0.317  0.00  0.00    -0.034 A 
ATOM      5  C4  UNL d   1      -0.430  -0.148  -0.416  0.00  0.00     0.162 A 
ATOM      6  C5  UNL d   1      -0.027  -1.431  -0.770  0.00  0.00     0.062 A 
ATOM      7  F   UNL d   1      -0.935  -2.415  -0.862  0.00  0.00    -0.097 F 
ATOM      8  F1  UNL d   1      -1.729   0.081  -0.171  0.00  0.00    -0.096 F 
ATOM      9  I   UNL d   1      -0.091   2.804   0.213  0.00  0.00    -0.060 I 
ATOM     10  F2  UNL d   1       2.777   1.573  -0.494  0.00  0.00    -0.096 F 
ATOM     11  F3  UNL d   1       3.540  -0.933  -1.183  0.00  0.00    -0.097 F 
ATOM     12  F4  UNL d   1       1.695  -2.934  -1.370  0.00  0.00    -0.092 F 
ENDROOT
TORSDOF 0
ENDMDL
