MODEL 1
REMARK minimizedAffinity -0.467427999
REMARK minimizedRMSD -1
REMARK  0 active torsions:
REMARK  status: ('A' for Active; 'I' for Inactive)
ROOT
ATOM      1  C   UNL d   1       0.038   0.474  -1.080  0.00  0.00     0.124 A 
ATOM      2  C1  UNL d   1       0.345   1.559  -0.271  0.00  0.00     0.062 A 
ATOM      3  C2  UNL d   1      -0.191   1.651   1.010  0.00  0.00     0.162 A 
ATOM      4  C3  UNL d   1      -1.040   0.655   1.491  0.00  0.00    -0.034 A 
ATOM      5  C4  UNL d   1      -1.346  -0.433   0.671  0.00  0.00     0.162 A 
ATOM      6  C5  UNL d   1      -0.807  -0.521  -0.608  0.00  0.00     0.062 A 
ATOM      7  F   UNL d   1      -1.105  -1.570  -1.388  0.00  0.00    -0.097 F 
ATOM      8  F1  UNL d   1      -2.159  -1.409   1.102  0.00  0.00    -0.096 F 
ATOM      9  I   UNL d   1      -1.845   0.789   3.406  0.00  0.00    -0.060 I 
ATOM     10  F2  UNL d   1       0.123   2.711   1.770  0.00  0.00    -0.096 F 
ATOM     11  F3  UNL d   1       1.161   2.522  -0.725  0.00  0.00    -0.097 F 
ATOM     12  F4  UNL d   1       0.555   0.388  -2.312  0.00  0.00    -0.092 F 
ENDROOT
TORSDOF 0
ENDMDL
