MODEL 1
REMARK minimizedAffinity 11.8208113
REMARK minimizedRMSD -1
REMARK  0 active torsions:
REMARK  status: ('A' for Active; 'I' for Inactive)
ROOT
ATOM      1  C   UNL d   1      -3.565  -0.712   4.283  0.00  0.00     0.124 A 
ATOM      2  C1  UNL d   1      -2.984   0.523   4.031  0.00  0.00     0.062 A 
ATOM      3  C2  UNL d   1      -2.201   0.710   2.896  0.00  0.00     0.162 A 
ATOM      4  C3  UNL d   1      -1.996  -0.341   2.001  0.00  0.00    -0.034 A 
ATOM      5  C4  UNL d   1      -2.584  -1.580   2.262  0.00  0.00     0.162 A 
ATOM      6  C5  UNL d   1      -3.365  -1.762   3.398  0.00  0.00     0.062 A 
ATOM      7  F   UNL d   1      -3.926  -2.956   3.640  0.00  0.00    -0.097 F 
ATOM      8  F1  UNL d   1      -2.407  -2.612   1.423  0.00  0.00    -0.096 F 
ATOM      9  I   UNL d   1      -0.827  -0.065   0.302  0.00  0.00    -0.060 I 
ATOM     10  F2  UNL d   1      -1.652   1.914   2.678  0.00  0.00    -0.096 F 
ATOM     11  F3  UNL d   1      -3.175   1.539   4.885  0.00  0.00    -0.097 F 
ATOM     12  F4  UNL d   1      -4.317  -0.889   5.377  0.00  0.00    -0.092 F 
ENDROOT
TORSDOF 0
ENDMDL
