MODEL 1
REMARK minimizedAffinity 8.43435669
REMARK minimizedRMSD -1
REMARK  0 active torsions:
REMARK  status: ('A' for Active; 'I' for Inactive)
ROOT
ATOM      1  C   UNL d   1       1.010   1.038  -4.272  0.00  0.00     0.124 A 
ATOM      2  C1  UNL d   1       1.382   1.537  -3.032  0.00  0.00     0.062 A 
ATOM      3  C2  UNL d   1       1.660   0.666  -1.982  0.00  0.00     0.162 A 
ATOM      4  C3  UNL d   1       1.568  -0.713  -2.168  0.00  0.00    -0.034 A 
ATOM      5  C4  UNL d   1       1.191  -1.207  -3.418  0.00  0.00     0.162 A 
ATOM      6  C5  UNL d   1       0.914  -0.333  -4.464  0.00  0.00     0.062 A 
ATOM      7  F   UNL d   1       0.554  -0.817  -5.661  0.00  0.00    -0.097 F 
ATOM      8  F1  UNL d   1       1.092  -2.528  -3.631  0.00  0.00    -0.096 F 
ATOM      9  I   UNL d   1       1.982  -2.018  -0.600  0.00  0.00    -0.060 I 
ATOM     10  F2  UNL d   1       2.018   1.177  -0.794  0.00  0.00    -0.096 F 
ATOM     11  F3  UNL d   1       1.474   2.861  -2.843  0.00  0.00    -0.097 F 
ATOM     12  F4  UNL d   1       0.742   1.878  -5.280  0.00  0.00    -0.092 F 
ENDROOT
TORSDOF 0
ENDMDL
