MODEL 1
REMARK minimizedAffinity 5.03225231
REMARK minimizedRMSD -1
REMARK  0 active torsions:
REMARK  status: ('A' for Active; 'I' for Inactive)
ROOT
ATOM      1  C   UNL d   1      -2.207   0.243  -0.906  0.00  0.00     0.124 A 
ATOM      2  C1  UNL d   1      -1.241   1.240  -0.911  0.00  0.00     0.062 A 
ATOM      3  C2  UNL d   1       0.106   0.908  -1.025  0.00  0.00     0.162 A 
ATOM      4  C3  UNL d   1       0.495  -0.427  -1.135  0.00  0.00    -0.034 A 
ATOM      5  C4  UNL d   1      -0.482  -1.424  -1.128  0.00  0.00     0.162 A 
ATOM      6  C5  UNL d   1      -1.827  -1.087  -1.014  0.00  0.00     0.062 A 
ATOM      7  F   UNL d   1      -2.759  -2.051  -1.009  0.00  0.00    -0.097 F 
ATOM      8  F1  UNL d   1      -0.143  -2.717  -1.232  0.00  0.00    -0.096 F 
ATOM      9  I   UNL d   1       2.508  -0.927  -1.305  0.00  0.00    -0.060 I 
ATOM     10  F2  UNL d   1       1.018   1.891  -1.027  0.00  0.00    -0.096 F 
ATOM     11  F3  UNL d   1      -1.605   2.526  -0.806  0.00  0.00    -0.097 F 
ATOM     12  F4  UNL d   1      -3.502   0.565  -0.795  0.00  0.00    -0.092 F 
ENDROOT
TORSDOF 0
ENDMDL
