MODEL 1
REMARK minimizedAffinity 1.42203486
REMARK minimizedRMSD -1
REMARK  0 active torsions:
REMARK  status: ('A' for Active; 'I' for Inactive)
ROOT
ATOM      1  C   UNL d   1       2.059   0.205  -3.176  0.00  0.00     0.124 A 
ATOM      2  C1  UNL d   1       1.804  -0.930  -2.419  0.00  0.00     0.062 A 
ATOM      3  C2  UNL d   1       0.891  -0.882  -1.370  0.00  0.00     0.162 A 
ATOM      4  C3  UNL d   1       0.224   0.306  -1.071  0.00  0.00    -0.034 A 
ATOM      5  C4  UNL d   1       0.486   1.444  -1.836  0.00  0.00     0.162 A 
ATOM      6  C5  UNL d   1       1.400   1.391  -2.884  0.00  0.00     0.062 A 
ATOM      7  F   UNL d   1       1.644   2.489  -3.614  0.00  0.00    -0.097 F 
ATOM      8  F1  UNL d   1      -0.137   2.603  -1.576  0.00  0.00    -0.096 F 
ATOM      9  I   UNL d   1      -1.142   0.382   0.497  0.00  0.00    -0.060 I 
ATOM     10  F2  UNL d   1       0.665  -1.995  -0.656  0.00  0.00    -0.096 F 
ATOM     11  F3  UNL d   1       2.441  -2.077  -2.699  0.00  0.00    -0.097 F 
ATOM     12  F4  UNL d   1       2.939   0.156  -4.185  0.00  0.00    -0.092 F 
ENDROOT
TORSDOF 0
ENDMDL
