MODEL 1
REMARK minimizedAffinity -1.1081357
REMARK minimizedRMSD -1
REMARK  0 active torsions:
REMARK  status: ('A' for Active; 'I' for Inactive)
ROOT
ATOM      1  C   UNL d   1       1.674   0.671  -1.254  0.00  0.00     0.124 A 
ATOM      2  C1  UNL d   1       1.777  -0.065  -0.082  0.00  0.00     0.062 A 
ATOM      3  C2  UNL d   1       0.691  -0.158   0.784  0.00  0.00     0.162 A 
ATOM      4  C3  UNL d   1      -0.508   0.486   0.481  0.00  0.00    -0.034 A 
ATOM      5  C4  UNL d   1      -0.604   1.226  -0.699  0.00  0.00     0.162 A 
ATOM      6  C5  UNL d   1       0.484   1.316  -1.561  0.00  0.00     0.062 A 
ATOM      7  F   UNL d   1       0.383   2.029  -2.693  0.00  0.00    -0.097 F 
ATOM      8  F1  UNL d   1      -1.742   1.859  -1.021  0.00  0.00    -0.096 F 
ATOM      9  I   UNL d   1      -2.134   0.350   1.773  0.00  0.00    -0.060 I 
ATOM     10  F2  UNL d   1       0.819  -0.877   1.909  0.00  0.00    -0.096 F 
ATOM     11  F3  UNL d   1       2.926  -0.689   0.218  0.00  0.00    -0.097 F 
ATOM     12  F4  UNL d   1       2.720   0.760  -2.085  0.00  0.00    -0.092 F 
ENDROOT
TORSDOF 0
ENDMDL
