MODEL 1
REMARK minimizedAffinity 2.09538841
REMARK minimizedRMSD -1
REMARK  0 active torsions:
REMARK  status: ('A' for Active; 'I' for Inactive)
ROOT
ATOM      1  C   UNL d   1       0.767  -0.188  -1.425  0.00  0.00     0.124 A 
ATOM      2  C1  UNL d   1       0.708  -1.131  -0.408  0.00  0.00     0.062 A 
ATOM      3  C2  UNL d   1      -0.048  -0.883   0.734  0.00  0.00     0.162 A 
ATOM      4  C3  UNL d   1      -0.752   0.314   0.865  0.00  0.00    -0.034 A 
ATOM      5  C4  UNL d   1      -0.687   1.258  -0.161  0.00  0.00     0.162 A 
ATOM      6  C5  UNL d   1       0.070   1.005  -1.301  0.00  0.00     0.062 A 
ATOM      7  F   UNL d   1       0.125   1.917  -2.282  0.00  0.00    -0.097 F 
ATOM      8  F1  UNL d   1      -1.353   2.419  -0.068  0.00  0.00    -0.096 F 
ATOM      9  I   UNL d   1      -1.884   0.689   2.571  0.00  0.00    -0.060 I 
ATOM     10  F2  UNL d   1      -0.087  -1.812   1.701  0.00  0.00    -0.096 F 
ATOM     11  F3  UNL d   1       1.382  -2.285  -0.525  0.00  0.00    -0.097 F 
ATOM     12  F4  UNL d   1       1.496  -0.430  -2.522  0.00  0.00    -0.092 F 
ENDROOT
TORSDOF 0
ENDMDL
