MODEL 1
REMARK minimizedAffinity -0.968911588
REMARK minimizedRMSD -1
REMARK  0 active torsions:
REMARK  status: ('A' for Active; 'I' for Inactive)
ROOT
ATOM      1  C   UNL d   1      -1.348   1.037  -0.307  0.00  0.00     0.124 A 
ATOM      2  C1  UNL d   1      -0.582   1.873  -1.108  0.00  0.00     0.062 A 
ATOM      3  C2  UNL d   1       0.706   1.498  -1.480  0.00  0.00     0.162 A 
ATOM      4  C3  UNL d   1       1.236   0.281  -1.052  0.00  0.00    -0.034 A 
ATOM      5  C4  UNL d   1       0.459  -0.554  -0.246  0.00  0.00     0.162 A 
ATOM      6  C5  UNL d   1      -0.827  -0.175   0.123  0.00  0.00     0.062 A 
ATOM      7  F   UNL d   1      -1.566  -0.983   0.897  0.00  0.00    -0.097 F 
ATOM      8  F1  UNL d   1       0.938  -1.731   0.183  0.00  0.00    -0.096 F 
ATOM      9  I   UNL d   1       3.161  -0.284  -1.606  0.00  0.00    -0.060 I 
ATOM     10  F2  UNL d   1       1.424   2.325  -2.254  0.00  0.00    -0.096 F 
ATOM     11  F3  UNL d   1      -1.082   3.045  -1.524  0.00  0.00    -0.097 F 
ATOM     12  F4  UNL d   1      -2.587   1.401   0.050  0.00  0.00    -0.092 F 
ENDROOT
TORSDOF 0
ENDMDL
