MODEL 1
REMARK minimizedAffinity 7.37730455
REMARK minimizedRMSD -1
REMARK  0 active torsions:
REMARK  status: ('A' for Active; 'I' for Inactive)
ROOT
ATOM      1  C   UNL d   1       0.523  -1.512  -1.112  0.00  0.00     0.124 A 
ATOM      2  C1  UNL d   1       1.851  -1.350  -1.484  0.00  0.00     0.062 A 
ATOM      3  C2  UNL d   1       2.349  -0.082  -1.768  0.00  0.00     0.162 A 
ATOM      4  C3  UNL d   1       1.519   1.036  -1.680  0.00  0.00    -0.034 A 
ATOM      5  C4  UNL d   1       0.185   0.865  -1.307  0.00  0.00     0.162 A 
ATOM      6  C5  UNL d   1      -0.308  -0.404  -1.024  0.00  0.00     0.062 A 
ATOM      7  F   UNL d   1      -1.591  -0.558  -0.666  0.00  0.00    -0.097 F 
ATOM      8  F1  UNL d   1      -0.640   1.919  -1.213  0.00  0.00    -0.096 F 
ATOM      9  I   UNL d   1       2.261   2.934  -2.103  0.00  0.00    -0.060 I 
ATOM     10  F2  UNL d   1       3.636   0.044  -2.124  0.00  0.00    -0.096 F 
ATOM     11  F3  UNL d   1       2.656  -2.419  -1.571  0.00  0.00    -0.097 F 
ATOM     12  F4  UNL d   1       0.046  -2.733  -0.841  0.00  0.00    -0.092 F 
ENDROOT
TORSDOF 0
ENDMDL
