MODEL 1
REMARK minimizedAffinity -5.17296791
REMARK minimizedRMSD -1
REMARK  1 active torsions:
REMARK  status: ('A' for Active; 'I' for Inactive)
REMARK    1  A    between atoms: C1_2  and  C2_3 
ROOT
ATOM      1  C2  UNL d   1       0.175  -0.622   0.495  0.00  0.00    -0.076 A 
ATOM      2  C3  UNL d   1      -0.629  -1.001   1.585  0.00  0.00     0.004 A 
ATOM      3  C4  UNL d   1      -0.250  -2.045   2.426  0.00  0.00    -0.003 A 
ATOM      4  C5  UNL d   1       0.939  -2.728   2.192  0.00  0.00     0.000 A 
ATOM      5  C6  UNL d   1       1.756  -2.354   1.126  0.00  0.00     0.000 A 
ATOM      6  C7  UNL d   1       1.397  -1.293   0.278  0.00  0.00    -0.073 A 
ATOM      7  C8  UNL d   1       2.314  -0.937  -0.860  0.00  0.00     0.078 C 
ENDROOT
BRANCH   1   8
ATOM      8  C1  UNL d   1      -0.301   0.500  -0.400  0.00  0.00     0.053 C 
ATOM      9  C   UNL d   1      -0.921   1.647   0.383  0.00  0.00     0.018 C 
ENDBRANCH   1   8
TORSDOF 1
ENDMDL
