MODEL 1
REMARK minimizedAffinity -3.66845608
REMARK minimizedRMSD -1
REMARK  1 active torsions:
REMARK  status: ('A' for Active; 'I' for Inactive)
REMARK    1  A    between atoms: C1_2  and  C2_3 
ROOT
ATOM      1  C2  UNL d   1      -0.122  -0.773   0.353  0.00  0.00    -0.076 A 
ATOM      2  C3  UNL d   1       0.888  -1.736   0.182  0.00  0.00     0.004 A 
ATOM      3  C4  UNL d   1       1.289  -2.551   1.239  0.00  0.00    -0.003 A 
ATOM      4  C5  UNL d   1       0.686  -2.417   2.485  0.00  0.00     0.000 A 
ATOM      5  C6  UNL d   1      -0.330  -1.479   2.668  0.00  0.00     0.000 A 
ATOM      6  C7  UNL d   1      -0.757  -0.661   1.608  0.00  0.00    -0.073 A 
ATOM      7  C8  UNL d   1      -1.853   0.338   1.863  0.00  0.00     0.078 C 
ENDROOT
BRANCH   1   8
ATOM      8  C1  UNL d   1      -0.496   0.101  -0.823  0.00  0.00     0.053 C 
ATOM      9  C   UNL d   1      -0.079  -0.504  -2.155  0.00  0.00     0.018 C 
ENDBRANCH   1   8
TORSDOF 1
ENDMDL
