MODEL 1
REMARK minimizedAffinity -4.95992756
REMARK minimizedRMSD -1
REMARK  1 active torsions:
REMARK  status: ('A' for Active; 'I' for Inactive)
REMARK    1  A    between atoms: C1_2  and  C2_3 
ROOT
ATOM      1  C2  UNL d   1      -0.179   0.190   0.399  0.00  0.00    -0.076 A 
ATOM      2  C3  UNL d   1       1.022   0.084  -0.323  0.00  0.00     0.004 A 
ATOM      3  C4  UNL d   1       1.953  -0.910  -0.026  0.00  0.00    -0.003 A 
ATOM      4  C5  UNL d   1       1.697  -1.816   0.998  0.00  0.00     0.000 A 
ATOM      5  C6  UNL d   1       0.502  -1.736   1.713  0.00  0.00     0.000 A 
ATOM      6  C7  UNL d   1      -0.454  -0.750   1.416  0.00  0.00    -0.073 A 
ATOM      7  C8  UNL d   1      -1.722  -0.706   2.224  0.00  0.00     0.078 C 
ENDROOT
BRANCH   1   8
ATOM      8  C1  UNL d   1      -1.138   1.306   0.050  0.00  0.00     0.053 C 
ATOM      9  C   UNL d   1      -1.233   1.544  -1.449  0.00  0.00     0.018 C 
ENDBRANCH   1   8
TORSDOF 1
ENDMDL
