MODEL 1
REMARK minimizedAffinity -5.40052271
REMARK minimizedRMSD -1
REMARK  1 active torsions:
REMARK  status: ('A' for Active; 'I' for Inactive)
REMARK    1  A    between atoms: C1_2  and  C2_3 
ROOT
ATOM      1  C2  UNL d   1       0.086  -0.509   0.325  0.00  0.00    -0.076 A 
ATOM      2  C3  UNL d   1      -0.756  -1.053   1.311  0.00  0.00     0.004 A 
ATOM      3  C4  UNL d   1      -0.318  -2.086   2.138  0.00  0.00    -0.003 A 
ATOM      4  C5  UNL d   1       0.969  -2.592   1.992  0.00  0.00     0.000 A 
ATOM      5  C6  UNL d   1       1.823  -2.053   1.031  0.00  0.00     0.000 A 
ATOM      6  C7  UNL d   1       1.403  -1.000   0.200  0.00  0.00    -0.073 A 
ATOM      7  C8  UNL d   1       2.365  -0.461  -0.823  0.00  0.00     0.078 C 
ENDROOT
BRANCH   1   8
ATOM      8  C1  UNL d   1      -0.453   0.592  -0.561  0.00  0.00     0.053 C 
ATOM      9  C   UNL d   1      -1.013   1.760   0.237  0.00  0.00     0.018 C 
ENDBRANCH   1   8
TORSDOF 1
ENDMDL
