MODEL 1
REMARK minimizedAffinity -4.03510571
REMARK minimizedRMSD -1
REMARK  1 active torsions:
REMARK  status: ('A' for Active; 'I' for Inactive)
REMARK    1  A    between atoms: C1_2  and  C2_3 
ROOT
ATOM      1  C2  UNL d   1      -0.313  -0.397   0.835  0.00  0.00    -0.076 A 
ATOM      2  C3  UNL d   1      -0.950  -1.450   1.515  0.00  0.00     0.004 A 
ATOM      3  C4  UNL d   1      -0.255  -2.611   1.850  0.00  0.00    -0.003 A 
ATOM      4  C5  UNL d   1       1.088  -2.737   1.513  0.00  0.00     0.000 A 
ATOM      5  C6  UNL d   1       1.740  -1.694   0.854  0.00  0.00     0.000 A 
ATOM      6  C7  UNL d   1       1.058  -0.511   0.523  0.00  0.00    -0.073 A 
ATOM      7  C8  UNL d   1       1.809   0.579  -0.192  0.00  0.00     0.078 C 
ENDROOT
BRANCH   1   8
ATOM      8  C1  UNL d   1      -1.125   0.827   0.474  0.00  0.00     0.053 C 
ATOM      9  C   UNL d   1      -1.558   0.828  -0.984  0.00  0.00     0.018 C 
ENDBRANCH   1   8
TORSDOF 1
ENDMDL
