MODEL 1
REMARK minimizedAffinity -3.39218211
REMARK minimizedRMSD -1
REMARK  1 active torsions:
REMARK  status: ('A' for Active; 'I' for Inactive)
REMARK    1  A    between atoms: C1_2  and  C2_3 
ROOT
ATOM      1  C2  UNL d   1      -0.067  -0.181   0.236  0.00  0.00    -0.076 A 
ATOM      2  C3  UNL d   1      -0.757  -1.097   1.048  0.00  0.00     0.004 A 
ATOM      3  C4  UNL d   1      -0.098  -2.179   1.629  0.00  0.00    -0.003 A 
ATOM      4  C5  UNL d   1       1.263  -2.362   1.408  0.00  0.00     0.000 A 
ATOM      5  C6  UNL d   1       1.967  -1.453   0.619  0.00  0.00     0.000 A 
ATOM      6  C7  UNL d   1       1.321  -0.348   0.039  0.00  0.00    -0.073 A 
ATOM      7  C8  UNL d   1       2.128   0.598  -0.808  0.00  0.00     0.078 C 
ENDROOT
BRANCH   1   8
ATOM      8  C1  UNL d   1      -0.840   0.958  -0.390  0.00  0.00     0.053 C 
ATOM      9  C   UNL d   1      -1.628   1.759   0.634  0.00  0.00     0.018 C 
ENDBRANCH   1   8
TORSDOF 1
ENDMDL
