MODEL 1
REMARK minimizedAffinity -5.04278517
REMARK minimizedRMSD -1
REMARK  1 active torsions:
REMARK  status: ('A' for Active; 'I' for Inactive)
REMARK    1  A    between atoms: C1_2  and  C2_3 
ROOT
ATOM      1  C2  UNL d   1       0.522  -1.608   0.876  0.00  0.00    -0.076 A 
ATOM      2  C3  UNL d   1      -0.687  -1.533   1.590  0.00  0.00     0.004 A 
ATOM      3  C4  UNL d   1      -1.480  -0.388   1.541  0.00  0.00    -0.003 A 
ATOM      4  C5  UNL d   1      -1.077   0.701   0.776  0.00  0.00     0.000 A 
ATOM      5  C6  UNL d   1       0.110   0.638   0.047  0.00  0.00     0.000 A 
ATOM      6  C7  UNL d   1       0.913  -0.515   0.073  0.00  0.00    -0.073 A 
ATOM      7  C8  UNL d   1       2.186  -0.527  -0.728  0.00  0.00     0.078 C 
ENDROOT
BRANCH   1   8
ATOM      8  C1  UNL d   1       1.353  -2.866   0.989  0.00  0.00     0.053 C 
ATOM      9  C   UNL d   1       1.388  -3.416   2.407  0.00  0.00     0.018 C 
ENDBRANCH   1   8
TORSDOF 1
ENDMDL
