MODEL 1
REMARK minimizedAffinity -5.82335138
REMARK minimizedRMSD -1
REMARK  1 active torsions:
REMARK  status: ('A' for Active; 'I' for Inactive)
REMARK    1  A    between atoms: C1_2  and  C2_3 
ROOT
ATOM      1  C2  UNL d   1      -0.074  -0.308  -0.046  0.00  0.00    -0.076 A 
ATOM      2  C3  UNL d   1       1.046  -0.986  -0.558  0.00  0.00     0.004 A 
ATOM      3  C4  UNL d   1       1.629  -2.040   0.143  0.00  0.00    -0.003 A 
ATOM      4  C5  UNL d   1       1.100  -2.435   1.368  0.00  0.00     0.000 A 
ATOM      5  C6  UNL d   1      -0.021  -1.785   1.882  0.00  0.00     0.000 A 
ATOM      6  C7  UNL d   1      -0.631  -0.731   1.180  0.00  0.00    -0.073 A 
ATOM      7  C8  UNL d   1      -1.835  -0.063   1.785  0.00  0.00     0.078 C 
ENDROOT
BRANCH   1   8
ATOM      8  C1  UNL d   1      -0.647   0.845  -0.838  0.00  0.00     0.053 C 
ATOM      9  C   UNL d   1      -1.422   0.384  -2.062  0.00  0.00     0.018 C 
ENDBRANCH   1   8
TORSDOF 1
ENDMDL
