MODEL 1
REMARK minimizedAffinity -3.46958494
REMARK minimizedRMSD -1
REMARK  1 active torsions:
REMARK  status: ('A' for Active; 'I' for Inactive)
REMARK    1  A    between atoms: C1_2  and  C2_3 
ROOT
ATOM      1  C2  UNL d   1       0.562  -1.352   0.651  0.00  0.00    -0.076 A 
ATOM      2  C3  UNL d   1       1.251  -0.512  -0.241  0.00  0.00     0.004 A 
ATOM      3  C4  UNL d   1       0.750   0.745  -0.576  0.00  0.00    -0.003 A 
ATOM      4  C5  UNL d   1      -0.449   1.182  -0.023  0.00  0.00     0.000 A 
ATOM      5  C6  UNL d   1      -1.137   0.369   0.877  0.00  0.00     0.000 A 
ATOM      6  C7  UNL d   1      -0.638  -0.894   1.237  0.00  0.00    -0.073 A 
ATOM      7  C8  UNL d   1      -1.424  -1.731   2.208  0.00  0.00     0.078 C 
ENDROOT
BRANCH   1   8
ATOM      8  C1  UNL d   1       1.140  -2.715   0.956  0.00  0.00     0.053 C 
ATOM      9  C   UNL d   1       2.336  -2.645   1.893  0.00  0.00     0.018 C 
ENDBRANCH   1   8
TORSDOF 1
ENDMDL
