MODEL 1
REMARK minimizedAffinity -5.19575834
REMARK minimizedRMSD -1
REMARK  1 active torsions:
REMARK  status: ('A' for Active; 'I' for Inactive)
REMARK    1  A    between atoms: C1_2  and  C2_3 
ROOT
ATOM      1  C2  UNL d   1       0.210  -0.587   0.576  0.00  0.00    -0.076 A 
ATOM      2  C3  UNL d   1      -0.412  -1.351   1.578  0.00  0.00     0.004 A 
ATOM      3  C4  UNL d   1       0.281  -2.361   2.244  0.00  0.00    -0.003 A 
ATOM      4  C5  UNL d   1       1.607  -2.622   1.919  0.00  0.00     0.000 A 
ATOM      5  C6  UNL d   1       2.245  -1.862   0.939  0.00  0.00     0.000 A 
ATOM      6  C7  UNL d   1       1.566  -0.830   0.270  0.00  0.00    -0.073 A 
ATOM      7  C8  UNL d   1       2.302  -0.046  -0.782  0.00  0.00     0.078 C 
ENDROOT
BRANCH   1   8
ATOM      8  C1  UNL d   1      -0.599   0.477  -0.131  0.00  0.00     0.053 C 
ATOM      9  C   UNL d   1      -0.572   1.811   0.598  0.00  0.00     0.018 C 
ENDBRANCH   1   8
TORSDOF 1
ENDMDL
