MODEL 1
REMARK minimizedAffinity -5.64706802
REMARK minimizedRMSD -1
REMARK  1 active torsions:
REMARK  status: ('A' for Active; 'I' for Inactive)
REMARK    1  A    between atoms: C1_2  and  C2_3 
ROOT
ATOM      1  C2  UNL d   1       0.956  -1.176   0.326  0.00  0.00    -0.076 A 
ATOM      2  C3  UNL d   1       1.614  -2.240   0.966  0.00  0.00     0.004 A 
ATOM      3  C4  UNL d   1       1.069  -2.845   2.097  0.00  0.00    -0.003 A 
ATOM      4  C5  UNL d   1      -0.144  -2.395   2.607  0.00  0.00     0.000 A 
ATOM      5  C6  UNL d   1      -0.820  -1.352   1.974  0.00  0.00     0.000 A 
ATOM      6  C7  UNL d   1      -0.292  -0.742   0.823  0.00  0.00    -0.073 A 
ATOM      7  C8  UNL d   1      -1.059   0.383   0.185  0.00  0.00     0.078 C 
ENDROOT
BRANCH   1   8
ATOM      8  C1  UNL d   1       1.609  -0.541  -0.881  0.00  0.00     0.053 C 
ATOM      9  C   UNL d   1       2.464   0.662  -0.516  0.00  0.00     0.018 C 
ENDBRANCH   1   8
TORSDOF 1
ENDMDL
