MODEL 1
REMARK minimizedAffinity -5.48952436
REMARK minimizedRMSD -1
REMARK  1 active torsions:
REMARK  status: ('A' for Active; 'I' for Inactive)
REMARK    1  A    between atoms: C1_2  and  C2_3 
ROOT
ATOM      1  C2  UNL d   1       0.716  -0.882   0.901  0.00  0.00    -0.076 A 
ATOM      2  C3  UNL d   1      -0.424  -0.929   1.722  0.00  0.00     0.004 A 
ATOM      3  C4  UNL d   1      -1.394   0.069   1.660  0.00  0.00    -0.003 A 
ATOM      4  C5  UNL d   1      -1.241   1.131   0.776  0.00  0.00     0.000 A 
ATOM      5  C6  UNL d   1      -0.125   1.185  -0.059  0.00  0.00     0.000 A 
ATOM      6  C7  UNL d   1       0.855   0.177  -0.021  0.00  0.00    -0.073 A 
ATOM      7  C8  UNL d   1       2.041   0.289  -0.939  0.00  0.00     0.078 C 
ENDROOT
BRANCH   1   8
ATOM      8  C1  UNL d   1       1.748  -1.980   1.031  0.00  0.00     0.053 C 
ATOM      9  C   UNL d   1       1.599  -2.770   2.322  0.00  0.00     0.018 C 
ENDBRANCH   1   8
TORSDOF 1
ENDMDL
