MODEL 1
REMARK minimizedAffinity -4.83434391
REMARK minimizedRMSD -1
REMARK  1 active torsions:
REMARK  status: ('A' for Active; 'I' for Inactive)
REMARK    1  A    between atoms: C1_2  and  C2_3 
ROOT
ATOM      1  C2  UNL d   1      -0.079  -0.455   0.695  0.00  0.00    -0.076 A 
ATOM      2  C3  UNL d   1      -0.678  -1.192   1.732  0.00  0.00     0.004 A 
ATOM      3  C4  UNL d   1      -0.013  -2.262   2.328  0.00  0.00    -0.003 A 
ATOM      4  C5  UNL d   1       1.262  -2.612   1.898  0.00  0.00     0.000 A 
ATOM      5  C6  UNL d   1       1.878  -1.881   0.883  0.00  0.00     0.000 A 
ATOM      6  C7  UNL d   1       1.228  -0.789   0.283  0.00  0.00    -0.073 A 
ATOM      7  C8  UNL d   1       1.937  -0.039  -0.812  0.00  0.00     0.078 C 
ENDROOT
BRANCH   1   8
ATOM      8  C1  UNL d   1      -0.860   0.678   0.068  0.00  0.00     0.053 C 
ATOM      9  C   UNL d   1      -1.472   1.608   1.104  0.00  0.00     0.018 C 
ENDBRANCH   1   8
TORSDOF 1
ENDMDL
