MODEL 1
REMARK minimizedAffinity -4.91240883
REMARK minimizedRMSD -1
REMARK  1 active torsions:
REMARK  status: ('A' for Active; 'I' for Inactive)
REMARK    1  A    between atoms: C1_2  and  C2_3 
ROOT
ATOM      1  C2  UNL d   1       0.700  -1.013  -0.031  0.00  0.00    -0.076 A 
ATOM      2  C3  UNL d   1       1.081  -2.366  -0.002  0.00  0.00     0.004 A 
ATOM      3  C4  UNL d   1       0.766  -3.176   1.088  0.00  0.00    -0.003 A 
ATOM      4  C5  UNL d   1       0.065  -2.647   2.166  0.00  0.00     0.000 A 
ATOM      5  C6  UNL d   1      -0.336  -1.312   2.146  0.00  0.00     0.000 A 
ATOM      6  C7  UNL d   1      -0.041  -0.485   1.048  0.00  0.00    -0.073 A 
ATOM      7  C8  UNL d   1      -0.492   0.949   1.082  0.00  0.00     0.078 C 
ENDROOT
BRANCH   1   8
ATOM      8  C1  UNL d   1       1.093  -0.176  -1.227  0.00  0.00     0.053 C 
ATOM      9  C   UNL d   1       2.573   0.175  -1.232  0.00  0.00     0.018 C 
ENDBRANCH   1   8
TORSDOF 1
ENDMDL
