MODEL 1
REMARK minimizedAffinity -2.93661928
REMARK minimizedRMSD -1
REMARK  1 active torsions:
REMARK  status: ('A' for Active; 'I' for Inactive)
REMARK    1  A    between atoms: C1_2  and  C2_3 
ROOT
ATOM      1  C2  UNL d   1       0.090   0.443   0.147  0.00  0.00    -0.076 A 
ATOM      2  C3  UNL d   1       1.065   0.521  -0.863  0.00  0.00     0.004 A 
ATOM      3  C4  UNL d   1       2.155  -0.348  -0.877  0.00  0.00    -0.003 A 
ATOM      4  C5  UNL d   1       2.287  -1.310   0.119  0.00  0.00     0.000 A 
ATOM      5  C6  UNL d   1       1.319  -1.414   1.118  0.00  0.00     0.000 A 
ATOM      6  C7  UNL d   1       0.206  -0.556   1.137  0.00  0.00    -0.073 A 
ATOM      7  C8  UNL d   1      -0.804  -0.708   2.241  0.00  0.00     0.078 C 
ENDROOT
BRANCH   1   8
ATOM      8  C1  UNL d   1      -1.056   1.430   0.125  0.00  0.00     0.053 C 
ATOM      9  C   UNL d   1      -1.383   1.912  -1.279  0.00  0.00     0.018 C 
ENDBRANCH   1   8
TORSDOF 1
ENDMDL
