MODEL 1
REMARK minimizedAffinity 5.28320456
REMARK minimizedRMSD -1
REMARK  1 active torsions:
REMARK  status: ('A' for Active; 'I' for Inactive)
REMARK    1  A    between atoms: C1_2  and  C2_3 
ROOT
ATOM      1  C2  UNL d   1      -3.981  -3.575  -5.389  0.00  0.00    -0.076 A 
ATOM      2  C3  UNL d   1      -5.314  -3.593  -5.837  0.00  0.00     0.004 A 
ATOM      3  C4  UNL d   1      -6.000  -4.795  -6.000  0.00  0.00    -0.003 A 
ATOM      4  C5  UNL d   1      -5.365  -5.999  -5.718  0.00  0.00     0.000 A 
ATOM      5  C6  UNL d   1      -4.049  -6.000  -5.256  0.00  0.00     0.000 A 
ATOM      6  C7  UNL d   1      -3.348  -4.795  -5.071  0.00  0.00    -0.073 A 
ATOM      7  C8  UNL d   1      -1.929  -4.855  -4.576  0.00  0.00     0.078 C 
ENDROOT
BRANCH   1   8
ATOM      8  C1  UNL d   1      -3.279  -2.242  -5.258  0.00  0.00     0.053 C 
ATOM      9  C   UNL d   1      -4.203  -1.067  -5.535  0.00  0.00     0.018 C 
ENDBRANCH   1   8
TORSDOF 1
ENDMDL
