MODEL 1
REMARK minimizedAffinity 9.55200672
REMARK minimizedRMSD -1
REMARK  1 active torsions:
REMARK  status: ('A' for Active; 'I' for Inactive)
REMARK    1  A    between atoms: C1_2  and  C2_3 
ROOT
ATOM      1  C2  UNL d   1      -0.561   3.963   0.293  0.00  0.00    -0.076 A 
ATOM      2  C3  UNL d   1       0.262   3.463  -0.731  0.00  0.00     0.004 A 
ATOM      3  C4  UNL d   1       0.520   4.216  -1.876  0.00  0.00    -0.003 A 
ATOM      4  C5  UNL d   1      -0.039   5.481  -2.014  0.00  0.00     0.000 A 
ATOM      5  C6  UNL d   1      -0.844   6.000  -1.000  0.00  0.00     0.000 A 
ATOM      6  C7  UNL d   1      -1.102   5.261   0.167  0.00  0.00    -0.073 A 
ATOM      7  C8  UNL d   1      -1.981   5.867   1.226  0.00  0.00     0.078 C 
ENDROOT
BRANCH   1   8
ATOM      8  C1  UNL d   1      -0.828   3.090   1.498  0.00  0.00     0.053 C 
ATOM      9  C   UNL d   1       0.357   2.204   1.850  0.00  0.00     0.018 C 
ENDBRANCH   1   8
TORSDOF 1
ENDMDL
