MODEL 1
REMARK minimizedAffinity 7.09393644
REMARK minimizedRMSD -1
REMARK  1 active torsions:
REMARK  status: ('A' for Active; 'I' for Inactive)
REMARK    1  A    between atoms: C1_2  and  C2_3 
ROOT
ATOM      1  C2  UNL d   1      -0.133   4.937  -2.013  0.00  0.00    -0.076 A 
ATOM      2  C3  UNL d   1       1.087   4.631  -1.385  0.00  0.00     0.004 A 
ATOM      3  C4  UNL d   1       1.153   3.678  -0.371  0.00  0.00    -0.003 A 
ATOM      4  C5  UNL d   1      -0.001   3.014   0.032  0.00  0.00     0.000 A 
ATOM      5  C6  UNL d   1      -1.216   3.292  -0.592  0.00  0.00     0.000 A 
ATOM      6  C7  UNL d   1      -1.297   4.238  -1.627  0.00  0.00    -0.073 A 
ATOM      7  C8  UNL d   1      -2.635   4.503  -2.261  0.00  0.00     0.078 C 
ENDROOT
BRANCH   1   8
ATOM      8  C1  UNL d   1      -0.148   6.000  -3.089  0.00  0.00     0.053 C 
ATOM      9  C   UNL d   1       1.121   5.998  -3.927  0.00  0.00     0.018 C 
ENDBRANCH   1   8
TORSDOF 1
ENDMDL
