MODEL 1
REMARK minimizedAffinity 7.14089108
REMARK minimizedRMSD -1
REMARK  1 active torsions:
REMARK  status: ('A' for Active; 'I' for Inactive)
REMARK    1  A    between atoms: C1_2  and  C2_3 
ROOT
ATOM      1  C2  UNL d   1      -0.148   3.586  -1.164  0.00  0.00    -0.076 A 
ATOM      2  C3  UNL d   1      -1.502   3.556  -1.539  0.00  0.00     0.004 A 
ATOM      3  C4  UNL d   1      -2.082   4.625  -2.219  0.00  0.00    -0.003 A 
ATOM      4  C5  UNL d   1      -1.317   5.742  -2.535  0.00  0.00     0.000 A 
ATOM      5  C6  UNL d   1       0.033   5.782  -2.187  0.00  0.00     0.000 A 
ATOM      6  C7  UNL d   1       0.637   4.705  -1.515  0.00  0.00    -0.073 A 
ATOM      7  C8  UNL d   1       2.095   4.803  -1.158  0.00  0.00     0.078 C 
ENDROOT
BRANCH   1   8
ATOM      8  C1  UNL d   1       0.419   2.408  -0.404  0.00  0.00     0.053 C 
ATOM      9  C   UNL d   1      -0.191   2.260   0.982  0.00  0.00     0.018 C 
ENDBRANCH   1   8
TORSDOF 1
ENDMDL
