MODEL 1
REMARK minimizedAffinity 9.72943974
REMARK minimizedRMSD -1
REMARK  1 active torsions:
REMARK  status: ('A' for Active; 'I' for Inactive)
REMARK    1  A    between atoms: C1_2  and  C2_3 
ROOT
ATOM      1  C2  UNL d   1      -2.128   4.992  -1.437  0.00  0.00    -0.076 A 
ATOM      2  C3  UNL d   1      -2.412   4.546  -2.740  0.00  0.00     0.004 A 
ATOM      3  C4  UNL d   1      -3.715   4.563  -3.236  0.00  0.00    -0.003 A 
ATOM      4  C5  UNL d   1      -4.755   5.026  -2.437  0.00  0.00     0.000 A 
ATOM      5  C6  UNL d   1      -4.488   5.488  -1.148  0.00  0.00     0.000 A 
ATOM      6  C7  UNL d   1      -3.178   5.493  -0.639  0.00  0.00    -0.073 A 
ATOM      7  C8  UNL d   1      -2.950   5.998   0.759  0.00  0.00     0.078 C 
ENDROOT
BRANCH   1   8
ATOM      8  C1  UNL d   1      -0.700   4.925  -0.944  0.00  0.00     0.053 C 
ATOM      9  C   UNL d   1      -0.197   3.496  -0.809  0.00  0.00     0.018 C 
ENDBRANCH   1   8
TORSDOF 1
ENDMDL
