MODEL 1
REMARK minimizedAffinity 6.04507685
REMARK minimizedRMSD -1
REMARK  1 active torsions:
REMARK  status: ('A' for Active; 'I' for Inactive)
REMARK    1  A    between atoms: C1_2  and  C2_3 
ROOT
ATOM      1  C2  UNL d   1      -1.216   4.886   0.225  0.00  0.00    -0.076 A 
ATOM      2  C3  UNL d   1      -1.282   3.833   1.154  0.00  0.00     0.004 A 
ATOM      3  C4  UNL d   1      -0.382   2.770   1.098  0.00  0.00    -0.003 A 
ATOM      4  C5  UNL d   1       0.599   2.743   0.113  0.00  0.00     0.000 A 
ATOM      5  C6  UNL d   1       0.690   3.788  -0.805  0.00  0.00     0.000 A 
ATOM      6  C7  UNL d   1      -0.199   4.875  -0.754  0.00  0.00    -0.073 A 
ATOM      7  C8  UNL d   1      -0.059   5.972  -1.773  0.00  0.00     0.078 C 
ENDROOT
BRANCH   1   8
ATOM      8  C1  UNL d   1      -2.236   5.998   0.317  0.00  0.00     0.053 C 
ATOM      9  C   UNL d   1      -2.980   5.998   1.644  0.00  0.00     0.018 C 
ENDBRANCH   1   8
TORSDOF 1
ENDMDL
