MODEL 1
REMARK minimizedAffinity 8.85668945
REMARK minimizedRMSD -1
REMARK  1 active torsions:
REMARK  status: ('A' for Active; 'I' for Inactive)
REMARK    1  A    between atoms: C1_2  and  C2_3 
ROOT
ATOM      1  C2  UNL d   1      -2.316  -4.224  -5.050  0.00  0.00    -0.076 A 
ATOM      2  C3  UNL d   1      -2.669  -5.584  -5.074  0.00  0.00     0.004 A 
ATOM      3  C4  UNL d   1      -3.915  -5.994  -5.545  0.00  0.00    -0.003 A 
ATOM      4  C5  UNL d   1      -4.828  -5.049  -6.000  0.00  0.00     0.000 A 
ATOM      5  C6  UNL d   1      -4.488  -3.697  -6.000  0.00  0.00     0.000 A 
ATOM      6  C7  UNL d   1      -3.230  -3.269  -5.544  0.00  0.00    -0.073 A 
ATOM      7  C8  UNL d   1      -2.918  -1.797  -5.560  0.00  0.00     0.078 C 
ENDROOT
BRANCH   1   8
ATOM      8  C1  UNL d   1      -0.960  -3.837  -4.503  0.00  0.00     0.053 C 
ATOM      9  C   UNL d   1      -0.661  -4.497  -3.166  0.00  0.00     0.018 C 
ENDBRANCH   1   8
TORSDOF 1
ENDMDL
