MODEL 1
REMARK minimizedAffinity 19.3691616
REMARK minimizedRMSD -1
REMARK  1 active torsions:
REMARK  status: ('A' for Active; 'I' for Inactive)
REMARK    1  A    between atoms: C1_2  and  C2_3 
ROOT
ATOM      1  C2  UNL d   1       0.852   0.521   3.671  0.00  0.00    -0.076 A 
ATOM      2  C3  UNL d   1      -0.132   0.147   4.602  0.00  0.00     0.004 A 
ATOM      3  C4  UNL d   1      -0.115  -1.114   5.195  0.00  0.00    -0.003 A 
ATOM      4  C5  UNL d   1       0.886  -2.022   4.867  0.00  0.00     0.000 A 
ATOM      5  C6  UNL d   1       1.880  -1.661   3.958  0.00  0.00     0.000 A 
ATOM      6  C7  UNL d   1       1.888  -0.387   3.363  0.00  0.00    -0.073 A 
ATOM      7  C8  UNL d   1       2.981  -0.054   2.385  0.00  0.00     0.078 C 
ENDROOT
BRANCH   1   8
ATOM      8  C1  UNL d   1       0.768   1.893   3.040  0.00  0.00     0.053 C 
ATOM      9  C   UNL d   1      -0.542   2.114   2.300  0.00  0.00     0.018 C 
ENDBRANCH   1   8
TORSDOF 1
ENDMDL
