MODEL 1
REMARK minimizedAffinity 11.3487148
REMARK minimizedRMSD -1
REMARK  1 active torsions:
REMARK  status: ('A' for Active; 'I' for Inactive)
REMARK    1  A    between atoms: C1_2  and  C2_3 
ROOT
ATOM      1  C2  UNL d   1      -0.326   3.958  -0.089  0.00  0.00    -0.076 A 
ATOM      2  C3  UNL d   1       0.282   3.303  -1.174  0.00  0.00     0.004 A 
ATOM      3  C4  UNL d   1       0.298   3.880  -2.443  0.00  0.00    -0.003 A 
ATOM      4  C5  UNL d   1      -0.293   5.122  -2.647  0.00  0.00     0.000 A 
ATOM      5  C6  UNL d   1      -0.885   5.794  -1.578  0.00  0.00     0.000 A 
ATOM      6  C7  UNL d   1      -0.895   5.234  -0.289  0.00  0.00    -0.073 A 
ATOM      7  C8  UNL d   1      -1.553   6.000   0.826  0.00  0.00     0.078 C 
ENDROOT
BRANCH   1   8
ATOM      8  C1  UNL d   1      -0.336   3.271   1.258  0.00  0.00     0.053 C 
ATOM      9  C   UNL d   1       0.857   2.348   1.450  0.00  0.00     0.018 C 
ENDBRANCH   1   8
TORSDOF 1
ENDMDL
