MODEL 1
REMARK minimizedAffinity 7.83549976
REMARK minimizedRMSD -1
REMARK  0 active torsions:
REMARK  status: ('A' for Active; 'I' for Inactive)
ROOT
ATOM      1  C   UNL d   1      -1.480  -2.163   3.036  0.00  0.00     0.023 A 
ATOM      2  C1  UNL d   1      -1.123  -3.466   2.689  0.00  0.00     0.003 A 
ATOM      3  C2  UNL d   1       0.119  -3.718   2.102  0.00  0.00     0.048 A 
ATOM      4  C3  UNL d   1       0.999  -2.662   1.866  0.00  0.00     0.023 A 
ATOM      5  C4  UNL d   1       0.646  -1.357   2.212  0.00  0.00     0.048 A 
ATOM      6  C5  UNL d   1      -0.597  -1.110   2.798  0.00  0.00     0.003 A 
ATOM      7  I   UNL d   1       2.848  -3.034   0.993  0.00  0.00    -0.146 I 
ENDROOT
TORSDOF 0
ENDMDL
