MODEL 1
REMARK minimizedAffinity 10.18435
REMARK minimizedRMSD -1
REMARK  0 active torsions:
REMARK  status: ('A' for Active; 'I' for Inactive)
ROOT
ATOM      1  C   UNL d   1       0.978   4.868  -5.896  0.00  0.00     0.023 A 
ATOM      2  C1  UNL d   1       1.526   3.586  -5.846  0.00  0.00     0.003 A 
ATOM      3  C2  UNL d   1       2.911   3.415  -5.873  0.00  0.00     0.048 A 
ATOM      4  C3  UNL d   1       3.744   4.531  -5.950  0.00  0.00     0.023 A 
ATOM      5  C4  UNL d   1       3.201   5.816  -6.000  0.00  0.00     0.048 A 
ATOM      6  C5  UNL d   1       1.814   5.981  -5.973  0.00  0.00     0.003 A 
ATOM      7  I   UNL d   1       5.807   4.280  -5.990  0.00  0.00    -0.146 I 
ENDROOT
TORSDOF 0
ENDMDL
