MODEL 1
REMARK minimizedAffinity 6.88507652
REMARK minimizedRMSD -1
REMARK  0 active torsions:
REMARK  status: ('A' for Active; 'I' for Inactive)
ROOT
ATOM      1  C   UNL d   1       1.678  -1.439   1.230  0.00  0.00     0.023 A 
ATOM      2  C1  UNL d   1       0.723  -2.304   0.696  0.00  0.00     0.003 A 
ATOM      3  C2  UNL d   1       1.075  -3.613   0.361  0.00  0.00     0.048 A 
ATOM      4  C3  UNL d   1       2.384  -4.051   0.564  0.00  0.00     0.023 A 
ATOM      5  C4  UNL d   1       3.342  -3.189   1.099  0.00  0.00     0.048 A 
ATOM      6  C5  UNL d   1       2.986  -1.880   1.431  0.00  0.00     0.003 A 
ATOM      7  I   UNL d   1       2.910  -5.999   0.066  0.00  0.00    -0.146 I 
ENDROOT
TORSDOF 0
ENDMDL
