MODEL 1
REMARK minimizedAffinity 9.25628948
REMARK minimizedRMSD -1
REMARK  0 active torsions:
REMARK  status: ('A' for Active; 'I' for Inactive)
ROOT
ATOM      1  C   UNL d   1       0.873  -2.105   0.270  0.00  0.00     0.023 A 
ATOM      2  C1  UNL d   1       1.306  -0.906   0.836  0.00  0.00     0.003 A 
ATOM      3  C2  UNL d   1       2.063  -0.919   2.009  0.00  0.00     0.048 A 
ATOM      4  C3  UNL d   1       2.386  -2.135   2.610  0.00  0.00     0.023 A 
ATOM      5  C4  UNL d   1       1.956  -3.338   2.047  0.00  0.00     0.048 A 
ATOM      6  C5  UNL d   1       1.197  -3.319   0.875  0.00  0.00     0.003 A 
ATOM      7  I   UNL d   1       3.513  -2.158   4.356  0.00  0.00    -0.146 I 
ENDROOT
TORSDOF 0
ENDMDL
