MODEL 1
REMARK minimizedAffinity 9.17840099
REMARK minimizedRMSD -1
REMARK  0 active torsions:
REMARK  status: ('A' for Active; 'I' for Inactive)
ROOT
ATOM      1  C   UNL d   1       1.298  -2.234   0.857  0.00  0.00     0.023 A 
ATOM      2  C1  UNL d   1       2.345  -3.156   0.841  0.00  0.00     0.003 A 
ATOM      3  C2  UNL d   1       3.275  -3.176   1.881  0.00  0.00     0.048 A 
ATOM      4  C3  UNL d   1       3.153  -2.272   2.936  0.00  0.00     0.023 A 
ATOM      5  C4  UNL d   1       2.107  -1.348   2.957  0.00  0.00     0.048 A 
ATOM      6  C5  UNL d   1       1.179  -1.331   1.914  0.00  0.00     0.003 A 
ATOM      7  I   UNL d   1       4.537  -2.300   4.486  0.00  0.00    -0.146 I 
ENDROOT
TORSDOF 0
ENDMDL
