MODEL 1
REMARK minimizedAffinity 10.7359495
REMARK minimizedRMSD -1
REMARK  0 active torsions:
REMARK  status: ('A' for Active; 'I' for Inactive)
ROOT
ATOM      1  C   UNL d   1       0.550  -1.024   2.935  0.00  0.00     0.023 A 
ATOM      2  C1  UNL d   1       1.912  -1.264   2.749  0.00  0.00     0.003 A 
ATOM      3  C2  UNL d   1       2.333  -2.390   2.040  0.00  0.00     0.048 A 
ATOM      4  C3  UNL d   1       1.387  -3.272   1.518  0.00  0.00     0.023 A 
ATOM      5  C4  UNL d   1       0.024  -3.036   1.701  0.00  0.00     0.048 A 
ATOM      6  C5  UNL d   1      -0.393  -1.908   2.412  0.00  0.00     0.003 A 
ATOM      7  I   UNL d   1       2.012  -4.950   0.462  0.00  0.00    -0.146 I 
ENDROOT
TORSDOF 0
ENDMDL
