MODEL 1
REMARK minimizedAffinity 11.1133194
REMARK minimizedRMSD -1
REMARK  0 active torsions:
REMARK  status: ('A' for Active; 'I' for Inactive)
ROOT
ATOM      1  C   UNL d   1      -3.505  -1.396  -0.738  0.00  0.00     0.023 A 
ATOM      2  C1  UNL d   1      -4.341  -0.521  -1.432  0.00  0.00     0.003 A 
ATOM      3  C2  UNL d   1      -3.801   0.580  -2.100  0.00  0.00     0.048 A 
ATOM      4  C3  UNL d   1      -2.424   0.800  -2.071  0.00  0.00     0.023 A 
ATOM      5  C4  UNL d   1      -1.584  -0.074  -1.378  0.00  0.00     0.048 A 
ATOM      6  C5  UNL d   1      -2.129  -1.172  -0.711  0.00  0.00     0.003 A 
ATOM      7  I   UNL d   1      -1.618   2.437  -3.065  0.00  0.00    -0.146 I 
ENDROOT
TORSDOF 0
ENDMDL
