MODEL 1
REMARK minimizedAffinity 14.6761703
REMARK minimizedRMSD -1
REMARK  0 active torsions:
REMARK  status: ('A' for Active; 'I' for Inactive)
ROOT
ATOM      1  C   UNL d   1       1.201  -1.976   0.650  0.00  0.00     0.023 A 
ATOM      2  C1  UNL d   1       2.259  -2.883   0.594  0.00  0.00     0.003 A 
ATOM      3  C2  UNL d   1       3.098  -3.049   1.699  0.00  0.00     0.048 A 
ATOM      4  C3  UNL d   1       2.872  -2.305   2.856  0.00  0.00     0.023 A 
ATOM      5  C4  UNL d   1       1.814  -1.397   2.917  0.00  0.00     0.048 A 
ATOM      6  C5  UNL d   1       0.978  -1.234   1.810  0.00  0.00     0.003 A 
ATOM      7  I   UNL d   1       4.118  -2.550   4.501  0.00  0.00    -0.146 I 
ENDROOT
TORSDOF 0
ENDMDL
