MODEL 1
REMARK minimizedAffinity 2.26738143
REMARK minimizedRMSD -1
REMARK  0 active torsions:
REMARK  status: ('A' for Active; 'I' for Inactive)
ROOT
ATOM      1  C   UNL d   1      -2.306   1.920  -3.369  0.00  0.00     0.023 A 
ATOM      2  C1  UNL d   1      -2.042   1.643  -4.711  0.00  0.00     0.003 A 
ATOM      3  C2  UNL d   1      -1.267   2.525  -5.467  0.00  0.00     0.048 A 
ATOM      4  C3  UNL d   1      -0.760   3.681  -4.876  0.00  0.00     0.023 A 
ATOM      5  C4  UNL d   1      -1.021   3.962  -3.534  0.00  0.00     0.048 A 
ATOM      6  C5  UNL d   1      -1.797   3.078  -2.782  0.00  0.00     0.003 A 
ATOM      7  I   UNL d   1       0.394   4.995  -6.000  0.00  0.00    -0.146 I 
ENDROOT
TORSDOF 0
ENDMDL
