MODEL 1
REMARK minimizedAffinity 2.66852188
REMARK minimizedRMSD -1
REMARK  0 active torsions:
REMARK  status: ('A' for Active; 'I' for Inactive)
ROOT
ATOM      1  C   UNL d   1       5.998   4.746  -5.948  0.00  0.00     0.023 A 
ATOM      2  C1  UNL d   1       5.319   3.528  -5.910  0.00  0.00     0.003 A 
ATOM      3  C2  UNL d   1       3.923   3.505  -5.915  0.00  0.00     0.048 A 
ATOM      4  C3  UNL d   1       3.212   4.704  -5.960  0.00  0.00     0.023 A 
ATOM      5  C4  UNL d   1       3.887   5.925  -5.999  0.00  0.00     0.048 A 
ATOM      6  C5  UNL d   1       5.283   5.943  -5.992  0.00  0.00     0.003 A 
ATOM      7  I   UNL d   1       1.134   4.673  -5.968  0.00  0.00    -0.146 I 
ENDROOT
TORSDOF 0
ENDMDL
