MODEL 1
REMARK minimizedAffinity 10.2299557
REMARK minimizedRMSD -1
REMARK  0 active torsions:
REMARK  status: ('A' for Active; 'I' for Inactive)
ROOT
ATOM      1  C   UNL d   1       4.085   5.225  -5.999  0.00  0.00     0.023 A 
ATOM      2  C1  UNL d   1       2.924   5.998  -5.973  0.00  0.00     0.003 A 
ATOM      3  C2  UNL d   1       1.721   5.440  -5.535  0.00  0.00     0.048 A 
ATOM      4  C3  UNL d   1       1.687   4.108  -5.124  0.00  0.00     0.023 A 
ATOM      5  C4  UNL d   1       2.846   3.331  -5.148  0.00  0.00     0.048 A 
ATOM      6  C5  UNL d   1       4.046   3.893  -5.587  0.00  0.00     0.003 A 
ATOM      7  I   UNL d   1      -0.102   3.275  -4.471  0.00  0.00    -0.146 I 
ENDROOT
TORSDOF 0
ENDMDL
