MODEL 1
REMARK minimizedAffinity 4.82576895
REMARK minimizedRMSD -1
REMARK  0 active torsions:
REMARK  status: ('A' for Active; 'I' for Inactive)
ROOT
ATOM      1  C   UNL d   1      -1.592   1.911  -4.259  0.00  0.00     0.023 A 
ATOM      2  C1  UNL d   1      -1.426   3.052  -3.474  0.00  0.00     0.003 A 
ATOM      3  C2  UNL d   1      -0.514   4.038  -3.857  0.00  0.00     0.048 A 
ATOM      4  C3  UNL d   1       0.227   3.877  -5.027  0.00  0.00     0.023 A 
ATOM      5  C4  UNL d   1       0.063   2.737  -5.816  0.00  0.00     0.048 A 
ATOM      6  C5  UNL d   1      -0.848   1.753  -5.428  0.00  0.00     0.003 A 
ATOM      7  I   UNL d   1       1.584   5.344  -5.601  0.00  0.00    -0.146 I 
ENDROOT
TORSDOF 0
ENDMDL
