MODEL 1
REMARK minimizedAffinity 2.48816228
REMARK minimizedRMSD -1
REMARK  0 active torsions:
REMARK  status: ('A' for Active; 'I' for Inactive)
ROOT
ATOM      1  C   UNL d   1       3.887  -5.941   0.385  0.00  0.00     0.023 A 
ATOM      2  C1  UNL d   1       2.512  -5.988   0.615  0.00  0.00     0.003 A 
ATOM      3  C2  UNL d   1       1.828  -4.834   1.001  0.00  0.00     0.048 A 
ATOM      4  C3  UNL d   1       2.524  -3.636   1.154  0.00  0.00     0.023 A 
ATOM      5  C4  UNL d   1       3.900  -3.584   0.924  0.00  0.00     0.048 A 
ATOM      6  C5  UNL d   1       4.580  -4.741   0.539  0.00  0.00     0.003 A 
ATOM      7  I   UNL d   1       1.507  -1.916   1.728  0.00  0.00    -0.146 I 
ENDROOT
TORSDOF 0
ENDMDL
