MODEL 1
REMARK minimizedAffinity 12.5832653
REMARK minimizedRMSD -1
REMARK  0 active torsions:
REMARK  status: ('A' for Active; 'I' for Inactive)
ROOT
ATOM      1  C   UNL d   1      -2.036   1.498  -3.592  0.00  0.00     0.124 A 
ATOM      2  C1  UNL d   1      -0.736   1.514  -4.078  0.00  0.00     0.062 A 
ATOM      3  C2  UNL d   1      -0.259   2.626  -4.766  0.00  0.00     0.162 A 
ATOM      4  C3  UNL d   1      -1.083   3.733  -4.971  0.00  0.00    -0.034 A 
ATOM      5  C4  UNL d   1      -2.389   3.710  -4.480  0.00  0.00     0.162 A 
ATOM      6  C5  UNL d   1      -2.861   2.596  -3.793  0.00  0.00     0.062 A 
ATOM      7  F   UNL d   1      -4.118   2.583  -3.324  0.00  0.00    -0.097 F 
ATOM      8  F1  UNL d   1      -3.208   4.757  -4.659  0.00  0.00    -0.096 F 
ATOM      9  I   UNL d   1      -0.373   5.398  -5.998  0.00  0.00    -0.060 I 
ATOM     10  F2  UNL d   1       1.001   2.613  -5.224  0.00  0.00    -0.096 F 
ATOM     11  F3  UNL d   1       0.062   0.454  -3.886  0.00  0.00    -0.097 F 
ATOM     12  F4  UNL d   1      -2.493   0.427  -2.931  0.00  0.00    -0.092 F 
ENDROOT
TORSDOF 0
ENDMDL
