MODEL 1
REMARK minimizedAffinity 1.92055225
REMARK minimizedRMSD -1
REMARK  0 active torsions:
REMARK  status: ('A' for Active; 'I' for Inactive)
ROOT
ATOM      1  C   UNL d   1      -3.178   4.081  -4.370  0.00  0.00     0.124 A 
ATOM      2  C1  UNL d   1      -3.578   3.028  -3.559  0.00  0.00     0.062 A 
ATOM      3  C2  UNL d   1      -2.759   1.913  -3.404  0.00  0.00     0.162 A 
ATOM      4  C3  UNL d   1      -1.531   1.845  -4.061  0.00  0.00    -0.034 A 
ATOM      5  C4  UNL d   1      -1.135   2.907  -4.876  0.00  0.00     0.162 A 
ATOM      6  C5  UNL d   1      -1.957   4.019  -5.028  0.00  0.00     0.062 A 
ATOM      7  F   UNL d   1      -1.569   5.035  -5.812  0.00  0.00    -0.097 F 
ATOM      8  F1  UNL d   1       0.039   2.874  -5.523  0.00  0.00    -0.096 F 
ATOM      9  I   UNL d   1      -0.304   0.180  -3.832  0.00  0.00    -0.060 I 
ATOM     10  F2  UNL d   1      -3.171   0.911  -2.613  0.00  0.00    -0.096 F 
ATOM     11  F3  UNL d   1      -4.757   3.084  -2.923  0.00  0.00    -0.097 F 
ATOM     12  F4  UNL d   1      -3.968   5.152  -4.518  0.00  0.00    -0.092 F 
ENDROOT
TORSDOF 0
ENDMDL
