MODEL 1
REMARK minimizedAffinity 7.70352507
REMARK minimizedRMSD -1
REMARK  0 active torsions:
REMARK  status: ('A' for Active; 'I' for Inactive)
ROOT
ATOM      1  C   UNL d   1      -2.413   4.492  -4.402  0.00  0.00     0.124 A 
ATOM      2  C1  UNL d   1      -1.257   4.248  -5.129  0.00  0.00     0.062 A 
ATOM      3  C2  UNL d   1      -0.620   3.013  -5.036  0.00  0.00     0.162 A 
ATOM      4  C3  UNL d   1      -1.139   2.014  -4.213  0.00  0.00    -0.034 A 
ATOM      5  C4  UNL d   1      -2.302   2.268  -3.484  0.00  0.00     0.162 A 
ATOM      6  C5  UNL d   1      -2.935   3.503  -3.580  0.00  0.00     0.062 A 
ATOM      7  F   UNL d   1      -4.052   3.738  -2.877  0.00  0.00    -0.097 F 
ATOM      8  F1  UNL d   1      -2.828   1.329  -2.684  0.00  0.00    -0.096 F 
ATOM      9  I   UNL d   1      -0.189   0.167  -4.072  0.00  0.00    -0.060 I 
ATOM     10  F2  UNL d   1       0.497   2.804  -5.750  0.00  0.00    -0.096 F 
ATOM     11  F3  UNL d   1      -0.750   5.202  -5.922  0.00  0.00    -0.097 F 
ATOM     12  F4  UNL d   1      -3.024   5.681  -4.492  0.00  0.00    -0.092 F 
ENDROOT
TORSDOF 0
ENDMDL
