MODEL 1
REMARK minimizedAffinity 2.51950955
REMARK minimizedRMSD -1
REMARK  0 active torsions:
REMARK  status: ('A' for Active; 'I' for Inactive)
ROOT
ATOM      1  C   UNL d   1       1.668  -3.145   0.237  0.00  0.00     0.124 A 
ATOM      2  C1  UNL d   1       0.414  -3.538   0.686  0.00  0.00     0.062 A 
ATOM      3  C2  UNL d   1      -0.462  -2.600   1.224  0.00  0.00     0.162 A 
ATOM      4  C3  UNL d   1      -0.089  -1.258   1.314  0.00  0.00    -0.034 A 
ATOM      5  C4  UNL d   1       1.173  -0.871   0.861  0.00  0.00     0.162 A 
ATOM      6  C5  UNL d   1       2.046  -1.813   0.324  0.00  0.00     0.062 A 
ATOM      7  F   UNL d   1       3.256  -1.431  -0.109  0.00  0.00    -0.097 F 
ATOM      8  F1  UNL d   1       1.564   0.410   0.933  0.00  0.00    -0.096 F 
ATOM      9  I   UNL d   1      -1.397   0.147   2.117  0.00  0.00    -0.060 I 
ATOM     10  F2  UNL d   1      -1.667  -3.007   1.650  0.00  0.00    -0.096 F 
ATOM     11  F3  UNL d   1       0.047  -4.824   0.603  0.00  0.00    -0.097 F 
ATOM     12  F4  UNL d   1       2.509  -4.050  -0.279  0.00  0.00    -0.092 F 
ENDROOT
TORSDOF 0
ENDMDL
