MODEL 1
REMARK minimizedAffinity 21.5563583
REMARK minimizedRMSD -1
REMARK  0 active torsions:
REMARK  status: ('A' for Active; 'I' for Inactive)
ROOT
ATOM      1  C   UNL d   1       0.792  -2.550  -0.047  0.00  0.00     0.124 A 
ATOM      2  C1  UNL d   1       0.235  -3.643   0.603  0.00  0.00     0.062 A 
ATOM      3  C2  UNL d   1       1.056  -4.628   1.144  0.00  0.00     0.162 A 
ATOM      4  C3  UNL d   1       2.443  -4.525   1.039  0.00  0.00    -0.034 A 
ATOM      5  C4  UNL d   1       2.996  -3.423   0.384  0.00  0.00     0.162 A 
ATOM      6  C5  UNL d   1       2.171  -2.441  -0.156  0.00  0.00     0.062 A 
ATOM      7  F   UNL d   1       2.711  -1.386  -0.783  0.00  0.00    -0.097 F 
ATOM      8  F1  UNL d   1       4.325  -3.293   0.265  0.00  0.00    -0.096 F 
ATOM      9  I   UNL d   1       3.674  -5.996   1.847  0.00  0.00    -0.060 I 
ATOM     10  F2  UNL d   1       0.491  -5.673   1.767  0.00  0.00    -0.096 F 
ATOM     11  F3  UNL d   1      -1.097  -3.751   0.709  0.00  0.00    -0.097 F 
ATOM     12  F4  UNL d   1       0.000  -1.604  -0.567  0.00  0.00    -0.092 F 
ENDROOT
TORSDOF 0
ENDMDL
