MODEL 1
REMARK minimizedAffinity 6.20461559
REMARK minimizedRMSD -1
REMARK  0 active torsions:
REMARK  status: ('A' for Active; 'I' for Inactive)
ROOT
ATOM      1  C   UNL d   1      -3.016   3.369  -4.041  0.00  0.00     0.124 A 
ATOM      2  C1  UNL d   1      -1.737   3.485  -4.568  0.00  0.00     0.062 A 
ATOM      3  C2  UNL d   1      -0.866   2.400  -4.540  0.00  0.00     0.162 A 
ATOM      4  C3  UNL d   1      -1.272   1.187  -3.982  0.00  0.00    -0.034 A 
ATOM      5  C4  UNL d   1      -2.559   1.078  -3.453  0.00  0.00     0.162 A 
ATOM      6  C5  UNL d   1      -3.425   2.166  -3.484  0.00  0.00     0.062 A 
ATOM      7  F   UNL d   1      -4.660   2.051  -2.973  0.00  0.00    -0.097 F 
ATOM      8  F1  UNL d   1      -2.981  -0.074  -2.909  0.00  0.00    -0.096 F 
ATOM      9  I   UNL d   1       0.027  -0.439  -3.937  0.00  0.00    -0.060 I 
ATOM     10  F2  UNL d   1       0.363   2.541  -5.057  0.00  0.00    -0.096 F 
ATOM     11  F3  UNL d   1      -1.339   4.647  -5.106  0.00  0.00    -0.097 F 
ATOM     12  F4  UNL d   1      -3.851   4.415  -4.069  0.00  0.00    -0.092 F 
ENDROOT
TORSDOF 0
ENDMDL
