MODEL 1
REMARK minimizedAffinity 18.8672047
REMARK minimizedRMSD -1
REMARK  0 active torsions:
REMARK  status: ('A' for Active; 'I' for Inactive)
ROOT
ATOM      1  C   UNL d   1      -2.269   3.550  -4.296  0.00  0.00     0.124 A 
ATOM      2  C1  UNL d   1      -2.767   2.430  -3.646  0.00  0.00     0.062 A 
ATOM      3  C2  UNL d   1      -1.988   1.282  -3.533  0.00  0.00     0.162 A 
ATOM      4  C3  UNL d   1      -0.701   1.249  -4.071  0.00  0.00    -0.034 A 
ATOM      5  C4  UNL d   1      -0.207   2.380  -4.724  0.00  0.00     0.162 A 
ATOM      6  C5  UNL d   1      -0.990   3.524  -4.834  0.00  0.00     0.062 A 
ATOM      7  F   UNL d   1      -0.507   4.606  -5.462  0.00  0.00    -0.097 F 
ATOM      8  F1  UNL d   1       1.026   2.382  -5.252  0.00  0.00    -0.096 F 
ATOM      9  I   UNL d   1       0.467  -0.465  -3.904  0.00  0.00    -0.060 I 
ATOM     10  F2  UNL d   1      -2.495   0.214  -2.900  0.00  0.00    -0.096 F 
ATOM     11  F3  UNL d   1      -4.003   2.452  -3.126  0.00  0.00    -0.097 F 
ATOM     12  F4  UNL d   1      -3.021   4.653  -4.404  0.00  0.00    -0.092 F 
ENDROOT
TORSDOF 0
ENDMDL
