MODEL 1
REMARK minimizedAffinity 15.5080614
REMARK minimizedRMSD -1
REMARK  0 active torsions:
REMARK  status: ('A' for Active; 'I' for Inactive)
ROOT
ATOM      1  C   UNL d   1       0.067   3.553  -5.385  0.00  0.00     0.124 A 
ATOM      2  C1  UNL d   1      -0.953   4.492  -5.318  0.00  0.00     0.062 A 
ATOM      3  C2  UNL d   1      -2.151   4.180  -4.681  0.00  0.00     0.162 A 
ATOM      4  C3  UNL d   1      -2.335   2.923  -4.105  0.00  0.00    -0.034 A 
ATOM      5  C4  UNL d   1      -1.305   1.983  -4.177  0.00  0.00     0.162 A 
ATOM      6  C5  UNL d   1      -0.110   2.300  -4.815  0.00  0.00     0.062 A 
ATOM      7  F   UNL d   1       0.874   1.391  -4.879  0.00  0.00    -0.097 F 
ATOM      8  F1  UNL d   1      -1.449   0.766  -3.634  0.00  0.00    -0.096 F 
ATOM      9  I   UNL d   1      -4.125   2.453  -3.152  0.00  0.00    -0.060 I 
ATOM     10  F2  UNL d   1      -3.119   5.107  -4.631  0.00  0.00    -0.096 F 
ATOM     11  F3  UNL d   1      -0.785   5.703  -5.868  0.00  0.00    -0.097 F 
ATOM     12  F4  UNL d   1       1.218   3.855  -5.999  0.00  0.00    -0.092 F 
ENDROOT
TORSDOF 0
ENDMDL
