MODEL 1
REMARK minimizedAffinity 7.57862568
REMARK minimizedRMSD -1
REMARK  0 active torsions:
REMARK  status: ('A' for Active; 'I' for Inactive)
ROOT
ATOM      1  C   UNL d   1       1.326   0.944  -5.018  0.00  0.00     0.124 A 
ATOM      2  C1  UNL d   1       0.327   0.216  -4.387  0.00  0.00     0.062 A 
ATOM      3  C2  UNL d   1      -0.909   0.801  -4.128  0.00  0.00     0.162 A 
ATOM      4  C3  UNL d   1      -1.154   2.123  -4.500  0.00  0.00    -0.034 A 
ATOM      5  C4  UNL d   1      -0.144   2.850  -5.133  0.00  0.00     0.162 A 
ATOM      6  C5  UNL d   1       1.090   2.260  -5.390  0.00  0.00     0.062 A 
ATOM      7  F   UNL d   1       2.054   2.966  -5.999  0.00  0.00    -0.097 F 
ATOM      8  F1  UNL d   1      -0.345   4.123  -5.504  0.00  0.00    -0.096 F 
ATOM      9  I   UNL d   1      -3.000   3.002  -4.114  0.00  0.00    -0.060 I 
ATOM     10  F2  UNL d   1      -1.856   0.074  -3.517  0.00  0.00    -0.096 F 
ATOM     11  F3  UNL d   1       0.552  -1.056  -4.026  0.00  0.00    -0.097 F 
ATOM     12  F4  UNL d   1       2.514   0.379  -5.265  0.00  0.00    -0.092 F 
ENDROOT
TORSDOF 0
ENDMDL
