MODEL 1
REMARK minimizedAffinity 8.58504105
REMARK minimizedRMSD -1
REMARK  0 active torsions:
REMARK  status: ('A' for Active; 'I' for Inactive)
ROOT
ATOM      1  C   UNL d   1      -2.984   3.761  -4.345  0.00  0.00     0.124 A 
ATOM      2  C1  UNL d   1      -3.431   2.610  -3.710  0.00  0.00     0.062 A 
ATOM      3  C2  UNL d   1      -2.579   1.520  -3.556  0.00  0.00     0.162 A 
ATOM      4  C3  UNL d   1      -1.271   1.576  -4.037  0.00  0.00    -0.034 A 
ATOM      5  C4  UNL d   1      -0.829   2.736  -4.675  0.00  0.00     0.162 A 
ATOM      6  C5  UNL d   1      -1.684   3.823  -4.826  0.00  0.00     0.062 A 
ATOM      7  F   UNL d   1      -1.250   4.934  -5.440  0.00  0.00    -0.097 F 
ATOM      8  F1  UNL d   1       0.423   2.823  -5.149  0.00  0.00    -0.096 F 
ATOM      9  I   UNL d   1       0.006  -0.052  -3.808  0.00  0.00    -0.060 I 
ATOM     10  F2  UNL d   1      -3.038   0.421  -2.939  0.00  0.00    -0.096 F 
ATOM     11  F3  UNL d   1      -4.687   2.548  -3.245  0.00  0.00    -0.097 F 
ATOM     12  F4  UNL d   1      -3.805   4.808  -4.493  0.00  0.00    -0.092 F 
ENDROOT
TORSDOF 0
ENDMDL
