MODEL 1
REMARK minimizedAffinity 25.9986362
REMARK minimizedRMSD -1
REMARK  0 active torsions:
REMARK  status: ('A' for Active; 'I' for Inactive)
ROOT
ATOM      1  C   UNL d   1       1.126  -3.757  -0.004  0.00  0.00     0.124 A 
ATOM      2  C1  UNL d   1       1.833  -4.890   0.375  0.00  0.00     0.062 A 
ATOM      3  C2  UNL d   1       3.225  -4.891   0.341  0.00  0.00     0.162 A 
ATOM      4  C3  UNL d   1       3.919  -3.754  -0.072  0.00  0.00    -0.034 A 
ATOM      5  C4  UNL d   1       3.201  -2.618  -0.452  0.00  0.00     0.162 A 
ATOM      6  C5  UNL d   1       1.811  -2.622  -0.416  0.00  0.00     0.062 A 
ATOM      7  F   UNL d   1       1.130  -1.527  -0.782  0.00  0.00    -0.097 F 
ATOM      8  F1  UNL d   1       3.838  -1.508  -0.854  0.00  0.00    -0.096 F 
ATOM      9  I   UNL d   1       6.000  -3.750  -0.123  0.00  0.00    -0.060 I 
ATOM     10  F2  UNL d   1       3.882  -5.999   0.712  0.00  0.00    -0.096 F 
ATOM     11  F3  UNL d   1       1.174  -5.988   0.773  0.00  0.00    -0.097 F 
ATOM     12  F4  UNL d   1      -0.212  -3.759   0.029  0.00  0.00    -0.092 F 
ENDROOT
TORSDOF 0
ENDMDL
