MODEL 1
REMARK minimizedAffinity 1.42000902
REMARK minimizedRMSD -1
REMARK  0 active torsions:
REMARK  status: ('A' for Active; 'I' for Inactive)
ROOT
ATOM      1  C   UNL d   1      -2.753   2.335  -3.837  0.00  0.00     0.124 A 
ATOM      2  C1  UNL d   1      -1.884   1.252  -3.816  0.00  0.00     0.062 A 
ATOM      3  C2  UNL d   1      -0.640   1.342  -4.433  0.00  0.00     0.162 A 
ATOM      4  C3  UNL d   1      -0.256   2.519  -5.076  0.00  0.00    -0.034 A 
ATOM      5  C4  UNL d   1      -1.135   3.603  -5.094  0.00  0.00     0.162 A 
ATOM      6  C5  UNL d   1      -2.378   3.508  -4.475  0.00  0.00     0.062 A 
ATOM      7  F   UNL d   1      -3.216   4.555  -4.497  0.00  0.00    -0.097 F 
ATOM      8  F1  UNL d   1      -0.798   4.749  -5.703  0.00  0.00    -0.096 F 
ATOM      9  I   UNL d   1       1.604   2.656  -6.000  0.00  0.00    -0.060 I 
ATOM     10  F2  UNL d   1       0.180   0.280  -4.397  0.00  0.00    -0.096 F 
ATOM     11  F3  UNL d   1      -2.244   0.117  -3.201  0.00  0.00    -0.097 F 
ATOM     12  F4  UNL d   1      -3.950   2.246  -3.243  0.00  0.00    -0.092 F 
ENDROOT
TORSDOF 0
ENDMDL
