MODEL 1
REMARK minimizedAffinity -4.15474606
REMARK minimizedRMSD -1
REMARK  0 active torsions:
REMARK  status: ('A' for Active; 'I' for Inactive)
ROOT
ATOM      1  C   UNL d   1       1.940  -0.374   1.491  0.00  0.00     0.020 A 
ATOM      2  C1  UNL d   1       1.168  -0.775   2.580  0.00  0.00     0.020 A 
ATOM      3  C2  UNL d   1      -0.225  -0.795   2.479  0.00  0.00     0.034 A 
ATOM      4  C3  UNL d   1      -0.849  -0.412   1.286  0.00  0.00     0.017 A 
ATOM      5  C4  UNL d   1      -0.073  -0.010   0.193  0.00  0.00     0.017 A 
ATOM      6  C5  UNL d   1       1.321   0.008   0.300  0.00  0.00     0.034 A 
ATOM      7 Cl   UNL d   1      -0.771   0.476  -1.311  0.00  0.00    -0.070 Cl
ATOM      8 Cl1  UNL d   1      -2.576  -0.460   1.231  0.00  0.00    -0.070 Cl
ENDROOT
TORSDOF 0
ENDMDL
