MODEL 1
REMARK minimizedAffinity -1.77004004
REMARK minimizedRMSD -1
REMARK  0 active torsions:
REMARK  status: ('A' for Active; 'I' for Inactive)
ROOT
ATOM      1  C   UNL d   1      -0.714   0.048   2.257  0.00  0.00     0.020 A 
ATOM      2  C1  UNL d   1       0.206  -0.977   2.476  0.00  0.00     0.020 A 
ATOM      3  C2  UNL d   1       0.995  -1.442   1.422  0.00  0.00     0.034 A 
ATOM      4  C3  UNL d   1       0.866  -0.884   0.145  0.00  0.00     0.017 A 
ATOM      5  C4  UNL d   1      -0.058   0.145  -0.073  0.00  0.00     0.017 A 
ATOM      6  C5  UNL d   1      -0.846   0.607   0.986  0.00  0.00     0.034 A 
ATOM      7 Cl   UNL d   1      -0.274   0.884  -1.620  0.00  0.00    -0.070 Cl
ATOM      8 Cl1  UNL d   1       1.875  -1.508  -1.111  0.00  0.00    -0.070 Cl
ENDROOT
TORSDOF 0
ENDMDL
