MODEL 1
REMARK minimizedAffinity -5.05519819
REMARK minimizedRMSD -1
REMARK  0 active torsions:
REMARK  status: ('A' for Active; 'I' for Inactive)
ROOT
ATOM      1  C   UNL d   1       2.261  -2.153   1.991  0.00  0.00     0.020 A 
ATOM      2  C1  UNL d   1       1.496  -1.219   2.688  0.00  0.00     0.020 A 
ATOM      3  C2  UNL d   1       0.609  -0.389   1.999  0.00  0.00     0.034 A 
ATOM      4  C3  UNL d   1       0.485  -0.491   0.609  0.00  0.00     0.017 A 
ATOM      5  C4  UNL d   1       1.254  -1.429  -0.090  0.00  0.00     0.017 A 
ATOM      6  C5  UNL d   1       2.140  -2.258   0.605  0.00  0.00     0.034 A 
ATOM      7 Cl   UNL d   1       1.156  -1.614  -1.806  0.00  0.00    -0.070 Cl
ATOM      8 Cl1  UNL d   1      -0.631   0.567  -0.178  0.00  0.00    -0.070 Cl
ENDROOT
TORSDOF 0
ENDMDL
