MODEL 1
REMARK minimizedAffinity -3.69570255
REMARK minimizedRMSD -1
REMARK  0 active torsions:
REMARK  status: ('A' for Active; 'I' for Inactive)
ROOT
ATOM      1  C   UNL d   1       1.854  -2.576   2.212  0.00  0.00     0.020 A 
ATOM      2  C1  UNL d   1       0.783  -1.788   2.632  0.00  0.00     0.020 A 
ATOM      3  C2  UNL d   1       0.096  -0.994   1.711  0.00  0.00     0.034 A 
ATOM      4  C3  UNL d   1       0.480  -0.986   0.365  0.00  0.00     0.017 A 
ATOM      5  C4  UNL d   1       1.555  -1.777  -0.056  0.00  0.00     0.017 A 
ATOM      6  C5  UNL d   1       2.239  -2.570   0.871  0.00  0.00     0.034 A 
ATOM      7 Cl   UNL d   1       2.087  -1.819  -1.700  0.00  0.00    -0.070 Cl
ATOM      8 Cl1  UNL d   1      -0.413   0.020  -0.719  0.00  0.00    -0.070 Cl
ENDROOT
TORSDOF 0
ENDMDL
