MODEL 1
REMARK minimizedAffinity -3.37389803
REMARK minimizedRMSD -1
REMARK  0 active torsions:
REMARK  status: ('A' for Active; 'I' for Inactive)
ROOT
ATOM      1  C   UNL d   1       1.956  -1.000   1.639  0.00  0.00     0.020 A 
ATOM      2  C1  UNL d   1       1.088  -1.120   2.724  0.00  0.00     0.020 A 
ATOM      3  C2  UNL d   1      -0.258  -0.774   2.583  0.00  0.00     0.034 A 
ATOM      4  C3  UNL d   1      -0.740  -0.307   1.355  0.00  0.00     0.017 A 
ATOM      5  C4  UNL d   1       0.132  -0.188   0.266  0.00  0.00     0.017 A 
ATOM      6  C5  UNL d   1       1.478  -0.535   0.413  0.00  0.00     0.034 A 
ATOM      7 Cl   UNL d   1      -0.389   0.381  -1.281  0.00  0.00    -0.070 Cl
ATOM      8 Cl1  UNL d   1      -2.415   0.102   1.252  0.00  0.00    -0.070 Cl
ENDROOT
TORSDOF 0
ENDMDL
