MODEL 1
REMARK minimizedAffinity -3.40586782
REMARK minimizedRMSD -1
REMARK  0 active torsions:
REMARK  status: ('A' for Active; 'I' for Inactive)
ROOT
ATOM      1  C   UNL d   1      -1.169  -0.343   0.347  0.00  0.00     0.020 A 
ATOM      2  C1  UNL d   1      -0.559  -0.695  -0.857  0.00  0.00     0.020 A 
ATOM      3  C2  UNL d   1       0.812  -0.957  -0.894  0.00  0.00     0.034 A 
ATOM      4  C3  UNL d   1       1.578  -0.868   0.274  0.00  0.00     0.017 A 
ATOM      5  C4  UNL d   1       0.965  -0.515   1.481  0.00  0.00     0.017 A 
ATOM      6  C5  UNL d   1      -0.408  -0.253   1.513  0.00  0.00     0.034 A 
ATOM      7 Cl   UNL d   1       1.844  -0.384   2.964  0.00  0.00    -0.070 Cl
ATOM      8 Cl1  UNL d   1       3.268  -1.206   0.154  0.00  0.00    -0.070 Cl
ENDROOT
TORSDOF 0
ENDMDL
