MODEL 1
REMARK minimizedAffinity -3.51316118
REMARK minimizedRMSD -1
REMARK  0 active torsions:
REMARK  status: ('A' for Active; 'I' for Inactive)
ROOT
ATOM      1  C   UNL d   1       1.772  -1.120  -0.963  0.00  0.00     0.020 A 
ATOM      2  C1  UNL d   1       0.471  -0.968  -1.441  0.00  0.00     0.020 A 
ATOM      3  C2  UNL d   1      -0.583  -0.770  -0.547  0.00  0.00     0.034 A 
ATOM      4  C3  UNL d   1      -0.338  -0.724   0.830  0.00  0.00     0.017 A 
ATOM      5  C4  UNL d   1       0.968  -0.877   1.309  0.00  0.00     0.017 A 
ATOM      6  C5  UNL d   1       2.020  -1.074   0.409  0.00  0.00     0.034 A 
ATOM      7 Cl   UNL d   1       1.348  -0.831   2.995  0.00  0.00    -0.070 Cl
ATOM      8 Cl1  UNL d   1      -1.689  -0.476   1.879  0.00  0.00    -0.070 Cl
ENDROOT
TORSDOF 0
ENDMDL
