MODEL 1
REMARK minimizedAffinity -4.8232379
REMARK minimizedRMSD -1
REMARK  1 active torsions:
REMARK  status: ('A' for Active; 'I' for Inactive)
REMARK    1  A    between atoms: C1_2  and  C2_3 
ROOT
ATOM      1  C2  UNL d   1       0.236   0.506  -0.196  0.00  0.00    -0.073 A 
ATOM      2  C3  UNL d   1       1.495   0.049   0.207  0.00  0.00    -0.002 A 
ATOM      3  C4  UNL d   1       1.660  -1.264   0.650  0.00  0.00     0.004 A 
ATOM      4  C5  UNL d   1       0.570  -2.134   0.688  0.00  0.00    -0.004 A 
ATOM      5  C6  UNL d   1      -0.694  -1.699   0.278  0.00  0.00    -0.075 A 
ATOM      6  C7  UNL d   1      -1.877  -2.621   0.316  0.00  0.00     0.076 C 
ATOM      7  C8  UNL d   1      -0.852  -0.378  -0.163  0.00  0.00     0.001 A 
ENDROOT
BRANCH   1   8
ATOM      8  C1  UNL d   1       0.055   1.921  -0.682  0.00  0.00     0.053 C 
ATOM      9  C   UNL d   1       0.719   2.151  -2.030  0.00  0.00     0.018 C 
ENDBRANCH   1   8
TORSDOF 1
ENDMDL
