MODEL 1
REMARK minimizedAffinity -2.56746769
REMARK minimizedRMSD -1
REMARK  1 active torsions:
REMARK  status: ('A' for Active; 'I' for Inactive)
REMARK    1  A    between atoms: C1_2  and  C2_3 
ROOT
ATOM      1  C2  UNL d   1      -0.001   0.156   0.020  0.00  0.00    -0.073 A 
ATOM      2  C3  UNL d   1       1.231  -0.477  -0.183  0.00  0.00    -0.002 A 
ATOM      3  C4  UNL d   1       1.404  -1.814   0.179  0.00  0.00     0.004 A 
ATOM      4  C5  UNL d   1       0.348  -2.532   0.739  0.00  0.00    -0.004 A 
ATOM      5  C6  UNL d   1      -0.894  -1.921   0.938  0.00  0.00    -0.075 A 
ATOM      6  C7  UNL d   1      -2.039  -2.679   1.541  0.00  0.00     0.076 C 
ATOM      7  C8  UNL d   1      -1.059  -0.577   0.575  0.00  0.00     0.001 A 
ENDROOT
BRANCH   1   8
ATOM      8  C1  UNL d   1      -0.194   1.597  -0.375  0.00  0.00     0.053 C 
ATOM      9  C   UNL d   1       0.700   1.995  -1.538  0.00  0.00     0.018 C 
ENDBRANCH   1   8
TORSDOF 1
ENDMDL
