MODEL 1
REMARK minimizedAffinity -5.31534052
REMARK minimizedRMSD -1
REMARK  1 active torsions:
REMARK  status: ('A' for Active; 'I' for Inactive)
REMARK    1  A    between atoms: C1_2  and  C2_3 
ROOT
ATOM      1  C2  UNL d   1      -0.238  -0.745   0.399  0.00  0.00    -0.073 A 
ATOM      2  C3  UNL d   1      -0.348  -2.123   0.620  0.00  0.00    -0.002 A 
ATOM      3  C4  UNL d   1      -1.464  -2.646   1.275  0.00  0.00     0.004 A 
ATOM      4  C5  UNL d   1      -2.483  -1.799   1.710  0.00  0.00    -0.004 A 
ATOM      5  C6  UNL d   1      -2.398  -0.420   1.488  0.00  0.00    -0.075 A 
ATOM      6  C7  UNL d   1      -3.485   0.504   1.952  0.00  0.00     0.076 C 
ATOM      7  C8  UNL d   1      -1.273   0.097   0.832  0.00  0.00     0.001 A 
ENDROOT
BRANCH   1   8
ATOM      8  C1  UNL d   1       0.961  -0.177  -0.313  0.00  0.00     0.053 C 
ATOM      9  C   UNL d   1       0.678   1.196  -0.901  0.00  0.00     0.018 C 
ENDBRANCH   1   8
TORSDOF 1
ENDMDL
