MODEL 1
REMARK minimizedAffinity -2.23683882
REMARK minimizedRMSD -1
REMARK  1 active torsions:
REMARK  status: ('A' for Active; 'I' for Inactive)
REMARK    1  A    between atoms: C1_2  and  C2_3 
ROOT
ATOM      1  C2  UNL d   1       1.517   1.458  -1.441  0.00  0.00    -0.073 A 
ATOM      2  C3  UNL d   1       0.553   1.966  -2.320  0.00  0.00    -0.002 A 
ATOM      3  C4  UNL d   1       0.895   2.282  -3.635  0.00  0.00     0.004 A 
ATOM      4  C5  UNL d   1       2.200   2.088  -4.087  0.00  0.00    -0.004 A 
ATOM      5  C6  UNL d   1       3.175   1.570  -3.227  0.00  0.00    -0.075 A 
ATOM      6  C7  UNL d   1       4.584   1.357  -3.697  0.00  0.00     0.076 C 
ATOM      7  C8  UNL d   1       2.824   1.257  -1.907  0.00  0.00     0.001 A 
ENDROOT
BRANCH   1   8
ATOM      8  C1  UNL d   1       1.150   1.109  -0.022  0.00  0.00     0.053 C 
ATOM      9  C   UNL d   1       0.034   0.079   0.042  0.00  0.00     0.018 C 
ENDBRANCH   1   8
TORSDOF 1
ENDMDL
