MODEL 1
REMARK minimizedAffinity -0.774026573
REMARK minimizedRMSD -1
REMARK  1 active torsions:
REMARK  status: ('A' for Active; 'I' for Inactive)
REMARK    1  A    between atoms: C1_2  and  C2_3 
ROOT
ATOM      1  C2  UNL d   1       0.728   1.665  -1.395  0.00  0.00    -0.073 A 
ATOM      2  C3  UNL d   1      -0.118   2.478  -2.158  0.00  0.00    -0.002 A 
ATOM      3  C4  UNL d   1       0.403   3.277  -3.177  0.00  0.00     0.004 A 
ATOM      4  C5  UNL d   1       1.771   3.265  -3.448  0.00  0.00    -0.004 A 
ATOM      5  C6  UNL d   1       2.631   2.450  -2.705  0.00  0.00    -0.075 A 
ATOM      6  C7  UNL d   1       4.105   2.428  -2.982  0.00  0.00     0.076 C 
ATOM      7  C8  UNL d   1       2.101   1.653  -1.681  0.00  0.00     0.001 A 
ENDROOT
BRANCH   1   8
ATOM      8  C1  UNL d   1       0.170   0.796  -0.298  0.00  0.00     0.053 C 
ATOM      9  C   UNL d   1       0.274  -0.684  -0.634  0.00  0.00     0.018 C 
ENDBRANCH   1   8
TORSDOF 1
ENDMDL
