MODEL 1
REMARK minimizedAffinity -5.33648968
REMARK minimizedRMSD -1
REMARK  1 active torsions:
REMARK  status: ('A' for Active; 'I' for Inactive)
REMARK    1  A    between atoms: C1_2  and  C2_3 
ROOT
ATOM      1  C2  UNL d   1      -0.181  -0.637   0.684  0.00  0.00    -0.073 A 
ATOM      2  C3  UNL d   1      -0.397  -2.005   0.886  0.00  0.00    -0.002 A 
ATOM      3  C4  UNL d   1      -1.595  -2.454   1.444  0.00  0.00     0.004 A 
ATOM      4  C5  UNL d   1      -2.589  -1.543   1.799  0.00  0.00    -0.004 A 
ATOM      5  C6  UNL d   1      -2.397  -0.173   1.593  0.00  0.00    -0.075 A 
ATOM      6  C7  UNL d   1      -3.456   0.820   1.971  0.00  0.00     0.076 C 
ATOM      7  C8  UNL d   1      -1.191   0.270   1.035  0.00  0.00     0.001 A 
ENDROOT
BRANCH   1   8
ATOM      8  C1  UNL d   1       1.108  -0.148   0.075  0.00  0.00     0.053 C 
ATOM      9  C   UNL d   1       0.940   1.200  -0.608  0.00  0.00     0.018 C 
ENDBRANCH   1   8
TORSDOF 1
ENDMDL
