MODEL 1
REMARK minimizedAffinity -2.55746174
REMARK minimizedRMSD -1
REMARK  0 active torsions:
REMARK  status: ('A' for Active; 'I' for Inactive)
ROOT
ATOM      1  C   UNL d   1      -3.051   2.918   2.494  0.00  0.00     0.077 C 
ATOM      2  C1  UNL d   1      -1.828   2.102   2.197  0.00  0.00    -0.074 A 
ATOM      3  C2  UNL d   1      -0.865   1.866   3.183  0.00  0.00    -0.005 A 
ATOM      4  C3  UNL d   1       0.263   1.097   2.895  0.00  0.00     0.006 A 
ATOM      5  C4  UNL d   1       0.438   0.557   1.620  0.00  0.00    -0.005 A 
ATOM      6  C5  UNL d   1      -0.516   0.782   0.622  0.00  0.00    -0.074 A 
ATOM      7  C6  UNL d   1      -0.348   0.200  -0.751  0.00  0.00     0.077 C 
ATOM      8  C7  UNL d   1      -1.649   1.550   0.921  0.00  0.00    -0.001 A 
ENDROOT
TORSDOF 0
ENDMDL
