MODEL 1
REMARK minimizedAffinity -3.25617552
REMARK minimizedRMSD -1
REMARK  0 active torsions:
REMARK  status: ('A' for Active; 'I' for Inactive)
ROOT
ATOM      1  C   UNL d   1       0.464   2.890   5.096  0.00  0.00     0.077 C 
ATOM      2  C1  UNL d   1      -0.616   2.609   4.094  0.00  0.00    -0.074 A 
ATOM      3  C2  UNL d   1      -1.816   3.326   4.111  0.00  0.00    -0.005 A 
ATOM      4  C3  UNL d   1      -2.808   3.060   3.166  0.00  0.00     0.006 A 
ATOM      5  C4  UNL d   1      -2.608   2.076   2.197  0.00  0.00    -0.005 A 
ATOM      6  C5  UNL d   1      -1.414   1.350   2.164  0.00  0.00    -0.074 A 
ATOM      7  C6  UNL d   1      -1.180   0.296   1.122  0.00  0.00     0.077 C 
ATOM      8  C7  UNL d   1      -0.420   1.628   3.112  0.00  0.00    -0.001 A 
ENDROOT
TORSDOF 0
ENDMDL
