MODEL 1
REMARK minimizedAffinity -5.03796339
REMARK minimizedRMSD -1
REMARK  0 active torsions:
REMARK  status: ('A' for Active; 'I' for Inactive)
ROOT
ATOM      1  C   UNL d   1       1.575  -1.579  -1.627  0.00  0.00     0.077 C 
ATOM      2  C1  UNL d   1       0.614  -0.772  -0.806  0.00  0.00    -0.074 A 
ATOM      3  C2  UNL d   1      -0.271   0.126  -1.411  0.00  0.00    -0.005 A 
ATOM      4  C3  UNL d   1      -1.166   0.862  -0.634  0.00  0.00     0.006 A 
ATOM      5  C4  UNL d   1      -1.186   0.707   0.752  0.00  0.00    -0.005 A 
ATOM      6  C5  UNL d   1      -0.309  -0.187   1.375  0.00  0.00    -0.074 A 
ATOM      7  C6  UNL d   1      -0.324  -0.373   2.863  0.00  0.00     0.077 C 
ATOM      8  C7  UNL d   1       0.582  -0.928   0.587  0.00  0.00    -0.001 A 
ENDROOT
TORSDOF 0
ENDMDL
