MODEL 1
REMARK minimizedAffinity -4.74989557
REMARK minimizedRMSD -1
REMARK  0 active torsions:
REMARK  status: ('A' for Active; 'I' for Inactive)
ROOT
ATOM      1  C   UNL d   1       1.102  -0.019   0.702  0.00  0.00     0.077 C 
ATOM      2  C1  UNL d   1      -0.173  -0.120   1.484  0.00  0.00    -0.074 A 
ATOM      3  C2  UNL d   1      -0.154  -0.377   2.859  0.00  0.00    -0.005 A 
ATOM      4  C3  UNL d   1      -1.348  -0.458   3.576  0.00  0.00     0.006 A 
ATOM      5  C4  UNL d   1      -2.571  -0.283   2.926  0.00  0.00    -0.005 A 
ATOM      6  C5  UNL d   1      -2.609  -0.024   1.553  0.00  0.00    -0.074 A 
ATOM      7  C6  UNL d   1      -3.914   0.176   0.841  0.00  0.00     0.077 C 
ATOM      8  C7  UNL d   1      -1.405   0.063   0.841  0.00  0.00    -0.001 A 
ENDROOT
TORSDOF 0
ENDMDL
