MODEL 1
REMARK minimizedAffinity -4.16391659
REMARK minimizedRMSD -1
REMARK  0 active torsions:
REMARK  status: ('A' for Active; 'I' for Inactive)
ROOT
ATOM      1  C   UNL d   1       0.765  -0.037  -2.104  0.00  0.00     0.077 C 
ATOM      2  C1  UNL d   1       0.352  -0.104  -0.663  0.00  0.00    -0.074 A 
ATOM      3  C2  UNL d   1      -0.966  -0.406  -0.306  0.00  0.00    -0.005 A 
ATOM      4  C3  UNL d   1      -1.333  -0.474   1.038  0.00  0.00     0.006 A 
ATOM      5  C4  UNL d   1      -0.387  -0.241   2.037  0.00  0.00    -0.005 A 
ATOM      6  C5  UNL d   1       0.936   0.062   1.699  0.00  0.00    -0.074 A 
ATOM      7  C6  UNL d   1       1.967   0.305   2.760  0.00  0.00     0.077 C 
ATOM      8  C7  UNL d   1       1.299   0.121   0.346  0.00  0.00    -0.001 A 
ENDROOT
TORSDOF 0
ENDMDL
