MODEL 1
REMARK minimizedAffinity -3.87277699
REMARK minimizedRMSD -1
REMARK  0 active torsions:
REMARK  status: ('A' for Active; 'I' for Inactive)
ROOT
ATOM      1  C   UNL d   1      -3.905  -1.106   1.359  0.00  0.00     0.077 C 
ATOM      2  C1  UNL d   1      -2.830  -0.493   0.513  0.00  0.00    -0.074 A 
ATOM      3  C2  UNL d   1      -3.136   0.478  -0.447  0.00  0.00    -0.005 A 
ATOM      4  C3  UNL d   1      -2.123   1.046  -1.219  0.00  0.00     0.006 A 
ATOM      5  C4  UNL d   1      -0.797   0.652  -1.041  0.00  0.00    -0.005 A 
ATOM      6  C5  UNL d   1      -0.472  -0.317  -0.086  0.00  0.00    -0.074 A 
ATOM      7  C6  UNL d   1       0.950  -0.745   0.126  0.00  0.00     0.077 C 
ATOM      8  C7  UNL d   1      -1.494  -0.878   0.692  0.00  0.00    -0.001 A 
ENDROOT
TORSDOF 0
ENDMDL
