MODEL 1
REMARK minimizedAffinity -5.14207458
REMARK minimizedRMSD -1
REMARK  0 active torsions:
REMARK  status: ('A' for Active; 'I' for Inactive)
ROOT
ATOM      1  C   UNL d   1      -0.748   0.383  -1.698  0.00  0.00     0.077 C 
ATOM      2  C1  UNL d   1      -0.182   0.346  -0.309  0.00  0.00    -0.074 A 
ATOM      3  C2  UNL d   1       1.090   0.858  -0.038  0.00  0.00    -0.005 A 
ATOM      4  C3  UNL d   1       1.599   0.825   1.260  0.00  0.00     0.006 A 
ATOM      5  C4  UNL d   1       0.842   0.280   2.298  0.00  0.00    -0.005 A 
ATOM      6  C5  UNL d   1      -0.433  -0.236   2.046  0.00  0.00    -0.074 A 
ATOM      7  C6  UNL d   1      -1.264  -0.816   3.152  0.00  0.00     0.077 C 
ATOM      8  C7  UNL d   1      -0.940  -0.192   0.740  0.00  0.00    -0.001 A 
ENDROOT
TORSDOF 0
ENDMDL
