MODEL 1
REMARK minimizedAffinity -2.971421
REMARK minimizedRMSD -1
REMARK  0 active torsions:
REMARK  status: ('A' for Active; 'I' for Inactive)
ROOT
ATOM      1  C   UNL d   1       3.438  -1.519  -2.066  0.00  0.00     0.077 C 
ATOM      2  C1  UNL d   1       2.162  -0.970  -1.502  0.00  0.00    -0.074 A 
ATOM      3  C2  UNL d   1       1.002  -0.904  -2.280  0.00  0.00    -0.005 A 
ATOM      4  C3  UNL d   1      -0.181  -0.399  -1.739  0.00  0.00     0.006 A 
ATOM      5  C4  UNL d   1      -0.215   0.045  -0.417  0.00  0.00    -0.005 A 
ATOM      6  C5  UNL d   1       0.935  -0.014   0.377  0.00  0.00    -0.074 A 
ATOM      7  C6  UNL d   1       0.914   0.450   1.803  0.00  0.00     0.077 C 
ATOM      8  C7  UNL d   1       2.118  -0.529  -0.172  0.00  0.00    -0.001 A 
ENDROOT
TORSDOF 0
ENDMDL
