MODEL 1
REMARK minimizedAffinity 0.701472878
REMARK minimizedRMSD -1
REMARK  0 active torsions:
REMARK  status: ('A' for Active; 'I' for Inactive)
ROOT
ATOM      1  C   UNL d   1       0.741   0.425   3.021  0.00  0.00     0.077 C 
ATOM      2  C1  UNL d   1       0.325   0.403   1.580  0.00  0.00    -0.074 A 
ATOM      3  C2  UNL d   1      -1.027   0.412   1.222  0.00  0.00    -0.005 A 
ATOM      4  C3  UNL d   1      -1.399   0.401  -0.122  0.00  0.00     0.006 A 
ATOM      5  C4  UNL d   1      -0.424   0.380  -1.121  0.00  0.00    -0.005 A 
ATOM      6  C5  UNL d   1       0.933   0.371  -0.782  0.00  0.00    -0.074 A 
ATOM      7  C6  UNL d   1       1.993   0.359  -1.843  0.00  0.00     0.077 C 
ATOM      8  C7  UNL d   1       1.298   0.389   0.571  0.00  0.00    -0.001 A 
ENDROOT
TORSDOF 0
ENDMDL
