MODEL 1
REMARK minimizedAffinity -4.64604902
REMARK minimizedRMSD -1
REMARK  0 active torsions:
REMARK  status: ('A' for Active; 'I' for Inactive)
ROOT
ATOM      1  C   UNL d   1      -1.094  -1.134   3.275  0.00  0.00     0.077 C 
ATOM      2  C1  UNL d   1      -0.285  -0.455   2.209  0.00  0.00    -0.074 A 
ATOM      3  C2  UNL d   1       0.848   0.296   2.536  0.00  0.00    -0.005 A 
ATOM      4  C3  UNL d   1       1.596   0.914   1.533  0.00  0.00     0.006 A 
ATOM      5  C4  UNL d   1       1.218   0.787   0.196  0.00  0.00    -0.005 A 
ATOM      6  C5  UNL d   1       0.088   0.039  -0.150  0.00  0.00    -0.074 A 
ATOM      7  C6  UNL d   1      -0.326  -0.116  -1.583  0.00  0.00     0.077 C 
ATOM      8  C7  UNL d   1      -0.654  -0.584   0.863  0.00  0.00    -0.001 A 
ENDROOT
TORSDOF 0
ENDMDL
