MODEL 1
REMARK minimizedAffinity -2.91373301
REMARK minimizedRMSD -1
REMARK  0 active torsions:
REMARK  status: ('A' for Active; 'I' for Inactive)
ROOT
ATOM      1  C   UNL d   1       1.126   1.317   3.421  0.00  0.00     0.077 C 
ATOM      2  C1  UNL d   1       0.346   0.744   2.275  0.00  0.00    -0.074 A 
ATOM      3  C2  UNL d   1      -0.796  -0.032   2.499  0.00  0.00    -0.005 A 
ATOM      4  C3  UNL d   1      -1.516  -0.550   1.423  0.00  0.00     0.006 A 
ATOM      5  C4  UNL d   1      -1.102  -0.299   0.114  0.00  0.00    -0.005 A 
ATOM      6  C5  UNL d   1       0.037   0.475  -0.129  0.00  0.00    -0.074 A 
ATOM      7  C6  UNL d   1       0.490   0.763  -1.530  0.00  0.00     0.077 C 
ATOM      8  C7  UNL d   1       0.751   0.999   0.957  0.00  0.00    -0.001 A 
ENDROOT
TORSDOF 0
ENDMDL
