MODEL 1
REMARK minimizedAffinity -5.27458525
REMARK minimizedRMSD -1
REMARK  0 active torsions:
REMARK  status: ('A' for Active; 'I' for Inactive)
ROOT
ATOM      1  C   UNL d   1      -3.647   0.393  -0.470  0.00  0.00     0.077 C 
ATOM      2  C1  UNL d   1      -2.218   0.311  -0.022  0.00  0.00    -0.074 A 
ATOM      3  C2  UNL d   1      -1.184   0.796  -0.828  0.00  0.00    -0.005 A 
ATOM      4  C3  UNL d   1       0.140   0.722  -0.394  0.00  0.00     0.006 A 
ATOM      5  C4  UNL d   1       0.442   0.163   0.848  0.00  0.00    -0.005 A 
ATOM      6  C5  UNL d   1      -0.580  -0.327   1.668  0.00  0.00    -0.074 A 
ATOM      7  C6  UNL d   1      -0.274  -0.922   3.010  0.00  0.00     0.077 C 
ATOM      8  C7  UNL d   1      -1.908  -0.243   1.228  0.00  0.00    -0.001 A 
ENDROOT
TORSDOF 0
ENDMDL
