MODEL 1
REMARK minimizedAffinity -4.60824442
REMARK minimizedRMSD -1
REMARK  0 active torsions:
REMARK  status: ('A' for Active; 'I' for Inactive)
ROOT
ATOM      1  C   UNL d   1       0.280   0.568  -0.240  0.00  0.00     0.077 C 
ATOM      2  C1  UNL d   1       0.778  -0.213  -1.419  0.00  0.00    -0.074 A 
ATOM      3  C2  UNL d   1      -0.090  -1.010  -2.172  0.00  0.00    -0.005 A 
ATOM      4  C3  UNL d   1       0.386  -1.723  -3.273  0.00  0.00     0.006 A 
ATOM      5  C4  UNL d   1       1.733  -1.647  -3.630  0.00  0.00    -0.005 A 
ATOM      6  C5  UNL d   1       2.616  -0.855  -2.889  0.00  0.00    -0.074 A 
ATOM      7  C6  UNL d   1       4.064  -0.754  -3.266  0.00  0.00     0.077 C 
ATOM      8  C7  UNL d   1       2.128  -0.136  -1.789  0.00  0.00    -0.001 A 
ENDROOT
TORSDOF 0
ENDMDL
