MODEL 1
REMARK minimizedAffinity -5.03689957
REMARK minimizedRMSD -1
REMARK  0 active torsions:
REMARK  status: ('A' for Active; 'I' for Inactive)
ROOT
ATOM      1  C   UNL d   1      -3.043   0.508   1.240  0.00  0.00     0.077 C 
ATOM      2  C1  UNL d   1      -1.564   0.290   1.362  0.00  0.00    -0.074 A 
ATOM      3  C2  UNL d   1      -0.923   0.388   2.601  0.00  0.00    -0.005 A 
ATOM      4  C3  UNL d   1       0.452   0.174   2.700  0.00  0.00     0.006 A 
ATOM      5  C4  UNL d   1       1.198  -0.140   1.564  0.00  0.00    -0.005 A 
ATOM      6  C5  UNL d   1       0.574  -0.243   0.316  0.00  0.00    -0.074 A 
ATOM      7  C6  UNL d   1       1.359  -0.589  -0.914  0.00  0.00     0.077 C 
ATOM      8  C7  UNL d   1      -0.809  -0.033   0.226  0.00  0.00    -0.001 A 
ENDROOT
TORSDOF 0
ENDMDL
