MODEL 1
REMARK minimizedAffinity -2.98228788
REMARK minimizedRMSD -1
REMARK  0 active torsions:
REMARK  status: ('A' for Active; 'I' for Inactive)
ROOT
ATOM      1  C   UNL d   1      -0.822  -1.205   3.455  0.00  0.00     0.077 C 
ATOM      2  C1  UNL d   1      -0.106  -0.324   2.475  0.00  0.00    -0.074 A 
ATOM      3  C2  UNL d   1       0.777   0.669   2.913  0.00  0.00    -0.005 A 
ATOM      4  C3  UNL d   1       1.443   1.475   1.990  0.00  0.00     0.006 A 
ATOM      5  C4  UNL d   1       1.234   1.297   0.622  0.00  0.00    -0.005 A 
ATOM      6  C5  UNL d   1       0.356   0.308   0.165  0.00  0.00    -0.074 A 
ATOM      7  C6  UNL d   1       0.127   0.097  -1.302  0.00  0.00     0.077 C 
ATOM      8  C7  UNL d   1      -0.304  -0.502   1.099  0.00  0.00    -0.001 A 
ENDROOT
TORSDOF 0
ENDMDL
