MODEL 1
REMARK minimizedAffinity 7.05979538
REMARK minimizedRMSD -1
REMARK  0 active torsions:
REMARK  status: ('A' for Active; 'I' for Inactive)
ROOT
ATOM      1  O1  BZF d   1       0.981  -4.434   0.824  0.00  0.00    -0.204 OA
ATOM      2  C2  BZF d   1       2.198  -4.065   0.284  0.00  0.00     0.174 A 
ATOM      3  C3  BZF d   1       2.321  -2.722   0.254  0.00  0.00    -0.012 A 
ATOM      4  C3A BZF d   1       1.143  -2.222   0.894  0.00  0.00    -0.107 A 
ATOM      5  C4  BZF d   1       0.692  -0.966   1.183  0.00  0.00     0.055 A 
ATOM      6  C5  BZF d   1      -0.534  -0.818   1.749  0.00  0.00    -0.016 A 
ATOM      7  C6  BZF d   1      -1.338  -1.902   2.035  0.00  0.00     0.022 A 
ATOM      8  C7  BZF d   1      -0.932  -3.168   1.771  0.00  0.00     0.029 A 
ATOM      9  C7A BZF d   1       0.321  -3.323   1.229  0.00  0.00     0.058 A 
ENDROOT
TORSDOF 0
ENDMDL
