MODEL 1
REMARK minimizedAffinity 6.55288839
REMARK minimizedRMSD -1
REMARK  0 active torsions:
REMARK  status: ('A' for Active; 'I' for Inactive)
ROOT
ATOM      1  O1  BZF d   1       5.687  -2.861   4.725  0.00  0.00    -0.204 OA
ATOM      2  C2  BZF d   1       5.162  -3.067   5.986  0.00  0.00     0.174 A 
ATOM      3  C3  BZF d   1       4.349  -4.143   5.995  0.00  0.00    -0.012 A 
ATOM      4  C3A BZF d   1       4.439  -4.694   4.678  0.00  0.00    -0.107 A 
ATOM      5  C4  BZF d   1       3.873  -5.780   4.074  0.00  0.00     0.055 A 
ATOM      6  C5  BZF d   1       4.109  -6.000   2.754  0.00  0.00    -0.016 A 
ATOM      7  C6  BZF d   1       4.902  -5.152   2.007  0.00  0.00     0.022 A 
ATOM      8  C7  BZF d   1       5.490  -4.065   2.564  0.00  0.00     0.029 A 
ATOM      9  C7A BZF d   1       5.279  -3.859   3.906  0.00  0.00     0.058 A 
ENDROOT
TORSDOF 0
ENDMDL
