MODEL 1
REMARK minimizedAffinity 7.50116014
REMARK minimizedRMSD -1
REMARK  0 active torsions:
REMARK  status: ('A' for Active; 'I' for Inactive)
ROOT
ATOM      1  O1  BZF d   1       5.327  -2.639   0.789  0.00  0.00    -0.204 OA
ATOM      2  C2  BZF d   1       5.227  -3.863   1.422  0.00  0.00     0.174 A 
ATOM      3  C3  BZF d   1       3.968  -4.076   1.856  0.00  0.00    -0.012 A 
ATOM      4  C3A BZF d   1       3.214  -2.952   1.390  0.00  0.00    -0.107 A 
ATOM      5  C4  BZF d   1       1.900  -2.596   1.491  0.00  0.00     0.055 A 
ATOM      6  C5  BZF d   1       1.499  -1.398   0.989  0.00  0.00    -0.016 A 
ATOM      7  C6  BZF d   1       2.386  -0.531   0.386  0.00  0.00     0.022 A 
ATOM      8  C7  BZF d   1       3.699  -0.843   0.257  0.00  0.00     0.029 A 
ATOM      9  C7A BZF d   1       4.100  -2.067   0.734  0.00  0.00     0.058 A 
ENDROOT
TORSDOF 0
ENDMDL
