MODEL 1
REMARK minimizedAffinity 10.9116039
REMARK minimizedRMSD -1
REMARK  0 active torsions:
REMARK  status: ('A' for Active; 'I' for Inactive)
ROOT
ATOM      1  O1  BZF d   1       2.707   4.383   5.783  0.00  0.00    -0.204 OA
ATOM      2  C2  BZF d   1       1.972   3.916   4.711  0.00  0.00     0.174 A 
ATOM      3  C3  BZF d   1       2.618   4.147   3.551  0.00  0.00    -0.012 A 
ATOM      4  C3A BZF d   1       3.876   4.716   3.927  0.00  0.00    -0.107 A 
ATOM      5  C4  BZF d   1       4.962   5.145   3.219  0.00  0.00     0.055 A 
ATOM      6  C5  BZF d   1       6.000   5.718   3.884  0.00  0.00    -0.016 A 
ATOM      7  C6  BZF d   1       5.982   5.883   5.253  0.00  0.00     0.022 A 
ATOM      8  C7  BZF d   1       4.929   5.469   5.999  0.00  0.00     0.029 A 
ATOM      9  C7A BZF d   1       3.893   4.859   5.334  0.00  0.00     0.058 A 
ENDROOT
TORSDOF 0
ENDMDL
