MODEL 1
REMARK minimizedAffinity -2.34466243
REMARK minimizedRMSD -1
REMARK  0 active torsions:
REMARK  status: ('A' for Active; 'I' for Inactive)
ROOT
ATOM      1  O1  BZF d   1       5.173   4.787   4.014  0.00  0.00    -0.204 OA
ATOM      2  C2  BZF d   1       5.924   5.387   5.006  0.00  0.00     0.174 A 
ATOM      3  C3  BZF d   1       5.128   5.999   5.905  0.00  0.00    -0.012 A 
ATOM      4  C3A BZF d   1       3.792   5.690   5.497  0.00  0.00    -0.107 A 
ATOM      5  C4  BZF d   1       2.561   6.000   6.000  0.00  0.00     0.055 A 
ATOM      6  C5  BZF d   1       1.451   5.603   5.322  0.00  0.00    -0.016 A 
ATOM      7  C6  BZF d   1       1.536   4.901   4.138  0.00  0.00     0.022 A 
ATOM      8  C7  BZF d   1       2.735   4.566   3.602  0.00  0.00     0.029 A 
ATOM      9  C7A BZF d   1       3.858   4.937   4.302  0.00  0.00     0.058 A 
ENDROOT
TORSDOF 0
ENDMDL
