MODEL 1
REMARK minimizedAffinity 17.6694527
REMARK minimizedRMSD -1
REMARK  0 active torsions:
REMARK  status: ('A' for Active; 'I' for Inactive)
ROOT
ATOM      1  O1  BZF d   1      -5.668   1.842  -5.256  0.00  0.00    -0.204 OA
ATOM      2  C2  BZF d   1      -4.801   1.093  -4.485  0.00  0.00     0.174 A 
ATOM      3  C3  BZF d   1      -3.754   1.840  -4.077  0.00  0.00    -0.012 A 
ATOM      4  C3A BZF d   1      -4.029   3.162  -4.552  0.00  0.00    -0.107 A 
ATOM      5  C4  BZF d   1      -3.367   4.352  -4.450  0.00  0.00     0.055 A 
ATOM      6  C5  BZF d   1      -3.867   5.442  -5.089  0.00  0.00    -0.016 A 
ATOM      7  C6  BZF d   1      -5.022   5.377  -5.840  0.00  0.00     0.022 A 
ATOM      8  C7  BZF d   1      -5.717   4.220  -5.966  0.00  0.00     0.029 A 
ATOM      9  C7A BZF d   1      -5.231   3.124  -5.295  0.00  0.00     0.058 A 
ENDROOT
TORSDOF 0
ENDMDL
