MODEL 1
REMARK minimizedAffinity 2.85667229
REMARK minimizedRMSD -1
REMARK  0 active torsions:
REMARK  status: ('A' for Active; 'I' for Inactive)
ROOT
ATOM      1  O1  BZF d   1       5.198   5.998   5.616  0.00  0.00    -0.204 OA
ATOM      2  C2  BZF d   1       6.000   5.610   4.560  0.00  0.00     0.174 A 
ATOM      3  C3  BZF d   1       5.256   5.098   3.558  0.00  0.00    -0.012 A 
ATOM      4  C3A BZF d   1       3.898   5.256   3.978  0.00  0.00    -0.107 A 
ATOM      5  C4  BZF d   1       2.696   4.953   3.404  0.00  0.00     0.055 A 
ATOM      6  C5  BZF d   1       1.555   5.168   4.109  0.00  0.00    -0.016 A 
ATOM      7  C6  BZF d   1       1.578   5.679   5.391  0.00  0.00     0.022 A 
ATOM      8  C7  BZF d   1       2.745   5.999   6.000  0.00  0.00     0.029 A 
ATOM      9  C7A BZF d   1       3.899   5.814   5.277  0.00  0.00     0.058 A 
ENDROOT
TORSDOF 0
ENDMDL
