MODEL 1
REMARK minimizedAffinity 10.7736559
REMARK minimizedRMSD -1
REMARK  0 active torsions:
REMARK  status: ('A' for Active; 'I' for Inactive)
ROOT
ATOM      1  O1  BZF d   1       2.382  -5.158  -0.273  0.00  0.00    -0.204 OA
ATOM      2  C2  BZF d   1       1.732  -4.136   0.392  0.00  0.00     0.174 A 
ATOM      3  C3  BZF d   1       2.563  -3.095   0.601  0.00  0.00    -0.012 A 
ATOM      4  C3A BZF d   1       3.786  -3.454  -0.050  0.00  0.00    -0.107 A 
ATOM      5  C4  BZF d   1       4.986  -2.822  -0.208  0.00  0.00     0.055 A 
ATOM      6  C5  BZF d   1       6.000  -3.475  -0.834  0.00  0.00    -0.016 A 
ATOM      7  C6  BZF d   1       5.850  -4.761  -1.310  0.00  0.00     0.022 A 
ATOM      8  C7  BZF d   1       4.676  -5.427  -1.182  0.00  0.00     0.029 A 
ATOM      9  C7A BZF d   1       3.640  -4.757  -0.579  0.00  0.00     0.058 A 
ENDROOT
TORSDOF 0
ENDMDL
