MODEL 1
REMARK minimizedAffinity 9.18462372
REMARK minimizedRMSD -1
REMARK  0 active torsions:
REMARK  status: ('A' for Active; 'I' for Inactive)
ROOT
ATOM      1  O1  BZF d   1       2.390   5.492   3.495  0.00  0.00    -0.204 OA
ATOM      2  C2  BZF d   1       1.594   5.337   4.613  0.00  0.00     0.174 A 
ATOM      3  C3  BZF d   1       2.339   5.358   5.737  0.00  0.00    -0.012 A 
ATOM      4  C3A BZF d   1       3.674   5.630   5.299  0.00  0.00    -0.107 A 
ATOM      5  C4  BZF d   1       4.863   5.787   5.952  0.00  0.00     0.055 A 
ATOM      6  C5  BZF d   1       5.997   5.970   5.225  0.00  0.00    -0.016 A 
ATOM      7  C6  BZF d   1       5.979   5.997   3.846  0.00  0.00     0.022 A 
ATOM      8  C7  BZF d   1       4.823   5.850   3.154  0.00  0.00     0.029 A 
ATOM      9  C7A BZF d   1       3.671   5.698   3.886  0.00  0.00     0.058 A 
ENDROOT
TORSDOF 0
ENDMDL
