MODEL 1
REMARK minimizedAffinity 3.11600089
REMARK minimizedRMSD -1
REMARK  0 active torsions:
REMARK  status: ('A' for Active; 'I' for Inactive)
ROOT
ATOM      1  O1  BZF d   1       2.298   5.257   3.602  0.00  0.00    -0.204 OA
ATOM      2  C2  BZF d   1       1.486   5.321   4.718  0.00  0.00     0.174 A 
ATOM      3  C3  BZF d   1       2.218   5.539   5.830  0.00  0.00    -0.012 A 
ATOM      4  C3A BZF d   1       3.562   5.708   5.369  0.00  0.00    -0.107 A 
ATOM      5  C4  BZF d   1       4.745   5.967   5.999  0.00  0.00     0.055 A 
ATOM      6  C5  BZF d   1       5.890   5.999   5.267  0.00  0.00    -0.016 A 
ATOM      7  C6  BZF d   1       5.889   5.771   3.907  0.00  0.00     0.022 A 
ATOM      8  C7  BZF d   1       4.739   5.515   3.237  0.00  0.00     0.029 A 
ATOM      9  C7A BZF d   1       3.576   5.514   3.968  0.00  0.00     0.058 A 
ENDROOT
TORSDOF 0
ENDMDL
