MODEL 1
REMARK minimizedAffinity 2.15397811
REMARK minimizedRMSD -1
REMARK  0 active torsions:
REMARK  status: ('A' for Active; 'I' for Inactive)
ROOT
ATOM      1  O1  BZF d   1       4.826   4.118   3.380  0.00  0.00    -0.204 OA
ATOM      2  C2  BZF d   1       5.994   4.519   3.998  0.00  0.00     0.174 A 
ATOM      3  C3  BZF d   1       5.729   5.328   5.044  0.00  0.00    -0.012 A 
ATOM      4  C3A BZF d   1       4.302   5.366   5.139  0.00  0.00    -0.107 A 
ATOM      5  C4  BZF d   1       3.434   5.988   5.989  0.00  0.00     0.055 A 
ATOM      6  C5  BZF d   1       2.098   5.880   5.764  0.00  0.00    -0.016 A 
ATOM      7  C6  BZF d   1       1.597   5.164   4.698  0.00  0.00     0.022 A 
ATOM      8  C7  BZF d   1       2.419   4.525   3.830  0.00  0.00     0.029 A 
ATOM      9  C7A BZF d   1       3.768   4.604   4.074  0.00  0.00     0.058 A 
ENDROOT
TORSDOF 0
ENDMDL
