MODEL 1
REMARK minimizedAffinity -3.99879742
REMARK minimizedRMSD -1
REMARK  0 active torsions:
REMARK  status: ('A' for Active; 'I' for Inactive)
ROOT
ATOM      1  O1  BZF d   1      -0.025   5.998   5.999  0.00  0.00    -0.204 OA
ATOM      2  C2  BZF d   1      -1.273   5.538   5.626  0.00  0.00     0.174 A 
ATOM      3  C3  BZF d   1      -1.213   4.898   4.441  0.00  0.00    -0.012 A 
ATOM      4  C3A BZF d   1       0.175   4.882   4.092  0.00  0.00    -0.107 A 
ATOM      5  C4  BZF d   1       0.871   4.373   3.033  0.00  0.00     0.055 A 
ATOM      6  C5  BZF d   1       2.210   4.591   2.957  0.00  0.00    -0.016 A 
ATOM      7  C6  BZF d   1       2.884   5.316   3.919  0.00  0.00     0.022 A 
ATOM      8  C7  BZF d   1       2.237   5.835   4.990  0.00  0.00     0.029 A 
ATOM      9  C7A BZF d   1       0.889   5.589   5.087  0.00  0.00     0.058 A 
ENDROOT
TORSDOF 0
ENDMDL
