MODEL 1
REMARK minimizedAffinity 0.960914552
REMARK minimizedRMSD -1
REMARK  2 active torsions:
REMARK  status: ('A' for Active; 'I' for Inactive)
REMARK    1  A    between atoms: C1_2  and  C2_3 
REMARK    2  A    between atoms: C2_3  and  C3_4 
ROOT
ATOM      1  C3  UNL d   1      -3.041   3.377  -3.500  0.00  0.00    -0.075 A 
ATOM      2  C4  UNL d   1      -2.924   3.640  -4.872  0.00  0.00     0.002 A 
ATOM      3  C5  UNL d   1      -3.028   4.945  -5.355  0.00  0.00     0.002 A 
ATOM      4  C6  UNL d   1      -3.260   6.000  -4.475  0.00  0.00    -0.004 A 
ATOM      5  C7  UNL d   1      -3.395   5.748  -3.112  0.00  0.00     0.002 A 
ATOM      6  C8  UNL d   1      -3.286   4.444  -2.625  0.00  0.00     0.002 A 
ENDROOT
BRANCH   1   7
ATOM      7  C2  UNL d   1      -2.899   1.971  -2.967  0.00  0.00     0.056 C 
BRANCH   7   8
ATOM      8  C1  UNL d   1      -1.816   1.816  -1.895  0.00  0.00     0.007 C 
ATOM      9  C   UNL d   1      -2.158   0.770  -0.843  0.00  0.00     0.009 C 
ENDBRANCH   7   8
ENDBRANCH   1   7
TORSDOF 2
ENDMDL
