MODEL 1
REMARK minimizedAffinity -3.77115226
REMARK minimizedRMSD -1
REMARK  2 active torsions:
REMARK  status: ('A' for Active; 'I' for Inactive)
REMARK    1  A    between atoms: C1_2  and  C2_3 
REMARK    2  A    between atoms: C2_3  and  C3_4 
ROOT
ATOM      1  C3  UNL d   1      -2.861   3.103  -3.456  0.00  0.00    -0.075 A 
ATOM      2  C4  UNL d   1      -2.768   3.408  -4.822  0.00  0.00     0.002 A 
ATOM      3  C5  UNL d   1      -2.531   4.717  -5.241  0.00  0.00     0.002 A 
ATOM      4  C6  UNL d   1      -2.396   5.738  -4.303  0.00  0.00    -0.004 A 
ATOM      5  C7  UNL d   1      -2.503   5.449  -2.944  0.00  0.00     0.002 A 
ATOM      6  C8  UNL d   1      -2.735   4.139  -2.522  0.00  0.00     0.002 A 
ENDROOT
BRANCH   1   7
ATOM      7  C2  UNL d   1      -3.087   1.682  -2.996  0.00  0.00     0.056 C 
BRANCH   7   8
ATOM      8  C1  UNL d   1      -1.959   1.123  -2.122  0.00  0.00     0.007 C 
ATOM      9  C   UNL d   1      -2.326  -0.183  -1.431  0.00  0.00     0.009 C 
ENDBRANCH   7   8
ENDBRANCH   1   7
TORSDOF 2
ENDMDL
