MODEL 1
REMARK minimizedAffinity 3.03726768
REMARK minimizedRMSD -1
REMARK  2 active torsions:
REMARK  status: ('A' for Active; 'I' for Inactive)
REMARK    1  A    between atoms: C1_2  and  C2_3 
REMARK    2  A    between atoms: C2_3  and  C3_4 
ROOT
ATOM      1  C3  UNL d   1      -3.412   3.419  -2.383  0.00  0.00    -0.075 A 
ATOM      2  C4  UNL d   1      -3.234   4.776  -2.689  0.00  0.00     0.002 A 
ATOM      3  C5  UNL d   1      -3.165   5.200  -4.017  0.00  0.00     0.002 A 
ATOM      4  C6  UNL d   1      -3.261   4.273  -5.052  0.00  0.00    -0.004 A 
ATOM      5  C7  UNL d   1      -3.421   2.921  -4.760  0.00  0.00     0.002 A 
ATOM      6  C8  UNL d   1      -3.495   2.494  -3.433  0.00  0.00     0.002 A 
ENDROOT
BRANCH   1   7
ATOM      7  C2  UNL d   1      -3.517   2.958  -0.949  0.00  0.00     0.056 C 
BRANCH   7   8
ATOM      8  C1  UNL d   1      -4.930   2.536  -0.532  0.00  0.00     0.007 C 
ATOM      9  C   UNL d   1      -6.000   3.545  -0.929  0.00  0.00     0.009 C 
ENDBRANCH   7   8
ENDBRANCH   1   7
TORSDOF 2
ENDMDL
