MODEL 1
REMARK minimizedAffinity 1.89360332
REMARK minimizedRMSD -1
REMARK  2 active torsions:
REMARK  status: ('A' for Active; 'I' for Inactive)
REMARK    1  A    between atoms: C1_2  and  C2_3 
REMARK    2  A    between atoms: C2_3  and  C3_4 
ROOT
ATOM      1  C3  UNL d   1       0.329  -1.949  -1.284  0.00  0.00    -0.075 A 
ATOM      2  C4  UNL d   1      -0.815  -1.552  -0.579  0.00  0.00     0.002 A 
ATOM      3  C5  UNL d   1      -0.804  -1.494   0.815  0.00  0.00     0.002 A 
ATOM      4  C6  UNL d   1       0.346  -1.842   1.521  0.00  0.00    -0.004 A 
ATOM      5  C7  UNL d   1       1.484  -2.254   0.830  0.00  0.00     0.002 A 
ATOM      6  C8  UNL d   1       1.477  -2.309  -0.564  0.00  0.00     0.002 A 
ENDROOT
BRANCH   1   7
ATOM      7  C2  UNL d   1       0.333  -1.985  -2.794  0.00  0.00     0.056 C 
BRANCH   7   8
ATOM      8  C1  UNL d   1       1.678  -1.608  -3.424  0.00  0.00     0.007 C 
ATOM      9  C   UNL d   1       1.534  -0.829  -4.724  0.00  0.00     0.009 C 
ENDBRANCH   7   8
ENDBRANCH   1   7
TORSDOF 2
ENDMDL
