MODEL 1
REMARK minimizedAffinity -3.86624074
REMARK minimizedRMSD -1
REMARK  2 active torsions:
REMARK  status: ('A' for Active; 'I' for Inactive)
REMARK    1  A    between atoms: C1_2  and  C2_3 
REMARK    2  A    between atoms: C2_3  and  C3_4 
ROOT
ATOM      1  C3  UNL d   1      -2.152   2.481  -2.888  0.00  0.00    -0.075 A 
ATOM      2  C4  UNL d   1      -3.151   3.239  -3.517  0.00  0.00     0.002 A 
ATOM      3  C5  UNL d   1      -2.813   4.237  -4.432  0.00  0.00     0.002 A 
ATOM      4  C6  UNL d   1      -1.475   4.497  -4.721  0.00  0.00    -0.004 A 
ATOM      5  C7  UNL d   1      -0.474   3.762  -4.089  0.00  0.00     0.002 A 
ATOM      6  C8  UNL d   1      -0.810   2.759  -3.177  0.00  0.00     0.002 A 
ENDROOT
BRANCH   1   7
ATOM      7  C2  UNL d   1      -2.513   1.380  -1.920  0.00  0.00     0.056 C 
BRANCH   7   8
ATOM      8  C1  UNL d   1      -1.343   0.458  -1.561  0.00  0.00     0.007 C 
ATOM      9  C   UNL d   1      -1.786  -0.929  -1.116  0.00  0.00     0.009 C 
ENDBRANCH   7   8
ENDBRANCH   1   7
TORSDOF 2
ENDMDL
