MODEL 1
REMARK minimizedAffinity -2.98554134
REMARK minimizedRMSD -1
REMARK  2 active torsions:
REMARK  status: ('A' for Active; 'I' for Inactive)
REMARK    1  A    between atoms: C1_2  and  C2_3 
REMARK    2  A    between atoms: C2_3  and  C3_4 
ROOT
ATOM      1  C3  UNL d   1      -2.087   3.779  -4.056  0.00  0.00    -0.075 A 
ATOM      2  C4  UNL d   1      -2.635   4.438  -2.946  0.00  0.00     0.002 A 
ATOM      3  C5  UNL d   1      -2.963   3.728  -1.791  0.00  0.00     0.002 A 
ATOM      4  C6  UNL d   1      -2.758   2.351  -1.734  0.00  0.00    -0.004 A 
ATOM      5  C7  UNL d   1      -2.230   1.683  -2.837  0.00  0.00     0.002 A 
ATOM      6  C8  UNL d   1      -1.896   2.392  -3.992  0.00  0.00     0.002 A 
ENDROOT
BRANCH   1   7
ATOM      7  C2  UNL d   1      -1.703   4.547  -5.298  0.00  0.00     0.056 C 
BRANCH   7   8
ATOM      8  C1  UNL d   1      -0.346   4.144  -5.885  0.00  0.00     0.007 C 
ATOM      9  C   UNL d   1       0.630   5.308  -5.996  0.00  0.00     0.009 C 
ENDBRANCH   7   8
ENDBRANCH   1   7
TORSDOF 2
ENDMDL
