MODEL 1
REMARK minimizedAffinity 4.60716867
REMARK minimizedRMSD -1
REMARK  0 active torsions:
REMARK  status: ('A' for Active; 'I' for Inactive)
ROOT
ATOM      1  C   UNL d   1       1.289  -4.882  -2.253  0.00  0.00     0.078 C 
ATOM      2  C1  UNL d   1       2.728  -4.684  -1.880  0.00  0.00    -0.077 A 
ATOM      3  C2  UNL d   1       3.758  -5.152  -2.705  0.00  0.00    -0.001 A 
ATOM      4  C3  UNL d   1       5.093  -4.969  -2.340  0.00  0.00     0.003 A 
ATOM      5  C4  UNL d   1       5.410  -4.319  -1.149  0.00  0.00    -0.005 A 
ATOM      6  C5  UNL d   1       4.392  -3.852  -0.321  0.00  0.00     0.003 A 
ATOM      7  C6  UNL d   1       3.056  -4.034  -0.684  0.00  0.00    -0.001 A 
ENDROOT
TORSDOF 0
ENDMDL
