MODEL 1
REMARK minimizedAffinity 3.91863346
REMARK minimizedRMSD -1
REMARK  0 active torsions:
REMARK  status: ('A' for Active; 'I' for Inactive)
ROOT
ATOM      1  C   UNL d   1      -3.364   0.807  -2.447  0.00  0.00     0.078 C 
ATOM      2  C1  UNL d   1      -3.739   2.122  -3.062  0.00  0.00    -0.077 A 
ATOM      3  C2  UNL d   1      -3.446   2.400  -4.403  0.00  0.00    -0.001 A 
ATOM      4  C3  UNL d   1      -3.792   3.632  -4.960  0.00  0.00     0.003 A 
ATOM      5  C4  UNL d   1      -4.432   4.596  -4.184  0.00  0.00    -0.005 A 
ATOM      6  C5  UNL d   1      -4.726   4.329  -2.848  0.00  0.00     0.003 A 
ATOM      7  C6  UNL d   1      -4.381   3.098  -2.289  0.00  0.00    -0.001 A 
ENDROOT
TORSDOF 0
ENDMDL
