MODEL 1
REMARK minimizedAffinity 11.3712339
REMARK minimizedRMSD -1
REMARK  0 active torsions:
REMARK  status: ('A' for Active; 'I' for Inactive)
ROOT
ATOM      1  C   UNL d   1       1.530  -2.997   6.000  0.00  0.00     0.078 C 
ATOM      2  C1  UNL d   1       1.649  -2.580   4.565  0.00  0.00    -0.077 A 
ATOM      3  C2  UNL d   1       2.273  -3.407   3.623  0.00  0.00    -0.001 A 
ATOM      4  C3  UNL d   1       2.386  -3.001   2.292  0.00  0.00     0.003 A 
ATOM      5  C4  UNL d   1       1.878  -1.767   1.891  0.00  0.00    -0.005 A 
ATOM      6  C5  UNL d   1       1.257  -0.936   2.822  0.00  0.00     0.003 A 
ATOM      7  C6  UNL d   1       1.143  -1.340   4.153  0.00  0.00    -0.001 A 
ENDROOT
TORSDOF 0
ENDMDL
