MODEL 1
REMARK minimizedAffinity 8.26568413
REMARK minimizedRMSD -1
REMARK  0 active torsions:
REMARK  status: ('A' for Active; 'I' for Inactive)
ROOT
ATOM      1  C   UNL d   1      -5.365   3.359  -0.439  0.00  0.00     0.078 C 
ATOM      2  C1  UNL d   1      -4.589   3.367  -1.723  0.00  0.00    -0.077 A 
ATOM      3  C2  UNL d   1      -4.580   4.494  -2.553  0.00  0.00    -0.001 A 
ATOM      4  C3  UNL d   1      -3.862   4.484  -3.750  0.00  0.00     0.003 A 
ATOM      5  C4  UNL d   1      -3.148   3.348  -4.128  0.00  0.00    -0.005 A 
ATOM      6  C5  UNL d   1      -3.153   2.221  -3.309  0.00  0.00     0.003 A 
ATOM      7  C6  UNL d   1      -3.871   2.229  -2.112  0.00  0.00    -0.001 A 
ENDROOT
TORSDOF 0
ENDMDL
