MODEL 1
REMARK minimizedAffinity 12.1660662
REMARK minimizedRMSD -1
REMARK  0 active torsions:
REMARK  status: ('A' for Active; 'I' for Inactive)
ROOT
ATOM      1  C   UNL d   1       1.135  -1.808   4.917  0.00  0.00     0.078 C 
ATOM      2  C1  UNL d   1       1.485  -1.710   3.462  0.00  0.00    -0.077 A 
ATOM      3  C2  UNL d   1       2.064  -2.791   2.786  0.00  0.00    -0.001 A 
ATOM      4  C3  UNL d   1       2.394  -2.683   1.434  0.00  0.00     0.003 A 
ATOM      5  C4  UNL d   1       2.150  -1.495   0.747  0.00  0.00    -0.005 A 
ATOM      6  C5  UNL d   1       1.576  -0.414   1.412  0.00  0.00     0.003 A 
ATOM      7  C6  UNL d   1       1.246  -0.520   2.764  0.00  0.00    -0.001 A 
ENDROOT
TORSDOF 0
ENDMDL
