MODEL 1
REMARK minimizedAffinity 6.30661154
REMARK minimizedRMSD -1
REMARK  1 active torsions:
REMARK  status: ('A' for Active; 'I' for Inactive)
REMARK    1  A    between atoms: C3_4  and  O_7 
ROOT
ATOM      1  C   UNL d   1       2.775  -1.548  -0.351  0.00  0.00    -0.033 A 
ATOM      2  C1  UNL d   1       2.765  -2.922  -0.108  0.00  0.00     0.039 A 
ATOM      3  C2  UNL d   1       2.061  -3.778  -0.957  0.00  0.00    -0.080 A 
ATOM      4  C3  UNL d   1       1.374  -3.248  -2.045  0.00  0.00     0.150 A 
ATOM      5  C4  UNL d   1       1.383  -1.879  -2.296  0.00  0.00    -0.007 A 
ATOM      6  C5  UNL d   1       2.085  -1.026  -1.446  0.00  0.00     0.039 A 
ENDROOT
BRANCH   4   7
ATOM      7  O   UNL d   1       0.669  -4.043  -2.899  0.00  0.00    -0.526 OA
ATOM      8  H5  UNL d   1       0.729  -4.960  -2.586  0.00  0.00     0.418 HD
ENDBRANCH   4   7
TORSDOF 1
ENDMDL
