MODEL 1
REMARK minimizedAffinity 2.23473859
REMARK minimizedRMSD -1
REMARK  1 active torsions:
REMARK  status: ('A' for Active; 'I' for Inactive)
REMARK    1  A    between atoms: C3_4  and  O_7 
ROOT
ATOM      1  C   UNL d   1      -0.664   1.554   2.873  0.00  0.00    -0.033 A 
ATOM      2  C1  UNL d   1      -1.981   1.703   3.313  0.00  0.00     0.039 A 
ATOM      3  C2  UNL d   1      -2.975   0.838   2.853  0.00  0.00    -0.080 A 
ATOM      4  C3  UNL d   1      -2.640  -0.171   1.954  0.00  0.00     0.150 A 
ATOM      5  C4  UNL d   1      -1.330  -0.327   1.514  0.00  0.00    -0.007 A 
ATOM      6  C5  UNL d   1      -0.339   0.538   1.974  0.00  0.00     0.039 A 
ENDROOT
BRANCH   4   7
ATOM      7  O   UNL d   1      -3.577  -1.036   1.473  0.00  0.00    -0.526 OA
ATOM      8  H5  UNL d   1      -4.442  -0.790   1.841  0.00  0.00     0.418 HD
ENDBRANCH   4   7
TORSDOF 1
ENDMDL
