MODEL 1
REMARK minimizedAffinity 8.63344479
REMARK minimizedRMSD -1
REMARK  1 active torsions:
REMARK  status: ('A' for Active; 'I' for Inactive)
REMARK    1  A    between atoms: C3_4  and  O_7 
ROOT
ATOM      1  C   UNL d   1       2.691  -1.943  -0.206  0.00  0.00    -0.033 A 
ATOM      2  C1  UNL d   1       3.877  -2.040   0.525  0.00  0.00     0.039 A 
ATOM      3  C2  UNL d   1       4.497  -0.886   1.008  0.00  0.00    -0.080 A 
ATOM      4  C3  UNL d   1       3.922   0.356   0.755  0.00  0.00     0.150 A 
ATOM      5  C4  UNL d   1       2.738   0.460   0.031  0.00  0.00    -0.007 A 
ATOM      6  C5  UNL d   1       2.121  -0.694  -0.452  0.00  0.00     0.039 A 
ENDROOT
BRANCH   4   7
ATOM      7  O   UNL d   1       4.493   1.511   1.202  0.00  0.00    -0.526 OA
ATOM      8  H5  UNL d   1       5.320   1.287   1.661  0.00  0.00     0.418 HD
ENDBRANCH   4   7
TORSDOF 1
ENDMDL
