MODEL 1
REMARK minimizedAffinity 8.57665443
REMARK minimizedRMSD -1
REMARK  1 active torsions:
REMARK  status: ('A' for Active; 'I' for Inactive)
REMARK    1  A    between atoms: C3_4  and  O_7 
ROOT
ATOM      1  C   UNL d   1      -3.867  -3.231  -6.000  0.00  0.00    -0.033 A 
ATOM      2  C1  UNL d   1      -3.678  -4.614  -6.000  0.00  0.00     0.039 A 
ATOM      3  C2  UNL d   1      -2.997  -5.228  -4.947  0.00  0.00    -0.080 A 
ATOM      4  C3  UNL d   1      -2.511  -4.448  -3.901  0.00  0.00     0.150 A 
ATOM      5  C4  UNL d   1      -2.698  -3.070  -3.893  0.00  0.00    -0.007 A 
ATOM      6  C5  UNL d   1      -3.378  -2.459  -4.945  0.00  0.00     0.039 A 
ENDROOT
BRANCH   4   7
ATOM      7  O   UNL d   1      -1.836  -5.001  -2.854  0.00  0.00    -0.526 OA
ATOM      8  H5  UNL d   1      -1.757  -5.957  -3.009  0.00  0.00     0.418 HD
ENDBRANCH   4   7
TORSDOF 1
ENDMDL
