MODEL 1
REMARK minimizedAffinity 4.87053204
REMARK minimizedRMSD -1
REMARK  1 active torsions:
REMARK  status: ('A' for Active; 'I' for Inactive)
REMARK    1  A    between atoms: C3_4  and  O_7 
ROOT
ATOM      1  C   UNL d   1       2.870  -2.005  -0.088  0.00  0.00    -0.033 A 
ATOM      2  C1  UNL d   1       2.017  -1.528  -1.086  0.00  0.00     0.039 A 
ATOM      3  C2  UNL d   1       1.517  -2.400  -2.054  0.00  0.00    -0.080 A 
ATOM      4  C3  UNL d   1       1.875  -3.745  -2.014  0.00  0.00     0.150 A 
ATOM      5  C4  UNL d   1       2.722  -4.227  -1.021  0.00  0.00    -0.007 A 
ATOM      6  C5  UNL d   1       3.222  -3.355  -0.055  0.00  0.00     0.039 A 
ENDROOT
BRANCH   4   7
ATOM      7  O   UNL d   1       1.416  -4.633  -2.940  0.00  0.00    -0.526 OA
ATOM      8  H5  UNL d   1       0.865  -4.152  -3.581  0.00  0.00     0.418 HD
ENDBRANCH   4   7
TORSDOF 1
ENDMDL
