MODEL 1
REMARK minimizedAffinity 10.0899372
REMARK minimizedRMSD -1
REMARK  1 active torsions:
REMARK  status: ('A' for Active; 'I' for Inactive)
REMARK    1  A    between atoms: C3_4  and  O_7 
ROOT
ATOM      1  C   UNL d   1      -2.584   0.864   5.082  0.00  0.00    -0.033 A 
ATOM      2  C1  UNL d   1      -3.367   1.617   5.959  0.00  0.00     0.039 A 
ATOM      3  C2  UNL d   1      -4.522   2.252   5.498  0.00  0.00    -0.080 A 
ATOM      4  C3  UNL d   1      -4.884   2.124   4.160  0.00  0.00     0.150 A 
ATOM      5  C4  UNL d   1      -4.111   1.372   3.281  0.00  0.00    -0.007 A 
ATOM      6  C5  UNL d   1      -2.957   0.740   3.743  0.00  0.00     0.039 A 
ENDROOT
BRANCH   4   7
ATOM      7  O   UNL d   1      -6.000   2.729   3.662  0.00  0.00    -0.526 OA
ATOM      8  H5  UNL d   1      -6.418   3.237   4.377  0.00  0.00     0.418 HD
ENDBRANCH   4   7
TORSDOF 1
ENDMDL
