MODEL 1
REMARK minimizedAffinity 4.02565527
REMARK minimizedRMSD -1
REMARK  1 active torsions:
REMARK  status: ('A' for Active; 'I' for Inactive)
REMARK    1  A    between atoms: C3_4  and  O_7 
ROOT
ATOM      1  C   UNL d   1      -0.544  -5.949  -2.293  0.00  0.00    -0.033 A 
ATOM      2  C1  UNL d   1       0.035  -5.349  -3.413  0.00  0.00     0.039 A 
ATOM      3  C2  UNL d   1      -0.774  -4.801  -4.410  0.00  0.00    -0.080 A 
ATOM      4  C3  UNL d   1      -2.158  -4.859  -4.276  0.00  0.00     0.150 A 
ATOM      5  C4  UNL d   1      -2.742  -5.453  -3.162  0.00  0.00    -0.007 A 
ATOM      6  C5  UNL d   1      -1.933  -6.000  -2.167  0.00  0.00     0.039 A 
ENDROOT
BRANCH   4   7
ATOM      7  O   UNL d   1      -2.988  -4.343  -5.226  0.00  0.00    -0.526 OA
ATOM      8  H5  UNL d   1      -2.445  -3.991  -5.951  0.00  0.00     0.418 HD
ENDBRANCH   4   7
TORSDOF 1
ENDMDL
