MODEL 1
REMARK minimizedAffinity 14.4522724
REMARK minimizedRMSD -1
REMARK  1 active torsions:
REMARK  status: ('A' for Active; 'I' for Inactive)
REMARK    1  A    between atoms: C3_4  and  O_7 
ROOT
ATOM      1  C   UNL d   1      -4.875   2.478   5.988  0.00  0.00    -0.033 A 
ATOM      2  C1  UNL d   1      -5.568   2.628   4.785  0.00  0.00     0.039 A 
ATOM      3  C2  UNL d   1      -5.003   2.177   3.591  0.00  0.00    -0.080 A 
ATOM      4  C3  UNL d   1      -3.747   1.578   3.613  0.00  0.00     0.150 A 
ATOM      5  C4  UNL d   1      -3.053   1.421   4.808  0.00  0.00    -0.007 A 
ATOM      6  C5  UNL d   1      -3.618   1.873   6.000  0.00  0.00     0.039 A 
ENDROOT
BRANCH   4   7
ATOM      7  O   UNL d   1      -3.153   1.126   2.472  0.00  0.00    -0.526 OA
ATOM      8  H5  UNL d   1      -3.735   1.328   1.721  0.00  0.00     0.418 HD
ENDBRANCH   4   7
TORSDOF 1
ENDMDL
