MODEL 1
REMARK minimizedAffinity 12.3376808
REMARK minimizedRMSD -1
REMARK  1 active torsions:
REMARK  status: ('A' for Active; 'I' for Inactive)
REMARK    1  A    between atoms: C3_4  and  O_7 
ROOT
ATOM      1  C   UNL d   1       4.218  -4.554   0.257  0.00  0.00    -0.033 A 
ATOM      2  C1  UNL d   1       2.822  -4.570   0.230  0.00  0.00     0.039 A 
ATOM      3  C2  UNL d   1       2.114  -3.393  -0.024  0.00  0.00    -0.080 A 
ATOM      4  C3  UNL d   1       2.813  -2.210  -0.249  0.00  0.00     0.150 A 
ATOM      5  C4  UNL d   1       4.203  -2.189  -0.228  0.00  0.00    -0.007 A 
ATOM      6  C5  UNL d   1       4.908  -3.364   0.027  0.00  0.00     0.039 A 
ENDROOT
BRANCH   4   7
ATOM      7  O   UNL d   1       2.165  -1.036  -0.496  0.00  0.00    -0.526 OA
ATOM      8  H5  UNL d   1       1.208  -1.198  -0.452  0.00  0.00     0.418 HD
ENDBRANCH   4   7
TORSDOF 1
ENDMDL
