MODEL 1
REMARK minimizedAffinity 10.4999228
REMARK minimizedRMSD -1
REMARK  1 active torsions:
REMARK  status: ('A' for Active; 'I' for Inactive)
REMARK    1  A    between atoms: C3_4  and  O_7 
ROOT
ATOM      1  C   UNL d   1       2.213   2.854   0.646  0.00  0.00    -0.033 A 
ATOM      2  C1  UNL d   1       2.407   2.644  -0.721  0.00  0.00     0.039 A 
ATOM      3  C2  UNL d   1       1.966   3.594  -1.644  0.00  0.00    -0.080 A 
ATOM      4  C3  UNL d   1       1.335   4.748  -1.189  0.00  0.00     0.150 A 
ATOM      5  C4  UNL d   1       1.142   4.966   0.171  0.00  0.00    -0.007 A 
ATOM      6  C5  UNL d   1       1.582   4.016   1.092  0.00  0.00     0.039 A 
ENDROOT
BRANCH   4   7
ATOM      7  O   UNL d   1       0.883   5.701  -2.053  0.00  0.00    -0.526 OA
ATOM      8  H5  UNL d   1       1.060   5.402  -2.961  0.00  0.00     0.418 HD
ENDBRANCH   4   7
TORSDOF 1
ENDMDL
