MODEL 1
REMARK minimizedAffinity 10.3442926
REMARK minimizedRMSD -1
REMARK  1 active torsions:
REMARK  status: ('A' for Active; 'I' for Inactive)
REMARK    1  A    between atoms: C3_4  and  O_7 
ROOT
ATOM      1  C   UNL d   1      -2.484  -4.550  -4.647  0.00  0.00    -0.033 A 
ATOM      2  C1  UNL d   1      -3.413  -5.033  -5.571  0.00  0.00     0.039 A 
ATOM      3  C2  UNL d   1      -4.467  -4.221  -5.994  0.00  0.00    -0.080 A 
ATOM      4  C3  UNL d   1      -4.580  -2.929  -5.487  0.00  0.00     0.150 A 
ATOM      5  C4  UNL d   1      -3.656  -2.440  -4.569  0.00  0.00    -0.007 A 
ATOM      6  C5  UNL d   1      -2.605  -3.254  -4.147  0.00  0.00     0.039 A 
ENDROOT
BRANCH   4   7
ATOM      7  O   UNL d   1      -5.594  -2.101  -5.866  0.00  0.00    -0.526 OA
ATOM      8  H5  UNL d   1      -6.171  -2.583  -6.481  0.00  0.00     0.418 HD
ENDBRANCH   4   7
TORSDOF 1
ENDMDL
