MODEL 1
REMARK minimizedAffinity 7.43910599
REMARK minimizedRMSD -1
REMARK  1 active torsions:
REMARK  status: ('A' for Active; 'I' for Inactive)
REMARK    1  A    between atoms: C3_4  and  O_7 
ROOT
ATOM      1  C   UNL d   1      -3.741   1.713   4.413  0.00  0.00    -0.033 A 
ATOM      2  C1  UNL d   1      -3.357   1.334   5.700  0.00  0.00     0.039 A 
ATOM      3  C2  UNL d   1      -3.147  -0.013   6.000  0.00  0.00    -0.080 A 
ATOM      4  C3  UNL d   1      -3.325  -0.970   5.005  0.00  0.00     0.150 A 
ATOM      5  C4  UNL d   1      -3.704  -0.599   3.719  0.00  0.00    -0.007 A 
ATOM      6  C5  UNL d   1      -3.914   0.747   3.422  0.00  0.00     0.039 A 
ENDROOT
BRANCH   4   7
ATOM      7  O   UNL d   1      -3.137  -2.298   5.251  0.00  0.00    -0.526 OA
ATOM      8  H5  UNL d   1      -2.905  -2.407   6.188  0.00  0.00     0.418 HD
ENDBRANCH   4   7
TORSDOF 1
ENDMDL
