MODEL 1
REMARK minimizedAffinity 12.5061092
REMARK minimizedRMSD -1
REMARK  1 active torsions:
REMARK  status: ('A' for Active; 'I' for Inactive)
REMARK    1  A    between atoms: C3_4  and  O_7 
ROOT
ATOM      1  C   UNL d   1      -5.992  -2.920  -5.994  0.00  0.00    -0.033 A 
ATOM      2  C1  UNL d   1      -5.416  -4.191  -6.000  0.00  0.00     0.039 A 
ATOM      3  C2  UNL d   1      -4.027  -4.331  -5.984  0.00  0.00    -0.080 A 
ATOM      4  C3  UNL d   1      -3.226  -3.192  -5.961  0.00  0.00     0.150 A 
ATOM      5  C4  UNL d   1      -3.793  -1.922  -5.951  0.00  0.00    -0.007 A 
ATOM      6  C5  UNL d   1      -5.180  -1.785  -5.968  0.00  0.00     0.039 A 
ENDROOT
BRANCH   4   7
ATOM      7  O   UNL d   1      -1.865  -3.278  -5.950  0.00  0.00    -0.526 OA
ATOM      8  H5  UNL d   1      -1.616  -4.217  -5.989  0.00  0.00     0.418 HD
ENDBRANCH   4   7
TORSDOF 1
ENDMDL
