MODEL 1
REMARK minimizedAffinity 1.18626511
REMARK minimizedRMSD -1
REMARK  1 active torsions:
REMARK  status: ('A' for Active; 'I' for Inactive)
REMARK    1  A    between atoms: C3_4  and  O_7 
ROOT
ATOM      1  C   UNL d   1       2.570  -6.000  -1.546  0.00  0.00    -0.033 A 
ATOM      2  C1  UNL d   1       3.539  -5.292  -0.832  0.00  0.00     0.039 A 
ATOM      3  C2  UNL d   1       3.491  -3.897  -0.782  0.00  0.00    -0.080 A 
ATOM      4  C3  UNL d   1       2.470  -3.224  -1.448  0.00  0.00     0.150 A 
ATOM      5  C4  UNL d   1       1.500  -3.924  -2.158  0.00  0.00    -0.007 A 
ATOM      6  C5  UNL d   1       1.550  -5.316  -2.208  0.00  0.00     0.039 A 
ENDROOT
BRANCH   4   7
ATOM      7  O   UNL d   1       2.385  -1.864  -1.432  0.00  0.00    -0.526 OA
ATOM      8  H5  UNL d   1       3.138  -1.514  -0.927  0.00  0.00     0.418 HD
ENDBRANCH   4   7
TORSDOF 1
ENDMDL
