MODEL 1
REMARK minimizedAffinity 12.2544527
REMARK minimizedRMSD -1
REMARK  1 active torsions:
REMARK  status: ('A' for Active; 'I' for Inactive)
REMARK    1  A    between atoms: C3_4  and  O_7 
ROOT
ATOM      1  C   UNL d   1      -3.469  -2.625  -5.454  0.00  0.00    -0.033 A 
ATOM      2  C1  UNL d   1      -2.869  -3.886  -5.446  0.00  0.00     0.039 A 
ATOM      3  C2  UNL d   1      -3.645  -5.031  -5.629  0.00  0.00    -0.080 A 
ATOM      4  C3  UNL d   1      -5.018  -4.903  -5.821  0.00  0.00     0.150 A 
ATOM      5  C4  UNL d   1      -5.622  -3.650  -5.835  0.00  0.00    -0.007 A 
ATOM      6  C5  UNL d   1      -4.845  -2.507  -5.650  0.00  0.00     0.039 A 
ENDROOT
BRANCH   4   7
ATOM      7  O   UNL d   1      -5.818  -5.992  -5.999  0.00  0.00    -0.526 OA
ATOM      8  H5  UNL d   1      -5.268  -6.791  -5.937  0.00  0.00     0.418 HD
ENDBRANCH   4   7
TORSDOF 1
ENDMDL
