MODEL 1
REMARK minimizedAffinity -3.23922825
REMARK minimizedRMSD -1
REMARK  0 active torsions:
REMARK  status: ('A' for Active; 'I' for Inactive)
ROOT
ATOM      1  C   UNL d   1      -0.881   0.639   0.997  0.00  0.00     0.078 C 
ATOM      2  C1  UNL d   1       0.130  -0.062   0.140  0.00  0.00    -0.077 A 
ATOM      3  C2  UNL d   1       0.154  -1.459   0.049  0.00  0.00    -0.001 A 
ATOM      4  C3  UNL d   1       1.107  -2.098  -0.745  0.00  0.00     0.003 A 
ATOM      5  C4  UNL d   1       2.045  -1.349  -1.453  0.00  0.00    -0.005 A 
ATOM      6  C5  UNL d   1       2.031   0.041  -1.366  0.00  0.00     0.003 A 
ATOM      7  C6  UNL d   1       1.078   0.683  -0.573  0.00  0.00    -0.001 A 
ENDROOT
TORSDOF 0
ENDMDL
