MODEL 1
REMARK minimizedAffinity -5.95465946
REMARK minimizedRMSD -1
REMARK  0 active torsions:
REMARK  status: ('A' for Active; 'I' for Inactive)
ROOT
ATOM      1  C   UNL d   1       0.440  -1.495   0.362  0.00  0.00     0.078 C 
ATOM      2  C1  UNL d   1       0.910  -0.541  -0.695  0.00  0.00    -0.077 A 
ATOM      3  C2  UNL d   1       0.214   0.646  -0.957  0.00  0.00    -0.001 A 
ATOM      4  C3  UNL d   1       0.658   1.520  -1.950  0.00  0.00     0.003 A 
ATOM      5  C4  UNL d   1       1.798   1.216  -2.691  0.00  0.00    -0.005 A 
ATOM      6  C5  UNL d   1       2.496   0.037  -2.439  0.00  0.00     0.003 A 
ATOM      7  C6  UNL d   1       2.054  -0.838  -1.446  0.00  0.00    -0.001 A 
ENDROOT
TORSDOF 0
ENDMDL
