MODEL 1
REMARK minimizedAffinity -4.95838213
REMARK minimizedRMSD -1
REMARK  0 active torsions:
REMARK  status: ('A' for Active; 'I' for Inactive)
ROOT
ATOM      1  C   UNL d   1       2.108  -3.316  -2.899  0.00  0.00     0.078 C 
ATOM      2  C1  UNL d   1       2.131  -2.131  -1.981  0.00  0.00    -0.077 A 
ATOM      3  C2  UNL d   1       3.259  -1.304  -1.900  0.00  0.00    -0.001 A 
ATOM      4  C3  UNL d   1       3.270  -0.209  -1.034  0.00  0.00     0.003 A 
ATOM      5  C4  UNL d   1       2.158   0.068  -0.242  0.00  0.00    -0.005 A 
ATOM      6  C5  UNL d   1       1.033  -0.750  -0.314  0.00  0.00     0.003 A 
ATOM      7  C6  UNL d   1       1.019  -1.845  -1.179  0.00  0.00    -0.001 A 
ENDROOT
TORSDOF 0
ENDMDL
