MODEL 1
REMARK minimizedAffinity -3.48502636
REMARK minimizedRMSD -1
REMARK  0 active torsions:
REMARK  status: ('A' for Active; 'I' for Inactive)
ROOT
ATOM      1  C   UNL d   1       0.637  -1.751   0.442  0.00  0.00     0.078 C 
ATOM      2  C1  UNL d   1      -0.321  -0.663   0.825  0.00  0.00    -0.077 A 
ATOM      3  C2  UNL d   1      -0.591  -0.379   2.170  0.00  0.00    -0.001 A 
ATOM      4  C3  UNL d   1      -1.492   0.630   2.511  0.00  0.00     0.003 A 
ATOM      5  C4  UNL d   1      -2.133   1.363   1.514  0.00  0.00    -0.005 A 
ATOM      6  C5  UNL d   1      -1.873   1.086   0.173  0.00  0.00     0.003 A 
ATOM      7  C6  UNL d   1      -0.971   0.077  -0.170  0.00  0.00    -0.001 A 
ENDROOT
TORSDOF 0
ENDMDL
