MODEL 1
REMARK minimizedAffinity -3.23177552
REMARK minimizedRMSD -1
REMARK  0 active torsions:
REMARK  status: ('A' for Active; 'I' for Inactive)
ROOT
ATOM      1  C   UNL d   1       0.304   1.263  -0.098  0.00  0.00     0.078 C 
ATOM      2  C1  UNL d   1      -0.522   1.013   1.129  0.00  0.00    -0.077 A 
ATOM      3  C2  UNL d   1      -0.444   1.866   2.237  0.00  0.00    -0.001 A 
ATOM      4  C3  UNL d   1      -1.212   1.616   3.375  0.00  0.00     0.003 A 
ATOM      5  C4  UNL d   1      -2.063   0.513   3.417  0.00  0.00    -0.005 A 
ATOM      6  C5  UNL d   1      -2.145  -0.342   2.320  0.00  0.00     0.003 A 
ATOM      7  C6  UNL d   1      -1.378  -0.094   1.181  0.00  0.00    -0.001 A 
ENDROOT
TORSDOF 0
ENDMDL
