MODEL 1
REMARK minimizedAffinity -5.84503746
REMARK minimizedRMSD -1
REMARK  0 active torsions:
REMARK  status: ('A' for Active; 'I' for Inactive)
ROOT
ATOM      1  C   UNL d   1       3.062  -0.435  -1.529  0.00  0.00     0.078 C 
ATOM      2  C1  UNL d   1       1.674  -0.309  -0.974  0.00  0.00    -0.077 A 
ATOM      3  C2  UNL d   1       1.003   0.920  -0.981  0.00  0.00    -0.001 A 
ATOM      4  C3  UNL d   1      -0.284   1.024  -0.452  0.00  0.00     0.003 A 
ATOM      5  C4  UNL d   1      -0.912  -0.096   0.089  0.00  0.00    -0.005 A 
ATOM      6  C5  UNL d   1      -0.251  -1.323   0.102  0.00  0.00     0.003 A 
ATOM      7  C6  UNL d   1       1.037  -1.429  -0.426  0.00  0.00    -0.001 A 
ENDROOT
TORSDOF 0
ENDMDL
