MODEL 1
REMARK minimizedAffinity -5.19563437
REMARK minimizedRMSD -1
REMARK  0 active torsions:
REMARK  status: ('A' for Active; 'I' for Inactive)
ROOT
ATOM      1  C   UNL d   1      -1.027   0.247   0.612  0.00  0.00     0.078 C 
ATOM      2  C1  UNL d   1       0.215  -0.135  -0.137  0.00  0.00    -0.077 A 
ATOM      3  C2  UNL d   1       1.058   0.842  -0.681  0.00  0.00    -0.001 A 
ATOM      4  C3  UNL d   1       2.206   0.472  -1.384  0.00  0.00     0.003 A 
ATOM      5  C4  UNL d   1       2.520  -0.876  -1.551  0.00  0.00    -0.005 A 
ATOM      6  C5  UNL d   1       1.686  -1.855  -1.015  0.00  0.00     0.003 A 
ATOM      7  C6  UNL d   1       0.538  -1.486  -0.312  0.00  0.00    -0.001 A 
ENDROOT
TORSDOF 0
ENDMDL
