MODEL 1
REMARK minimizedAffinity -5.00333786
REMARK minimizedRMSD -1
REMARK  0 active torsions:
REMARK  status: ('A' for Active; 'I' for Inactive)
ROOT
ATOM      1  C   UNL d   1      -1.058   0.750   0.761  0.00  0.00     0.078 C 
ATOM      2  C1  UNL d   1       0.074   0.057   0.063  0.00  0.00    -0.077 A 
ATOM      3  C2  UNL d   1       1.129   0.786  -0.498  0.00  0.00    -0.001 A 
ATOM      4  C3  UNL d   1       2.171   0.128  -1.154  0.00  0.00     0.003 A 
ATOM      5  C4  UNL d   1       2.168  -1.262  -1.255  0.00  0.00    -0.005 A 
ATOM      6  C5  UNL d   1       1.120  -1.996  -0.701  0.00  0.00     0.003 A 
ATOM      7  C6  UNL d   1       0.077  -1.339  -0.046  0.00  0.00    -0.001 A 
ENDROOT
TORSDOF 0
ENDMDL
