MODEL 1
REMARK minimizedAffinity -4.21814919
REMARK minimizedRMSD -1
REMARK  0 active torsions:
REMARK  status: ('A' for Active; 'I' for Inactive)
ROOT
ATOM      1  C   UNL d   1       3.008   0.033  -0.914  0.00  0.00     0.078 C 
ATOM      2  C1  UNL d   1       1.566   0.112  -0.507  0.00  0.00    -0.077 A 
ATOM      3  C2  UNL d   1       0.832   1.291  -0.677  0.00  0.00    -0.001 A 
ATOM      4  C3  UNL d   1      -0.506   1.353  -0.285  0.00  0.00     0.003 A 
ATOM      5  C4  UNL d   1      -1.121   0.238   0.282  0.00  0.00    -0.005 A 
ATOM      6  C5  UNL d   1      -0.397  -0.940   0.457  0.00  0.00     0.003 A 
ATOM      7  C6  UNL d   1       0.941  -1.003   0.065  0.00  0.00    -0.001 A 
ENDROOT
TORSDOF 0
ENDMDL
