MODEL 1
REMARK minimizedAffinity -3.61837077
REMARK minimizedRMSD -1
REMARK  0 active torsions:
REMARK  status: ('A' for Active; 'I' for Inactive)
ROOT
ATOM      1  C   UNL d   1      -0.630   0.685  -0.348  0.00  0.00     0.078 C 
ATOM      2  C1  UNL d   1      -1.040   0.875   1.082  0.00  0.00    -0.077 A 
ATOM      3  C2  UNL d   1      -2.183   0.250   1.594  0.00  0.00    -0.001 A 
ATOM      4  C3  UNL d   1      -2.558   0.443   2.925  0.00  0.00     0.003 A 
ATOM      5  C4  UNL d   1      -1.796   1.263   3.754  0.00  0.00    -0.005 A 
ATOM      6  C5  UNL d   1      -0.658   1.892   3.253  0.00  0.00     0.003 A 
ATOM      7  C6  UNL d   1      -0.281   1.700   1.923  0.00  0.00    -0.001 A 
ENDROOT
TORSDOF 0
ENDMDL
