MODEL 1
REMARK minimizedAffinity -2.16812754
REMARK minimizedRMSD -1
REMARK  0 active torsions:
REMARK  status: ('A' for Active; 'I' for Inactive)
ROOT
ATOM      1  C   UNL d   1      -0.603   0.602   0.237  0.00  0.00     0.078 C 
ATOM      2  C1  UNL d   1       0.354  -0.048  -0.717  0.00  0.00    -0.077 A 
ATOM      3  C2  UNL d   1       0.736  -1.386  -0.556  0.00  0.00    -0.001 A 
ATOM      4  C3  UNL d   1       1.635  -1.975  -1.446  0.00  0.00     0.003 A 
ATOM      5  C4  UNL d   1       2.161  -1.234  -2.502  0.00  0.00    -0.005 A 
ATOM      6  C5  UNL d   1       1.788   0.098  -2.670  0.00  0.00     0.003 A 
ATOM      7  C6  UNL d   1       0.889   0.689  -1.781  0.00  0.00    -0.001 A 
ENDROOT
TORSDOF 0
ENDMDL
