MODEL 1
REMARK minimizedAffinity -4.40516567
REMARK minimizedRMSD -1
REMARK  0 active torsions:
REMARK  status: ('A' for Active; 'I' for Inactive)
ROOT
ATOM      1  C   UNL d   1       3.119  -0.426  -1.425  0.00  0.00     0.078 C 
ATOM      2  C1  UNL d   1       1.724  -0.427  -0.876  0.00  0.00    -0.077 A 
ATOM      3  C2  UNL d   1       0.994   0.762  -0.758  0.00  0.00    -0.001 A 
ATOM      4  C3  UNL d   1      -0.300   0.747  -0.236  0.00  0.00     0.003 A 
ATOM      5  C4  UNL d   1      -0.876  -0.454   0.173  0.00  0.00    -0.005 A 
ATOM      6  C5  UNL d   1      -0.157  -1.642   0.061  0.00  0.00     0.003 A 
ATOM      7  C6  UNL d   1       1.137  -1.629  -0.460  0.00  0.00    -0.001 A 
ENDROOT
TORSDOF 0
ENDMDL
