MODEL 1
REMARK minimizedAffinity -3.06561351
REMARK minimizedRMSD -1
REMARK  0 active torsions:
REMARK  status: ('A' for Active; 'I' for Inactive)
ROOT
ATOM      1  C   UNL d   1       0.878   0.742   0.100  0.00  0.00     0.078 C 
ATOM      2  C1  UNL d   1      -0.201   0.964   1.117  0.00  0.00    -0.077 A 
ATOM      3  C2  UNL d   1      -0.508   2.252   1.573  0.00  0.00    -0.001 A 
ATOM      4  C3  UNL d   1      -1.508   2.444   2.527  0.00  0.00     0.003 A 
ATOM      5  C4  UNL d   1      -2.209   1.351   3.035  0.00  0.00    -0.005 A 
ATOM      6  C5  UNL d   1      -1.909   0.066   2.589  0.00  0.00     0.003 A 
ATOM      7  C6  UNL d   1      -0.909  -0.127   1.634  0.00  0.00    -0.001 A 
ENDROOT
TORSDOF 0
ENDMDL
