MODEL 1
REMARK minimizedAffinity -3.93956041
REMARK minimizedRMSD -1
REMARK  0 active torsions:
REMARK  status: ('A' for Active; 'I' for Inactive)
ROOT
ATOM      1  C   UNL d   1      -0.642   0.271   0.181  0.00  0.00     0.078 C 
ATOM      2  C1  UNL d   1       0.430  -0.024  -0.826  0.00  0.00    -0.077 A 
ATOM      3  C2  UNL d   1       1.164  -1.215  -0.769  0.00  0.00    -0.001 A 
ATOM      4  C3  UNL d   1       2.165  -1.472  -1.707  0.00  0.00     0.003 A 
ATOM      5  C4  UNL d   1       2.442  -0.542  -2.708  0.00  0.00    -0.005 A 
ATOM      6  C5  UNL d   1       1.718   0.647  -2.771  0.00  0.00     0.003 A 
ATOM      7  C6  UNL d   1       0.717   0.905  -1.834  0.00  0.00    -0.001 A 
ENDROOT
TORSDOF 0
ENDMDL
