MODEL 1
REMARK minimizedAffinity -3.52183294
REMARK minimizedRMSD -1
REMARK  0 active torsions:
REMARK  status: ('A' for Active; 'I' for Inactive)
ROOT
ATOM      1  C   UNL d   1      -1.443   0.338   0.607  0.00  0.00     0.078 C 
ATOM      2  C1  UNL d   1      -0.367  -0.436  -0.096  0.00  0.00    -0.077 A 
ATOM      3  C2  UNL d   1      -0.320  -1.834  -0.023  0.00  0.00    -0.001 A 
ATOM      4  C3  UNL d   1       0.692  -2.541  -0.674  0.00  0.00     0.003 A 
ATOM      5  C4  UNL d   1       1.666  -1.858  -1.401  0.00  0.00    -0.005 A 
ATOM      6  C5  UNL d   1       1.628  -0.468  -1.478  0.00  0.00     0.003 A 
ATOM      7  C6  UNL d   1       0.616   0.241  -0.827  0.00  0.00    -0.001 A 
ENDROOT
TORSDOF 0
ENDMDL
