MODEL 1
REMARK minimizedAffinity -6.29710674
REMARK minimizedRMSD -1
REMARK  0 active torsions:
REMARK  status: ('A' for Active; 'I' for Inactive)
ROOT
ATOM      1  C   UNL d   1      -0.574   0.336   0.093  0.00  0.00     0.078 C 
ATOM      2  C1  UNL d   1       0.676   0.263  -0.733  0.00  0.00    -0.077 A 
ATOM      3  C2  UNL d   1       0.969   1.248  -1.684  0.00  0.00    -0.001 A 
ATOM      4  C3  UNL d   1       2.131   1.163  -2.453  0.00  0.00     0.003 A 
ATOM      5  C4  UNL d   1       3.008   0.094  -2.278  0.00  0.00    -0.005 A 
ATOM      6  C5  UNL d   1       2.724  -0.892  -1.336  0.00  0.00     0.003 A 
ATOM      7  C6  UNL d   1       1.562  -0.808  -0.566  0.00  0.00    -0.001 A 
ENDROOT
TORSDOF 0
ENDMDL
