MODEL 1
REMARK minimizedAffinity -3.04043555
REMARK minimizedRMSD -1
REMARK  0 active torsions:
REMARK  status: ('A' for Active; 'I' for Inactive)
ROOT
ATOM      1  C   UNL d   1      -0.732  -1.052   0.656  0.00  0.00     0.023 A 
ATOM      2  C1  UNL d   1       0.629  -1.277   0.453  0.00  0.00     0.003 A 
ATOM      3  C2  UNL d   1       1.361  -0.432  -0.384  0.00  0.00     0.048 A 
ATOM      4  C3  UNL d   1       0.725   0.638  -1.013  0.00  0.00     0.023 A 
ATOM      5  C4  UNL d   1      -0.637   0.868  -0.811  0.00  0.00     0.048 A 
ATOM      6  C5  UNL d   1      -1.364   0.020   0.025  0.00  0.00     0.003 A 
ATOM      7  I   UNL d   1       1.812   1.898  -2.258  0.00  0.00    -0.146 I 
ENDROOT
TORSDOF 0
ENDMDL
