MODEL 1
REMARK minimizedAffinity -2.38511181
REMARK minimizedRMSD -1
REMARK  0 active torsions:
REMARK  status: ('A' for Active; 'I' for Inactive)
ROOT
ATOM      1  C   UNL d   1       0.222   1.612   0.228  0.00  0.00     0.023 A 
ATOM      2  C1  UNL d   1       0.831   0.392  -0.063  0.00  0.00     0.003 A 
ATOM      3  C2  UNL d   1       0.208  -0.805   0.298  0.00  0.00     0.048 A 
ATOM      4  C3  UNL d   1      -1.025  -0.773   0.949  0.00  0.00     0.023 A 
ATOM      5  C4  UNL d   1      -1.638   0.446   1.242  0.00  0.00     0.048 A 
ATOM      6  C5  UNL d   1      -1.011   1.640   0.880  0.00  0.00     0.003 A 
ATOM      7  I   UNL d   1      -1.955  -2.552   1.487  0.00  0.00    -0.146 I 
ENDROOT
TORSDOF 0
ENDMDL
