MODEL 1
REMARK minimizedAffinity -4.33006096
REMARK minimizedRMSD -1
REMARK  0 active torsions:
REMARK  status: ('A' for Active; 'I' for Inactive)
ROOT
ATOM      1  C   UNL d   1      -0.986  -2.028   1.586  0.00  0.00     0.023 A 
ATOM      2  C1  UNL d   1       0.153  -2.364   0.855  0.00  0.00     0.003 A 
ATOM      3  C2  UNL d   1       0.734  -1.429  -0.004  0.00  0.00     0.048 A 
ATOM      4  C3  UNL d   1       0.170  -0.159  -0.127  0.00  0.00     0.023 A 
ATOM      5  C4  UNL d   1      -0.970   0.182   0.603  0.00  0.00     0.048 A 
ATOM      6  C5  UNL d   1      -1.547  -0.757   1.460  0.00  0.00     0.003 A 
ATOM      7  I   UNL d   1       1.032   1.234  -1.406  0.00  0.00    -0.146 I 
ENDROOT
TORSDOF 0
ENDMDL
