MODEL 1
REMARK minimizedAffinity -3.25482202
REMARK minimizedRMSD -1
REMARK  0 active torsions:
REMARK  status: ('A' for Active; 'I' for Inactive)
ROOT
ATOM      1  C   UNL d   1      -1.960  -2.326   2.062  0.00  0.00     0.023 A 
ATOM      2  C1  UNL d   1      -0.578  -2.467   1.935  0.00  0.00     0.003 A 
ATOM      3  C2  UNL d   1       0.156  -1.532   1.202  0.00  0.00     0.048 A 
ATOM      4  C3  UNL d   1      -0.498  -0.457   0.601  0.00  0.00     0.023 A 
ATOM      5  C4  UNL d   1      -1.880  -0.311   0.726  0.00  0.00     0.048 A 
ATOM      6  C5  UNL d   1      -2.610  -1.249   1.459  0.00  0.00     0.003 A 
ATOM      7  I   UNL d   1       0.593   0.936  -0.490  0.00  0.00    -0.146 I 
ENDROOT
TORSDOF 0
ENDMDL
