MODEL 1
REMARK minimizedAffinity -3.55105805
REMARK minimizedRMSD -1
REMARK  0 active torsions:
REMARK  status: ('A' for Active; 'I' for Inactive)
ROOT
ATOM      1  C   UNL d   1      -1.385  -2.291   1.193  0.00  0.00     0.023 A 
ATOM      2  C1  UNL d   1      -0.060  -2.408   0.771  0.00  0.00     0.003 A 
ATOM      3  C2  UNL d   1       0.601  -1.304   0.229  0.00  0.00     0.048 A 
ATOM      4  C3  UNL d   1      -0.067  -0.086   0.114  0.00  0.00     0.023 A 
ATOM      5  C4  UNL d   1      -1.392   0.036   0.537  0.00  0.00     0.048 A 
ATOM      6  C5  UNL d   1      -2.049  -1.070   1.077  0.00  0.00     0.003 A 
ATOM      7  I   UNL d   1       0.916   1.559  -0.691  0.00  0.00    -0.146 I 
ENDROOT
TORSDOF 0
ENDMDL
