MODEL 1
REMARK minimizedAffinity -2.99306154
REMARK minimizedRMSD -1
REMARK  0 active torsions:
REMARK  status: ('A' for Active; 'I' for Inactive)
ROOT
ATOM      1  C   UNL d   1      -1.212  -1.912   1.877  0.00  0.00     0.023 A 
ATOM      2  C1  UNL d   1      -0.152  -2.250   1.035  0.00  0.00     0.003 A 
ATOM      3  C2  UNL d   1       0.430  -1.279   0.219  0.00  0.00     0.048 A 
ATOM      4  C3  UNL d   1      -0.051   0.029   0.250  0.00  0.00     0.023 A 
ATOM      5  C4  UNL d   1      -1.110   0.373   1.091  0.00  0.00     0.048 A 
ATOM      6  C5  UNL d   1      -1.690  -0.602   1.905  0.00  0.00     0.003 A 
ATOM      7  I   UNL d   1       0.815   1.477  -0.964  0.00  0.00    -0.146 I 
ENDROOT
TORSDOF 0
ENDMDL
