MODEL 1
REMARK minimizedAffinity -1.94749081
REMARK minimizedRMSD -1
REMARK  0 active torsions:
REMARK  status: ('A' for Active; 'I' for Inactive)
ROOT
ATOM      1  C   UNL d   1      -0.970  -1.810   1.546  0.00  0.00     0.023 A 
ATOM      2  C1  UNL d   1       0.275  -2.033   0.957  0.00  0.00     0.003 A 
ATOM      3  C2  UNL d   1       0.789  -1.116   0.039  0.00  0.00     0.048 A 
ATOM      4  C3  UNL d   1       0.052   0.023  -0.287  0.00  0.00     0.023 A 
ATOM      5  C4  UNL d   1      -1.194   0.250   0.300  0.00  0.00     0.048 A 
ATOM      6  C5  UNL d   1      -1.703  -0.670   1.217  0.00  0.00     0.003 A 
ATOM      7  I   UNL d   1       0.815   1.390  -1.654  0.00  0.00    -0.146 I 
ENDROOT
TORSDOF 0
ENDMDL
