MODEL 1
REMARK minimizedAffinity -3.00908113
REMARK minimizedRMSD -1
REMARK  0 active torsions:
REMARK  status: ('A' for Active; 'I' for Inactive)
ROOT
ATOM      1  C   UNL d   1      -0.028  -1.417   0.906  0.00  0.00     0.023 A 
ATOM      2  C1  UNL d   1       1.122  -1.688   0.164  0.00  0.00     0.003 A 
ATOM      3  C2  UNL d   1       1.526  -0.812  -0.845  0.00  0.00     0.048 A 
ATOM      4  C3  UNL d   1       0.776   0.334  -1.107  0.00  0.00     0.023 A 
ATOM      5  C4  UNL d   1      -0.374   0.610  -0.367  0.00  0.00     0.048 A 
ATOM      6  C5  UNL d   1      -0.775  -0.270   0.641  0.00  0.00     0.003 A 
ATOM      7  I   UNL d   1       1.376   1.640  -2.609  0.00  0.00    -0.146 I 
ENDROOT
TORSDOF 0
ENDMDL
