MODEL 1
REMARK minimizedAffinity -4.43451071
REMARK minimizedRMSD -1
REMARK  0 active torsions:
REMARK  status: ('A' for Active; 'I' for Inactive)
ROOT
ATOM      1  C   UNL d   1      -2.168  -1.627   1.955  0.00  0.00     0.023 A 
ATOM      2  C1  UNL d   1      -1.063  -2.174   1.303  0.00  0.00     0.003 A 
ATOM      3  C2  UNL d   1      -0.217  -1.354   0.553  0.00  0.00     0.048 A 
ATOM      4  C3  UNL d   1      -0.483   0.012   0.460  0.00  0.00     0.023 A 
ATOM      5  C4  UNL d   1      -1.587   0.563   1.111  0.00  0.00     0.048 A 
ATOM      6  C5  UNL d   1      -2.430  -0.261   1.860  0.00  0.00     0.003 A 
ATOM      7  I   UNL d   1       0.774   1.234  -0.656  0.00  0.00    -0.146 I 
ENDROOT
TORSDOF 0
ENDMDL
