MODEL 1
REMARK minimizedAffinity -4.80811405
REMARK minimizedRMSD -1
REMARK  0 active torsions:
REMARK  status: ('A' for Active; 'I' for Inactive)
ROOT
ATOM      1  C   UNL d   1      -2.900  -1.935   1.773  0.00  0.00     0.023 A 
ATOM      2  C1  UNL d   1      -1.847  -2.609   1.153  0.00  0.00     0.003 A 
ATOM      3  C2  UNL d   1      -0.897  -1.896   0.419  0.00  0.00     0.048 A 
ATOM      4  C3  UNL d   1      -1.006  -0.510   0.308  0.00  0.00     0.023 A 
ATOM      5  C4  UNL d   1      -2.057   0.168   0.927  0.00  0.00     0.048 A 
ATOM      6  C5  UNL d   1      -3.005  -0.549   1.660  0.00  0.00     0.003 A 
ATOM      7  I   UNL d   1       0.407   0.553  -0.784  0.00  0.00    -0.146 I 
ENDROOT
TORSDOF 0
ENDMDL
