MODEL 1
REMARK minimizedAffinity -3.50707936
REMARK minimizedRMSD -1
REMARK  0 active torsions:
REMARK  status: ('A' for Active; 'I' for Inactive)
ROOT
ATOM      1  C   UNL d   1      -2.003  -1.864   1.565  0.00  0.00     0.023 A 
ATOM      2  C1  UNL d   1      -2.288  -0.537   1.240  0.00  0.00     0.003 A 
ATOM      3  C2  UNL d   1      -1.353   0.228   0.541  0.00  0.00     0.048 A 
ATOM      4  C3  UNL d   1      -0.135  -0.339   0.168  0.00  0.00     0.023 A 
ATOM      5  C4  UNL d   1       0.154  -1.666   0.490  0.00  0.00     0.048 A 
ATOM      6  C5  UNL d   1      -0.784  -2.428   1.190  0.00  0.00     0.003 A 
ATOM      7  I   UNL d   1       1.258   0.798  -0.874  0.00  0.00    -0.146 I 
ENDROOT
TORSDOF 0
ENDMDL
