MODEL 1
REMARK minimizedAffinity -3.7640717
REMARK minimizedRMSD -1
REMARK  0 active torsions:
REMARK  status: ('A' for Active; 'I' for Inactive)
ROOT
ATOM      1  O1  BZF d   1      -0.200  -0.424  -0.114  0.00  0.00    -0.204 OA
ATOM      2  C2  BZF d   1       1.079  -0.919  -0.284  0.00  0.00     0.174 A 
ATOM      3  C3  BZF d   1       1.887  -0.509   0.714  0.00  0.00    -0.012 A 
ATOM      4  C3A BZF d   1       1.041   0.216   1.610  0.00  0.00    -0.107 A 
ATOM      5  C4  BZF d   1       1.259   0.855   2.798  0.00  0.00     0.055 A 
ATOM      6  C5  BZF d   1       0.234   1.530   3.382  0.00  0.00    -0.016 A 
ATOM      7  C6  BZF d   1      -1.018   1.591   2.806  0.00  0.00     0.022 A 
ATOM      8  C7  BZF d   1      -1.283   0.968   1.632  0.00  0.00     0.029 A 
ATOM      9  C7A BZF d   1      -0.259   0.258   1.055  0.00  0.00     0.058 A 
ENDROOT
TORSDOF 0
ENDMDL
