MODEL 1
REMARK minimizedAffinity -0.195850447
REMARK minimizedRMSD -1
REMARK  0 active torsions:
REMARK  status: ('A' for Active; 'I' for Inactive)
ROOT
ATOM      1  O1  BZF d   1       0.090   0.002  -5.998  0.00  0.00    -0.204 OA
ATOM      2  C2  BZF d   1      -1.033  -0.735  -5.676  0.00  0.00     0.174 A 
ATOM      3  C3  BZF d   1      -1.159  -0.854  -4.338  0.00  0.00    -0.012 A 
ATOM      4  C3A BZF d   1      -0.096  -0.070  -3.788  0.00  0.00    -0.107 A 
ATOM      5  C4  BZF d   1       0.295   0.218  -2.512  0.00  0.00     0.055 A 
ATOM      6  C5  BZF d   1       1.420   0.955  -2.316  0.00  0.00    -0.016 A 
ATOM      7  C6  BZF d   1       2.179   1.416  -3.372  0.00  0.00     0.022 A 
ATOM      8  C7  BZF d   1       1.827   1.161  -4.656  0.00  0.00     0.029 A 
ATOM      9  C7A BZF d   1       0.673   0.444  -4.858  0.00  0.00     0.058 A 
ENDROOT
TORSDOF 0
ENDMDL
