MODEL 1
REMARK minimizedAffinity -0.670728385
REMARK minimizedRMSD -1
REMARK  0 active torsions:
REMARK  status: ('A' for Active; 'I' for Inactive)
ROOT
ATOM      1  O1  BZF d   1       1.673   0.182  -1.633  0.00  0.00    -0.204 OA
ATOM      2  C2  BZF d   1       0.882  -0.765  -1.011  0.00  0.00     0.174 A 
ATOM      3  C3  BZF d   1      -0.057  -1.234  -1.858  0.00  0.00    -0.012 A 
ATOM      4  C3A BZF d   1       0.218  -0.603  -3.112  0.00  0.00    -0.107 A 
ATOM      5  C4  BZF d   1      -0.360  -0.677  -4.347  0.00  0.00     0.055 A 
ATOM      6  C5  BZF d   1       0.104   0.123  -5.343  0.00  0.00    -0.016 A 
ATOM      7  C6  BZF d   1       1.139   1.011  -5.138  0.00  0.00     0.022 A 
ATOM      8  C7  BZF d   1       1.748   1.116  -3.931  0.00  0.00     0.029 A 
ATOM      9  C7A BZF d   1       1.303   0.286  -2.932  0.00  0.00     0.058 A 
ENDROOT
TORSDOF 0
ENDMDL
