MODEL 1
REMARK minimizedAffinity -1.60889232
REMARK minimizedRMSD -1
REMARK  0 active torsions:
REMARK  status: ('A' for Active; 'I' for Inactive)
ROOT
ATOM      1  O1  BZF d   1       0.779   1.181   2.782  0.00  0.00    -0.204 OA
ATOM      2  C2  BZF d   1      -0.443   1.824   2.726  0.00  0.00     0.174 A 
ATOM      3  C3  BZF d   1      -1.064   1.571   1.556  0.00  0.00    -0.012 A 
ATOM      4  C3A BZF d   1      -0.215   0.642   0.873  0.00  0.00    -0.107 A 
ATOM      5  C4  BZF d   1      -0.299   0.005  -0.332  0.00  0.00     0.055 A 
ATOM      6  C5  BZF d   1       0.732  -0.782  -0.736  0.00  0.00    -0.016 A 
ATOM      7  C6  BZF d   1       1.864  -0.949   0.036  0.00  0.00     0.022 A 
ATOM      8  C7  BZF d   1       1.991  -0.341   1.240  0.00  0.00     0.029 A 
ATOM      9  C7A BZF d   1       0.935   0.428   1.666  0.00  0.00     0.058 A 
ENDROOT
TORSDOF 0
ENDMDL
