MODEL 1
REMARK minimizedAffinity 1.73930812
REMARK minimizedRMSD -1
REMARK  0 active torsions:
REMARK  status: ('A' for Active; 'I' for Inactive)
ROOT
ATOM      1  O1  BZF d   1       0.001   0.003  -6.000  0.00  0.00    -0.204 OA
ATOM      2  C2  BZF d   1      -1.247  -0.544  -5.769  0.00  0.00     0.174 A 
ATOM      3  C3  BZF d   1      -1.500  -0.619  -4.447  0.00  0.00    -0.012 A 
ATOM      4  C3A BZF d   1      -0.375  -0.000  -3.813  0.00  0.00    -0.107 A 
ATOM      5  C4  BZF d   1      -0.049   0.245  -2.510  0.00  0.00     0.055 A 
ATOM      6  C5  BZF d   1       1.157   0.801  -2.224  0.00  0.00    -0.016 A 
ATOM      7  C6  BZF d   1       2.063   1.120  -3.215  0.00  0.00     0.022 A 
ATOM      8  C7  BZF d   1       1.782   0.900  -4.523  0.00  0.00     0.029 A 
ATOM      9  C7A BZF d   1       0.550   0.368  -4.817  0.00  0.00     0.058 A 
ENDROOT
TORSDOF 0
ENDMDL
