MODEL 1
REMARK minimizedAffinity -0.629327893
REMARK minimizedRMSD -1
REMARK  0 active torsions:
REMARK  status: ('A' for Active; 'I' for Inactive)
ROOT
ATOM      1  O1  BZF d   1       2.086   0.241   2.093  0.00  0.00    -0.204 OA
ATOM      2  C2  BZF d   1       2.533  -0.422   0.966  0.00  0.00     0.174 A 
ATOM      3  C3  BZF d   1       1.511  -0.674   0.122  0.00  0.00    -0.012 A 
ATOM      4  C3A BZF d   1       0.369  -0.053   0.718  0.00  0.00    -0.107 A 
ATOM      5  C4  BZF d   1      -0.941   0.058   0.347  0.00  0.00     0.055 A 
ATOM      6  C5  BZF d   1      -1.817   0.666   1.189  0.00  0.00    -0.016 A 
ATOM      7  C6  BZF d   1      -1.420   1.169   2.411  0.00  0.00     0.022 A 
ATOM      8  C7  BZF d   1      -0.131   1.087   2.821  0.00  0.00     0.029 A 
ATOM      9  C7A BZF d   1       0.763   0.503   1.958  0.00  0.00     0.058 A 
ENDROOT
TORSDOF 0
ENDMDL
