MODEL 1
REMARK minimizedAffinity -3.19391918
REMARK minimizedRMSD -1
REMARK  0 active torsions:
REMARK  status: ('A' for Active; 'I' for Inactive)
ROOT
ATOM      1  O1  BZF d   1       1.441   0.150  -2.336  0.00  0.00    -0.204 OA
ATOM      2  C2  BZF d   1       0.766  -0.623  -1.411  0.00  0.00     0.174 A 
ATOM      3  C3  BZF d   1      -0.328  -1.185  -1.965  0.00  0.00    -0.012 A 
ATOM      4  C3A BZF d   1      -0.287  -0.808  -3.344  0.00  0.00    -0.107 A 
ATOM      5  C4  BZF d   1      -1.094  -1.072  -4.414  0.00  0.00     0.055 A 
ATOM      6  C5  BZF d   1      -0.814  -0.492  -5.611  0.00  0.00    -0.016 A 
ATOM      7  C6  BZF d   1       0.259   0.359  -5.773  0.00  0.00     0.022 A 
ATOM      8  C7  BZF d   1       1.090   0.647  -4.742  0.00  0.00     0.029 A 
ATOM      9  C7A BZF d   1       0.830   0.037  -3.539  0.00  0.00     0.058 A 
ENDROOT
TORSDOF 0
ENDMDL
