MODEL 1
REMARK minimizedAffinity -1.71818531
REMARK minimizedRMSD -1
REMARK  0 active torsions:
REMARK  status: ('A' for Active; 'I' for Inactive)
ROOT
ATOM      1  O1  BZF d   1      -0.198  -0.596  -0.217  0.00  0.00    -0.204 OA
ATOM      2  C2  BZF d   1       1.089  -0.174  -0.491  0.00  0.00     0.174 A 
ATOM      3  C3  BZF d   1       1.499   0.731   0.421  0.00  0.00    -0.012 A 
ATOM      4  C3A BZF d   1       0.435   0.815   1.374  0.00  0.00    -0.107 A 
ATOM      5  C4  BZF d   1       0.258   1.533   2.522  0.00  0.00     0.055 A 
ATOM      6  C5  BZF d   1      -0.927   1.441   3.181  0.00  0.00    -0.016 A 
ATOM      7  C6  BZF d   1      -1.955   0.647   2.719  0.00  0.00     0.022 A 
ATOM      8  C7  BZF d   1      -1.824  -0.088   1.588  0.00  0.00     0.029 A 
ATOM      9  C7A BZF d   1      -0.616  -0.023   0.937  0.00  0.00     0.058 A 
ENDROOT
TORSDOF 0
ENDMDL
