MODEL 1
REMARK minimizedAffinity -5.08209038
REMARK minimizedRMSD -1
REMARK  1 active torsions:
REMARK  status: ('A' for Active; 'I' for Inactive)
REMARK    1  A    between atoms: C1_2  and  C2_3 
ROOT
ATOM      1  C2  UNL d   1      -0.235   0.154   0.437  0.00  0.00    -0.076 A 
ATOM      2  C3  UNL d   1      -0.954  -0.697   1.294  0.00  0.00     0.004 A 
ATOM      3  C4  UNL d   1      -0.390  -1.880   1.768  0.00  0.00    -0.003 A 
ATOM      4  C5  UNL d   1       0.903  -2.231   1.393  0.00  0.00     0.000 A 
ATOM      5  C6  UNL d   1       1.637  -1.389   0.558  0.00  0.00     0.000 A 
ATOM      6  C7  UNL d   1       1.089  -0.185   0.084  0.00  0.00    -0.073 A 
ATOM      7  C8  UNL d   1       1.923   0.682  -0.819  0.00  0.00     0.078 C 
ENDROOT
BRANCH   1   8
ATOM      8  C1  UNL d   1      -0.909   1.411  -0.068  0.00  0.00     0.053 C 
ATOM      9  C   UNL d   1      -1.695   1.176  -1.348  0.00  0.00     0.018 C 
ENDBRANCH   1   8
TORSDOF 1
ENDMDL
