MODEL 1
REMARK minimizedAffinity -5.73055696
REMARK minimizedRMSD -1
REMARK  1 active torsions:
REMARK  status: ('A' for Active; 'I' for Inactive)
REMARK    1  A    between atoms: C1_2  and  C2_3 
ROOT
ATOM      1  C2  UNL d   1      -0.307  -0.490   0.627  0.00  0.00    -0.076 A 
ATOM      2  C3  UNL d   1       0.670  -0.753  -0.349  0.00  0.00     0.004 A 
ATOM      3  C4  UNL d   1       1.490  -1.877  -0.258  0.00  0.00    -0.003 A 
ATOM      4  C5  UNL d   1       1.345  -2.756   0.809  0.00  0.00     0.000 A 
ATOM      5  C6  UNL d   1       0.369  -2.520   1.777  0.00  0.00     0.000 A 
ATOM      6  C7  UNL d   1      -0.477  -1.401   1.692  0.00  0.00    -0.073 A 
ATOM      7  C8  UNL d   1      -1.508  -1.192   2.766  0.00  0.00     0.078 C 
ENDROOT
BRANCH   1   8
ATOM      8  C1  UNL d   1      -1.149   0.759   0.491  0.00  0.00     0.053 C 
ATOM      9  C   UNL d   1      -1.276   1.221  -0.953  0.00  0.00     0.018 C 
ENDBRANCH   1   8
TORSDOF 1
ENDMDL
