MODEL 1
REMARK minimizedAffinity -5.79630899
REMARK minimizedRMSD -1
REMARK  1 active torsions:
REMARK  status: ('A' for Active; 'I' for Inactive)
REMARK    1  A    between atoms: C1_2  and  C2_3 
ROOT
ATOM      1  C2  UNL d   1       0.039  -0.760   0.901  0.00  0.00    -0.076 A 
ATOM      2  C3  UNL d   1       1.204  -1.072   0.178  0.00  0.00     0.004 A 
ATOM      3  C4  UNL d   1       2.028  -2.127   0.565  0.00  0.00    -0.003 A 
ATOM      4  C5  UNL d   1       1.701  -2.888   1.682  0.00  0.00     0.000 A 
ATOM      5  C6  UNL d   1       0.540  -2.604   2.400  0.00  0.00     0.000 A 
ATOM      6  C7  UNL d   1      -0.311  -1.555   2.014  0.00  0.00    -0.073 A 
ATOM      7  C8  UNL d   1      -1.547  -1.289   2.829  0.00  0.00     0.078 C 
ENDROOT
BRANCH   1   8
ATOM      8  C1  UNL d   1      -0.802   0.412   0.449  0.00  0.00     0.053 C 
ATOM      9  C   UNL d   1      -0.368   0.954  -0.904  0.00  0.00     0.018 C 
ENDBRANCH   1   8
TORSDOF 1
ENDMDL
