MODEL 1
REMARK minimizedAffinity -4.58870029
REMARK minimizedRMSD -1
REMARK  1 active torsions:
REMARK  status: ('A' for Active; 'I' for Inactive)
REMARK    1  A    between atoms: C1_2  and  C2_3 
ROOT
ATOM      1  C2  UNL d   1       0.072   0.171   0.252  0.00  0.00    -0.076 A 
ATOM      2  C3  UNL d   1       1.220   0.136  -0.558  0.00  0.00     0.004 A 
ATOM      3  C4  UNL d   1       2.124  -0.922  -0.476  0.00  0.00    -0.003 A 
ATOM      4  C5  UNL d   1       1.894  -1.962   0.417  0.00  0.00     0.000 A 
ATOM      5  C6  UNL d   1       0.752  -1.953   1.217  0.00  0.00     0.000 A 
ATOM      6  C7  UNL d   1      -0.178  -0.902   1.135  0.00  0.00    -0.073 A 
ATOM      7  C8  UNL d   1      -1.390  -0.940   2.024  0.00  0.00     0.078 C 
ENDROOT
BRANCH   1   8
ATOM      8  C1  UNL d   1      -0.859   1.357   0.139  0.00  0.00     0.053 C 
ATOM      9  C   UNL d   1      -1.186   1.705  -1.305  0.00  0.00     0.018 C 
ENDBRANCH   1   8
TORSDOF 1
ENDMDL
