MODEL 1
REMARK minimizedAffinity -4.76531982
REMARK minimizedRMSD -1
REMARK  1 active torsions:
REMARK  status: ('A' for Active; 'I' for Inactive)
REMARK    1  A    between atoms: C1_2  and  C2_3 
ROOT
ATOM      1  C2  UNL d   1      -0.157  -0.551   0.956  0.00  0.00    -0.076 A 
ATOM      2  C3  UNL d   1      -0.820  -1.116   2.060  0.00  0.00     0.004 A 
ATOM      3  C4  UNL d   1      -0.262  -2.183   2.762  0.00  0.00    -0.003 A 
ATOM      4  C5  UNL d   1       0.967  -2.702   2.373  0.00  0.00     0.000 A 
ATOM      5  C6  UNL d   1       1.647  -2.143   1.291  0.00  0.00     0.000 A 
ATOM      6  C7  UNL d   1       1.107  -1.056   0.582  0.00  0.00    -0.073 A 
ATOM      7  C8  UNL d   1       1.880  -0.496  -0.580  0.00  0.00     0.078 C 
ENDROOT
BRANCH   1   8
ATOM      8  C1  UNL d   1      -0.823   0.587   0.216  0.00  0.00     0.053 C 
ATOM      9  C   UNL d   1      -1.878   1.290   1.057  0.00  0.00     0.018 C 
ENDBRANCH   1   8
TORSDOF 1
ENDMDL
