MODEL 1
REMARK minimizedAffinity -3.52115631
REMARK minimizedRMSD -1
REMARK  1 active torsions:
REMARK  status: ('A' for Active; 'I' for Inactive)
REMARK    1  A    between atoms: C1_2  and  C2_3 
ROOT
ATOM      1  C2  UNL d   1       0.186  -0.639   0.696  0.00  0.00    -0.076 A 
ATOM      2  C3  UNL d   1       1.255  -0.684  -0.216  0.00  0.00     0.004 A 
ATOM      3  C4  UNL d   1       2.250  -1.653  -0.107  0.00  0.00    -0.003 A 
ATOM      4  C5  UNL d   1       2.193  -2.594   0.915  0.00  0.00     0.000 A 
ATOM      5  C6  UNL d   1       1.130  -2.576   1.818  0.00  0.00     0.000 A 
ATOM      6  C7  UNL d   1       0.109  -1.615   1.713  0.00  0.00    -0.073 A 
ATOM      7  C8  UNL d   1      -1.010  -1.638   2.717  0.00  0.00     0.078 C 
ENDROOT
BRANCH   1   8
ATOM      8  C1  UNL d   1      -0.850   0.452   0.545  0.00  0.00     0.053 C 
ATOM      9  C   UNL d   1      -0.632   1.294  -0.703  0.00  0.00     0.018 C 
ENDBRANCH   1   8
TORSDOF 1
ENDMDL
