MODEL 1
REMARK minimizedAffinity -5.8680172
REMARK minimizedRMSD -1
REMARK  1 active torsions:
REMARK  status: ('A' for Active; 'I' for Inactive)
REMARK    1  A    between atoms: C1_2  and  C2_3 
ROOT
ATOM      1  C2  UNL d   1       0.027  -0.191   0.581  0.00  0.00    -0.076 A 
ATOM      2  C3  UNL d   1      -0.668  -0.993   1.502  0.00  0.00     0.004 A 
ATOM      3  C4  UNL d   1      -0.133  -2.201   1.949  0.00  0.00    -0.003 A 
ATOM      4  C5  UNL d   1       1.106  -2.625   1.482  0.00  0.00     0.000 A 
ATOM      5  C6  UNL d   1       1.817  -1.833   0.581  0.00  0.00     0.000 A 
ATOM      6  C7  UNL d   1       1.300  -0.605   0.134  0.00  0.00    -0.073 A 
ATOM      7  C8  UNL d   1       2.107   0.206  -0.843  0.00  0.00     0.078 C 
ENDROOT
BRANCH   1   8
ATOM      8  C1  UNL d   1      -0.615   1.095   0.112  0.00  0.00     0.053 C 
ATOM      9  C   UNL d   1      -1.308   0.944  -1.233  0.00  0.00     0.018 C 
ENDBRANCH   1   8
TORSDOF 1
ENDMDL
