MODEL 1
REMARK minimizedAffinity -5.9462347
REMARK minimizedRMSD -1
REMARK  1 active torsions:
REMARK  status: ('A' for Active; 'I' for Inactive)
REMARK    1  A    between atoms: C1_2  and  C2_3 
ROOT
ATOM      1  C2  UNL d   1       0.152  -0.621   0.890  0.00  0.00    -0.076 A 
ATOM      2  C3  UNL d   1      -0.675  -1.027   1.952  0.00  0.00     0.004 A 
ATOM      3  C4  UNL d   1      -0.352  -2.140   2.727  0.00  0.00    -0.003 A 
ATOM      4  C5  UNL d   1       0.803  -2.864   2.453  0.00  0.00     0.000 A 
ATOM      5  C6  UNL d   1       1.643  -2.465   1.414  0.00  0.00     0.000 A 
ATOM      6  C7  UNL d   1       1.341  -1.336   0.634  0.00  0.00    -0.073 A 
ATOM      7  C8  UNL d   1       2.280  -0.955  -0.478  0.00  0.00     0.078 C 
ENDROOT
BRANCH   1   8
ATOM      8  C1  UNL d   1      -0.263   0.577   0.067  0.00  0.00     0.053 C 
ATOM      9  C   UNL d   1      -0.898   1.672   0.910  0.00  0.00     0.018 C 
ENDBRANCH   1   8
TORSDOF 1
ENDMDL
