MODEL 1
REMARK minimizedAffinity -5.62901402
REMARK minimizedRMSD -1
REMARK  1 active torsions:
REMARK  status: ('A' for Active; 'I' for Inactive)
REMARK    1  A    between atoms: C1_2  and  C2_3 
ROOT
ATOM      1  C2  UNL d   1      -0.044  -1.026   0.823  0.00  0.00    -0.076 A 
ATOM      2  C3  UNL d   1       1.010  -1.445  -0.007  0.00  0.00     0.004 A 
ATOM      3  C4  UNL d   1       1.821  -2.521   0.350  0.00  0.00    -0.003 A 
ATOM      4  C5  UNL d   1       1.591  -3.196   1.543  0.00  0.00     0.000 A 
ATOM      5  C6  UNL d   1       0.538  -2.806   2.371  0.00  0.00     0.000 A 
ATOM      6  C7  UNL d   1      -0.299  -1.734   2.018  0.00  0.00    -0.073 A 
ATOM      7  C8  UNL d   1      -1.415  -1.352   2.950  0.00  0.00     0.078 C 
ENDROOT
BRANCH   1   8
ATOM      8  C1  UNL d   1      -0.873   0.164   0.397  0.00  0.00     0.053 C 
ATOM      9  C   UNL d   1      -0.021   1.309  -0.129  0.00  0.00     0.018 C 
ENDBRANCH   1   8
TORSDOF 1
ENDMDL
