MODEL 1
REMARK minimizedAffinity -4.4186492
REMARK minimizedRMSD -1
REMARK  1 active torsions:
REMARK  status: ('A' for Active; 'I' for Inactive)
REMARK    1  A    between atoms: C1_2  and  C2_3 
ROOT
ATOM      1  C2  UNL d   1      -0.007  -0.655   0.826  0.00  0.00    -0.076 A 
ATOM      2  C3  UNL d   1       1.132  -0.719   0.004  0.00  0.00     0.004 A 
ATOM      3  C4  UNL d   1       2.217  -1.526   0.342  0.00  0.00    -0.003 A 
ATOM      4  C5  UNL d   1       2.181  -2.283   1.508  0.00  0.00     0.000 A 
ATOM      5  C6  UNL d   1       1.052  -2.245   2.326  0.00  0.00     0.000 A 
ATOM      6  C7  UNL d   1      -0.057  -1.449   1.992  0.00  0.00    -0.073 A 
ATOM      7  C8  UNL d   1      -1.245  -1.442   2.914  0.00  0.00     0.078 C 
ENDROOT
BRANCH   1   8
ATOM      8  C1  UNL d   1      -1.142   0.259   0.422  0.00  0.00     0.053 C 
ATOM      9  C   UNL d   1      -0.760   1.194  -0.715  0.00  0.00     0.018 C 
ENDBRANCH   1   8
TORSDOF 1
ENDMDL
