MODEL 1
REMARK minimizedAffinity -1.12054467
REMARK minimizedRMSD -1
REMARK  1 active torsions:
REMARK  status: ('A' for Active; 'I' for Inactive)
REMARK    1  A    between atoms: C1_2  and  C2_3 
ROOT
ATOM      1  C2  UNL d   1      -0.195  -0.985   1.469  0.00  0.00    -0.076 A 
ATOM      2  C3  UNL d   1      -1.208  -0.098   1.064  0.00  0.00     0.004 A 
ATOM      3  C4  UNL d   1      -1.023   0.753  -0.024  0.00  0.00    -0.003 A 
ATOM      4  C5  UNL d   1       0.178   0.731  -0.725  0.00  0.00     0.000 A 
ATOM      5  C6  UNL d   1       1.187  -0.155  -0.348  0.00  0.00     0.000 A 
ATOM      6  C7  UNL d   1       1.010  -1.032   0.736  0.00  0.00    -0.073 A 
ATOM      7  C8  UNL d   1       2.133  -1.962   1.102  0.00  0.00     0.078 C 
ENDROOT
BRANCH   1   8
ATOM      8  C1  UNL d   1      -0.443  -1.866   2.673  0.00  0.00     0.053 C 
ATOM      9  C   UNL d   1      -1.757  -1.546   3.368  0.00  0.00     0.018 C 
ENDBRANCH   1   8
TORSDOF 1
ENDMDL
