MODEL 1
REMARK minimizedAffinity 4.24351978
REMARK minimizedRMSD -1
REMARK  1 active torsions:
REMARK  status: ('A' for Active; 'I' for Inactive)
REMARK    1  A    between atoms: C1_2  and  C2_3 
ROOT
ATOM      1  C2  UNL d   1       2.995  -1.060  -1.024  0.00  0.00    -0.081 A 
ATOM      2  C3  UNL d   1       2.500   0.248  -0.968  0.00  0.00     0.006 A 
ATOM      3  C4  UNL d   1       1.435   0.566  -0.122  0.00  0.00     0.002 A 
ATOM      4  C5  UNL d   1       0.854  -0.415   0.687  0.00  0.00    -0.080 A 
ATOM      5  C6  UNL d   1      -0.270  -0.081   1.622  0.00  0.00     0.076 C 
ATOM      6  C7  UNL d   1       1.337  -1.726   0.618  0.00  0.00     0.002 A 
ATOM      7  C8  UNL d   1       2.401  -2.045  -0.228  0.00  0.00     0.006 A 
ENDROOT
BRANCH   1   8
ATOM      8  C1  UNL d   1       4.186  -1.392  -1.888  0.00  0.00     0.054 C 
ATOM      9  C   UNL d   1       4.966  -0.140  -2.260  0.00  0.00     0.018 C 
ENDBRANCH   1   8
TORSDOF 1
ENDMDL
