MODEL 1
REMARK minimizedAffinity -2.56598496
REMARK minimizedRMSD -1
REMARK  1 active torsions:
REMARK  status: ('A' for Active; 'I' for Inactive)
REMARK    1  A    between atoms: C1_2  and  C2_3 
ROOT
ATOM      1  C2  UNL d   1       1.620  -0.281   0.615  0.00  0.00    -0.081 A 
ATOM      2  C3  UNL d   1       2.239  -1.493   0.285  0.00  0.00     0.006 A 
ATOM      3  C4  UNL d   1       3.190  -1.548  -0.737  0.00  0.00     0.002 A 
ATOM      4  C5  UNL d   1       3.544  -0.391  -1.440  0.00  0.00    -0.080 A 
ATOM      5  C6  UNL d   1       4.586  -0.430  -2.518  0.00  0.00     0.076 C 
ATOM      6  C7  UNL d   1       2.913   0.817  -1.122  0.00  0.00     0.002 A 
ATOM      7  C8  UNL d   1       1.962   0.872  -0.101  0.00  0.00     0.006 A 
ENDROOT
BRANCH   1   8
ATOM      8  C1  UNL d   1       0.642  -0.207   1.759  0.00  0.00     0.054 C 
ATOM      9  C   UNL d   1      -0.297  -1.405   1.763  0.00  0.00     0.018 C 
ENDBRANCH   1   8
TORSDOF 1
ENDMDL
