MODEL 1
REMARK minimizedAffinity -6.70264912
REMARK minimizedRMSD -1
REMARK  1 active torsions:
REMARK  status: ('A' for Active; 'I' for Inactive)
REMARK    1  A    between atoms: C1_2  and  C2_3 
ROOT
ATOM      1  C2  UNL d   1       0.442  -0.363   0.873  0.00  0.00    -0.081 A 
ATOM      2  C3  UNL d   1       1.005  -1.558   0.409  0.00  0.00     0.006 A 
ATOM      3  C4  UNL d   1       2.126  -1.536  -0.425  0.00  0.00     0.002 A 
ATOM      4  C5  UNL d   1       2.707  -0.320  -0.801  0.00  0.00    -0.080 A 
ATOM      5  C6  UNL d   1       3.928  -0.283  -1.670  0.00  0.00     0.076 C 
ATOM      6  C7  UNL d   1       2.134   0.874  -0.351  0.00  0.00     0.002 A 
ATOM      7  C8  UNL d   1       1.013   0.853   0.482  0.00  0.00     0.006 A 
ENDROOT
BRANCH   1   8
ATOM      8  C1  UNL d   1      -0.727  -0.386   1.824  0.00  0.00     0.054 C 
ATOM      9  C   UNL d   1      -1.692  -1.514   1.489  0.00  0.00     0.018 C 
ENDBRANCH   1   8
TORSDOF 1
ENDMDL
