MODEL 1
REMARK minimizedAffinity -3.69168591
REMARK minimizedRMSD -1
REMARK  1 active torsions:
REMARK  status: ('A' for Active; 'I' for Inactive)
REMARK    1  A    between atoms: C1_2  and  C2_3 
ROOT
ATOM      1  C2  UNL d   1       3.541  -0.575  -1.788  0.00  0.00    -0.081 A 
ATOM      2  C3  UNL d   1       3.145  -1.663  -1.001  0.00  0.00     0.006 A 
ATOM      3  C4  UNL d   1       2.115  -1.525  -0.068  0.00  0.00     0.002 A 
ATOM      4  C5  UNL d   1       1.458  -0.299   0.088  0.00  0.00    -0.080 A 
ATOM      5  C6  UNL d   1       0.330  -0.145   1.065  0.00  0.00     0.076 C 
ATOM      6  C7  UNL d   1       1.865   0.792  -0.686  0.00  0.00     0.002 A 
ATOM      7  C8  UNL d   1       2.896   0.655  -1.619  0.00  0.00     0.006 A 
ENDROOT
BRANCH   1   8
ATOM      8  C1  UNL d   1       4.608  -0.739  -2.841  0.00  0.00     0.054 C 
ATOM      9  C   UNL d   1       6.000  -0.713  -2.226  0.00  0.00     0.018 C 
ENDBRANCH   1   8
TORSDOF 1
ENDMDL
