MODEL 1
REMARK minimizedAffinity 6.54077816
REMARK minimizedRMSD -1
REMARK  1 active torsions:
REMARK  status: ('A' for Active; 'I' for Inactive)
REMARK    1  A    between atoms: C1_2  and  C2_3 
ROOT
ATOM      1  C2  UNL d   1       1.645   0.959   1.225  0.00  0.00    -0.081 A 
ATOM      2  C3  UNL d   1       0.958  -0.249   1.395  0.00  0.00     0.006 A 
ATOM      3  C4  UNL d   1       0.781  -1.121   0.319  0.00  0.00     0.002 A 
ATOM      4  C5  UNL d   1       1.295  -0.804  -0.943  0.00  0.00    -0.080 A 
ATOM      5  C6  UNL d   1       1.139  -1.746  -2.100  0.00  0.00     0.076 C 
ATOM      6  C7  UNL d   1       1.967   0.411  -1.118  0.00  0.00     0.002 A 
ATOM      7  C8  UNL d   1       2.143   1.283  -0.042  0.00  0.00     0.006 A 
ENDROOT
BRANCH   1   8
ATOM      8  C1  UNL d   1       1.893   1.872   2.398  0.00  0.00     0.054 C 
ATOM      9  C   UNL d   1       2.277   1.083   3.642  0.00  0.00     0.018 C 
ENDBRANCH   1   8
TORSDOF 1
ENDMDL
