MODEL 1
REMARK minimizedAffinity -2.29421663
REMARK minimizedRMSD -1
REMARK  1 active torsions:
REMARK  status: ('A' for Active; 'I' for Inactive)
REMARK    1  A    between atoms: C1_2  and  C2_3 
ROOT
ATOM      1  C2  UNL d   1       3.735   0.265  -1.910  0.00  0.00    -0.081 A 
ATOM      2  C3  UNL d   1       2.979   1.306  -1.358  0.00  0.00     0.006 A 
ATOM      3  C4  UNL d   1       1.955   1.032  -0.448  0.00  0.00     0.002 A 
ATOM      4  C5  UNL d   1       1.675  -0.285  -0.069  0.00  0.00    -0.080 A 
ATOM      5  C6  UNL d   1       0.599  -0.590   0.930  0.00  0.00     0.076 C 
ATOM      6  C7  UNL d   1       2.419  -1.327  -0.634  0.00  0.00     0.002 A 
ATOM      7  C8  UNL d   1       3.442  -1.054  -1.545  0.00  0.00     0.006 A 
ENDROOT
BRANCH   1   8
ATOM      8  C1  UNL d   1       4.881   0.561  -2.843  0.00  0.00     0.054 C 
ATOM      9  C   UNL d   1       6.000  -0.459  -2.686  0.00  0.00     0.018 C 
ENDBRANCH   1   8
TORSDOF 1
ENDMDL
