MODEL 1
REMARK minimizedAffinity -2.68017936
REMARK minimizedRMSD -1
REMARK  1 active torsions:
REMARK  status: ('A' for Active; 'I' for Inactive)
REMARK    1  A    between atoms: C1_2  and  C2_3 
ROOT
ATOM      1  C2  UNL d   1       1.686  -0.455  -0.192  0.00  0.00    -0.081 A 
ATOM      2  C3  UNL d   1       2.485  -1.593  -0.360  0.00  0.00     0.006 A 
ATOM      3  C4  UNL d   1       3.645  -1.536  -1.135  0.00  0.00     0.002 A 
ATOM      4  C5  UNL d   1       4.031  -0.339  -1.749  0.00  0.00    -0.080 A 
ATOM      5  C6  UNL d   1       5.290  -0.257  -2.559  0.00  0.00     0.076 C 
ATOM      6  C7  UNL d   1       3.224   0.793  -1.596  0.00  0.00     0.002 A 
ATOM      7  C8  UNL d   1       2.063   0.737  -0.822  0.00  0.00     0.006 A 
ENDROOT
BRANCH   1   8
ATOM      8  C1  UNL d   1       0.469  -0.496   0.696  0.00  0.00     0.054 C 
ATOM      9  C   UNL d   1       0.847  -0.322   2.160  0.00  0.00     0.018 C 
ENDBRANCH   1   8
TORSDOF 1
ENDMDL
