MODEL 1
REMARK minimizedAffinity 5.203444
REMARK minimizedRMSD -1
REMARK  1 active torsions:
REMARK  status: ('A' for Active; 'I' for Inactive)
REMARK    1  A    between atoms: C1_2  and  C2_3 
ROOT
ATOM      1  C2  UNL d   1      -0.175  -0.986   1.141  0.00  0.00    -0.081 A 
ATOM      2  C3  UNL d   1       0.045   0.218   1.821  0.00  0.00     0.006 A 
ATOM      3  C4  UNL d   1       1.015   1.117   1.372  0.00  0.00     0.002 A 
ATOM      4  C5  UNL d   1       1.775   0.832   0.233  0.00  0.00    -0.080 A 
ATOM      5  C6  UNL d   1       2.799   1.802  -0.277  0.00  0.00     0.076 C 
ATOM      6  C7  UNL d   1       1.568  -0.379  -0.436  0.00  0.00     0.002 A 
ATOM      7  C8  UNL d   1       0.598  -1.279   0.012  0.00  0.00     0.006 A 
ENDROOT
BRANCH   1   8
ATOM      8  C1  UNL d   1      -1.265  -1.928   1.584  0.00  0.00     0.054 C 
ATOM      9  C   UNL d   1      -2.637  -1.280   1.472  0.00  0.00     0.018 C 
ENDBRANCH   1   8
TORSDOF 1
ENDMDL
