MODEL 1
REMARK minimizedAffinity -3.88884664
REMARK minimizedRMSD -1
REMARK  0 active torsions:
REMARK  status: ('A' for Active; 'I' for Inactive)
ROOT
ATOM      1  C   UNL d   1      -0.031   3.923   1.420  0.00  0.00    -0.002 A 
ATOM      2  C1  UNL d   1       0.574   3.588   0.217  0.00  0.00     0.010 A 
ATOM      3  C2  UNL d   1       0.647   2.256  -0.194  0.00  0.00     0.041 A 
ATOM      4  C3  UNL d   1       0.094   1.256   0.632  0.00  0.00    -0.075 A 
ATOM      5  S   UNL d   1       0.066  -0.441   0.332  0.00  0.00     0.015 SA
ATOM      6  C4  UNL d   1      -0.750  -0.761   1.794  0.00  0.00     0.022 A 
ATOM      7  C5  UNL d   1      -1.003   0.388   2.505  0.00  0.00     0.026 A 
ATOM      8  C6  UNL d   1      -0.521   1.570   1.847  0.00  0.00    -0.082 A 
ATOM      9  C7  UNL d   1      -0.578   2.930   2.236  0.00  0.00     0.045 A 
ENDROOT
TORSDOF 0
ENDMDL
