MODEL 1
REMARK minimizedAffinity -3.52121782
REMARK minimizedRMSD -1
REMARK  0 active torsions:
REMARK  status: ('A' for Active; 'I' for Inactive)
ROOT
ATOM      1  C   UNL d   1      -0.262   4.156   0.579  0.00  0.00    -0.002 A 
ATOM      2  C1  UNL d   1       0.441   3.768  -0.553  0.00  0.00     0.010 A 
ATOM      3  C2  UNL d   1       0.710   2.419  -0.793  0.00  0.00     0.041 A 
ATOM      4  C3  UNL d   1       0.255   1.458   0.130  0.00  0.00    -0.075 A 
ATOM      5  S   UNL d   1       0.467  -0.251   0.041  0.00  0.00     0.015 SA
ATOM      6  C4  UNL d   1      -0.372  -0.506   1.503  0.00  0.00     0.022 A 
ATOM      7  C5  UNL d   1      -0.810   0.673   2.059  0.00  0.00     0.026 A 
ATOM      8  C6  UNL d   1      -0.456   1.824   1.276  0.00  0.00    -0.082 A 
ATOM      9  C7  UNL d   1      -0.712   3.200   1.493  0.00  0.00     0.045 A 
ENDROOT
TORSDOF 0
ENDMDL
