MODEL 1
REMARK minimizedAffinity 0.0536372773
REMARK minimizedRMSD -1
REMARK  0 active torsions:
REMARK  status: ('A' for Active; 'I' for Inactive)
ROOT
ATOM      1  C   UNL d   1       0.594   0.208   1.094  0.00  0.00    -0.002 A 
ATOM      2  C1  UNL d   1      -0.476  -0.557   1.535  0.00  0.00     0.010 A 
ATOM      3  C2  UNL d   1      -0.900  -1.672   0.810  0.00  0.00     0.041 A 
ATOM      4  C3  UNL d   1      -0.221  -2.010  -0.377  0.00  0.00    -0.075 A 
ATOM      5  S   UNL d   1      -0.563  -3.333  -1.429  0.00  0.00     0.015 SA
ATOM      6  C4  UNL d   1       0.705  -2.915  -2.488  0.00  0.00     0.022 A 
ATOM      7  C5  UNL d   1       1.383  -1.796  -2.066  0.00  0.00     0.026 A 
ATOM      8  C6  UNL d   1       0.860  -1.256  -0.842  0.00  0.00    -0.082 A 
ATOM      9  C7  UNL d   1       1.265  -0.131  -0.084  0.00  0.00     0.045 A 
ENDROOT
TORSDOF 0
ENDMDL
