MODEL 1
REMARK minimizedAffinity 1.37114727
REMARK minimizedRMSD -1
REMARK  0 active torsions:
REMARK  status: ('A' for Active; 'I' for Inactive)
ROOT
ATOM      1  C   UNL d   1      -0.941   1.185   2.845  0.00  0.00    -0.002 A 
ATOM      2  C1  UNL d   1      -0.576   2.361   2.207  0.00  0.00     0.010 A 
ATOM      3  C2  UNL d   1       0.061   2.328   0.964  0.00  0.00     0.041 A 
ATOM      4  C3  UNL d   1       0.325   1.079   0.367  0.00  0.00    -0.075 A 
ATOM      5  S   UNL d   1       1.092   0.793  -1.150  0.00  0.00     0.015 SA
ATOM      6  C4  UNL d   1       0.953  -0.897  -0.987  0.00  0.00     0.022 A 
ATOM      7  C5  UNL d   1       0.338  -1.253   0.191  0.00  0.00     0.026 A 
ATOM      8  C6  UNL d   1      -0.035  -0.120   0.990  0.00  0.00    -0.082 A 
ATOM      9  C7  UNL d   1      -0.677  -0.052   2.250  0.00  0.00     0.045 A 
ENDROOT
TORSDOF 0
ENDMDL
