MODEL 1
REMARK minimizedAffinity -0.741505027
REMARK minimizedRMSD -1
REMARK  0 active torsions:
REMARK  status: ('A' for Active; 'I' for Inactive)
ROOT
ATOM      1  C   UNL d   1       0.216   4.032  -0.591  0.00  0.00    -0.002 A 
ATOM      2  C1  UNL d   1      -0.432   4.324   0.600  0.00  0.00     0.010 A 
ATOM      3  C2  UNL d   1      -0.768   3.306   1.494  0.00  0.00     0.041 A 
ATOM      4  C3  UNL d   1      -0.437   1.976   1.168  0.00  0.00    -0.075 A 
ATOM      5  S   UNL d   1      -0.749   0.566   2.109  0.00  0.00     0.015 SA
ATOM      6  C4  UNL d   1      -0.029  -0.457   0.952  0.00  0.00     0.022 A 
ATOM      7  C5  UNL d   1       0.443   0.243  -0.133  0.00  0.00     0.026 A 
ATOM      8  C6  UNL d   1       0.216   1.657  -0.026  0.00  0.00    -0.082 A 
ATOM      9  C7  UNL d   1       0.542   2.712  -0.912  0.00  0.00     0.045 A 
ENDROOT
TORSDOF 0
ENDMDL
