MODEL 1
REMARK minimizedAffinity -1.49026883
REMARK minimizedRMSD -1
REMARK  0 active torsions:
REMARK  status: ('A' for Active; 'I' for Inactive)
ROOT
ATOM      1  C   UNL d   1      -1.259   2.770   1.991  0.00  0.00    -0.002 A 
ATOM      2  C1  UNL d   1      -0.731   3.572   0.989  0.00  0.00     0.010 A 
ATOM      3  C2  UNL d   1       0.022   3.013  -0.046  0.00  0.00     0.041 A 
ATOM      4  C3  UNL d   1       0.236   1.621  -0.057  0.00  0.00    -0.075 A 
ATOM      5  S   UNL d   1       1.126   0.716  -1.224  0.00  0.00     0.015 SA
ATOM      6  C4  UNL d   1       0.825  -0.757  -0.421  0.00  0.00     0.022 A 
ATOM      7  C5  UNL d   1       0.066  -0.581   0.712  0.00  0.00     0.026 A 
ATOM      8  C6  UNL d   1      -0.286   0.792   0.940  0.00  0.00    -0.082 A 
ATOM      9  C7  UNL d   1      -1.044   1.389   1.976  0.00  0.00     0.045 A 
ENDROOT
TORSDOF 0
ENDMDL
