MODEL 1
REMARK minimizedAffinity 1.36351979
REMARK minimizedRMSD -1
REMARK  0 active torsions:
REMARK  status: ('A' for Active; 'I' for Inactive)
ROOT
ATOM      1  C   UNL d   1      -2.770   0.420   1.050  0.00  0.00    -0.002 A 
ATOM      2  C1  UNL d   1      -2.125  -0.762   0.712  0.00  0.00     0.010 A 
ATOM      3  C2  UNL d   1      -0.922  -1.115   1.326  0.00  0.00     0.041 A 
ATOM      4  C3  UNL d   1      -0.374  -0.253   2.296  0.00  0.00    -0.075 A 
ATOM      5  S   UNL d   1       1.089  -0.481   3.180  0.00  0.00     0.015 SA
ATOM      6  C4  UNL d   1       0.892   0.985   4.028  0.00  0.00     0.022 A 
ATOM      7  C5  UNL d   1      -0.256   1.644   3.658  0.00  0.00     0.026 A 
ATOM      8  C6  UNL d   1      -1.005   0.941   2.654  0.00  0.00    -0.082 A 
ATOM      9  C7  UNL d   1      -2.223   1.272   2.013  0.00  0.00     0.045 A 
ENDROOT
TORSDOF 0
ENDMDL
