MODEL 1
REMARK minimizedAffinity 7.88401556
REMARK minimizedRMSD -1
REMARK  0 active torsions:
REMARK  status: ('A' for Active; 'I' for Inactive)
ROOT
ATOM      1  C   UNL d   1      -0.425  -3.474  -3.267  0.00  0.00    -0.002 A 
ATOM      2  C1  UNL d   1      -0.024  -4.019  -2.055  0.00  0.00     0.010 A 
ATOM      3  C2  UNL d   1       0.239  -3.197  -0.958  0.00  0.00     0.041 A 
ATOM      4  C3  UNL d   1       0.090  -1.803  -1.100  0.00  0.00    -0.075 A 
ATOM      5  S   UNL d   1       0.356  -0.601   0.107  0.00  0.00     0.015 SA
ATOM      6  C4  UNL d   1      -0.056   0.665  -0.957  0.00  0.00     0.022 A 
ATOM      7  C5  UNL d   1      -0.391   0.200  -2.207  0.00  0.00     0.026 A 
ATOM      8  C6  UNL d   1      -0.313  -1.230  -2.310  0.00  0.00    -0.082 A 
ATOM      9  C7  UNL d   1      -0.572  -2.091  -3.404  0.00  0.00     0.045 A 
ENDROOT
TORSDOF 0
ENDMDL
