MODEL 1
REMARK minimizedAffinity -3.94375491
REMARK minimizedRMSD -1
REMARK  0 active torsions:
REMARK  status: ('A' for Active; 'I' for Inactive)
ROOT
ATOM      1  C   UNL d   1       0.062  -2.666  -3.317  0.00  0.00    -0.002 A 
ATOM      2  C1  UNL d   1       0.848  -3.373  -2.418  0.00  0.00     0.010 A 
ATOM      3  C2  UNL d   1       1.284  -2.777  -1.233  0.00  0.00     0.041 A 
ATOM      4  C3  UNL d   1       0.911  -1.445  -0.964  0.00  0.00    -0.075 A 
ATOM      5  S   UNL d   1       1.327  -0.510   0.424  0.00  0.00     0.015 SA
ATOM      6  C4  UNL d   1       0.470   0.850  -0.144  0.00  0.00     0.022 A 
ATOM      7  C5  UNL d   1      -0.125   0.614  -1.361  0.00  0.00     0.026 A 
ATOM      8  C6  UNL d   1       0.119  -0.713  -1.853  0.00  0.00    -0.082 A 
ATOM      9  C7  UNL d   1      -0.306  -1.346  -3.046  0.00  0.00     0.045 A 
ENDROOT
TORSDOF 0
ENDMDL
