MODEL 1
REMARK minimizedAffinity -2.69491458
REMARK minimizedRMSD -1
REMARK  0 active torsions:
REMARK  status: ('A' for Active; 'I' for Inactive)
ROOT
ATOM      1  C   UNL d   1      -0.060   3.729  -0.216  0.00  0.00    -0.002 A 
ATOM      2  C1  UNL d   1       0.169   2.780  -1.202  0.00  0.00     0.010 A 
ATOM      3  C2  UNL d   1       0.037   1.419  -0.922  0.00  0.00     0.041 A 
ATOM      4  C3  UNL d   1      -0.335   1.023   0.378  0.00  0.00    -0.075 A 
ATOM      5  S   UNL d   1      -0.558  -0.588   0.950  0.00  0.00     0.015 SA
ATOM      6  C4  UNL d   1      -0.964  -0.054   2.517  0.00  0.00     0.022 A 
ATOM      7  C5  UNL d   1      -0.935   1.317   2.619  0.00  0.00     0.026 A 
ATOM      8  C6  UNL d   1      -0.572   1.960   1.387  0.00  0.00    -0.082 A 
ATOM      9  C7  UNL d   1      -0.429   3.333   1.072  0.00  0.00     0.045 A 
ENDROOT
TORSDOF 0
ENDMDL
