MODEL 1
REMARK minimizedAffinity -2.96075034
REMARK minimizedRMSD -1
REMARK  0 active torsions:
REMARK  status: ('A' for Active; 'I' for Inactive)
ROOT
ATOM      1  C   UNL d   1      -0.611  -0.709   2.140  0.00  0.00    -0.002 A 
ATOM      2  C1  UNL d   1       0.053  -1.079   0.980  0.00  0.00     0.010 A 
ATOM      3  C2  UNL d   1       0.412  -0.120   0.030  0.00  0.00     0.041 A 
ATOM      4  C3  UNL d   1       0.091   1.231   0.271  0.00  0.00    -0.075 A 
ATOM      5  S   UNL d   1       0.432   2.578  -0.749  0.00  0.00     0.015 SA
ATOM      6  C4  UNL d   1      -0.295   3.676   0.332  0.00  0.00     0.022 A 
ATOM      7  C5  UNL d   1      -0.792   3.048   1.449  0.00  0.00     0.026 A 
ATOM      8  C6  UNL d   1      -0.577   1.628   1.433  0.00  0.00    -0.082 A 
ATOM      9  C7  UNL d   1      -0.928   0.632   2.375  0.00  0.00     0.045 A 
ENDROOT
TORSDOF 0
ENDMDL
