MODEL 1
REMARK minimizedAffinity -2.96006727
REMARK minimizedRMSD -1
REMARK  0 active torsions:
REMARK  status: ('A' for Active; 'I' for Inactive)
ROOT
ATOM      1  C   UNL d   1      -0.677  -2.989  -1.430  0.00  0.00    -0.002 A 
ATOM      2  C1  UNL d   1      -0.758  -1.905  -2.292  0.00  0.00     0.010 A 
ATOM      3  C2  UNL d   1      -0.743  -0.600  -1.796  0.00  0.00     0.041 A 
ATOM      4  C3  UNL d   1      -0.643  -0.401  -0.405  0.00  0.00    -0.075 A 
ATOM      5  S   UNL d   1      -0.606   1.108   0.429  0.00  0.00     0.015 SA
ATOM      6  C4  UNL d   1      -0.481   0.349   1.950  0.00  0.00     0.022 A 
ATOM      7  C5  UNL d   1      -0.466  -1.022   1.842  0.00  0.00     0.026 A 
ATOM      8  C6  UNL d   1      -0.559  -1.476   0.483  0.00  0.00    -0.082 A 
ATOM      9  C7  UNL d   1      -0.577  -2.787  -0.051  0.00  0.00     0.045 A 
ENDROOT
TORSDOF 0
ENDMDL
