MODEL 1
REMARK minimizedAffinity -2.15822005
REMARK minimizedRMSD -1
REMARK  0 active torsions:
REMARK  status: ('A' for Active; 'I' for Inactive)
ROOT
ATOM      1  C   UNL d   1      -0.278   3.790   0.974  0.00  0.00    -0.002 A 
ATOM      2  C1  UNL d   1       0.212   3.611  -0.312  0.00  0.00     0.010 A 
ATOM      3  C2  UNL d   1       0.380   2.328  -0.836  0.00  0.00     0.041 A 
ATOM      4  C3  UNL d   1       0.043   1.217  -0.038  0.00  0.00    -0.075 A 
ATOM      5  S   UNL d   1       0.165  -0.448  -0.469  0.00  0.00     0.015 SA
ATOM      6  C4  UNL d   1      -0.430  -0.961   1.043  0.00  0.00     0.022 A 
ATOM      7  C5  UNL d   1      -0.720   0.099   1.869  0.00  0.00     0.026 A 
ATOM      8  C6  UNL d   1      -0.452   1.372   1.260  0.00  0.00    -0.082 A 
ATOM      9  C7  UNL d   1      -0.611   2.686   1.762  0.00  0.00     0.045 A 
ENDROOT
TORSDOF 0
ENDMDL
