MODEL 1
REMARK minimizedAffinity -0.747420311
REMARK minimizedRMSD -1
REMARK  0 active torsions:
REMARK  status: ('A' for Active; 'I' for Inactive)
ROOT
ATOM      1  C   UNL d   1      -0.212  -3.608  -3.304  0.00  0.00    -0.002 A 
ATOM      2  C1  UNL d   1       0.232  -4.110  -2.089  0.00  0.00     0.010 A 
ATOM      3  C2  UNL d   1       0.697  -3.251  -1.092  0.00  0.00     0.041 A 
ATOM      4  C3  UNL d   1       0.707  -1.864  -1.338  0.00  0.00    -0.075 A 
ATOM      5  S   UNL d   1       1.232  -0.621  -0.264  0.00  0.00     0.015 SA
ATOM      6  C4  UNL d   1       0.879   0.606  -1.393  0.00  0.00     0.022 A 
ATOM      7  C5  UNL d   1       0.372   0.098  -2.565  0.00  0.00     0.026 A 
ATOM      8  C6  UNL d   1       0.264  -1.334  -2.553  0.00  0.00    -0.082 A 
ATOM      9  C7  UNL d   1      -0.201  -2.231  -3.544  0.00  0.00     0.045 A 
ENDROOT
TORSDOF 0
ENDMDL
