MODEL 1
REMARK minimizedAffinity 6.03210258
REMARK minimizedRMSD -1
REMARK  0 active torsions:
REMARK  status: ('A' for Active; 'I' for Inactive)
ROOT
ATOM      1  C   UNL d   1       0.439   5.769   0.728  0.00  0.00    -0.002 A 
ATOM      2  C1  UNL d   1       1.038   5.994   1.959  0.00  0.00     0.010 A 
ATOM      3  C2  UNL d   1       1.023   5.009   2.949  0.00  0.00     0.041 A 
ATOM      4  C3  UNL d   1       0.389   3.780   2.676  0.00  0.00    -0.075 A 
ATOM      5  S   UNL d   1       0.247   2.428   3.736  0.00  0.00     0.015 SA
ATOM      6  C4  UNL d   1      -0.613   1.518   2.579  0.00  0.00     0.022 A 
ATOM      7  C5  UNL d   1      -0.795   2.214   1.407  0.00  0.00     0.026 A 
ATOM      8  C6  UNL d   1      -0.220   3.529   1.444  0.00  0.00    -0.082 A 
ATOM      9  C7  UNL d   1      -0.188   4.549   0.462  0.00  0.00     0.045 A 
ENDROOT
TORSDOF 0
ENDMDL
