MODEL 1
REMARK minimizedAffinity 4.99781752
REMARK minimizedRMSD -1
REMARK  3 active torsions:
REMARK  status: ('A' for Active; 'I' for Inactive)
REMARK    1  A    between atoms: C3'_2  and  C2'_3 
REMARK    2  A    between atoms: C2'_3  and  C1'_4 
REMARK    3  A    between atoms: C1'_4  and  C1_5 
ROOT
ATOM      1  C1  N4B d   1       0.372  -1.500   0.375  0.00  0.00    -0.075 A 
ATOM      2  C2  N4B d   1       0.634  -0.617   1.445  0.00  0.00     0.002 A 
ATOM      3  C3  N4B d   1      -0.345   0.242   1.882  0.00  0.00     0.002 A 
ATOM      4  C4  N4B d   1      -1.581   0.248   1.253  0.00  0.00    -0.004 A 
ATOM      5  C5  N4B d   1      -1.834  -0.626   0.237  0.00  0.00     0.002 A 
ATOM      6  C6  N4B d   1      -0.861  -1.497  -0.210  0.00  0.00     0.002 A 
ENDROOT
BRANCH   1   7
ATOM      7  C1' N4B d   1       1.438  -2.397  -0.193  0.00  0.00     0.057 C 
BRANCH   7   8
ATOM      8  C2' N4B d   1       1.868  -3.401   0.872  0.00  0.00     0.009 C 
BRANCH   8   9
ATOM      9  C3' N4B d   1       2.321  -4.717   0.263  0.00  0.00     0.004 C 
ATOM     10  C4' N4B d   1       3.788  -4.967   0.447  0.00  0.00     0.003 C 
ENDBRANCH   8   9
ENDBRANCH   7   8
ENDBRANCH   1   7
TORSDOF 3
ENDMDL
