MODEL 1
REMARK minimizedAffinity 1.62845469
REMARK minimizedRMSD -1
REMARK  3 active torsions:
REMARK  status: ('A' for Active; 'I' for Inactive)
REMARK    1  A    between atoms: C3'_2  and  C2'_3 
REMARK    2  A    between atoms: C2'_3  and  C1'_4 
REMARK    3  A    between atoms: C1'_4  and  C1_5 
ROOT
ATOM      1  C1  N4B d   1       1.173  -3.118   0.620  0.00  0.00    -0.075 A 
ATOM      2  C2  N4B d   1      -0.038  -3.658   1.107  0.00  0.00     0.002 A 
ATOM      3  C3  N4B d   1      -0.955  -2.841   1.722  0.00  0.00     0.002 A 
ATOM      4  C4  N4B d   1      -0.675  -1.492   1.879  0.00  0.00    -0.004 A 
ATOM      5  C5  N4B d   1       0.485  -0.974   1.383  0.00  0.00     0.002 A 
ATOM      6  C6  N4B d   1       1.414  -1.782   0.758  0.00  0.00     0.002 A 
ENDROOT
BRANCH   1   7
ATOM      7  C1' N4B d   1       2.243  -3.986   0.017  0.00  0.00     0.057 C 
BRANCH   7   8
ATOM      8  C2' N4B d   1       3.392  -4.129   1.011  0.00  0.00     0.009 C 
BRANCH   8   9
ATOM      9  C3' N4B d   1       4.186  -5.404   0.783  0.00  0.00     0.004 C 
ATOM     10  C4' N4B d   1       5.594  -5.140   0.338  0.00  0.00     0.003 C 
ENDBRANCH   8   9
ENDBRANCH   7   8
ENDBRANCH   1   7
TORSDOF 3
ENDMDL
