MODEL 1
REMARK minimizedAffinity -4.51627827
REMARK minimizedRMSD -1
REMARK  0 active torsions:
REMARK  status: ('A' for Active; 'I' for Inactive)
ROOT
ATOM      1  C1  BNZ d   1      -1.779   1.145   1.694  0.00  0.00     0.000 A 
ATOM      2  C2  BNZ d   1      -2.164   2.116   0.809  0.00  0.00     0.000 A 
ATOM      3  C3  BNZ d   1      -1.713   2.106  -0.481  0.00  0.00     0.000 A 
ATOM      4  C4  BNZ d   1      -0.846   1.150  -0.873  0.00  0.00     0.000 A 
ATOM      5  C5  BNZ d   1      -0.441   0.170   0.010  0.00  0.00     0.000 A 
ATOM      6  C6  BNZ d   1      -0.928   0.160   1.297  0.00  0.00     0.000 A 
ENDROOT
TORSDOF 0
ENDMDL
