MODEL 1
REMARK minimizedAffinity -2.83860016
REMARK minimizedRMSD -1
REMARK  0 active torsions:
REMARK  status: ('A' for Active; 'I' for Inactive)
ROOT
ATOM      1  C1  BNZ d   1      -0.595   0.497   0.953  0.00  0.00     0.000 A 
ATOM      2  C2  BNZ d   1      -0.547   1.393  -0.082  0.00  0.00     0.000 A 
ATOM      3  C3  BNZ d   1       0.228   1.150  -1.182  0.00  0.00     0.000 A 
ATOM      4  C4  BNZ d   1       0.982   0.033  -1.228  0.00  0.00     0.000 A 
ATOM      5  C5  BNZ d   1       0.951  -0.875  -0.188  0.00  0.00     0.000 A 
ATOM      6  C6  BNZ d   1       0.141  -0.646   0.900  0.00  0.00     0.000 A 
ENDROOT
TORSDOF 0
ENDMDL
