MODEL 1
REMARK minimizedAffinity -4.51935911
REMARK minimizedRMSD -1
REMARK  0 active torsions:
REMARK  status: ('A' for Active; 'I' for Inactive)
ROOT
ATOM      1  C1  BNZ d   1       1.123  -4.315  -0.647  0.00  0.00     0.000 A 
ATOM      2  C2  BNZ d   1       1.494  -3.047  -1.007  0.00  0.00     0.000 A 
ATOM      3  C3  BNZ d   1       0.928  -2.434  -2.090  0.00  0.00     0.000 A 
ATOM      4  C4  BNZ d   1       0.024  -3.103  -2.834  0.00  0.00     0.000 A 
ATOM      5  C5  BNZ d   1      -0.352  -4.386  -2.489  0.00  0.00     0.000 A 
ATOM      6  C6  BNZ d   1       0.190  -4.986  -1.376  0.00  0.00     0.000 A 
ENDROOT
TORSDOF 0
ENDMDL
