MODEL 1
REMARK minimizedAffinity -3.11418509
REMARK minimizedRMSD -1
REMARK  0 active torsions:
REMARK  status: ('A' for Active; 'I' for Inactive)
ROOT
ATOM      1  C1  BNZ d   1       0.482  -0.061   0.027  0.00  0.00     0.000 A 
ATOM      2  C2  BNZ d   1      -0.201  -0.222   1.203  0.00  0.00     0.000 A 
ATOM      3  C3  BNZ d   1      -1.044   0.751   1.662  0.00  0.00     0.000 A 
ATOM      4  C4  BNZ d   1      -1.172   1.899   0.966  0.00  0.00     0.000 A 
ATOM      5  C5  BNZ d   1      -0.484   2.081  -0.217  0.00  0.00     0.000 A 
ATOM      6  C6  BNZ d   1       0.334   1.083  -0.696  0.00  0.00     0.000 A 
ENDROOT
TORSDOF 0
ENDMDL
