MODEL 1
REMARK minimizedAffinity -4.09250307
REMARK minimizedRMSD -1
REMARK  0 active torsions:
REMARK  status: ('A' for Active; 'I' for Inactive)
ROOT
ATOM      1  C1  BNZ d   1       0.291  -0.007  -0.215  0.00  0.00     0.000 A 
ATOM      2  C2  BNZ d   1      -0.220  -0.381   1.000  0.00  0.00     0.000 A 
ATOM      3  C3  BNZ d   1      -1.125   0.410   1.652  0.00  0.00     0.000 A 
ATOM      4  C4  BNZ d   1      -1.486   1.590   1.110  0.00  0.00     0.000 A 
ATOM      5  C5  BNZ d   1      -0.973   1.986  -0.110  0.00  0.00     0.000 A 
ATOM      6  C6  BNZ d   1      -0.092   1.169  -0.782  0.00  0.00     0.000 A 
ENDROOT
TORSDOF 0
ENDMDL
