MODEL 1
REMARK minimizedAffinity -3.75205445
REMARK minimizedRMSD -1
REMARK  0 active torsions:
REMARK  status: ('A' for Active; 'I' for Inactive)
ROOT
ATOM      1  C1  BNZ d   1      -0.567   2.001   0.766  0.00  0.00     0.000 A 
ATOM      2  C2  BNZ d   1       0.166   1.902  -0.387  0.00  0.00     0.000 A 
ATOM      3  C3  BNZ d   1       0.796   0.735  -0.717  0.00  0.00     0.000 A 
ATOM      4  C4  BNZ d   1       0.727  -0.317   0.124  0.00  0.00     0.000 A 
ATOM      5  C5  BNZ d   1      -0.001  -0.230   1.294  0.00  0.00     0.000 A 
ATOM      6  C6  BNZ d   1      -0.666   0.934   1.605  0.00  0.00     0.000 A 
ENDROOT
TORSDOF 0
ENDMDL
