MODEL 1
REMARK minimizedAffinity -1.99389803
REMARK minimizedRMSD -1
REMARK  0 active torsions:
REMARK  status: ('A' for Active; 'I' for Inactive)
ROOT
ATOM      1  C1  BNZ d   1       1.072   0.004   0.579  0.00  0.00     0.000 A 
ATOM      2  C2  BNZ d   1       1.067  -0.037   1.948  0.00  0.00     0.000 A 
ATOM      3  C3  BNZ d   1      -0.098  -0.227   2.637  0.00  0.00     0.000 A 
ATOM      4  C4  BNZ d   1      -1.260  -0.335   1.960  0.00  0.00     0.000 A 
ATOM      5  C5  BNZ d   1      -1.271  -0.285   0.580  0.00  0.00     0.000 A 
ATOM      6  C6  BNZ d   1      -0.092  -0.133  -0.112  0.00  0.00     0.000 A 
ENDROOT
TORSDOF 0
ENDMDL
