MODEL 1
REMARK minimizedAffinity -3.0517962
REMARK minimizedRMSD -1
REMARK  0 active torsions:
REMARK  status: ('A' for Active; 'I' for Inactive)
ROOT
ATOM      1  C1  BNZ d   1      -0.332  -1.996  -3.354  0.00  0.00     0.000 A 
ATOM      2  C2  BNZ d   1      -0.204  -0.796  -2.706  0.00  0.00     0.000 A 
ATOM      3  C3  BNZ d   1       0.260  -0.740  -1.422  0.00  0.00     0.000 A 
ATOM      4  C4  BNZ d   1       0.558  -1.884  -0.774  0.00  0.00     0.000 A 
ATOM      5  C5  BNZ d   1       0.426  -3.103  -1.410  0.00  0.00     0.000 A 
ATOM      6  C6  BNZ d   1      -0.005  -3.153  -2.716  0.00  0.00     0.000 A 
ENDROOT
TORSDOF 0
ENDMDL
