MODEL 1
REMARK minimizedAffinity -4.793468
REMARK minimizedRMSD -1
REMARK  0 active torsions:
REMARK  status: ('A' for Active; 'I' for Inactive)
ROOT
ATOM      1  C1  BNZ d   1      -0.834   1.182  -0.568  0.00  0.00     0.000 A 
ATOM      2  C2  BNZ d   1      -1.645   2.127   0.002  0.00  0.00     0.000 A 
ATOM      3  C3  BNZ d   1      -1.757   2.225   1.361  0.00  0.00     0.000 A 
ATOM      4  C4  BNZ d   1      -1.090   1.354   2.146  0.00  0.00     0.000 A 
ATOM      5  C5  BNZ d   1      -0.276   0.389   1.585  0.00  0.00     0.000 A 
ATOM      6  C6  BNZ d   1      -0.136   0.319   0.218  0.00  0.00     0.000 A 
ENDROOT
TORSDOF 0
ENDMDL
