MODEL 1
REMARK minimizedAffinity -4.84345627
REMARK minimizedRMSD -1
REMARK  0 active torsions:
REMARK  status: ('A' for Active; 'I' for Inactive)
ROOT
ATOM      1  C1  BNZ d   1      -1.224   2.876  -0.055  0.00  0.00     0.000 A 
ATOM      2  C2  BNZ d   1      -2.053   2.463   0.954  0.00  0.00     0.000 A 
ATOM      3  C3  BNZ d   1      -1.962   1.197   1.460  0.00  0.00     0.000 A 
ATOM      4  C4  BNZ d   1      -1.071   0.333   0.931  0.00  0.00     0.000 A 
ATOM      5  C5  BNZ d   1      -0.235   0.732  -0.093  0.00  0.00     0.000 A 
ATOM      6  C6  BNZ d   1      -0.302   2.019  -0.574  0.00  0.00     0.000 A 
ENDROOT
TORSDOF 0
ENDMDL
