MODEL 1
REMARK minimizedAffinity -5.13823652
REMARK minimizedRMSD -1
REMARK  0 active torsions:
REMARK  status: ('A' for Active; 'I' for Inactive)
ROOT
ATOM      1  C1  BNZ d   1       0.846   1.027  -1.052  0.00  0.00     0.000 A 
ATOM      2  C2  BNZ d   1       0.852  -0.050  -0.206  0.00  0.00     0.000 A 
ATOM      3  C3  BNZ d   1      -0.111  -0.193   0.753  0.00  0.00     0.000 A 
ATOM      4  C4  BNZ d   1      -1.054   0.761   0.893  0.00  0.00     0.000 A 
ATOM      5  C5  BNZ d   1      -1.069   1.857   0.054  0.00  0.00     0.000 A 
ATOM      6  C6  BNZ d   1      -0.121   1.978  -0.936  0.00  0.00     0.000 A 
ENDROOT
TORSDOF 0
ENDMDL
