MODEL 1
REMARK minimizedAffinity -4.0315485
REMARK minimizedRMSD -1
REMARK  0 active torsions:
REMARK  status: ('A' for Active; 'I' for Inactive)
ROOT
ATOM      1  C1  BNZ d   1      -1.632   1.552   0.499  0.00  0.00     0.000 A 
ATOM      2  C2  BNZ d   1      -1.789   1.627   1.858  0.00  0.00     0.000 A 
ATOM      3  C3  BNZ d   1      -1.079   0.809   2.691  0.00  0.00     0.000 A 
ATOM      4  C4  BNZ d   1      -0.244  -0.110   2.164  0.00  0.00     0.000 A 
ATOM      5  C5  BNZ d   1      -0.082  -0.205   0.796  0.00  0.00     0.000 A 
ATOM      6  C6  BNZ d   1      -0.769   0.647  -0.038  0.00  0.00     0.000 A 
ENDROOT
TORSDOF 0
ENDMDL
