MODEL 1
REMARK minimizedAffinity -4.27894306
REMARK minimizedRMSD -1
REMARK  0 active torsions:
REMARK  status: ('A' for Active; 'I' for Inactive)
ROOT
ATOM      1  C1  BNZ d   1       0.360   0.953  -0.797  0.00  0.00     0.000 A 
ATOM      2  C2  BNZ d   1       0.098  -0.056   0.091  0.00  0.00     0.000 A 
ATOM      3  C3  BNZ d   1      -0.450   0.212   1.314  0.00  0.00     0.000 A 
ATOM      4  C4  BNZ d   1      -0.697   1.491   1.664  0.00  0.00     0.000 A 
ATOM      5  C5  BNZ d   1      -0.429   2.521   0.784  0.00  0.00     0.000 A 
ATOM      6  C6  BNZ d   1       0.085   2.243  -0.462  0.00  0.00     0.000 A 
ENDROOT
TORSDOF 0
ENDMDL
