MODEL 1
REMARK minimizedAffinity -4.36983395
REMARK minimizedRMSD -1
REMARK  0 active torsions:
REMARK  status: ('A' for Active; 'I' for Inactive)
ROOT
ATOM      1  C1  BNZ d   1      -1.200   0.373   2.000  0.00  0.00     0.000 A 
ATOM      2  C2  BNZ d   1      -0.750  -0.787   1.427  0.00  0.00     0.000 A 
ATOM      3  C3  BNZ d   1       0.072  -0.755   0.335  0.00  0.00     0.000 A 
ATOM      4  C4  BNZ d   1       0.411   0.434  -0.205  0.00  0.00     0.000 A 
ATOM      5  C5  BNZ d   1      -0.042   1.611   0.356  0.00  0.00     0.000 A 
ATOM      6  C6  BNZ d   1      -0.838   1.576   1.478  0.00  0.00     0.000 A 
ENDROOT
TORSDOF 0
ENDMDL
