MODEL 1
REMARK minimizedAffinity -3.46634793
REMARK minimizedRMSD -1
REMARK  0 active torsions:
REMARK  status: ('A' for Active; 'I' for Inactive)
ROOT
ATOM      1  C1  BNZ d   1      -0.580  -0.768  -2.223  0.00  0.00     0.000 A 
ATOM      2  C2  BNZ d   1      -0.565  -2.016  -2.786  0.00  0.00     0.000 A 
ATOM      3  C3  BNZ d   1       0.121  -3.041  -2.197  0.00  0.00     0.000 A 
ATOM      4  C4  BNZ d   1       0.824  -2.808  -1.070  0.00  0.00     0.000 A 
ATOM      5  C5  BNZ d   1       0.827  -1.553  -0.495  0.00  0.00     0.000 A 
ATOM      6  C6  BNZ d   1       0.103  -0.532  -1.069  0.00  0.00     0.000 A 
ENDROOT
TORSDOF 0
ENDMDL
