MODEL 1
REMARK minimizedAffinity -0.762106538
REMARK minimizedRMSD -1
REMARK  0 active torsions:
REMARK  status: ('A' for Active; 'I' for Inactive)
ROOT
ATOM      1  C1  BNZ d   1      -2.567   1.780  -1.972  0.00  0.00     0.000 A 
ATOM      2  C2  BNZ d   1      -2.200   3.063  -2.280  0.00  0.00     0.000 A 
ATOM      3  C3  BNZ d   1      -2.947   3.818  -3.140  0.00  0.00     0.000 A 
ATOM      4  C4  BNZ d   1      -4.036   3.277  -3.722  0.00  0.00     0.000 A 
ATOM      5  C5  BNZ d   1      -4.414   1.982  -3.430  0.00  0.00     0.000 A 
ATOM      6  C6  BNZ d   1      -3.682   1.238  -2.533  0.00  0.00     0.000 A 
ENDROOT
TORSDOF 0
ENDMDL
