MODEL 1
REMARK minimizedAffinity -3.18997073
REMARK minimizedRMSD -1
REMARK  0 active torsions:
REMARK  status: ('A' for Active; 'I' for Inactive)
ROOT
ATOM      1  C1  BNZ d   1      -1.271   1.775   0.824  0.00  0.00     0.000 A 
ATOM      2  C2  BNZ d   1      -1.547   2.472  -0.322  0.00  0.00     0.000 A 
ATOM      3  C3  BNZ d   1      -0.934   2.152  -1.501  0.00  0.00     0.000 A 
ATOM      4  C4  BNZ d   1      -0.017   1.163  -1.524  0.00  0.00     0.000 A 
ATOM      5  C5  BNZ d   1       0.279   0.457  -0.375  0.00  0.00     0.000 A 
ATOM      6  C6  BNZ d   1      -0.369   0.757   0.801  0.00  0.00     0.000 A 
ENDROOT
TORSDOF 0
ENDMDL
