MODEL 1
REMARK minimizedAffinity -0.252072155
REMARK minimizedRMSD -1
REMARK  0 active torsions:
REMARK  status: ('A' for Active; 'I' for Inactive)
ROOT
ATOM      1  C1  BNZ d   1      -2.286   0.244  -0.040  0.00  0.00     0.000 A 
ATOM      2  C2  BNZ d   1      -1.297  -0.128   0.831  0.00  0.00     0.000 A 
ATOM      3  C3  BNZ d   1       0.016   0.125   0.547  0.00  0.00     0.000 A 
ATOM      4  C4  BNZ d   1       0.341   0.714  -0.622  0.00  0.00     0.000 A 
ATOM      5  C5  BNZ d   1      -0.645   1.086  -1.514  0.00  0.00     0.000 A 
ATOM      6  C6  BNZ d   1      -1.968   0.864  -1.208  0.00  0.00     0.000 A 
ENDROOT
TORSDOF 0
ENDMDL
