MODEL 1
REMARK minimizedAffinity -2.13046384
REMARK minimizedRMSD -1
REMARK  0 active torsions:
REMARK  status: ('A' for Active; 'I' for Inactive)
ROOT
ATOM      1  C1  DEN d   1      -0.344   1.469   0.390  0.00  0.00     0.130 A 
ATOM      2  C2  DEN d   1      -1.753   1.136   0.200  0.00  0.00    -0.031 A 
ATOM      3  C3  DEN d   1      -1.835  -0.271  -0.239  0.00  0.00     0.027 A 
ATOM      4  C4  DEN d   1       0.074  -1.960  -0.635  0.00  0.00     0.027 A 
ATOM      5  C5  DEN d   1       1.440  -2.136  -0.615  0.00  0.00    -0.003 A 
ATOM      6  C6  DEN d   1       2.301  -1.120  -0.295  0.00  0.00     0.001 A 
ATOM      7  C7  DEN d   1       1.804   0.105   0.063  0.00  0.00     0.017 A 
ATOM      8  C8  DEN d   1       0.428   0.291   0.039  0.00  0.00    -0.094 A 
ATOM      9  C9  DEN d   1      -0.427  -0.751  -0.276  0.00  0.00    -0.072 A 
ENDROOT
TORSDOF 0
ENDMDL
