MODEL 1
REMARK minimizedAffinity 1.18830562
REMARK minimizedRMSD -1
REMARK  0 active torsions:
REMARK  status: ('A' for Active; 'I' for Inactive)
ROOT
ATOM      1  C1  DEN d   1      -2.754   1.528   1.756  0.00  0.00     0.130 A 
ATOM      2  C2  DEN d   1      -3.688   0.566   1.176  0.00  0.00    -0.031 A 
ATOM      3  C3  DEN d   1      -2.965  -0.208   0.147  0.00  0.00     0.027 A 
ATOM      4  C4  DEN d   1      -0.503  -0.014  -0.598  0.00  0.00     0.027 A 
ATOM      5  C5  DEN d   1       0.678   0.666  -0.403  0.00  0.00    -0.003 A 
ATOM      6  C6  DEN d   1       0.789   1.695   0.494  0.00  0.00     0.001 A 
ATOM      7  C7  DEN d   1      -0.290   2.045   1.263  0.00  0.00     0.017 A 
ATOM      8  C8  DEN d   1      -1.487   1.368   1.066  0.00  0.00    -0.094 A 
ATOM      9  C9  DEN d   1      -1.575   0.322   0.163  0.00  0.00    -0.072 A 
ENDROOT
TORSDOF 0
ENDMDL
