MODEL 1
REMARK minimizedAffinity -3.97403193
REMARK minimizedRMSD -1
REMARK  0 active torsions:
REMARK  status: ('A' for Active; 'I' for Inactive)
ROOT
ATOM      1  C1  DEN d   1       0.021  -0.834  -0.967  0.00  0.00     0.130 A 
ATOM      2  C2  DEN d   1      -0.870   0.319  -0.869  0.00  0.00    -0.031 A 
ATOM      3  C3  DEN d   1      -0.173   1.370  -0.102  0.00  0.00     0.027 A 
ATOM      4  C4  DEN d   1       2.188   1.328   0.935  0.00  0.00     0.027 A 
ATOM      5  C5  DEN d   1       3.317   0.562   1.124  0.00  0.00    -0.003 A 
ATOM      6  C6  DEN d   1       3.413  -0.724   0.663  0.00  0.00     0.001 A 
ATOM      7  C7  DEN d   1       2.378  -1.268  -0.051  0.00  0.00     0.017 A 
ATOM      8  C8  DEN d   1       1.233  -0.505  -0.239  0.00  0.00    -0.094 A 
ATOM      9  C9  DEN d   1       1.160   0.798   0.224  0.00  0.00    -0.072 A 
ENDROOT
TORSDOF 0
ENDMDL
