MODEL 1
REMARK minimizedAffinity -3.22615194
REMARK minimizedRMSD -1
REMARK  0 active torsions:
REMARK  status: ('A' for Active; 'I' for Inactive)
ROOT
ATOM      1  C1  DEN d   1       2.516  -2.033  -0.694  0.00  0.00     0.130 A 
ATOM      2  C2  DEN d   1       3.570  -1.318   0.022  0.00  0.00    -0.031 A 
ATOM      3  C3  DEN d   1       2.952  -0.169   0.715  0.00  0.00     0.027 A 
ATOM      4  C4  DEN d   1       0.480   0.566   0.752  0.00  0.00     0.027 A 
ATOM      5  C5  DEN d   1      -0.783   0.279   0.284  0.00  0.00    -0.003 A 
ATOM      6  C6  DEN d   1      -1.028  -0.770  -0.562  0.00  0.00     0.001 A 
ATOM      7  C7  DEN d   1      -0.001  -1.598  -0.932  0.00  0.00     0.017 A 
ATOM      8  C8  DEN d   1       1.277  -1.310  -0.470  0.00  0.00    -0.094 A 
ATOM      9  C9  DEN d   1       1.502  -0.253   0.394  0.00  0.00    -0.072 A 
ENDROOT
TORSDOF 0
ENDMDL
