MODEL 1
REMARK minimizedAffinity -5.75953913
REMARK minimizedRMSD -1
REMARK  0 active torsions:
REMARK  status: ('A' for Active; 'I' for Inactive)
ROOT
ATOM      1  C1  DEN d   1       3.251   2.245   0.578  0.00  0.00     0.130 A 
ATOM      2  C2  DEN d   1       4.585   2.023   0.025  0.00  0.00    -0.031 A 
ATOM      3  C3  DEN d   1       4.679   0.607  -0.384  0.00  0.00     0.027 A 
ATOM      4  C4  DEN d   1       2.898  -1.251  -0.219  0.00  0.00     0.027 A 
ATOM      5  C5  DEN d   1       1.616  -1.545   0.190  0.00  0.00    -0.003 A 
ATOM      6  C6  DEN d   1       0.808  -0.612   0.784  0.00  0.00     0.001 A 
ATOM      7  C7  DEN d   1       1.258   0.672   0.944  0.00  0.00     0.017 A 
ATOM      8  C8  DEN d   1       2.552   0.974   0.540  0.00  0.00    -0.094 A 
ATOM      9  C9  DEN d   1       3.349   0.020  -0.069  0.00  0.00    -0.072 A 
ENDROOT
TORSDOF 0
ENDMDL
