MODEL 1
REMARK minimizedAffinity 2.41383028
REMARK minimizedRMSD -1
REMARK  0 active torsions:
REMARK  status: ('A' for Active; 'I' for Inactive)
ROOT
ATOM      1  C1  DEN d   1       2.338   1.289  -0.229  0.00  0.00     0.130 A 
ATOM      2  C2  DEN d   1       1.405   2.360   0.109  0.00  0.00    -0.031 A 
ATOM      3  C3  DEN d   1       0.047   1.781   0.169  0.00  0.00     0.027 A 
ATOM      4  C4  DEN d   1      -0.695  -0.657  -0.221  0.00  0.00     0.027 A 
ATOM      5  C5  DEN d   1      -0.263  -1.925  -0.544  0.00  0.00    -0.003 A 
ATOM      6  C6  DEN d   1       1.051  -2.201  -0.816  0.00  0.00     0.001 A 
ATOM      7  C7  DEN d   1       1.987  -1.204  -0.725  0.00  0.00     0.017 A 
ATOM      8  C8  DEN d   1       1.557   0.078  -0.407  0.00  0.00    -0.094 A 
ATOM      9  C9  DEN d   1       0.226   0.334  -0.124  0.00  0.00    -0.072 A 
ENDROOT
TORSDOF 0
ENDMDL
