MODEL 1
REMARK minimizedAffinity -5.31858492
REMARK minimizedRMSD -1
REMARK  0 active torsions:
REMARK  status: ('A' for Active; 'I' for Inactive)
ROOT
ATOM      1  C1  DEN d   1      -0.290  -0.700  -0.057  0.00  0.00     0.130 A 
ATOM      2  C2  DEN d   1      -0.798   0.636  -0.356  0.00  0.00    -0.031 A 
ATOM      3  C3  DEN d   1       0.325   1.588  -0.238  0.00  0.00     0.027 A 
ATOM      4  C4  DEN d   1       2.788   1.124   0.372  0.00  0.00     0.027 A 
ATOM      5  C5  DEN d   1       3.693   0.146   0.722  0.00  0.00    -0.003 A 
ATOM      6  C6  DEN d   1       3.329  -1.166   0.868  0.00  0.00     0.001 A 
ATOM      7  C7  DEN d   1       2.036  -1.544   0.621  0.00  0.00     0.017 A 
ATOM      8  C8  DEN d   1       1.117  -0.563   0.275  0.00  0.00    -0.094 A 
ATOM      9  C9  DEN d   1       1.506   0.757   0.119  0.00  0.00    -0.072 A 
ENDROOT
TORSDOF 0
ENDMDL
