MODEL 1
REMARK minimizedAffinity -4.78366709
REMARK minimizedRMSD -1
REMARK  0 active torsions:
REMARK  status: ('A' for Active; 'I' for Inactive)
ROOT
ATOM      1  C1  DEN d   1       1.617  -1.472   1.187  0.00  0.00     0.130 A 
ATOM      2  C2  DEN d   1       2.946  -0.907   1.401  0.00  0.00    -0.031 A 
ATOM      3  C3  DEN d   1       2.992   0.412   0.739  0.00  0.00     0.027 A 
ATOM      4  C4  DEN d   1       1.143   1.630  -0.584  0.00  0.00     0.027 A 
ATOM      5  C5  DEN d   1      -0.152   1.542  -1.043  0.00  0.00    -0.003 A 
ATOM      6  C6  DEN d   1      -0.931   0.437  -0.822  0.00  0.00     0.001 A 
ATOM      7  C7  DEN d   1      -0.437  -0.606  -0.084  0.00  0.00     0.017 A 
ATOM      8  C8  DEN d   1       0.871  -0.527   0.376  0.00  0.00    -0.094 A 
ATOM      9  C9  DEN d   1       1.639   0.604   0.152  0.00  0.00    -0.072 A 
ENDROOT
TORSDOF 0
ENDMDL
