MODEL 1
REMARK minimizedAffinity -2.86651683
REMARK minimizedRMSD -1
REMARK  0 active torsions:
REMARK  status: ('A' for Active; 'I' for Inactive)
ROOT
ATOM      1  C   UNL d   1       0.477  -0.942  -0.803  0.00  0.00     0.020 A 
ATOM      2  C1  UNL d   1       0.377  -1.042   0.585  0.00  0.00     0.020 A 
ATOM      3  C2  UNL d   1      -0.128   0.028   1.327  0.00  0.00     0.034 A 
ATOM      4  C3  UNL d   1      -0.535   1.202   0.682  0.00  0.00     0.017 A 
ATOM      5  C4  UNL d   1      -0.435   1.300  -0.710  0.00  0.00     0.017 A 
ATOM      6  C5  UNL d   1       0.072   0.226  -1.448  0.00  0.00     0.034 A 
ATOM      7 Cl   UNL d   1      -0.917   2.716  -1.576  0.00  0.00    -0.070 Cl
ATOM      8 Cl1  UNL d   1      -1.150   2.484   1.663  0.00  0.00    -0.070 Cl
ENDROOT
TORSDOF 0
ENDMDL
