MODEL 1
REMARK minimizedAffinity -3.32532382
REMARK minimizedRMSD -1
REMARK  0 active torsions:
REMARK  status: ('A' for Active; 'I' for Inactive)
ROOT
ATOM      1  C   UNL d   1      -0.210   0.589   2.342  0.00  0.00     0.020 A 
ATOM      2  C1  UNL d   1      -0.518   1.876   1.902  0.00  0.00     0.020 A 
ATOM      3  C2  UNL d   1      -0.435   2.187   0.543  0.00  0.00     0.034 A 
ATOM      4  C3  UNL d   1      -0.044   1.211  -0.380  0.00  0.00     0.017 A 
ATOM      5  C4  UNL d   1       0.264  -0.081   0.063  0.00  0.00     0.017 A 
ATOM      6  C5  UNL d   1       0.180  -0.387   1.425  0.00  0.00     0.034 A 
ATOM      7 Cl   UNL d   1       0.754  -1.338  -1.016  0.00  0.00    -0.070 Cl
ATOM      8 Cl1  UNL d   1       0.036   1.665  -2.045  0.00  0.00    -0.070 Cl
ENDROOT
TORSDOF 0
ENDMDL
