MODEL 1
REMARK minimizedAffinity -2.51305008
REMARK minimizedRMSD -1
REMARK  0 active torsions:
REMARK  status: ('A' for Active; 'I' for Inactive)
ROOT
ATOM      1  C   UNL d   1       1.017  -0.890  -0.020  0.00  0.00     0.020 A 
ATOM      2  C1  UNL d   1       0.962  -0.626  -1.388  0.00  0.00     0.020 A 
ATOM      3  C2  UNL d   1       0.186   0.432  -1.864  0.00  0.00     0.034 A 
ATOM      4  C3  UNL d   1      -0.539   1.231  -0.972  0.00  0.00     0.017 A 
ATOM      5  C4  UNL d   1      -0.483   0.965   0.401  0.00  0.00     0.017 A 
ATOM      6  C5  UNL d   1       0.296  -0.096   0.872  0.00  0.00     0.034 A 
ATOM      7 Cl   UNL d   1      -1.349   1.906   1.563  0.00  0.00    -0.070 Cl
ATOM      8 Cl1  UNL d   1      -1.478   2.523  -1.631  0.00  0.00    -0.070 Cl
ENDROOT
TORSDOF 0
ENDMDL
