MODEL 1
REMARK minimizedAffinity -3.97006106
REMARK minimizedRMSD -1
REMARK  0 active torsions:
REMARK  status: ('A' for Active; 'I' for Inactive)
ROOT
ATOM      1  C   UNL d   1      -1.797   2.076   0.424  0.00  0.00     0.020 A 
ATOM      2  C1  UNL d   1      -1.402   2.318   1.739  0.00  0.00     0.020 A 
ATOM      3  C2  UNL d   1      -0.480   1.471   2.358  0.00  0.00     0.034 A 
ATOM      4  C3  UNL d   1       0.050   0.378   1.662  0.00  0.00     0.017 A 
ATOM      5  C4  UNL d   1      -0.347   0.137   0.342  0.00  0.00     0.017 A 
ATOM      6  C5  UNL d   1      -1.270   0.988  -0.273  0.00  0.00     0.034 A 
ATOM      7 Cl   UNL d   1       0.264  -1.191  -0.581  0.00  0.00    -0.070 Cl
ATOM      8 Cl1  UNL d   1       1.186  -0.627   2.490  0.00  0.00    -0.070 Cl
ENDROOT
TORSDOF 0
ENDMDL
