MODEL 1
REMARK minimizedAffinity -3.72358131
REMARK minimizedRMSD -1
REMARK  0 active torsions:
REMARK  status: ('A' for Active; 'I' for Inactive)
ROOT
ATOM      1  C   UNL d   1       0.204   0.139  -1.044  0.00  0.00     0.020 A 
ATOM      2  C1  UNL d   1       0.572  -1.067  -0.450  0.00  0.00     0.020 A 
ATOM      3  C2  UNL d   1       0.375  -1.260   0.919  0.00  0.00     0.034 A 
ATOM      4  C3  UNL d   1      -0.191  -0.245   1.699  0.00  0.00     0.017 A 
ATOM      5  C4  UNL d   1      -0.560   0.966   1.102  0.00  0.00     0.017 A 
ATOM      6  C5  UNL d   1      -0.361   1.154  -0.269  0.00  0.00     0.034 A 
ATOM      7 Cl   UNL d   1      -1.264   2.265   1.999  0.00  0.00    -0.070 Cl
ATOM      8 Cl1  UNL d   1      -0.405  -0.552   3.386  0.00  0.00    -0.070 Cl
ENDROOT
TORSDOF 0
ENDMDL
