MODEL 1
REMARK minimizedAffinity -3.98934746
REMARK minimizedRMSD -1
REMARK  0 active torsions:
REMARK  status: ('A' for Active; 'I' for Inactive)
ROOT
ATOM      1  C   UNL d   1      -0.110   2.015   1.966  0.00  0.00     0.020 A 
ATOM      2  C1  UNL d   1       0.131   0.738   2.469  0.00  0.00     0.020 A 
ATOM      3  C2  UNL d   1       0.301  -0.337   1.594  0.00  0.00     0.034 A 
ATOM      4  C3  UNL d   1       0.230  -0.137   0.211  0.00  0.00     0.017 A 
ATOM      5  C4  UNL d   1      -0.012   1.146  -0.294  0.00  0.00     0.017 A 
ATOM      6  C5  UNL d   1      -0.181   2.219   0.587  0.00  0.00     0.034 A 
ATOM      7 Cl   UNL d   1      -0.113   1.472  -1.988  0.00  0.00    -0.070 Cl
ATOM      8 Cl1  UNL d   1       0.450  -1.511  -0.813  0.00  0.00    -0.070 Cl
ENDROOT
TORSDOF 0
ENDMDL
