MODEL 1
REMARK minimizedAffinity -1.19342852
REMARK minimizedRMSD -1
REMARK  0 active torsions:
REMARK  status: ('A' for Active; 'I' for Inactive)
ROOT
ATOM      1  C   UNL d   1       0.155  -1.099   1.003  0.00  0.00     0.020 A 
ATOM      2  C1  UNL d   1       0.053  -1.157  -0.386  0.00  0.00     0.020 A 
ATOM      3  C2  UNL d   1      -0.238  -0.000  -1.113  0.00  0.00     0.034 A 
ATOM      4  C3  UNL d   1      -0.428   1.218  -0.451  0.00  0.00     0.017 A 
ATOM      5  C4  UNL d   1      -0.326   1.274   0.943  0.00  0.00     0.017 A 
ATOM      6  C5  UNL d   1      -0.035   0.114   1.666  0.00  0.00     0.034 A 
ATOM      7 Cl   UNL d   1      -0.548   2.741   1.830  0.00  0.00    -0.070 Cl
ATOM      8 Cl1  UNL d   1      -0.785   2.608  -1.414  0.00  0.00    -0.070 Cl
ENDROOT
TORSDOF 0
ENDMDL
