MODEL 1
REMARK minimizedAffinity -5.17102623
REMARK minimizedRMSD -1
REMARK  0 active torsions:
REMARK  status: ('A' for Active; 'I' for Inactive)
ROOT
ATOM      1  C   UNL d   1      -0.732   1.663   1.609  0.00  0.00     0.020 A 
ATOM      2  C1  UNL d   1      -1.293   2.478   0.626  0.00  0.00     0.020 A 
ATOM      3  C2  UNL d   1      -1.093   2.182  -0.724  0.00  0.00     0.034 A 
ATOM      4  C3  UNL d   1      -0.329   1.069  -1.095  0.00  0.00     0.017 A 
ATOM      5  C4  UNL d   1       0.234   0.252  -0.107  0.00  0.00     0.017 A 
ATOM      6  C5  UNL d   1       0.030   0.553   1.243  0.00  0.00     0.034 A 
ATOM      7 Cl   UNL d   1       1.188  -1.138  -0.487  0.00  0.00    -0.070 Cl
ATOM      8 Cl1  UNL d   1      -0.123   0.762  -2.782  0.00  0.00    -0.070 Cl
ENDROOT
TORSDOF 0
ENDMDL
