MODEL 1
REMARK minimizedAffinity -3.35201025
REMARK minimizedRMSD -1
REMARK  0 active torsions:
REMARK  status: ('A' for Active; 'I' for Inactive)
ROOT
ATOM      1  C   UNL d   1      -1.473   2.416  -0.135  0.00  0.00     0.020 A 
ATOM      2  C1  UNL d   1      -1.127   2.727   1.179  0.00  0.00     0.020 A 
ATOM      3  C2  UNL d   1      -0.317   1.857   1.912  0.00  0.00     0.034 A 
ATOM      4  C3  UNL d   1       0.149   0.672   1.331  0.00  0.00     0.017 A 
ATOM      5  C4  UNL d   1      -0.200   0.361   0.011  0.00  0.00     0.017 A 
ATOM      6  C5  UNL d   1      -1.011   1.236  -0.718  0.00  0.00     0.034 A 
ATOM      7 Cl   UNL d   1       0.336  -1.083  -0.773  0.00  0.00    -0.070 Cl
ATOM      8 Cl1  UNL d   1       1.147  -0.358   2.295  0.00  0.00    -0.070 Cl
ENDROOT
TORSDOF 0
ENDMDL
