MODEL 1
REMARK minimizedAffinity 5.88374424
REMARK minimizedRMSD -1
REMARK  1 active torsions:
REMARK  status: ('A' for Active; 'I' for Inactive)
REMARK    1  A    between atoms: C1_2  and  C2_3 
ROOT
ATOM      1  C2  UNL d   1       1.543  -2.405   2.028  0.00  0.00    -0.081 A 
ATOM      2  C3  UNL d   1       1.580  -1.064   2.431  0.00  0.00     0.006 A 
ATOM      3  C4  UNL d   1       0.535  -0.197   2.102  0.00  0.00     0.002 A 
ATOM      4  C5  UNL d   1      -0.567  -0.657   1.374  0.00  0.00    -0.080 A 
ATOM      5  C6  UNL d   1      -1.710   0.256   1.042  0.00  0.00     0.076 C 
ATOM      6  C7  UNL d   1      -0.596  -1.992   0.957  0.00  0.00     0.002 A 
ATOM      7  C8  UNL d   1       0.449  -2.859   1.284  0.00  0.00     0.006 A 
ENDROOT
BRANCH   1   8
ATOM      8  C1  UNL d   1       2.637  -3.358   2.436  0.00  0.00     0.054 C 
ATOM      9  C   UNL d   1       2.077  -4.733   2.770  0.00  0.00     0.018 C 
ENDBRANCH   1   8
TORSDOF 1
ENDMDL
