MODEL 1
REMARK minimizedAffinity 6.81325006
REMARK minimizedRMSD -1
REMARK  1 active torsions:
REMARK  status: ('A' for Active; 'I' for Inactive)
REMARK    1  A    between atoms: C1_2  and  C2_3 
ROOT
ATOM      1  C2  UNL d   1       0.068   0.003   1.483  0.00  0.00    -0.081 A 
ATOM      2  C3  UNL d   1       1.135  -0.904   1.470  0.00  0.00     0.006 A 
ATOM      3  C4  UNL d   1       0.912  -2.256   1.197  0.00  0.00     0.002 A 
ATOM      4  C5  UNL d   1      -0.379  -2.721   0.925  0.00  0.00    -0.080 A 
ATOM      5  C6  UNL d   1      -0.628  -4.165   0.601  0.00  0.00     0.076 C 
ATOM      6  C7  UNL d   1      -1.448  -1.819   0.955  0.00  0.00     0.002 A 
ATOM      7  C8  UNL d   1      -1.225  -0.467   1.229  0.00  0.00     0.006 A 
ENDROOT
BRANCH   1   8
ATOM      8  C1  UNL d   1       0.314   1.472   1.713  0.00  0.00     0.054 C 
ATOM      9  C   UNL d   1      -0.540   2.328   0.788  0.00  0.00     0.018 C 
ENDBRANCH   1   8
TORSDOF 1
ENDMDL
