MODEL 1
REMARK minimizedAffinity 10.2659674
REMARK minimizedRMSD -1
REMARK  1 active torsions:
REMARK  status: ('A' for Active; 'I' for Inactive)
REMARK    1  A    between atoms: C1_2  and  C2_3 
ROOT
ATOM      1  C2  UNL d   1       0.815  -0.634   2.262  0.00  0.00    -0.081 A 
ATOM      2  C3  UNL d   1       1.492  -1.860   2.272  0.00  0.00     0.006 A 
ATOM      3  C4  UNL d   1       1.784  -2.497   3.481  0.00  0.00     0.002 A 
ATOM      4  C5  UNL d   1       1.398  -1.923   4.697  0.00  0.00    -0.080 A 
ATOM      5  C6  UNL d   1       1.679  -2.612   6.000  0.00  0.00     0.076 C 
ATOM      6  C7  UNL d   1       0.738  -0.690   4.687  0.00  0.00     0.002 A 
ATOM      7  C8  UNL d   1       0.446  -0.052   3.479  0.00  0.00     0.006 A 
ENDROOT
BRANCH   1   8
ATOM      8  C1  UNL d   1       0.442   0.024   0.958  0.00  0.00     0.054 C 
ATOM      9  C   UNL d   1      -1.066   0.022   0.749  0.00  0.00     0.018 C 
ENDBRANCH   1   8
TORSDOF 1
ENDMDL
