MODEL 1
REMARK minimizedAffinity 15.4702291
REMARK minimizedRMSD -1
REMARK  1 active torsions:
REMARK  status: ('A' for Active; 'I' for Inactive)
REMARK    1  A    between atoms: C1_2  and  C2_3 
ROOT
ATOM      1  C2  UNL d   1       1.378  -1.553   4.611  0.00  0.00    -0.081 A 
ATOM      2  C3  UNL d   1       1.197  -0.172   4.475  0.00  0.00     0.006 A 
ATOM      3  C4  UNL d   1       1.148   0.415   3.208  0.00  0.00     0.002 A 
ATOM      4  C5  UNL d   1       1.271  -0.371   2.057  0.00  0.00    -0.080 A 
ATOM      5  C6  UNL d   1       1.189   0.242   0.691  0.00  0.00     0.076 C 
ATOM      6  C7  UNL d   1       1.468  -1.749   2.193  0.00  0.00     0.002 A 
ATOM      7  C8  UNL d   1       1.518  -2.336   3.460  0.00  0.00     0.006 A 
ENDROOT
BRANCH   1   8
ATOM      8  C1  UNL d   1       1.366  -2.197   5.974  0.00  0.00     0.054 C 
ATOM      9  C   UNL d   1       2.221  -3.457   5.998  0.00  0.00     0.018 C 
ENDBRANCH   1   8
TORSDOF 1
ENDMDL
