MODEL 1
REMARK minimizedAffinity 4.53748274
REMARK minimizedRMSD -1
REMARK  1 active torsions:
REMARK  status: ('A' for Active; 'I' for Inactive)
REMARK    1  A    between atoms: C1_2  and  C2_3 
ROOT
ATOM      1  C2  UNL d   1       2.715  -1.527   1.478  0.00  0.00    -0.081 A 
ATOM      2  C3  UNL d   1       1.992  -0.337   1.627  0.00  0.00     0.006 A 
ATOM      3  C4  UNL d   1       1.351  -0.044   2.832  0.00  0.00     0.002 A 
ATOM      4  C5  UNL d   1       1.427  -0.932   3.911  0.00  0.00    -0.080 A 
ATOM      5  C6  UNL d   1       0.768  -0.616   5.221  0.00  0.00     0.076 C 
ATOM      6  C7  UNL d   1       2.134  -2.129   3.756  0.00  0.00     0.002 A 
ATOM      7  C8  UNL d   1       2.775  -2.423   2.551  0.00  0.00     0.006 A 
ENDROOT
BRANCH   1   8
ATOM      8  C1  UNL d   1       3.462  -1.815   0.201  0.00  0.00     0.054 C 
ATOM      9  C   UNL d   1       4.891  -2.254   0.483  0.00  0.00     0.018 C 
ENDBRANCH   1   8
TORSDOF 1
ENDMDL
