MODEL 1
REMARK minimizedAffinity 2.15000892
REMARK minimizedRMSD -1
REMARK  1 active torsions:
REMARK  status: ('A' for Active; 'I' for Inactive)
REMARK    1  A    between atoms: C1_2  and  C2_3 
ROOT
ATOM      1  C2  UNL d   1       5.604  -3.386  -5.136  0.00  0.00    -0.081 A 
ATOM      2  C3  UNL d   1       4.836  -3.518  -3.972  0.00  0.00     0.006 A 
ATOM      3  C4  UNL d   1       4.459  -2.390  -3.241  0.00  0.00     0.002 A 
ATOM      4  C5  UNL d   1       4.836  -1.111  -3.664  0.00  0.00    -0.080 A 
ATOM      5  C6  UNL d   1       4.411   0.111  -2.904  0.00  0.00     0.076 C 
ATOM      6  C7  UNL d   1       5.618  -0.980  -4.816  0.00  0.00     0.002 A 
ATOM      7  C8  UNL d   1       5.996  -2.108  -5.548  0.00  0.00     0.006 A 
ENDROOT
BRANCH   1   8
ATOM      8  C1  UNL d   1       5.958  -4.596  -5.962  0.00  0.00     0.054 C 
ATOM      9  C   UNL d   1       6.000  -5.856  -5.109  0.00  0.00     0.018 C 
ENDBRANCH   1   8
TORSDOF 1
ENDMDL
