MODEL 1
REMARK minimizedAffinity 0.934302807
REMARK minimizedRMSD -1
REMARK  0 active torsions:
REMARK  status: ('A' for Active; 'I' for Inactive)
ROOT
ATOM      1  C   UNL d   1       3.939   6.000  -5.860  0.00  0.00     0.172 C 
ATOM      2  N   UNL d   1       2.671   5.311  -5.915  0.00  0.00    -0.070 N 
ATOM      3  C1  UNL d   1       1.438   5.908  -5.937  0.00  0.00    -0.004 A 
ATOM      4  C2  UNL d   1       0.488   4.911  -5.990  0.00  0.00    -0.047 A 
ATOM      5  C3  UNL d   1       1.173   3.673  -5.999  0.00  0.00    -0.047 A 
ATOM      6  C4  UNL d   1       2.523   3.950  -5.952  0.00  0.00    -0.004 A 
ENDROOT
TORSDOF 0
ENDMDL
