MODEL 1
REMARK minimizedAffinity 4.62314606
REMARK minimizedRMSD -1
REMARK  0 active torsions:
REMARK  status: ('A' for Active; 'I' for Inactive)
ROOT
ATOM      1  C   UNL d   1       2.642   3.103  -5.995  0.00  0.00     0.172 C 
ATOM      2  N   UNL d   1       3.800   2.240  -5.996  0.00  0.00    -0.070 N 
ATOM      3  C1  UNL d   1       5.105   2.654  -5.998  0.00  0.00    -0.004 A 
ATOM      4  C2  UNL d   1       5.904   1.531  -5.999  0.00  0.00    -0.047 A 
ATOM      5  C3  UNL d   1       5.050   0.403  -5.999  0.00  0.00    -0.047 A 
ATOM      6  C4  UNL d   1       3.752   0.871  -5.997  0.00  0.00    -0.004 A 
ENDROOT
TORSDOF 0
ENDMDL
