MODEL 1
REMARK minimizedAffinity -1.31650913
REMARK minimizedRMSD -1
REMARK  0 active torsions:
REMARK  status: ('A' for Active; 'I' for Inactive)
ROOT
ATOM      1  C   UNL d   1       4.710   5.902  -5.963  0.00  0.00     0.172 C 
ATOM      2  N   UNL d   1       3.428   5.404  -5.524  0.00  0.00    -0.070 N 
ATOM      3  C1  UNL d   1       2.800   4.284  -6.000  0.00  0.00    -0.004 A 
ATOM      4  C2  UNL d   1       1.605   4.152  -5.328  0.00  0.00    -0.047 A 
ATOM      5  C3  UNL d   1       1.510   5.230  -4.416  0.00  0.00    -0.047 A 
ATOM      6  C4  UNL d   1       2.652   5.990  -4.558  0.00  0.00    -0.004 A 
ENDROOT
TORSDOF 0
ENDMDL
