MODEL 1
REMARK minimizedAffinity -1.08018613
REMARK minimizedRMSD -1
REMARK  0 active torsions:
REMARK  status: ('A' for Active; 'I' for Inactive)
ROOT
ATOM      1  C   UNL d   1       5.253   2.344  -1.569  0.00  0.00     0.172 C 
ATOM      2  N   UNL d   1       4.387   2.218  -0.420  0.00  0.00    -0.070 N 
ATOM      3  C1  UNL d   1       4.474   1.248   0.542  0.00  0.00    -0.004 A 
ATOM      4  C2  UNL d   1       3.472   1.475   1.462  0.00  0.00    -0.047 A 
ATOM      5  C3  UNL d   1       2.759   2.621   1.037  0.00  0.00    -0.047 A 
ATOM      6  C4  UNL d   1       3.346   3.061  -0.131  0.00  0.00    -0.004 A 
ENDROOT
TORSDOF 0
ENDMDL
