MODEL 1
REMARK minimizedAffinity 1.2859292
REMARK minimizedRMSD -1
REMARK  0 active torsions:
REMARK  status: ('A' for Active; 'I' for Inactive)
ROOT
ATOM      1  C   UNL d   1       1.260  -1.352  -0.334  0.00  0.00     0.172 C 
ATOM      2  N   UNL d   1      -0.135  -1.468  -0.689  0.00  0.00    -0.070 N 
ATOM      3  C1  UNL d   1      -0.689  -1.093  -1.883  0.00  0.00    -0.004 A 
ATOM      4  C2  UNL d   1      -2.039  -1.365  -1.826  0.00  0.00    -0.047 A 
ATOM      5  C3  UNL d   1      -2.305  -1.922  -0.553  0.00  0.00    -0.047 A 
ATOM      6  C4  UNL d   1      -1.109  -1.975   0.131  0.00  0.00    -0.004 A 
ENDROOT
TORSDOF 0
ENDMDL
