MODEL 1
REMARK minimizedAffinity 4.86226177
REMARK minimizedRMSD -1
REMARK  0 active torsions:
REMARK  status: ('A' for Active; 'I' for Inactive)
ROOT
ATOM      1  C   UNL d   1       0.099  -0.327   4.476  0.00  0.00     0.172 C 
ATOM      2  N   UNL d   1       1.340  -0.345   3.738  0.00  0.00    -0.070 N 
ATOM      3  C1  UNL d   1       2.530  -0.850   4.189  0.00  0.00    -0.004 A 
ATOM      4  C2  UNL d   1       3.467  -0.679   3.192  0.00  0.00    -0.047 A 
ATOM      5  C3  UNL d   1       2.817  -0.048   2.105  0.00  0.00    -0.047 A 
ATOM      6  C4  UNL d   1       1.501   0.147   2.469  0.00  0.00    -0.004 A 
ENDROOT
TORSDOF 0
ENDMDL
