MODEL 1
REMARK minimizedAffinity 6.30170536
REMARK minimizedRMSD -1
REMARK  0 active torsions:
REMARK  status: ('A' for Active; 'I' for Inactive)
ROOT
ATOM      1  C   UNL d   1       3.729   2.523  -5.993  0.00  0.00     0.172 C 
ATOM      2  N   UNL d   1       2.997   3.768  -5.994  0.00  0.00    -0.070 N 
ATOM      3  C1  UNL d   1       1.633   3.893  -6.000  0.00  0.00    -0.004 A 
ATOM      4  C2  UNL d   1       1.332   5.237  -5.999  0.00  0.00    -0.047 A 
ATOM      5  C3  UNL d   1       2.557   5.946  -5.994  0.00  0.00    -0.047 A 
ATOM      6  C4  UNL d   1       3.571   5.012  -5.992  0.00  0.00    -0.004 A 
ENDROOT
TORSDOF 0
ENDMDL
