MODEL 1
REMARK minimizedAffinity 2.76754737
REMARK minimizedRMSD -1
REMARK  0 active torsions:
REMARK  status: ('A' for Active; 'I' for Inactive)
ROOT
ATOM      1  C   UNL d   1      -4.876  -3.756  -2.930  0.00  0.00     0.172 C 
ATOM      2  N   UNL d   1      -3.893  -3.714  -3.986  0.00  0.00    -0.070 N 
ATOM      3  C1  UNL d   1      -2.553  -3.955  -3.840  0.00  0.00    -0.004 A 
ATOM      4  C2  UNL d   1      -1.962  -3.818  -5.077  0.00  0.00    -0.047 A 
ATOM      5  C3  UNL d   1      -2.982  -3.481  -5.999  0.00  0.00    -0.047 A 
ATOM      6  C4  UNL d   1      -4.167  -3.424  -5.297  0.00  0.00    -0.004 A 
ENDROOT
TORSDOF 0
ENDMDL
