MODEL 1
REMARK minimizedAffinity 2.19957232
REMARK minimizedRMSD -1
REMARK  0 active torsions:
REMARK  status: ('A' for Active; 'I' for Inactive)
ROOT
ATOM      1  C   UNL d   1       3.923   5.876   2.385  0.00  0.00     0.172 C 
ATOM      2  N   UNL d   1       4.511   5.900   3.704  0.00  0.00    -0.070 N 
ATOM      3  C1  UNL d   1       5.850   5.826   3.983  0.00  0.00    -0.004 A 
ATOM      4  C2  UNL d   1       6.000   5.880   5.352  0.00  0.00    -0.047 A 
ATOM      5  C3  UNL d   1       4.707   5.990   5.915  0.00  0.00    -0.047 A 
ATOM      6  C4  UNL d   1       3.804   6.000   4.873  0.00  0.00    -0.004 A 
ENDROOT
TORSDOF 0
ENDMDL
