MODEL 1
REMARK minimizedAffinity -2.66036606
REMARK minimizedRMSD -1
REMARK  0 active torsions:
REMARK  status: ('A' for Active; 'I' for Inactive)
ROOT
ATOM      1  C   UNL d   1      -1.545  -1.244  -2.542  0.00  0.00     0.172 C 
ATOM      2  N   UNL d   1      -2.408  -2.333  -2.151  0.00  0.00    -0.070 N 
ATOM      3  C1  UNL d   1      -2.642  -3.468  -2.881  0.00  0.00    -0.004 A 
ATOM      4  C2  UNL d   1      -3.519  -4.256  -2.166  0.00  0.00    -0.047 A 
ATOM      5  C3  UNL d   1      -3.823  -3.570  -0.966  0.00  0.00    -0.047 A 
ATOM      6  C4  UNL d   1      -3.122  -2.383  -0.982  0.00  0.00    -0.004 A 
ENDROOT
TORSDOF 0
ENDMDL
