MODEL 1
REMARK minimizedAffinity 6.78254461
REMARK minimizedRMSD -1
REMARK  0 active torsions:
REMARK  status: ('A' for Active; 'I' for Inactive)
ROOT
ATOM      1  C   UNL d   1      -0.747  -1.076   1.749  0.00  0.00     0.172 C 
ATOM      2  N   UNL d   1      -1.013  -1.859   0.565  0.00  0.00    -0.070 N 
ATOM      3  C1  UNL d   1      -0.162  -2.775   0.007  0.00  0.00    -0.004 A 
ATOM      4  C2  UNL d   1      -0.782  -3.304  -1.105  0.00  0.00    -0.047 A 
ATOM      5  C3  UNL d   1      -2.049  -2.683  -1.219  0.00  0.00    -0.047 A 
ATOM      6  C4  UNL d   1      -2.166  -1.793  -0.172  0.00  0.00    -0.004 A 
ENDROOT
TORSDOF 0
ENDMDL
