MODEL 1
REMARK minimizedAffinity -1.20382595
REMARK minimizedRMSD -1
REMARK  0 active torsions:
REMARK  status: ('A' for Active; 'I' for Inactive)
ROOT
ATOM      1  C   UNL d   1      -1.843  -2.660  -1.178  0.00  0.00     0.172 C 
ATOM      2  N   UNL d   1      -3.094  -3.377  -1.113  0.00  0.00    -0.070 N 
ATOM      3  C1  UNL d   1      -4.114  -3.125  -0.234  0.00  0.00    -0.004 A 
ATOM      4  C2  UNL d   1      -5.127  -4.023  -0.495  0.00  0.00    -0.047 A 
ATOM      5  C3  UNL d   1      -4.701  -4.843  -1.566  0.00  0.00    -0.047 A 
ATOM      6  C4  UNL d   1      -3.439  -4.422  -1.929  0.00  0.00    -0.004 A 
ENDROOT
TORSDOF 0
ENDMDL
