MODEL 1
REMARK minimizedAffinity -0.0167612806
REMARK minimizedRMSD -1
REMARK  0 active torsions:
REMARK  status: ('A' for Active; 'I' for Inactive)
ROOT
ATOM      1  C   UNL d   1       3.005   2.045  -6.000  0.00  0.00     0.172 C 
ATOM      2  N   UNL d   1       2.594   3.404  -5.735  0.00  0.00    -0.070 N 
ATOM      3  C1  UNL d   1       1.396   3.784  -5.191  0.00  0.00    -0.004 A 
ATOM      4  C2  UNL d   1       1.392   5.159  -5.101  0.00  0.00    -0.047 A 
ATOM      5  C3  UNL d   1       2.630   5.621  -5.608  0.00  0.00    -0.047 A 
ATOM      6  C4  UNL d   1       3.355   4.513  -5.993  0.00  0.00    -0.004 A 
ENDROOT
TORSDOF 0
ENDMDL
