MODEL 1
REMARK minimizedAffinity 2.56645203
REMARK minimizedRMSD -1
REMARK  0 active torsions:
REMARK  status: ('A' for Active; 'I' for Inactive)
ROOT
ATOM      1  C   UNL d   1       0.747  -3.281  -0.460  0.00  0.00     0.172 C 
ATOM      2  N   UNL d   1      -0.619  -2.815  -0.460  0.00  0.00    -0.070 N 
ATOM      3  C1  UNL d   1      -1.492  -2.902  -1.512  0.00  0.00    -0.004 A 
ATOM      4  C2  UNL d   1      -2.689  -2.348  -1.113  0.00  0.00    -0.047 A 
ATOM      5  C3  UNL d   1      -2.530  -1.912   0.224  0.00  0.00    -0.047 A 
ATOM      6  C4  UNL d   1      -1.239  -2.214   0.603  0.00  0.00    -0.004 A 
ENDROOT
TORSDOF 0
ENDMDL
