MODEL 1
REMARK minimizedAffinity 11.9490118
REMARK minimizedRMSD -1
REMARK  0 active torsions:
REMARK  status: ('A' for Active; 'I' for Inactive)
ROOT
ATOM      1  C   UNL d   1      -1.869  -2.243  -2.434  0.00  0.00     0.172 C 
ATOM      2  N   UNL d   1      -1.893  -2.326  -3.876  0.00  0.00    -0.070 N 
ATOM      3  C1  UNL d   1      -0.807  -2.209  -4.701  0.00  0.00    -0.004 A 
ATOM      4  C2  UNL d   1      -1.246  -2.347  -6.000  0.00  0.00    -0.047 A 
ATOM      5  C3  UNL d   1      -2.646  -2.553  -5.954  0.00  0.00    -0.047 A 
ATOM      6  C4  UNL d   1      -3.020  -2.536  -4.627  0.00  0.00    -0.004 A 
ENDROOT
TORSDOF 0
ENDMDL
