MODEL 1
REMARK minimizedAffinity 2.51502395
REMARK minimizedRMSD -1
REMARK  0 active torsions:
REMARK  status: ('A' for Active; 'I' for Inactive)
ROOT
ATOM      1  C   UNL d   1      -2.305  -1.603  -1.075  0.00  0.00     0.172 C 
ATOM      2  N   UNL d   1      -2.711  -2.257  -2.297  0.00  0.00    -0.070 N 
ATOM      3  C1  UNL d   1      -3.952  -2.778  -2.549  0.00  0.00    -0.004 A 
ATOM      4  C2  UNL d   1      -3.936  -3.311  -3.820  0.00  0.00    -0.047 A 
ATOM      5  C3  UNL d   1      -2.640  -3.103  -4.350  0.00  0.00    -0.047 A 
ATOM      6  C4  UNL d   1      -1.902  -2.448  -3.386  0.00  0.00    -0.004 A 
ENDROOT
TORSDOF 0
ENDMDL
