MODEL 1
REMARK minimizedAffinity -1.82907951
REMARK minimizedRMSD -1
REMARK  0 active torsions:
REMARK  status: ('A' for Active; 'I' for Inactive)
ROOT
ATOM      1  C   UNL d   1       4.502   2.750  -5.999  0.00  0.00     0.172 C 
ATOM      2  N   UNL d   1       3.965   4.024  -5.582  0.00  0.00    -0.070 N 
ATOM      3  C1  UNL d   1       2.770   4.557  -5.985  0.00  0.00    -0.004 A 
ATOM      4  C2  UNL d   1       2.622   5.779  -5.365  0.00  0.00    -0.047 A 
ATOM      5  C3  UNL d   1       3.769   5.989  -4.563  0.00  0.00    -0.047 A 
ATOM      6  C4  UNL d   1       4.584   4.887  -4.715  0.00  0.00    -0.004 A 
ENDROOT
TORSDOF 0
ENDMDL
