MODEL 1
REMARK minimizedAffinity 0.228991121
REMARK minimizedRMSD -1
REMARK  2 active torsions:
REMARK  status: ('A' for Active; 'I' for Inactive)
REMARK    1  A    between atoms: C1_2  and  C2_3 
REMARK    2  A    between atoms: C2_3  and  C3_4 
ROOT
ATOM      1  C3  UNL d   1      -0.126  -0.125   0.067  0.00  0.00    -0.075 A 
ATOM      2  C4  UNL d   1       0.548  -0.744  -0.996  0.00  0.00     0.002 A 
ATOM      3  C5  UNL d   1       1.911  -1.024  -0.903  0.00  0.00     0.002 A 
ATOM      4  C6  UNL d   1       2.619  -0.679   0.246  0.00  0.00    -0.004 A 
ATOM      5  C7  UNL d   1       1.964  -0.049   1.301  0.00  0.00     0.002 A 
ATOM      6  C8  UNL d   1       0.598   0.228   1.213  0.00  0.00     0.002 A 
ENDROOT
BRANCH   1   7
ATOM      7  C2  UNL d   1      -1.608   0.153  -0.016  0.00  0.00     0.056 C 
BRANCH   7   8
ATOM      8  C1  UNL d   1      -2.487  -1.093   0.139  0.00  0.00     0.007 C 
ATOM      9  C   UNL d   1      -3.564  -1.205  -0.931  0.00  0.00     0.009 C 
ENDBRANCH   7   8
ENDBRANCH   1   7
TORSDOF 2
ENDMDL
