MODEL 1
REMARK minimizedAffinity -6.0459528
REMARK minimizedRMSD -1
REMARK  2 active torsions:
REMARK  status: ('A' for Active; 'I' for Inactive)
REMARK    1  A    between atoms: C1_2  and  C2_3 
REMARK    2  A    between atoms: C2_3  and  C3_4 
ROOT
ATOM      1  C3  UNL d   1       0.219  -0.254   0.314  0.00  0.00    -0.075 A 
ATOM      2  C4  UNL d   1       1.543  -0.659   0.532  0.00  0.00     0.002 A 
ATOM      3  C5  UNL d   1       1.954  -1.085   1.795  0.00  0.00     0.002 A 
ATOM      4  C6  UNL d   1       1.052  -1.101   2.856  0.00  0.00    -0.004 A 
ATOM      5  C7  UNL d   1      -0.262  -0.685   2.655  0.00  0.00     0.002 A 
ATOM      6  C8  UNL d   1      -0.678  -0.262   1.391  0.00  0.00     0.002 A 
ENDROOT
BRANCH   1   7
ATOM      7  C2  UNL d   1      -0.240   0.180  -1.058  0.00  0.00     0.056 C 
BRANCH   7   8
ATOM      8  C1  UNL d   1       0.065   1.646  -1.383  0.00  0.00     0.007 C 
ATOM      9  C   UNL d   1      -0.859   2.231  -2.442  0.00  0.00     0.009 C 
ENDBRANCH   7   8
ENDBRANCH   1   7
TORSDOF 2
ENDMDL
