MODEL 1
REMARK minimizedAffinity -5.14924526
REMARK minimizedRMSD -1
REMARK  2 active torsions:
REMARK  status: ('A' for Active; 'I' for Inactive)
REMARK    1  A    between atoms: C1_2  and  C2_3 
REMARK    2  A    between atoms: C2_3  and  C3_4 
ROOT
ATOM      1  C3  UNL d   1      -0.049   0.246   0.152  0.00  0.00    -0.075 A 
ATOM      2  C4  UNL d   1       1.298   0.164   0.533  0.00  0.00     0.002 A 
ATOM      3  C5  UNL d   1       1.652  -0.387   1.765  0.00  0.00     0.002 A 
ATOM      4  C6  UNL d   1       0.667  -0.853   2.632  0.00  0.00    -0.004 A 
ATOM      5  C7  UNL d   1      -0.675  -0.762   2.271  0.00  0.00     0.002 A 
ATOM      6  C8  UNL d   1      -1.033  -0.214   1.037  0.00  0.00     0.002 A 
ENDROOT
BRANCH   1   7
ATOM      7  C2  UNL d   1      -0.438   0.815  -1.192  0.00  0.00     0.056 C 
BRANCH   7   8
ATOM      8  C1  UNL d   1       0.240   2.149  -1.525  0.00  0.00     0.007 C 
ATOM      9  C   UNL d   1      -0.738   3.219  -1.992  0.00  0.00     0.009 C 
ENDBRANCH   7   8
ENDBRANCH   1   7
TORSDOF 2
ENDMDL
