MODEL 1
REMARK minimizedAffinity -2.14245224
REMARK minimizedRMSD -1
REMARK  2 active torsions:
REMARK  status: ('A' for Active; 'I' for Inactive)
REMARK    1  A    between atoms: C1_2  and  C2_3 
REMARK    2  A    between atoms: C2_3  and  C3_4 
ROOT
ATOM      1  C3  UNL d   1       0.632  -0.126   0.795  0.00  0.00    -0.075 A 
ATOM      2  C4  UNL d   1       1.948  -0.033   1.271  0.00  0.00     0.002 A 
ATOM      3  C5  UNL d   1       2.274  -0.496   2.546  0.00  0.00     0.002 A 
ATOM      4  C6  UNL d   1       1.290  -1.047   3.363  0.00  0.00    -0.004 A 
ATOM      5  C7  UNL d   1      -0.024  -1.129   2.907  0.00  0.00     0.002 A 
ATOM      6  C8  UNL d   1      -0.353  -0.671   1.630  0.00  0.00     0.002 A 
ENDROOT
BRANCH   1   7
ATOM      7  C2  UNL d   1       0.278   0.346  -0.595  0.00  0.00     0.056 C 
BRANCH   7   8
ATOM      8  C1  UNL d   1      -1.229   0.417  -0.865  0.00  0.00     0.007 C 
ATOM      9  C   UNL d   1      -1.660   1.721  -1.523  0.00  0.00     0.009 C 
ENDBRANCH   7   8
ENDBRANCH   1   7
TORSDOF 2
ENDMDL
