MODEL 1
REMARK minimizedAffinity 2.90906215
REMARK minimizedRMSD -1
REMARK  2 active torsions:
REMARK  status: ('A' for Active; 'I' for Inactive)
REMARK    1  A    between atoms: C1_2  and  C2_3 
REMARK    2  A    between atoms: C2_3  and  C3_4 
ROOT
ATOM      1  C3  UNL d   1      -0.392   3.405  -2.772  0.00  0.00    -0.075 A 
ATOM      2  C4  UNL d   1      -0.210   2.621  -3.920  0.00  0.00     0.002 A 
ATOM      3  C5  UNL d   1       0.867   2.856  -4.776  0.00  0.00     0.002 A 
ATOM      4  C6  UNL d   1       1.767   3.883  -4.501  0.00  0.00    -0.004 A 
ATOM      5  C7  UNL d   1       1.586   4.680  -3.373  0.00  0.00     0.002 A 
ATOM      6  C8  UNL d   1       0.512   4.443  -2.512  0.00  0.00     0.002 A 
ENDROOT
BRANCH   1   7
ATOM      7  C2  UNL d   1      -1.538   3.136  -1.827  0.00  0.00     0.056 C 
BRANCH   7   8
ATOM      8  C1  UNL d   1      -2.884   2.916  -2.525  0.00  0.00     0.007 C 
ATOM      9  C   UNL d   1      -3.216   1.445  -2.737  0.00  0.00     0.009 C 
ENDBRANCH   7   8
ENDBRANCH   1   7
TORSDOF 2
ENDMDL
