MODEL 1
REMARK minimizedAffinity -1.79940891
REMARK minimizedRMSD -1
REMARK  1 active torsions:
REMARK  status: ('A' for Active; 'I' for Inactive)
REMARK    1  A    between atoms: C3_4  and  O_7 
ROOT
ATOM      1  C   UNL d   1       0.051   0.581   0.814  0.00  0.00    -0.033 A 
ATOM      2  C1  UNL d   1      -0.953   1.527   1.029  0.00  0.00     0.039 A 
ATOM      3  C2  UNL d   1      -0.779   2.843   0.596  0.00  0.00    -0.080 A 
ATOM      4  C3  UNL d   1       0.401   3.199  -0.051  0.00  0.00     0.150 A 
ATOM      5  C4  UNL d   1       1.404   2.261  -0.271  0.00  0.00    -0.007 A 
ATOM      6  C5  UNL d   1       1.229   0.947   0.163  0.00  0.00     0.039 A 
ENDROOT
BRANCH   4   7
ATOM      7  O   UNL d   1       0.619   4.472  -0.487  0.00  0.00    -0.526 OA
ATOM      8  H5  UNL d   1      -0.147   5.017  -0.240  0.00  0.00     0.418 HD
ENDBRANCH   4   7
TORSDOF 1
ENDMDL
