MODEL 1
REMARK minimizedAffinity -4.01608229
REMARK minimizedRMSD -1
REMARK  1 active torsions:
REMARK  status: ('A' for Active; 'I' for Inactive)
REMARK    1  A    between atoms: C3_4  and  O_7 
ROOT
ATOM      1  C   UNL d   1       0.409  -0.473   0.219  0.00  0.00    -0.033 A 
ATOM      2  C1  UNL d   1       1.613   0.079  -0.225  0.00  0.00     0.039 A 
ATOM      3  C2  UNL d   1       1.683   1.434  -0.553  0.00  0.00    -0.080 A 
ATOM      4  C3  UNL d   1       0.544   2.226  -0.433  0.00  0.00     0.150 A 
ATOM      5  C4  UNL d   1      -0.657   1.684   0.011  0.00  0.00    -0.007 A 
ATOM      6  C5  UNL d   1      -0.725   0.330   0.338  0.00  0.00     0.039 A 
ENDROOT
BRANCH   4   7
ATOM      7  O   UNL d   1       0.562   3.552  -0.747  0.00  0.00    -0.526 OA
ATOM      8  H5  UNL d   1       1.451   3.781  -1.067  0.00  0.00     0.418 HD
ENDBRANCH   4   7
TORSDOF 1
ENDMDL
