MODEL 1
REMARK minimizedAffinity 1.5095309
REMARK minimizedRMSD -1
REMARK  1 active torsions:
REMARK  status: ('A' for Active; 'I' for Inactive)
REMARK    1  A    between atoms: C3_4  and  O_7 
ROOT
ATOM      1  C   UNL d   1       0.535   0.963   0.460  0.00  0.00    -0.033 A 
ATOM      2  C1  UNL d   1      -0.363   1.765   1.167  0.00  0.00     0.039 A 
ATOM      3  C2  UNL d   1      -1.282   1.183   2.042  0.00  0.00    -0.080 A 
ATOM      4  C3  UNL d   1      -1.292  -0.200   2.202  0.00  0.00     0.150 A 
ATOM      5  C4  UNL d   1      -0.398  -1.005   1.504  0.00  0.00    -0.007 A 
ATOM      6  C5  UNL d   1       0.518  -0.422   0.630  0.00  0.00     0.039 A 
ENDROOT
BRANCH   4   7
ATOM      7  O   UNL d   1      -2.174  -0.814   3.042  0.00  0.00    -0.526 OA
ATOM      8  H5  UNL d   1      -2.749  -0.136   3.434  0.00  0.00     0.418 HD
ENDBRANCH   4   7
TORSDOF 1
ENDMDL
