MODEL 1
REMARK minimizedAffinity 9.95259285
REMARK minimizedRMSD -1
REMARK  1 active torsions:
REMARK  status: ('A' for Active; 'I' for Inactive)
REMARK    1  A    between atoms: C3_4  and  O_7 
ROOT
ATOM      1  C   UNL d   1       0.941   3.280  -0.711  0.00  0.00    -0.033 A 
ATOM      2  C1  UNL d   1       1.711   2.712   0.305  0.00  0.00     0.039 A 
ATOM      3  C2  UNL d   1       1.133   2.422   1.543  0.00  0.00    -0.080 A 
ATOM      4  C3  UNL d   1      -0.214   2.703   1.750  0.00  0.00     0.150 A 
ATOM      5  C4  UNL d   1      -0.989   3.265   0.740  0.00  0.00    -0.007 A 
ATOM      6  C5  UNL d   1      -0.409   3.555  -0.494  0.00  0.00     0.039 A 
ENDROOT
BRANCH   4   7
ATOM      7  O   UNL d   1      -0.822   2.442   2.942  0.00  0.00    -0.526 OA
ATOM      8  H5  UNL d   1      -0.158   2.082   3.554  0.00  0.00     0.418 HD
ENDBRANCH   4   7
TORSDOF 1
ENDMDL
