MODEL 1
REMARK minimizedAffinity 2.85994673
REMARK minimizedRMSD -1
REMARK  1 active torsions:
REMARK  status: ('A' for Active; 'I' for Inactive)
REMARK    1  A    between atoms: C3_4  and  O_7 
ROOT
ATOM      1  C   UNL d   1       3.347   1.154   0.847  0.00  0.00    -0.033 A 
ATOM      2  C1  UNL d   1       3.283   2.538   1.020  0.00  0.00     0.039 A 
ATOM      3  C2  UNL d   1       2.088   3.219   0.781  0.00  0.00    -0.080 A 
ATOM      4  C3  UNL d   1       0.965   2.506   0.371  0.00  0.00     0.150 A 
ATOM      5  C4  UNL d   1       1.021   1.127   0.199  0.00  0.00    -0.007 A 
ATOM      6  C5  UNL d   1       2.215   0.448   0.438  0.00  0.00     0.039 A 
ENDROOT
BRANCH   4   7
ATOM      7  O   UNL d   1      -0.222   3.128   0.120  0.00  0.00    -0.526 OA
ATOM      8  H5  UNL d   1      -0.103   4.083   0.253  0.00  0.00     0.418 HD
ENDBRANCH   4   7
TORSDOF 1
ENDMDL
