MODEL 1
REMARK minimizedAffinity 5.41817474
REMARK minimizedRMSD -1
REMARK  1 active torsions:
REMARK  status: ('A' for Active; 'I' for Inactive)
REMARK    1  A    between atoms: C3_4  and  O_7 
ROOT
ATOM      1  C   UNL d   1       0.804  -1.383   0.192  0.00  0.00    -0.033 A 
ATOM      2  C1  UNL d   1       0.451  -0.079   0.545  0.00  0.00     0.039 A 
ATOM      3  C2  UNL d   1      -0.572   0.142   1.470  0.00  0.00    -0.080 A 
ATOM      4  C3  UNL d   1      -1.231  -0.946   2.034  0.00  0.00     0.150 A 
ATOM      5  C4  UNL d   1      -0.881  -2.248   1.689  0.00  0.00    -0.007 A 
ATOM      6  C5  UNL d   1       0.139  -2.467   0.765  0.00  0.00     0.039 A 
ENDROOT
BRANCH   4   7
ATOM      7  O   UNL d   1      -2.238  -0.780   2.937  0.00  0.00    -0.526 OA
ATOM      8  H5  UNL d   1      -2.390   0.173   3.057  0.00  0.00     0.418 HD
ENDBRANCH   4   7
TORSDOF 1
ENDMDL
