MODEL 1
REMARK minimizedAffinity 0.21802175
REMARK minimizedRMSD -1
REMARK  1 active torsions:
REMARK  status: ('A' for Active; 'I' for Inactive)
REMARK    1  A    between atoms: C3_4  and  O_7 
ROOT
ATOM      1  C   UNL d   1       2.496   1.737   0.568  0.00  0.00    -0.033 A 
ATOM      2  C1  UNL d   1       2.487   3.112   0.327  0.00  0.00     0.039 A 
ATOM      3  C2  UNL d   1       1.276   3.787   0.165  0.00  0.00    -0.080 A 
ATOM      4  C3  UNL d   1       0.082   3.076   0.248  0.00  0.00     0.150 A 
ATOM      5  C4  UNL d   1       0.083   1.707   0.493  0.00  0.00    -0.007 A 
ATOM      6  C5  UNL d   1       1.294   1.035   0.653  0.00  0.00     0.039 A 
ENDROOT
BRANCH   4   7
ATOM      7  O   UNL d   1      -1.126   3.690   0.093  0.00  0.00    -0.526 OA
ATOM      8  H5  UNL d   1      -0.970   4.630  -0.099  0.00  0.00     0.418 HD
ENDBRANCH   4   7
TORSDOF 1
ENDMDL
