MODEL 1
REMARK minimizedAffinity 2.17804003
REMARK minimizedRMSD -1
REMARK  1 active torsions:
REMARK  status: ('A' for Active; 'I' for Inactive)
REMARK    1  A    between atoms: C3_4  and  O_7 
ROOT
ATOM      1  C   UNL d   1       0.135   3.245  -0.824  0.00  0.00    -0.033 A 
ATOM      2  C1  UNL d   1       0.939   2.450  -0.005  0.00  0.00     0.039 A 
ATOM      3  C2  UNL d   1       0.414   1.890   1.161  0.00  0.00    -0.080 A 
ATOM      4  C3  UNL d   1      -0.916   2.130   1.495  0.00  0.00     0.150 A 
ATOM      5  C4  UNL d   1      -1.725   2.917   0.681  0.00  0.00    -0.007 A 
ATOM      6  C5  UNL d   1      -1.197   3.477  -0.482  0.00  0.00     0.039 A 
ENDROOT
BRANCH   4   7
ATOM      7  O   UNL d   1      -1.473   1.608   2.625  0.00  0.00    -0.526 OA
ATOM      8  H5  UNL d   1      -0.789   1.110   3.103  0.00  0.00     0.418 HD
ENDBRANCH   4   7
TORSDOF 1
ENDMDL
