MODEL 1
REMARK minimizedAffinity 3.05998325
REMARK minimizedRMSD -1
REMARK  1 active torsions:
REMARK  status: ('A' for Active; 'I' for Inactive)
REMARK    1  A    between atoms: C3_4  and  O_7 
ROOT
ATOM      1  C   UNL d   1       3.846   2.176   0.801  0.00  0.00    -0.033 A 
ATOM      2  C1  UNL d   1       3.124   1.092   0.299  0.00  0.00     0.039 A 
ATOM      3  C2  UNL d   1       1.752   1.211   0.068  0.00  0.00    -0.080 A 
ATOM      4  C3  UNL d   1       1.115   2.418   0.341  0.00  0.00     0.150 A 
ATOM      5  C4  UNL d   1       1.829   3.504   0.837  0.00  0.00    -0.007 A 
ATOM      6  C5  UNL d   1       3.199   3.383   1.068  0.00  0.00     0.039 A 
ENDROOT
BRANCH   4   7
ATOM      7  O   UNL d   1      -0.223   2.581   0.136  0.00  0.00    -0.526 OA
ATOM      8  H5  UNL d   1      -0.590   1.739  -0.181  0.00  0.00     0.418 HD
ENDBRANCH   4   7
TORSDOF 1
ENDMDL
