MODEL 1
REMARK minimizedAffinity -1.48679268
REMARK minimizedRMSD -1
REMARK  1 active torsions:
REMARK  status: ('A' for Active; 'I' for Inactive)
REMARK    1  A    between atoms: C3_4  and  O_7 
ROOT
ATOM      1  C   UNL d   1       0.884  -5.632  -3.730  0.00  0.00    -0.033 A 
ATOM      2  C1  UNL d   1       1.555  -5.995  -4.899  0.00  0.00     0.039 A 
ATOM      3  C2  UNL d   1       2.951  -5.997  -4.932  0.00  0.00    -0.080 A 
ATOM      4  C3  UNL d   1       3.662  -5.636  -3.791  0.00  0.00     0.150 A 
ATOM      5  C4  UNL d   1       3.000  -5.277  -2.622  0.00  0.00    -0.007 A 
ATOM      6  C5  UNL d   1       1.606  -5.274  -2.591  0.00  0.00     0.039 A 
ENDROOT
BRANCH   4   7
ATOM      7  O   UNL d   1       5.025  -5.618  -3.777  0.00  0.00    -0.526 OA
ATOM      8  H5  UNL d   1       5.345  -5.861  -4.662  0.00  0.00     0.418 HD
ENDBRANCH   4   7
TORSDOF 1
ENDMDL
