MODEL 1
REMARK minimizedAffinity 0.683881462
REMARK minimizedRMSD -1
REMARK  1 active torsions:
REMARK  status: ('A' for Active; 'I' for Inactive)
REMARK    1  A    between atoms: C3_4  and  O_7 
ROOT
ATOM      1  C   UNL d   1       5.038   3.604   2.129  0.00  0.00    -0.033 A 
ATOM      2  C1  UNL d   1       4.076   3.221   1.193  0.00  0.00     0.039 A 
ATOM      3  C2  UNL d   1       3.037   2.366   1.566  0.00  0.00    -0.080 A 
ATOM      4  C3  UNL d   1       2.970   1.904   2.877  0.00  0.00     0.150 A 
ATOM      5  C4  UNL d   1       3.923   2.284   3.816  0.00  0.00    -0.007 A 
ATOM      6  C5  UNL d   1       4.960   3.137   3.442  0.00  0.00     0.039 A 
ENDROOT
BRANCH   4   7
ATOM      7  O   UNL d   1       1.978   1.064   3.287  0.00  0.00    -0.526 OA
ATOM      8  H5  UNL d   1       1.409   0.864   2.524  0.00  0.00     0.418 HD
ENDBRANCH   4   7
TORSDOF 1
ENDMDL
