MODEL 1
REMARK minimizedAffinity 0.618402779
REMARK minimizedRMSD -1
REMARK  1 active torsions:
REMARK  status: ('A' for Active; 'I' for Inactive)
REMARK    1  A    between atoms: C3_4  and  O_7 
ROOT
ATOM      1  C   UNL d   1       1.372   0.155   1.229  0.00  0.00    -0.033 A 
ATOM      2  C1  UNL d   1       1.727   0.445  -0.090  0.00  0.00     0.039 A 
ATOM      3  C2  UNL d   1       1.311   1.641  -0.680  0.00  0.00    -0.080 A 
ATOM      4  C3  UNL d   1       0.543   2.536   0.059  0.00  0.00     0.150 A 
ATOM      5  C4  UNL d   1       0.189   2.256   1.375  0.00  0.00    -0.007 A 
ATOM      6  C5  UNL d   1       0.605   1.061   1.962  0.00  0.00     0.039 A 
ENDROOT
BRANCH   4   7
ATOM      7  O   UNL d   1       0.109   3.713  -0.475  0.00  0.00    -0.526 OA
ATOM      8  H5  UNL d   1       0.405   3.759  -1.400  0.00  0.00     0.418 HD
ENDBRANCH   4   7
TORSDOF 1
ENDMDL
