MODEL 1
REMARK minimizedAffinity -0.991205037
REMARK minimizedRMSD -1
REMARK  1 active torsions:
REMARK  status: ('A' for Active; 'I' for Inactive)
REMARK    1  A    between atoms: C3_4  and  O_7 
ROOT
ATOM      1  C   UNL d   1      -0.900   3.546   0.679  0.00  0.00    -0.033 A 
ATOM      2  C1  UNL d   1      -0.879   2.468   1.567  0.00  0.00     0.039 A 
ATOM      3  C2  UNL d   1       0.336   2.005   2.077  0.00  0.00    -0.080 A 
ATOM      4  C3  UNL d   1       1.520   2.629   1.694  0.00  0.00     0.150 A 
ATOM      5  C4  UNL d   1       1.506   3.705   0.813  0.00  0.00    -0.007 A 
ATOM      6  C5  UNL d   1       0.293   4.166   0.304  0.00  0.00     0.039 A 
ENDROOT
BRANCH   4   7
ATOM      7  O   UNL d   1       2.730   2.209   2.162  0.00  0.00    -0.526 OA
ATOM      8  H5  UNL d   1       2.587   1.440   2.738  0.00  0.00     0.418 HD
ENDBRANCH   4   7
TORSDOF 1
ENDMDL
