MODEL 1
REMARK minimizedAffinity 7.34422588
REMARK minimizedRMSD -1
REMARK  1 active torsions:
REMARK  status: ('A' for Active; 'I' for Inactive)
REMARK    1  A    between atoms: C3_4  and  O_7 
ROOT
ATOM      1  C   UNL d   1       2.241   2.098  -0.399  0.00  0.00    -0.033 A 
ATOM      2  C1  UNL d   1       3.635   2.029  -0.412  0.00  0.00     0.039 A 
ATOM      3  C2  UNL d   1       4.335   1.792   0.773  0.00  0.00    -0.080 A 
ATOM      4  C3  UNL d   1       3.630   1.625   1.961  0.00  0.00     0.150 A 
ATOM      5  C4  UNL d   1       2.241   1.688   1.981  0.00  0.00    -0.007 A 
ATOM      6  C5  UNL d   1       1.543   1.926   0.797  0.00  0.00     0.039 A 
ENDROOT
BRANCH   4   7
ATOM      7  O   UNL d   1       4.270   1.396   3.143  0.00  0.00    -0.526 OA
ATOM      8  H5  UNL d   1       5.228   1.407   2.982  0.00  0.00     0.418 HD
ENDBRANCH   4   7
TORSDOF 1
ENDMDL
