MODEL 1
REMARK minimizedAffinity 2.98691177
REMARK minimizedRMSD -1
REMARK  1 active torsions:
REMARK  status: ('A' for Active; 'I' for Inactive)
REMARK    1  A    between atoms: C3_4  and  O_7 
ROOT
ATOM      1  C   UNL d   1       3.193   2.292   0.498  0.00  0.00    -0.033 A 
ATOM      2  C1  UNL d   1       2.289   1.268   0.210  0.00  0.00     0.039 A 
ATOM      3  C2  UNL d   1       0.921   1.538   0.150  0.00  0.00    -0.080 A 
ATOM      4  C3  UNL d   1       0.470   2.836   0.377  0.00  0.00     0.150 A 
ATOM      5  C4  UNL d   1       1.366   3.862   0.660  0.00  0.00    -0.007 A 
ATOM      6  C5  UNL d   1       2.732   3.590   0.721  0.00  0.00     0.039 A 
ENDROOT
BRANCH   4   7
ATOM      7  O   UNL d   1      -0.856   3.147   0.333  0.00  0.00    -0.526 OA
ATOM      8  H5  UNL d   1      -1.358   2.334   0.156  0.00  0.00     0.418 HD
ENDBRANCH   4   7
TORSDOF 1
ENDMDL
