MODEL 1
REMARK minimizedAffinity -2.84442186
REMARK minimizedRMSD -1
REMARK  0 active torsions:
REMARK  status: ('A' for Active; 'I' for Inactive)
ROOT
ATOM      1  O1  BZF d   1       2.434   0.570  -1.365  0.00  0.00    -0.204 OA
ATOM      2  C2  BZF d   1       3.046  -0.667  -1.305  0.00  0.00     0.174 A 
ATOM      3  C3  BZF d   1       2.162  -1.620  -0.944  0.00  0.00    -0.012 A 
ATOM      4  C3A BZF d   1       0.901  -0.950  -0.857  0.00  0.00    -0.107 A 
ATOM      5  C4  BZF d   1      -0.364  -1.366  -0.555  0.00  0.00     0.055 A 
ATOM      6  C5  BZF d   1      -1.363  -0.447  -0.486  0.00  0.00    -0.016 A 
ATOM      7  C6  BZF d   1      -1.131   0.895  -0.706  0.00  0.00     0.022 A 
ATOM      8  C7  BZF d   1       0.106   1.354  -1.014  0.00  0.00     0.029 A 
ATOM      9  C7A BZF d   1       1.111   0.424  -1.117  0.00  0.00     0.058 A 
ENDROOT
TORSDOF 0
ENDMDL
