MODEL 1
REMARK minimizedAffinity -4.8000946
REMARK minimizedRMSD -1
REMARK  0 active torsions:
REMARK  status: ('A' for Active; 'I' for Inactive)
ROOT
ATOM      1  O1  BZF d   1      -0.770  -1.100  -0.534  0.00  0.00    -0.204 OA
ATOM      2  C2  BZF d   1      -1.363  -0.161   0.288  0.00  0.00     0.174 A 
ATOM      3  C3  BZF d   1      -0.457   0.743   0.713  0.00  0.00    -0.012 A 
ATOM      4  C3A BZF d   1       0.760   0.399   0.046  0.00  0.00    -0.107 A 
ATOM      5  C4  BZF d   1       2.016   0.936   0.046  0.00  0.00     0.055 A 
ATOM      6  C5  BZF d   1       2.999   0.317  -0.659  0.00  0.00    -0.016 A 
ATOM      7  C6  BZF d   1       2.764  -0.841  -1.370  0.00  0.00     0.022 A 
ATOM      8  C7  BZF d   1       1.534  -1.409  -1.405  0.00  0.00     0.029 A 
ATOM      9  C7A BZF d   1       0.530  -0.768  -0.720  0.00  0.00     0.058 A 
ENDROOT
TORSDOF 0
ENDMDL
