MODEL 1
REMARK minimizedAffinity 1.48731196
REMARK minimizedRMSD -1
REMARK  0 active torsions:
REMARK  status: ('A' for Active; 'I' for Inactive)
ROOT
ATOM      1  O1  BZF d   1       1.204   0.770  -1.487  0.00  0.00    -0.204 OA
ATOM      2  C2  BZF d   1       2.082  -0.157  -2.013  0.00  0.00     0.174 A 
ATOM      3  C3  BZF d   1       1.906  -1.364  -1.437  0.00  0.00    -0.012 A 
ATOM      4  C3A BZF d   1       0.790  -1.201  -0.557  0.00  0.00    -0.107 A 
ATOM      5  C4  BZF d   1       0.125  -2.049   0.283  0.00  0.00     0.055 A 
ATOM      6  C5  BZF d   1      -0.877  -1.558   1.058  0.00  0.00    -0.016 A 
ATOM      7  C6  BZF d   1      -1.236  -0.227   1.024  0.00  0.00     0.022 A 
ATOM      8  C7  BZF d   1      -0.610   0.651   0.204  0.00  0.00     0.029 A 
ATOM      9  C7A BZF d   1       0.382   0.151  -0.606  0.00  0.00     0.058 A 
ENDROOT
TORSDOF 0
ENDMDL
