MODEL 1
REMARK minimizedAffinity -5.17847824
REMARK minimizedRMSD -1
REMARK  0 active torsions:
REMARK  status: ('A' for Active; 'I' for Inactive)
ROOT
ATOM      1  O1  BZF d   1       2.393   0.730  -1.147  0.00  0.00    -0.204 OA
ATOM      2  C2  BZF d   1       3.056  -0.472  -1.299  0.00  0.00     0.174 A 
ATOM      3  C3  BZF d   1       2.268  -1.502  -0.929  0.00  0.00    -0.012 A 
ATOM      4  C3A BZF d   1       1.005  -0.914  -0.607  0.00  0.00    -0.107 A 
ATOM      5  C4  BZF d   1      -0.190  -1.425  -0.188  0.00  0.00     0.055 A 
ATOM      6  C5  BZF d   1      -1.206  -0.573   0.109  0.00  0.00    -0.016 A 
ATOM      7  C6  BZF d   1      -1.061   0.795   0.003  0.00  0.00     0.022 A 
ATOM      8  C7  BZF d   1       0.104   1.349  -0.413  0.00  0.00     0.029 A 
ATOM      9  C7A BZF d   1       1.122   0.489  -0.745  0.00  0.00     0.058 A 
ENDROOT
TORSDOF 0
ENDMDL
