MODEL 1
REMARK minimizedAffinity -4.97841358
REMARK minimizedRMSD -1
REMARK  0 active torsions:
REMARK  status: ('A' for Active; 'I' for Inactive)
ROOT
ATOM      1  O1  BZF d   1      -1.190   0.976  -0.833  0.00  0.00    -0.204 OA
ATOM      2  C2  BZF d   1      -0.883   1.916  -1.798  0.00  0.00     0.174 A 
ATOM      3  C3  BZF d   1       0.344   1.693  -2.310  0.00  0.00    -0.012 A 
ATOM      4  C3A BZF d   1       0.798   0.487  -1.688  0.00  0.00    -0.107 A 
ATOM      5  C4  BZF d   1       1.940  -0.255  -1.799  0.00  0.00     0.055 A 
ATOM      6  C5  BZF d   1       2.103  -1.340  -0.997  0.00  0.00    -0.016 A 
ATOM      7  C6  BZF d   1       1.149  -1.709  -0.072  0.00  0.00     0.022 A 
ATOM      8  C7  BZF d   1      -0.002  -1.007   0.071  0.00  0.00     0.029 A 
ATOM      9  C7A BZF d   1      -0.185   0.070  -0.761  0.00  0.00     0.058 A 
ENDROOT
TORSDOF 0
ENDMDL
