MODEL 1
REMARK minimizedAffinity -4.44558001
REMARK minimizedRMSD -1
REMARK  0 active torsions:
REMARK  status: ('A' for Active; 'I' for Inactive)
ROOT
ATOM      1  O1  BZF d   1       1.965  -1.812  -1.106  0.00  0.00    -0.204 OA
ATOM      2  C2  BZF d   1       2.983  -0.939  -1.440  0.00  0.00     0.174 A 
ATOM      3  C3  BZF d   1       2.588   0.340  -1.275  0.00  0.00    -0.012 A 
ATOM      4  C3A BZF d   1       1.271   0.259  -0.721  0.00  0.00    -0.107 A 
ATOM      5  C4  BZF d   1       0.361   1.196  -0.323  0.00  0.00     0.055 A 
ATOM      6  C5  BZF d   1      -0.862   0.789   0.105  0.00  0.00    -0.016 A 
ATOM      7  C6  BZF d   1      -1.210  -0.546   0.144  0.00  0.00     0.022 A 
ATOM      8  C7  BZF d   1      -0.340  -1.512  -0.236  0.00  0.00     0.029 A 
ATOM      9  C7A BZF d   1       0.909  -1.105  -0.639  0.00  0.00     0.058 A 
ENDROOT
TORSDOF 0
ENDMDL
