MODEL 1
REMARK minimizedAffinity -6.30390453
REMARK minimizedRMSD -1
REMARK  0 active torsions:
REMARK  status: ('A' for Active; 'I' for Inactive)
ROOT
ATOM      1  O1  BZF d   1      -0.768   0.919  -0.452  0.00  0.00    -0.204 OA
ATOM      2  C2  BZF d   1      -1.542  -0.109   0.050  0.00  0.00     0.174 A 
ATOM      3  C3  BZF d   1      -0.827  -1.249   0.136  0.00  0.00    -0.012 A 
ATOM      4  C3A BZF d   1       0.502  -0.889  -0.256  0.00  0.00    -0.107 A 
ATOM      5  C4  BZF d   1       1.671  -1.587  -0.360  0.00  0.00     0.055 A 
ATOM      6  C5  BZF d   1       2.775  -0.958  -0.843  0.00  0.00    -0.016 A 
ATOM      7  C6  BZF d   1       2.744   0.364  -1.235  0.00  0.00     0.022 A 
ATOM      8  C7  BZF d   1       1.608   1.099  -1.146  0.00  0.00     0.029 A 
ATOM      9  C7A BZF d   1       0.500   0.475  -0.628  0.00  0.00     0.058 A 
ENDROOT
TORSDOF 0
ENDMDL
