MODEL 1
REMARK minimizedAffinity -4.54320383
REMARK minimizedRMSD -1
REMARK  0 active torsions:
REMARK  status: ('A' for Active; 'I' for Inactive)
ROOT
ATOM      1  O1  BZF d   1      -1.292   0.947  -0.532  0.00  0.00    -0.204 OA
ATOM      2  C2  BZF d   1      -2.025  -0.169  -0.178  0.00  0.00     0.174 A 
ATOM      3  C3  BZF d   1      -1.252  -1.274  -0.195  0.00  0.00    -0.012 A 
ATOM      4  C3A BZF d   1       0.066  -0.807  -0.494  0.00  0.00    -0.107 A 
ATOM      5  C4  BZF d   1       1.274  -1.429  -0.633  0.00  0.00     0.055 A 
ATOM      6  C5  BZF d   1       2.357  -0.695  -1.001  0.00  0.00    -0.016 A 
ATOM      7  C6  BZF d   1       2.267   0.660  -1.243  0.00  0.00     0.022 A 
ATOM      8  C7  BZF d   1       1.092   1.322  -1.113  0.00  0.00     0.029 A 
ATOM      9  C7A BZF d   1       0.002   0.589  -0.710  0.00  0.00     0.058 A 
ENDROOT
TORSDOF 0
ENDMDL
