MODEL 1
REMARK minimizedAffinity -5.93558073
REMARK minimizedRMSD -1
REMARK  0 active torsions:
REMARK  status: ('A' for Active; 'I' for Inactive)
ROOT
ATOM      1  O1  BZF d   1       2.428  -1.535  -1.077  0.00  0.00    -0.204 OA
ATOM      2  C2  BZF d   1       3.171  -0.396  -1.319  0.00  0.00     0.174 A 
ATOM      3  C3  BZF d   1       2.422   0.712  -1.138  0.00  0.00    -0.012 A 
ATOM      4  C3A BZF d   1       1.156   0.237  -0.670  0.00  0.00    -0.107 A 
ATOM      5  C4  BZF d   1      -0.001   0.860  -0.300  0.00  0.00     0.055 A 
ATOM      6  C5  BZF d   1      -1.079   0.105   0.039  0.00  0.00    -0.016 A 
ATOM      7  C6  BZF d   1      -1.036  -1.274   0.013  0.00  0.00     0.022 A 
ATOM      8  C7  BZF d   1       0.091  -1.937  -0.343  0.00  0.00     0.029 A 
ATOM      9  C7A BZF d   1       1.192  -1.176  -0.654  0.00  0.00     0.058 A 
ENDROOT
TORSDOF 0
ENDMDL
