MODEL 1
REMARK minimizedAffinity -2.54253793
REMARK minimizedRMSD -1
REMARK  0 active torsions:
REMARK  status: ('A' for Active; 'I' for Inactive)
ROOT
ATOM      1  O1  BZF d   1       2.764  -0.021  -0.799  0.00  0.00    -0.204 OA
ATOM      2  C2  BZF d   1       3.009  -1.075  -1.659  0.00  0.00     0.174 A 
ATOM      3  C3  BZF d   1       1.872  -1.750  -1.924  0.00  0.00    -0.012 A 
ATOM      4  C3A BZF d   1       0.837  -1.020  -1.258  0.00  0.00    -0.107 A 
ATOM      5  C4  BZF d   1      -0.515  -1.186  -1.161  0.00  0.00     0.055 A 
ATOM      6  C5  BZF d   1      -1.229  -0.340  -0.372  0.00  0.00    -0.016 A 
ATOM      7  C6  BZF d   1      -0.623   0.677   0.337  0.00  0.00     0.022 A 
ATOM      8  C7  BZF d   1       0.714   0.884   0.268  0.00  0.00     0.029 A 
ATOM      9  C7A BZF d   1       1.434   0.051  -0.554  0.00  0.00     0.058 A 
ENDROOT
TORSDOF 0
ENDMDL
