MODEL 1
REMARK minimizedAffinity -4.83903408
REMARK minimizedRMSD -1
REMARK  0 active torsions:
REMARK  status: ('A' for Active; 'I' for Inactive)
ROOT
ATOM      1  O1  BZF d   1       2.564   0.711  -1.071  0.00  0.00    -0.204 OA
ATOM      2  C2  BZF d   1       3.226  -0.467  -1.358  0.00  0.00     0.174 A 
ATOM      3  C3  BZF d   1       2.480  -1.534  -1.006  0.00  0.00    -0.012 A 
ATOM      4  C3A BZF d   1       1.238  -0.989  -0.549  0.00  0.00    -0.107 A 
ATOM      5  C4  BZF d   1       0.083  -1.549  -0.081  0.00  0.00     0.055 A 
ATOM      6  C5  BZF d   1      -0.917  -0.736   0.351  0.00  0.00    -0.016 A 
ATOM      7  C6  BZF d   1      -0.794   0.638   0.334  0.00  0.00     0.022 A 
ATOM      8  C7  BZF d   1       0.331   1.239  -0.126  0.00  0.00     0.029 A 
ATOM      9  C7A BZF d   1       1.330   0.421  -0.594  0.00  0.00     0.058 A 
ENDROOT
TORSDOF 0
ENDMDL
