MODEL 1
REMARK minimizedAffinity -4.25707102
REMARK minimizedRMSD -1
REMARK  0 active torsions:
REMARK  status: ('A' for Active; 'I' for Inactive)
ROOT
ATOM      1  O1  BZF d   1       2.484  -1.692  -0.759  0.00  0.00    -0.204 OA
ATOM      2  C2  BZF d   1       3.234  -0.765  -1.457  0.00  0.00     0.174 A 
ATOM      3  C3  BZF d   1       2.501   0.334  -1.732  0.00  0.00    -0.012 A 
ATOM      4  C3A BZF d   1       1.241   0.116  -1.090  0.00  0.00    -0.107 A 
ATOM      5  C4  BZF d   1       0.099   0.858  -0.988  0.00  0.00     0.055 A 
ATOM      6  C5  BZF d   1      -0.978   0.327  -0.352  0.00  0.00    -0.016 A 
ATOM      7  C6  BZF d   1      -0.951  -0.942   0.187  0.00  0.00     0.022 A 
ATOM      8  C7  BZF d   1       0.161  -1.714   0.114  0.00  0.00     0.029 A 
ATOM      9  C7A BZF d   1       1.262  -1.168  -0.498  0.00  0.00     0.058 A 
ENDROOT
TORSDOF 0
ENDMDL
