MODEL 1
REMARK minimizedAffinity -4.1768322
REMARK minimizedRMSD -1
REMARK  0 active torsions:
REMARK  status: ('A' for Active; 'I' for Inactive)
ROOT
ATOM      1  O1  BZF d   1       2.396  -1.959  -1.108  0.00  0.00    -0.204 OA
ATOM      2  C2  BZF d   1       3.148  -0.891  -1.557  0.00  0.00     0.174 A 
ATOM      3  C3  BZF d   1       2.468   0.265  -1.417  0.00  0.00    -0.012 A 
ATOM      4  C3A BZF d   1       1.249  -0.092  -0.759  0.00  0.00    -0.107 A 
ATOM      5  C4  BZF d   1       0.168   0.624  -0.332  0.00  0.00     0.055 A 
ATOM      6  C5  BZF d   1      -0.891  -0.036   0.207  0.00  0.00    -0.016 A 
ATOM      7  C6  BZF d   1      -0.904  -1.410   0.330  0.00  0.00     0.022 A 
ATOM      8  C7  BZF d   1       0.148  -2.163  -0.075  0.00  0.00     0.029 A 
ATOM      9  C7A BZF d   1       1.233  -1.496  -0.590  0.00  0.00     0.058 A 
ENDROOT
TORSDOF 0
ENDMDL
