MODEL 1
REMARK minimizedAffinity -5.24802732
REMARK minimizedRMSD -1
REMARK  0 active torsions:
REMARK  status: ('A' for Active; 'I' for Inactive)
ROOT
ATOM      1  O1  BZF d   1       3.018  -1.190  -0.895  0.00  0.00    -0.204 OA
ATOM      2  C2  BZF d   1       3.435   0.121  -1.020  0.00  0.00     0.174 A 
ATOM      3  C3  BZF d   1       2.381   0.962  -1.011  0.00  0.00    -0.012 A 
ATOM      4  C3A BZF d   1       1.239   0.131  -0.778  0.00  0.00    -0.107 A 
ATOM      5  C4  BZF d   1      -0.096   0.386  -0.648  0.00  0.00     0.055 A 
ATOM      6  C5  BZF d   1      -0.956  -0.657  -0.500  0.00  0.00    -0.016 A 
ATOM      7  C6  BZF d   1      -0.516  -1.964  -0.484  0.00  0.00     0.022 A 
ATOM      8  C7  BZF d   1       0.800  -2.266  -0.604  0.00  0.00     0.029 A 
ATOM      9  C7A BZF d   1       1.675  -1.213  -0.721  0.00  0.00     0.058 A 
ENDROOT
TORSDOF 0
ENDMDL
