MODEL 1
REMARK minimizedAffinity -3.81875443
REMARK minimizedRMSD -1
REMARK  0 active torsions:
REMARK  status: ('A' for Active; 'I' for Inactive)
ROOT
ATOM      1  O1  BZF d   1       0.947  -1.602   0.476  0.00  0.00    -0.204 OA
ATOM      2  C2  BZF d   1       1.909  -1.687  -0.512  0.00  0.00     0.174 A 
ATOM      3  C3  BZF d   1       1.702  -0.753  -1.463  0.00  0.00    -0.012 A 
ATOM      4  C3A BZF d   1       0.593   0.020  -0.996  0.00  0.00    -0.107 A 
ATOM      5  C4  BZF d   1      -0.074   1.102  -1.495  0.00  0.00     0.055 A 
ATOM      6  C5  BZF d   1      -1.161   1.573  -0.829  0.00  0.00    -0.016 A 
ATOM      7  C6  BZF d   1      -1.612   0.983   0.334  0.00  0.00     0.022 A 
ATOM      8  C7  BZF d   1      -0.981  -0.089   0.870  0.00  0.00     0.029 A 
ATOM      9  C7A BZF d   1       0.138  -0.547   0.218  0.00  0.00     0.058 A 
ENDROOT
TORSDOF 0
ENDMDL
