MODEL 1
REMARK minimizedAffinity -4.3287487
REMARK minimizedRMSD -1
REMARK  0 active torsions:
REMARK  status: ('A' for Active; 'I' for Inactive)
ROOT
ATOM      1  O1  BZF d   1      -2.653   0.370   1.884  0.00  0.00    -0.204 OA
ATOM      2  C2  BZF d   1      -2.302   1.031   3.045  0.00  0.00     0.174 A 
ATOM      3  C3  BZF d   1      -0.979   1.292   3.065  0.00  0.00    -0.012 A 
ATOM      4  C3A BZF d   1      -0.487   0.842   1.799  0.00  0.00    -0.107 A 
ATOM      5  C4  BZF d   1       0.748   0.844   1.217  0.00  0.00     0.055 A 
ATOM      6  C5  BZF d   1       0.906   0.264  -0.002  0.00  0.00    -0.016 A 
ATOM      7  C6  BZF d   1      -0.148  -0.332  -0.663  0.00  0.00     0.022 A 
ATOM      8  C7  BZF d   1      -1.393  -0.354  -0.129  0.00  0.00     0.029 A 
ATOM      9  C7A BZF d   1      -1.562   0.261   1.088  0.00  0.00     0.058 A 
ENDROOT
TORSDOF 0
ENDMDL
