MODEL 1
REMARK minimizedAffinity -4.62173367
REMARK minimizedRMSD -1
REMARK  0 active torsions:
REMARK  status: ('A' for Active; 'I' for Inactive)
ROOT
ATOM      1  O1  BZF d   1       2.211   0.658  -1.628  0.00  0.00    -0.204 OA
ATOM      2  C2  BZF d   1       2.962  -0.500  -1.691  0.00  0.00     0.174 A 
ATOM      3  C3  BZF d   1       2.369  -1.494  -0.999  0.00  0.00    -0.012 A 
ATOM      4  C3A BZF d   1       1.126  -0.947  -0.547  0.00  0.00    -0.107 A 
ATOM      5  C4  BZF d   1       0.087  -1.454   0.180  0.00  0.00     0.055 A 
ATOM      6  C5  BZF d   1      -0.947  -0.637   0.513  0.00  0.00    -0.016 A 
ATOM      7  C6  BZF d   1      -0.971   0.691   0.141  0.00  0.00     0.022 A 
ATOM      8  C7  BZF d   1       0.035   1.238  -0.584  0.00  0.00     0.029 A 
ATOM      9  C7A BZF d   1       1.065   0.406  -0.950  0.00  0.00     0.058 A 
ENDROOT
TORSDOF 0
ENDMDL
