MODEL 1
REMARK minimizedAffinity -4.63422632
REMARK minimizedRMSD -1
REMARK  0 active torsions:
REMARK  status: ('A' for Active; 'I' for Inactive)
ROOT
ATOM      1  C   UNL d   1      -2.223  -3.023  -5.664  0.00  0.00     0.078 C 
ATOM      2  C1  UNL d   1      -3.046  -1.771  -5.698  0.00  0.00    -0.077 A 
ATOM      3  C2  UNL d   1      -4.429  -1.822  -5.912  0.00  0.00    -0.001 A 
ATOM      4  C3  UNL d   1      -5.182  -0.648  -5.950  0.00  0.00     0.003 A 
ATOM      5  C4  UNL d   1      -4.561   0.587  -5.776  0.00  0.00    -0.005 A 
ATOM      6  C5  UNL d   1      -3.185   0.649  -5.565  0.00  0.00     0.003 A 
ATOM      7  C6  UNL d   1      -2.430  -0.525  -5.526  0.00  0.00    -0.001 A 
ENDROOT
TORSDOF 0
ENDMDL
