MODEL 1
REMARK minimizedAffinity 0.0827620029
REMARK minimizedRMSD -1
REMARK  0 active torsions:
REMARK  status: ('A' for Active; 'I' for Inactive)
ROOT
ATOM      1  C   UNL d   1       3.798  -0.841  -2.238  0.00  0.00     0.078 C 
ATOM      2  C1  UNL d   1       2.621  -0.256  -1.515  0.00  0.00    -0.077 A 
ATOM      3  C2  UNL d   1       2.428   1.130  -1.454  0.00  0.00    -0.001 A 
ATOM      4  C3  UNL d   1       1.334   1.660  -0.769  0.00  0.00     0.003 A 
ATOM      5  C4  UNL d   1       0.425   0.813  -0.138  0.00  0.00    -0.005 A 
ATOM      6  C5  UNL d   1       0.610  -0.567  -0.192  0.00  0.00     0.003 A 
ATOM      7  C6  UNL d   1       1.704  -1.100  -0.877  0.00  0.00    -0.001 A 
ENDROOT
TORSDOF 0
ENDMDL
