MODEL 1
REMARK minimizedAffinity -4.80371714
REMARK minimizedRMSD -1
REMARK  0 active torsions:
REMARK  status: ('A' for Active; 'I' for Inactive)
ROOT
ATOM      1  C   UNL d   1      -0.551  -5.258  -5.274  0.00  0.00     0.078 C 
ATOM      2  C1  UNL d   1      -1.808  -4.459  -5.093  0.00  0.00    -0.077 A 
ATOM      3  C2  UNL d   1      -3.000  -4.839  -5.721  0.00  0.00    -0.001 A 
ATOM      4  C3  UNL d   1      -4.160  -4.080  -5.552  0.00  0.00     0.003 A 
ATOM      5  C4  UNL d   1      -4.138  -2.937  -4.756  0.00  0.00    -0.005 A 
ATOM      6  C5  UNL d   1      -2.955  -2.550  -4.129  0.00  0.00     0.003 A 
ATOM      7  C6  UNL d   1      -1.795  -3.307  -4.297  0.00  0.00    -0.001 A 
ENDROOT
TORSDOF 0
ENDMDL
