MODEL 1
REMARK minimizedAffinity -2.26491833
REMARK minimizedRMSD -1
REMARK  0 active torsions:
REMARK  status: ('A' for Active; 'I' for Inactive)
ROOT
ATOM      1  C   UNL d   1       1.483   1.281   1.297  0.00  0.00     0.078 C 
ATOM      2  C1  UNL d   1       2.170   2.368   2.069  0.00  0.00    -0.077 A 
ATOM      3  C2  UNL d   1       3.335   2.108   2.801  0.00  0.00    -0.001 A 
ATOM      4  C3  UNL d   1       3.958   3.127   3.522  0.00  0.00     0.003 A 
ATOM      5  C4  UNL d   1       3.423   4.414   3.520  0.00  0.00    -0.005 A 
ATOM      6  C5  UNL d   1       2.263   4.682   2.797  0.00  0.00     0.003 A 
ATOM      7  C6  UNL d   1       1.638   3.664   2.074  0.00  0.00    -0.001 A 
ENDROOT
TORSDOF 0
ENDMDL
