MODEL 1
REMARK minimizedAffinity -1.65869069
REMARK minimizedRMSD -1
REMARK  0 active torsions:
REMARK  status: ('A' for Active; 'I' for Inactive)
ROOT
ATOM      1  C   UNL d   1      -1.486   4.597  -5.770  0.00  0.00     0.078 C 
ATOM      2  C1  UNL d   1      -2.966   4.375  -5.857  0.00  0.00    -0.077 A 
ATOM      3  C2  UNL d   1      -3.856   5.455  -5.914  0.00  0.00    -0.001 A 
ATOM      4  C3  UNL d   1      -5.232   5.233  -5.985  0.00  0.00     0.003 A 
ATOM      5  C4  UNL d   1      -5.731   3.932  -5.999  0.00  0.00    -0.005 A 
ATOM      6  C5  UNL d   1      -4.854   2.851  -5.941  0.00  0.00     0.003 A 
ATOM      7  C6  UNL d   1      -3.477   3.071  -5.870  0.00  0.00    -0.001 A 
ENDROOT
TORSDOF 0
ENDMDL
