MODEL 1
REMARK minimizedAffinity -3.56467009
REMARK minimizedRMSD -1
REMARK  0 active torsions:
REMARK  status: ('A' for Active; 'I' for Inactive)
ROOT
ATOM      1  C   UNL d   1      -5.255   1.893  -5.932  0.00  0.00     0.078 C 
ATOM      2  C1  UNL d   1      -4.801   3.321  -5.889  0.00  0.00    -0.077 A 
ATOM      3  C2  UNL d   1      -3.443   3.643  -5.775  0.00  0.00    -0.001 A 
ATOM      4  C3  UNL d   1      -3.035   4.977  -5.726  0.00  0.00     0.003 A 
ATOM      5  C4  UNL d   1      -3.979   6.000  -5.788  0.00  0.00    -0.005 A 
ATOM      6  C5  UNL d   1      -5.333   5.690  -5.898  0.00  0.00     0.003 A 
ATOM      7  C6  UNL d   1      -5.742   4.356  -5.948  0.00  0.00    -0.001 A 
ENDROOT
TORSDOF 0
ENDMDL
