MODEL 1
REMARK minimizedAffinity -2.50827885
REMARK minimizedRMSD -1
REMARK  0 active torsions:
REMARK  status: ('A' for Active; 'I' for Inactive)
ROOT
ATOM      1  C   UNL d   1      -2.139   5.588  -5.896  0.00  0.00     0.078 C 
ATOM      2  C1  UNL d   1      -3.480   4.920  -5.821  0.00  0.00    -0.077 A 
ATOM      3  C2  UNL d   1      -3.607   3.537  -6.000  0.00  0.00    -0.001 A 
ATOM      4  C3  UNL d   1      -4.862   2.930  -5.937  0.00  0.00     0.003 A 
ATOM      5  C4  UNL d   1      -6.000   3.697  -5.696  0.00  0.00    -0.005 A 
ATOM      6  C5  UNL d   1      -5.883   5.075  -5.519  0.00  0.00     0.003 A 
ATOM      7  C6  UNL d   1      -4.629   5.684  -5.581  0.00  0.00    -0.001 A 
ENDROOT
TORSDOF 0
ENDMDL
