MODEL 1
REMARK minimizedAffinity 1.9847827
REMARK minimizedRMSD -1
REMARK  0 active torsions:
REMARK  status: ('A' for Active; 'I' for Inactive)
ROOT
ATOM      1  C   UNL d   1      -4.849  -3.371  -5.434  0.00  0.00     0.078 C 
ATOM      2  C1  UNL d   1      -3.460  -3.406  -4.868  0.00  0.00    -0.077 A 
ATOM      3  C2  UNL d   1      -2.746  -2.225  -4.636  0.00  0.00    -0.001 A 
ATOM      4  C3  UNL d   1      -1.450  -2.273  -4.119  0.00  0.00     0.003 A 
ATOM      5  C4  UNL d   1      -0.858  -3.501  -3.831  0.00  0.00    -0.005 A 
ATOM      6  C5  UNL d   1      -1.560  -4.682  -4.060  0.00  0.00     0.003 A 
ATOM      7  C6  UNL d   1      -2.856  -4.636  -4.577  0.00  0.00    -0.001 A 
ENDROOT
TORSDOF 0
ENDMDL
