MODEL 1
REMARK minimizedAffinity -2.51251388
REMARK minimizedRMSD -1
REMARK  0 active torsions:
REMARK  status: ('A' for Active; 'I' for Inactive)
ROOT
ATOM      1  C   UNL d   1      -5.340   2.192  -5.995  0.00  0.00     0.078 C 
ATOM      2  C1  UNL d   1      -4.605   3.499  -5.990  0.00  0.00    -0.077 A 
ATOM      3  C2  UNL d   1      -3.205   3.539  -5.962  0.00  0.00    -0.001 A 
ATOM      4  C3  UNL d   1      -2.534   4.763  -5.947  0.00  0.00     0.003 A 
ATOM      5  C4  UNL d   1      -3.254   5.956  -5.959  0.00  0.00    -0.005 A 
ATOM      6  C5  UNL d   1      -4.647   5.926  -5.985  0.00  0.00     0.003 A 
ATOM      7  C6  UNL d   1      -5.320   4.703  -6.000  0.00  0.00    -0.001 A 
ENDROOT
TORSDOF 0
ENDMDL
