MODEL 1
REMARK minimizedAffinity -3.35215187
REMARK minimizedRMSD -1
REMARK  0 active torsions:
REMARK  status: ('A' for Active; 'I' for Inactive)
ROOT
ATOM      1  C   UNL d   1      -1.806  -2.392  -3.324  0.00  0.00     0.078 C 
ATOM      2  C1  UNL d   1      -2.832  -3.001  -4.233  0.00  0.00    -0.077 A 
ATOM      3  C2  UNL d   1      -3.891  -2.238  -4.738  0.00  0.00    -0.001 A 
ATOM      4  C3  UNL d   1      -4.844  -2.821  -5.576  0.00  0.00     0.003 A 
ATOM      5  C4  UNL d   1      -4.747  -4.169  -5.914  0.00  0.00    -0.005 A 
ATOM      6  C5  UNL d   1      -3.698  -4.937  -5.413  0.00  0.00     0.003 A 
ATOM      7  C6  UNL d   1      -2.744  -4.356  -4.576  0.00  0.00    -0.001 A 
ENDROOT
TORSDOF 0
ENDMDL
