MODEL 1
REMARK minimizedAffinity -2.85025907
REMARK minimizedRMSD -1
REMARK  0 active torsions:
REMARK  status: ('A' for Active; 'I' for Inactive)
ROOT
ATOM      1  C   UNL d   1      -5.380   1.856  -6.000  0.00  0.00     0.078 C 
ATOM      2  C1  UNL d   1      -4.969   3.297  -5.963  0.00  0.00    -0.077 A 
ATOM      3  C2  UNL d   1      -3.619   3.661  -5.881  0.00  0.00    -0.001 A 
ATOM      4  C3  UNL d   1      -3.252   5.007  -5.838  0.00  0.00     0.003 A 
ATOM      5  C4  UNL d   1      -4.229   6.000  -5.875  0.00  0.00    -0.005 A 
ATOM      6  C5  UNL d   1      -5.575   5.648  -5.954  0.00  0.00     0.003 A 
ATOM      7  C6  UNL d   1      -5.944   4.302  -5.997  0.00  0.00    -0.001 A 
ENDROOT
TORSDOF 0
ENDMDL
