MODEL 1
REMARK minimizedAffinity -2.5953424
REMARK minimizedRMSD -1
REMARK  0 active torsions:
REMARK  status: ('A' for Active; 'I' for Inactive)
ROOT
ATOM      1  C   UNL d   1      -1.876  -2.800  -3.878  0.00  0.00     0.078 C 
ATOM      2  C1  UNL d   1      -3.081  -3.294  -4.622  0.00  0.00    -0.077 A 
ATOM      3  C2  UNL d   1      -4.248  -2.523  -4.696  0.00  0.00    -0.001 A 
ATOM      4  C3  UNL d   1      -5.366  -2.999  -5.383  0.00  0.00     0.003 A 
ATOM      5  C4  UNL d   1      -5.329  -4.248  -6.000  0.00  0.00    -0.005 A 
ATOM      6  C5  UNL d   1      -4.173  -5.023  -5.930  0.00  0.00     0.003 A 
ATOM      7  C6  UNL d   1      -3.054  -4.548  -5.243  0.00  0.00    -0.001 A 
ENDROOT
TORSDOF 0
ENDMDL
