MODEL 1
REMARK minimizedAffinity -3.48032236
REMARK minimizedRMSD -1
REMARK  0 active torsions:
REMARK  status: ('A' for Active; 'I' for Inactive)
ROOT
ATOM      1  C   UNL d   1      -4.679  -0.276  -5.984  0.00  0.00     0.078 C 
ATOM      2  C1  UNL d   1      -4.427  -1.750  -5.879  0.00  0.00    -0.077 A 
ATOM      3  C2  UNL d   1      -5.474  -2.672  -6.000  0.00  0.00    -0.001 A 
ATOM      4  C3  UNL d   1      -5.226  -4.041  -5.890  0.00  0.00     0.003 A 
ATOM      5  C4  UNL d   1      -3.932  -4.501  -5.657  0.00  0.00    -0.005 A 
ATOM      6  C5  UNL d   1      -2.883  -3.592  -5.532  0.00  0.00     0.003 A 
ATOM      7  C6  UNL d   1      -3.129  -2.222  -5.642  0.00  0.00    -0.001 A 
ENDROOT
TORSDOF 0
ENDMDL
