MODEL 1
REMARK minimizedAffinity -1.17568469
REMARK minimizedRMSD -1
REMARK  0 active torsions:
REMARK  status: ('A' for Active; 'I' for Inactive)
ROOT
ATOM      1  C   UNL d   1      -5.614   1.700  -5.987  0.00  0.00     0.078 C 
ATOM      2  C1  UNL d   1      -4.956   3.048  -5.998  0.00  0.00    -0.077 A 
ATOM      3  C2  UNL d   1      -3.561   3.169  -5.998  0.00  0.00    -0.001 A 
ATOM      4  C3  UNL d   1      -2.963   4.430  -6.000  0.00  0.00     0.003 A 
ATOM      5  C4  UNL d   1      -3.751   5.579  -5.999  0.00  0.00    -0.005 A 
ATOM      6  C5  UNL d   1      -5.140   5.468  -5.997  0.00  0.00     0.003 A 
ATOM      7  C6  UNL d   1      -5.741   4.208  -5.996  0.00  0.00    -0.001 A 
ENDROOT
TORSDOF 0
ENDMDL
