MODEL 1
REMARK minimizedAffinity -2.39741445
REMARK minimizedRMSD -1
REMARK  0 active torsions:
REMARK  status: ('A' for Active; 'I' for Inactive)
ROOT
ATOM      1  C   UNL d   1      -2.565   5.999  -5.900  0.00  0.00     0.078 C 
ATOM      2  C1  UNL d   1      -3.651   4.966  -5.915  0.00  0.00    -0.077 A 
ATOM      3  C2  UNL d   1      -5.000   5.335  -5.838  0.00  0.00    -0.001 A 
ATOM      4  C3  UNL d   1      -6.000   4.362  -5.844  0.00  0.00     0.003 A 
ATOM      5  C4  UNL d   1      -5.662   3.012  -5.925  0.00  0.00    -0.005 A 
ATOM      6  C5  UNL d   1      -4.323   2.635  -6.000  0.00  0.00     0.003 A 
ATOM      7  C6  UNL d   1      -3.322   3.607  -5.994  0.00  0.00    -0.001 A 
ENDROOT
TORSDOF 0
ENDMDL
