MODEL 1
REMARK minimizedAffinity -2.45572948
REMARK minimizedRMSD -1
REMARK  0 active torsions:
REMARK  status: ('A' for Active; 'I' for Inactive)
ROOT
ATOM      1  C   UNL d   1      -1.697   4.139  -5.863  0.00  0.00     0.078 C 
ATOM      2  C1  UNL d   1      -3.195   4.083  -5.901  0.00  0.00    -0.077 A 
ATOM      3  C2  UNL d   1      -3.870   2.856  -5.897  0.00  0.00    -0.001 A 
ATOM      4  C3  UNL d   1      -5.265   2.818  -5.943  0.00  0.00     0.003 A 
ATOM      5  C4  UNL d   1      -5.996   4.004  -5.993  0.00  0.00    -0.005 A 
ATOM      6  C5  UNL d   1      -5.332   5.229  -5.999  0.00  0.00     0.003 A 
ATOM      7  C6  UNL d   1      -3.937   5.269  -5.954  0.00  0.00    -0.001 A 
ENDROOT
TORSDOF 0
ENDMDL
