MODEL 1
REMARK minimizedAffinity 9.15746212
REMARK minimizedRMSD -1
REMARK  0 active torsions:
REMARK  status: ('A' for Active; 'I' for Inactive)
ROOT
ATOM      1  C   UNL d   1      -1.700  -2.433  -3.784  0.00  0.00     0.172 C 
ATOM      2  N   UNL d   1      -1.259  -2.423  -2.409  0.00  0.00    -0.070 N 
ATOM      3  C1  UNL d   1      -0.073  -2.930  -1.947  0.00  0.00    -0.004 A 
ATOM      4  C2  UNL d   1      -0.029  -2.726  -0.585  0.00  0.00    -0.047 A 
ATOM      5  C3  UNL d   1      -1.230  -2.076  -0.215  0.00  0.00    -0.047 A 
ATOM      6  C4  UNL d   1      -1.973  -1.901  -1.363  0.00  0.00    -0.004 A 
ENDROOT
TORSDOF 0
ENDMDL
