MODEL 1
REMARK minimizedAffinity 7.17047882
REMARK minimizedRMSD -1
REMARK  0 active torsions:
REMARK  status: ('A' for Active; 'I' for Inactive)
ROOT
ATOM      1  C   UNL d   1      -1.503  -2.472  -3.383  0.00  0.00     0.172 C 
ATOM      2  N   UNL d   1      -1.038  -2.651  -2.027  0.00  0.00    -0.070 N 
ATOM      3  C1  UNL d   1      -1.645  -2.156  -0.904  0.00  0.00    -0.004 A 
ATOM      4  C2  UNL d   1      -0.895  -2.544   0.186  0.00  0.00    -0.047 A 
ATOM      5  C3  UNL d   1       0.201  -3.296  -0.300  0.00  0.00    -0.047 A 
ATOM      6  C4  UNL d   1       0.087  -3.346  -1.673  0.00  0.00    -0.004 A 
ENDROOT
TORSDOF 0
ENDMDL
