MODEL 1
REMARK minimizedAffinity 6.48653555
REMARK minimizedRMSD -1
REMARK  0 active torsions:
REMARK  status: ('A' for Active; 'I' for Inactive)
ROOT
ATOM      1  C   UNL d   1      -1.937  -2.735  -4.056  0.00  0.00     0.172 C 
ATOM      2  N   UNL d   1      -1.192  -2.542  -2.834  0.00  0.00    -0.070 N 
ATOM      3  C1  UNL d   1       0.167  -2.652  -2.702  0.00  0.00    -0.004 A 
ATOM      4  C2  UNL d   1       0.485  -2.395  -1.386  0.00  0.00    -0.047 A 
ATOM      5  C3  UNL d   1      -0.724  -2.121  -0.703  0.00  0.00    -0.047 A 
ATOM      6  C4  UNL d   1      -1.746  -2.220  -1.624  0.00  0.00    -0.004 A 
ENDROOT
TORSDOF 0
ENDMDL
