MODEL 1
REMARK minimizedAffinity 9.51315784
REMARK minimizedRMSD -1
REMARK  0 active torsions:
REMARK  status: ('A' for Active; 'I' for Inactive)
ROOT
ATOM      1  C   UNL d   1       6.000  -5.347  -2.848  0.00  0.00     0.172 C 
ATOM      2  N   UNL d   1       4.765  -4.908  -3.454  0.00  0.00    -0.070 N 
ATOM      3  C1  UNL d   1       3.506  -5.212  -3.010  0.00  0.00    -0.004 A 
ATOM      4  C2  UNL d   1       2.602  -4.606  -3.856  0.00  0.00    -0.047 A 
ATOM      5  C3  UNL d   1       3.344  -3.914  -4.843  0.00  0.00    -0.047 A 
ATOM      6  C4  UNL d   1       4.680  -4.118  -4.570  0.00  0.00    -0.004 A 
ENDROOT
TORSDOF 0
ENDMDL
