MODEL 1
REMARK minimizedAffinity 6.28096724
REMARK minimizedRMSD -1
REMARK  0 active torsions:
REMARK  status: ('A' for Active; 'I' for Inactive)
ROOT
ATOM      1  C   UNL d   1       5.043   5.665  -1.637  0.00  0.00     0.172 C 
ATOM      2  N   UNL d   1       3.640   5.712  -1.976  0.00  0.00    -0.070 N 
ATOM      3  C1  UNL d   1       3.127   6.000  -3.213  0.00  0.00    -0.004 A 
ATOM      4  C2  UNL d   1       1.753   5.944  -3.124  0.00  0.00    -0.047 A 
ATOM      5  C3  UNL d   1       1.429   5.612  -1.787  0.00  0.00    -0.047 A 
ATOM      6  C4  UNL d   1       2.616   5.475  -1.098  0.00  0.00    -0.004 A 
ENDROOT
TORSDOF 0
ENDMDL
