MODEL 1
REMARK minimizedAffinity 11.3065834
REMARK minimizedRMSD -1
REMARK  0 active torsions:
REMARK  status: ('A' for Active; 'I' for Inactive)
ROOT
ATOM      1  C   UNL d   1       1.822  -3.733  -3.427  0.00  0.00     0.172 C 
ATOM      2  N   UNL d   1       0.711  -2.982  -2.892  0.00  0.00    -0.070 N 
ATOM      3  C1  UNL d   1       0.468  -2.752  -1.564  0.00  0.00    -0.004 A 
ATOM      4  C2  UNL d   1      -0.682  -1.998  -1.470  0.00  0.00    -0.047 A 
ATOM      5  C3  UNL d   1      -1.146  -1.767  -2.786  0.00  0.00    -0.047 A 
ATOM      6  C4  UNL d   1      -0.265  -2.387  -3.647  0.00  0.00    -0.004 A 
ENDROOT
TORSDOF 0
ENDMDL
