MODEL 1
REMARK minimizedAffinity 3.90682316
REMARK minimizedRMSD -1
REMARK  0 active torsions:
REMARK  status: ('A' for Active; 'I' for Inactive)
ROOT
ATOM      1  C   UNL d   1       0.391  -3.505   1.049  0.00  0.00     0.172 C 
ATOM      2  N   UNL d   1      -0.031  -2.804  -0.140  0.00  0.00    -0.070 N 
ATOM      3  C1  UNL d   1      -1.110  -1.966  -0.232  0.00  0.00    -0.004 A 
ATOM      4  C2  UNL d   1      -1.173  -1.499  -1.527  0.00  0.00    -0.047 A 
ATOM      5  C3  UNL d   1      -0.095  -2.077  -2.239  0.00  0.00    -0.047 A 
ATOM      6  C4  UNL d   1       0.595  -2.881  -1.356  0.00  0.00    -0.004 A 
ENDROOT
TORSDOF 0
ENDMDL
