MODEL 1
REMARK minimizedAffinity 7.72999573
REMARK minimizedRMSD -1
REMARK  0 active torsions:
REMARK  status: ('A' for Active; 'I' for Inactive)
ROOT
ATOM      1  C   UNL d   1      -1.641  -2.473   1.177  0.00  0.00     0.172 C 
ATOM      2  N   UNL d   1      -1.194  -2.376  -0.193  0.00  0.00    -0.070 N 
ATOM      3  C1  UNL d   1      -1.288  -3.365  -1.135  0.00  0.00    -0.004 A 
ATOM      4  C2  UNL d   1      -0.754  -2.881  -2.310  0.00  0.00    -0.047 A 
ATOM      5  C3  UNL d   1      -0.324  -1.556  -2.065  0.00  0.00    -0.047 A 
ATOM      6  C4  UNL d   1      -0.608  -1.268  -0.746  0.00  0.00    -0.004 A 
ENDROOT
TORSDOF 0
ENDMDL
