MODEL 1
REMARK minimizedAffinity 3.73945808
REMARK minimizedRMSD -1
REMARK  0 active torsions:
REMARK  status: ('A' for Active; 'I' for Inactive)
ROOT
ATOM      1  C   UNL d   1      -1.141  -1.507  -2.592  0.00  0.00     0.172 C 
ATOM      2  N   UNL d   1      -1.526  -2.064  -3.867  0.00  0.00    -0.070 N 
ATOM      3  C1  UNL d   1      -2.724  -2.667  -4.147  0.00  0.00    -0.004 A 
ATOM      4  C2  UNL d   1      -2.700  -3.060  -5.467  0.00  0.00    -0.047 A 
ATOM      5  C3  UNL d   1      -1.444  -2.682  -6.000  0.00  0.00    -0.047 A 
ATOM      6  C4  UNL d   1      -0.738  -2.068  -4.988  0.00  0.00    -0.004 A 
ENDROOT
TORSDOF 0
ENDMDL
