MODEL 1
REMARK minimizedAffinity 3.15180731
REMARK minimizedRMSD -1
REMARK  0 active torsions:
REMARK  status: ('A' for Active; 'I' for Inactive)
ROOT
ATOM      1  C   UNL d   1       5.978   2.618  -4.377  0.00  0.00     0.172 C 
ATOM      2  N   UNL d   1       5.987   3.843  -3.613  0.00  0.00    -0.070 N 
ATOM      3  C1  UNL d   1       5.993   5.109  -4.135  0.00  0.00    -0.004 A 
ATOM      4  C2  UNL d   1       6.000   5.999  -3.082  0.00  0.00    -0.047 A 
ATOM      5  C3  UNL d   1       5.999   5.242  -1.887  0.00  0.00    -0.047 A 
ATOM      6  C4  UNL d   1       5.991   3.910  -2.245  0.00  0.00    -0.004 A 
ENDROOT
TORSDOF 0
ENDMDL
