MODEL 1
REMARK minimizedAffinity 0.463611126
REMARK minimizedRMSD -1
REMARK  0 active torsions:
REMARK  status: ('A' for Active; 'I' for Inactive)
ROOT
ATOM      1  C   UNL d   1       5.831   5.998  -1.889  0.00  0.00     0.172 C 
ATOM      2  N   UNL d   1       4.503   5.554  -2.243  0.00  0.00    -0.070 N 
ATOM      3  C1  UNL d   1       3.760   4.631  -1.557  0.00  0.00    -0.004 A 
ATOM      4  C2  UNL d   1       2.557   4.484  -2.214  0.00  0.00    -0.047 A 
ATOM      5  C3  UNL d   1       2.578   5.349  -3.333  0.00  0.00    -0.047 A 
ATOM      6  C4  UNL d   1       3.794   5.999  -3.328  0.00  0.00    -0.004 A 
ENDROOT
TORSDOF 0
ENDMDL
