MODEL 1
REMARK minimizedAffinity 1.73185265
REMARK minimizedRMSD -1
REMARK  0 active torsions:
REMARK  status: ('A' for Active; 'I' for Inactive)
ROOT
ATOM      1  C   UNL d   1       2.592   4.374  -1.540  0.00  0.00     0.172 C 
ATOM      2  N   UNL d   1       3.945   4.754  -1.873  0.00  0.00    -0.070 N 
ATOM      3  C1  UNL d   1       4.558   5.923  -1.509  0.00  0.00    -0.004 A 
ATOM      4  C2  UNL d   1       5.839   5.904  -2.019  0.00  0.00    -0.047 A 
ATOM      5  C3  UNL d   1       6.000   4.683  -2.715  0.00  0.00    -0.047 A 
ATOM      6  C4  UNL d   1       4.812   3.990  -2.608  0.00  0.00    -0.004 A 
ENDROOT
TORSDOF 0
ENDMDL
