MODEL 1
REMARK minimizedAffinity 2.64982104
REMARK minimizedRMSD -1
REMARK  0 active torsions:
REMARK  status: ('A' for Active; 'I' for Inactive)
ROOT
ATOM      1  C   UNL d   1       5.978   5.444  -1.559  0.00  0.00     0.172 C 
ATOM      2  N   UNL d   1       5.987   4.880  -2.889  0.00  0.00    -0.070 N 
ATOM      3  C1  UNL d   1       5.992   5.593  -4.058  0.00  0.00    -0.004 A 
ATOM      4  C2  UNL d   1       6.000   4.692  -5.101  0.00  0.00    -0.047 A 
ATOM      5  C3  UNL d   1       5.999   3.393  -4.539  0.00  0.00    -0.047 A 
ATOM      6  C4  UNL d   1       5.991   3.539  -3.168  0.00  0.00    -0.004 A 
ENDROOT
TORSDOF 0
ENDMDL
