MODEL 1
REMARK minimizedAffinity 12.0266094
REMARK minimizedRMSD -1
REMARK  0 active torsions:
REMARK  status: ('A' for Active; 'I' for Inactive)
ROOT
ATOM      1  C   UNL d   1      -0.999   1.716  -0.134  0.00  0.00     0.172 C 
ATOM      2  N   UNL d   1      -0.081   2.790   0.163  0.00  0.00    -0.070 N 
ATOM      3  C1  UNL d   1      -0.307   3.813   1.046  0.00  0.00    -0.004 A 
ATOM      4  C2  UNL d   1       0.805   4.626   1.044  0.00  0.00    -0.047 A 
ATOM      5  C3  UNL d   1       1.732   4.074   0.128  0.00  0.00    -0.047 A 
ATOM      6  C4  UNL d   1       1.158   2.938  -0.403  0.00  0.00    -0.004 A 
ENDROOT
TORSDOF 0
ENDMDL
