MODEL 1
REMARK minimizedAffinity 6.15722561
REMARK minimizedRMSD -1
REMARK  0 active torsions:
REMARK  status: ('A' for Active; 'I' for Inactive)
ROOT
ATOM      1  C   UNL d   1       4.523  -5.994   5.993  0.00  0.00     0.172 C 
ATOM      2  N   UNL d   1       4.906  -4.692   5.499  0.00  0.00    -0.070 N 
ATOM      3  C1  UNL d   1       4.293  -4.013   4.480  0.00  0.00    -0.004 A 
ATOM      4  C2  UNL d   1       4.953  -2.814   4.315  0.00  0.00    -0.047 A 
ATOM      5  C3  UNL d   1       5.999  -2.772   5.267  0.00  0.00    -0.047 A 
ATOM      6  C4  UNL d   1       5.946  -3.947   5.987  0.00  0.00    -0.004 A 
ENDROOT
TORSDOF 0
ENDMDL
