MODEL 1
REMARK minimizedAffinity 5.98279524
REMARK minimizedRMSD -1
REMARK  0 active torsions:
REMARK  status: ('A' for Active; 'I' for Inactive)
ROOT
ATOM      1  C   UNL d   1      -1.589  -2.517  -3.739  0.00  0.00     0.172 C 
ATOM      2  N   UNL d   1      -1.122  -2.639  -2.378  0.00  0.00    -0.070 N 
ATOM      3  C1  UNL d   1      -0.132  -3.481  -1.945  0.00  0.00    -0.004 A 
ATOM      4  C2  UNL d   1       0.014  -3.298  -0.587  0.00  0.00    -0.047 A 
ATOM      5  C3  UNL d   1      -0.921  -2.313  -0.189  0.00  0.00    -0.047 A 
ATOM      6  C4  UNL d   1      -1.612  -1.923  -1.317  0.00  0.00    -0.004 A 
ENDROOT
TORSDOF 0
ENDMDL
