MODEL 1
REMARK minimizedAffinity -4.65420389
REMARK minimizedRMSD -1
REMARK  0 active torsions:
REMARK  status: ('A' for Active; 'I' for Inactive)
ROOT
ATOM      1  C   UNL d   1       1.925  -2.351  -2.387  0.00  0.00    -0.002 A 
ATOM      2  C1  UNL d   1       2.144  -1.119  -2.986  0.00  0.00     0.010 A 
ATOM      3  C2  UNL d   1       1.736   0.059  -2.357  0.00  0.00     0.041 A 
ATOM      4  C3  UNL d   1       1.100  -0.022  -1.103  0.00  0.00    -0.075 A 
ATOM      5  S   UNL d   1       0.516   1.288  -0.146  0.00  0.00     0.015 SA
ATOM      6  C4  UNL d   1      -0.038   0.242   1.081  0.00  0.00     0.022 A 
ATOM      7  C5  UNL d   1       0.208  -1.077   0.784  0.00  0.00     0.026 A 
ATOM      8  C6  UNL d   1       0.869  -1.252  -0.479  0.00  0.00    -0.082 A 
ATOM      9  C7  UNL d   1       1.293  -2.428  -1.143  0.00  0.00     0.045 A 
ENDROOT
TORSDOF 0
ENDMDL
