MODEL 1
REMARK minimizedAffinity -1.13059866
REMARK minimizedRMSD -1
REMARK  0 active torsions:
REMARK  status: ('A' for Active; 'I' for Inactive)
ROOT
ATOM      1  C   UNL d   1       3.374  -0.074  -2.290  0.00  0.00    -0.002 A 
ATOM      2  C1  UNL d   1       3.345  -1.431  -1.998  0.00  0.00     0.010 A 
ATOM      3  C2  UNL d   1       2.388  -1.948  -1.122  0.00  0.00     0.041 A 
ATOM      4  C3  UNL d   1       1.452  -1.071  -0.540  0.00  0.00    -0.075 A 
ATOM      5  S   UNL d   1       0.190  -1.479   0.561  0.00  0.00     0.015 SA
ATOM      6  C4  UNL d   1      -0.340   0.137   0.669  0.00  0.00     0.022 A 
ATOM      7  C5  UNL d   1       0.416   0.981  -0.109  0.00  0.00     0.026 A 
ATOM      8  C6  UNL d   1       1.461   0.299  -0.819  0.00  0.00    -0.082 A 
ATOM      9  C7  UNL d   1       2.444   0.793  -1.711  0.00  0.00     0.045 A 
ENDROOT
TORSDOF 0
ENDMDL
