MODEL 1
REMARK minimizedAffinity -5.28027439
REMARK minimizedRMSD -1
REMARK  0 active torsions:
REMARK  status: ('A' for Active; 'I' for Inactive)
ROOT
ATOM      1  C   UNL d   1       2.318   0.082  -2.863  0.00  0.00    -0.002 A 
ATOM      2  C1  UNL d   1       2.020   1.140  -2.016  0.00  0.00     0.010 A 
ATOM      3  C2  UNL d   1       1.340   0.921  -0.817  0.00  0.00     0.041 A 
ATOM      4  C3  UNL d   1       0.963  -0.394  -0.478  0.00  0.00    -0.075 A 
ATOM      5  S   UNL d   1       0.123  -0.901   0.940  0.00  0.00     0.015 SA
ATOM      6  C4  UNL d   1       0.142  -2.536   0.456  0.00  0.00     0.022 A 
ATOM      7  C5  UNL d   1       0.769  -2.708  -0.755  0.00  0.00     0.026 A 
ATOM      8  C6  UNL d   1       1.253  -1.476  -1.313  0.00  0.00    -0.082 A 
ATOM      9  C7  UNL d   1       1.942  -1.221  -2.523  0.00  0.00     0.045 A 
ENDROOT
TORSDOF 0
ENDMDL
