MODEL 1
REMARK minimizedAffinity -1.22531414
REMARK minimizedRMSD -1
REMARK  0 active torsions:
REMARK  status: ('A' for Active; 'I' for Inactive)
ROOT
ATOM      1  C   UNL d   1       1.830   1.125  -1.810  0.00  0.00    -0.002 A 
ATOM      2  C1  UNL d   1       1.600  -0.174  -2.241  0.00  0.00     0.010 A 
ATOM      3  C2  UNL d   1       0.676  -0.988  -1.582  0.00  0.00     0.041 A 
ATOM      4  C3  UNL d   1      -0.020  -0.469  -0.473  0.00  0.00    -0.075 A 
ATOM      5  S   UNL d   1      -1.198  -1.282   0.488  0.00  0.00     0.015 SA
ATOM      6  C4  UNL d   1      -1.425   0.076   1.492  0.00  0.00     0.022 A 
ATOM      7  C5  UNL d   1      -0.629   1.133   1.118  0.00  0.00     0.026 A 
ATOM      8  C6  UNL d   1       0.194   0.837  -0.021  0.00  0.00    -0.082 A 
ATOM      9  C7  UNL d   1       1.137   1.636  -0.709  0.00  0.00     0.045 A 
ENDROOT
TORSDOF 0
ENDMDL
