MODEL 1
REMARK minimizedAffinity -4.78718281
REMARK minimizedRMSD -1
REMARK  0 active torsions:
REMARK  status: ('A' for Active; 'I' for Inactive)
ROOT
ATOM      1  C   UNL d   1       2.342  -0.737  -3.104  0.00  0.00    -0.002 A 
ATOM      2  C1  UNL d   1       1.946  -2.026  -2.778  0.00  0.00     0.010 A 
ATOM      3  C2  UNL d   1       1.165  -2.265  -1.645  0.00  0.00     0.041 A 
ATOM      4  C3  UNL d   1       0.784  -1.175  -0.838  0.00  0.00    -0.075 A 
ATOM      5  S   UNL d   1      -0.170  -1.228   0.596  0.00  0.00     0.015 SA
ATOM      6  C4  UNL d   1      -0.076   0.460   0.810  0.00  0.00     0.022 A 
ATOM      7  C5  UNL d   1       0.662   1.065  -0.179  0.00  0.00     0.026 A 
ATOM      8  C6  UNL d   1       1.170   0.133  -1.146  0.00  0.00    -0.082 A 
ATOM      9  C7  UNL d   1       1.962   0.342  -2.301  0.00  0.00     0.045 A 
ENDROOT
TORSDOF 0
ENDMDL
