MODEL 1
REMARK minimizedAffinity -0.857217908
REMARK minimizedRMSD -1
REMARK  0 active torsions:
REMARK  status: ('A' for Active; 'I' for Inactive)
ROOT
ATOM      1  C   UNL d   1       0.461   1.529   0.612  0.00  0.00    -0.002 A 
ATOM      2  C1  UNL d   1       0.014   0.346   1.183  0.00  0.00     0.010 A 
ATOM      3  C2  UNL d   1       0.070  -0.853   0.469  0.00  0.00     0.041 A 
ATOM      4  C3  UNL d   1       0.590  -0.843  -0.840  0.00  0.00    -0.075 A 
ATOM      5  S   UNL d   1       0.757  -2.191  -1.903  0.00  0.00     0.015 SA
ATOM      6  C4  UNL d   1       1.427  -1.228  -3.139  0.00  0.00     0.022 A 
ATOM      7  C5  UNL d   1       1.527   0.092  -2.768  0.00  0.00     0.026 A 
ATOM      8  C6  UNL d   1       1.047   0.335  -1.437  0.00  0.00    -0.082 A 
ATOM      9  C7  UNL d   1       0.976   1.535  -0.687  0.00  0.00     0.045 A 
ENDROOT
TORSDOF 0
ENDMDL
