MODEL 1
REMARK minimizedAffinity -0.786100686
REMARK minimizedRMSD -1
REMARK  0 active torsions:
REMARK  status: ('A' for Active; 'I' for Inactive)
ROOT
ATOM      1  C   UNL d   1      -1.041  -0.085   1.171  0.00  0.00    -0.002 A 
ATOM      2  C1  UNL d   1      -0.303   1.085   1.280  0.00  0.00     0.010 A 
ATOM      3  C2  UNL d   1       0.655   1.412   0.319  0.00  0.00     0.041 A 
ATOM      4  C3  UNL d   1       0.859   0.536  -0.766  0.00  0.00    -0.075 A 
ATOM      5  S   UNL d   1       1.977   0.732  -2.063  0.00  0.00     0.015 SA
ATOM      6  C4  UNL d   1       1.501  -0.733  -2.793  0.00  0.00     0.022 A 
ATOM      7  C5  UNL d   1       0.514  -1.368  -2.078  0.00  0.00     0.026 A 
ATOM      8  C6  UNL d   1       0.127  -0.647  -0.898  0.00  0.00    -0.082 A 
ATOM      9  C7  UNL d   1      -0.836  -0.951   0.094  0.00  0.00     0.045 A 
ENDROOT
TORSDOF 0
ENDMDL
