MODEL 1
REMARK minimizedAffinity -1.81840479
REMARK minimizedRMSD -1
REMARK  0 active torsions:
REMARK  status: ('A' for Active; 'I' for Inactive)
ROOT
ATOM      1  C   UNL d   1       0.616  -2.355  -1.444  0.00  0.00    -0.002 A 
ATOM      2  C1  UNL d   1       1.085  -1.228  -2.104  0.00  0.00     0.010 A 
ATOM      3  C2  UNL d   1       0.942   0.039  -1.534  0.00  0.00     0.041 A 
ATOM      4  C3  UNL d   1       0.316   0.155  -0.277  0.00  0.00    -0.075 A 
ATOM      5  S   UNL d   1       0.033   1.604   0.613  0.00  0.00     0.015 SA
ATOM      6  C4  UNL d   1      -0.716   0.760   1.891  0.00  0.00     0.022 A 
ATOM      7  C5  UNL d   1      -0.758  -0.594   1.660  0.00  0.00     0.026 A 
ATOM      8  C6  UNL d   1      -0.163  -0.966   0.407  0.00  0.00    -0.082 A 
ATOM      9  C7  UNL d   1      -0.004  -2.236  -0.197  0.00  0.00     0.045 A 
ENDROOT
TORSDOF 0
ENDMDL
