MODEL 1
REMARK minimizedAffinity -3.79713511
REMARK minimizedRMSD -1
REMARK  0 active torsions:
REMARK  status: ('A' for Active; 'I' for Inactive)
ROOT
ATOM      1  C   UNL d   1       2.253   0.655  -2.015  0.00  0.00    -0.002 A 
ATOM      2  C1  UNL d   1       1.265  -0.161  -2.546  0.00  0.00     0.010 A 
ATOM      3  C2  UNL d   1       0.157  -0.526  -1.778  0.00  0.00     0.041 A 
ATOM      4  C3  UNL d   1       0.057  -0.049  -0.456  0.00  0.00    -0.075 A 
ATOM      5  S   UNL d   1      -1.211  -0.364   0.669  0.00  0.00     0.015 SA
ATOM      6  C4  UNL d   1      -0.471   0.579   1.881  0.00  0.00     0.022 A 
ATOM      7  C5  UNL d   1       0.716   1.128   1.454  0.00  0.00     0.026 A 
ATOM      8  C6  UNL d   1       1.039   0.775   0.100  0.00  0.00    -0.082 A 
ATOM      9  C7  UNL d   1       2.151   1.126  -0.703  0.00  0.00     0.045 A 
ENDROOT
TORSDOF 0
ENDMDL
