MODEL 1
REMARK minimizedAffinity -3.67462039
REMARK minimizedRMSD -1
REMARK  0 active torsions:
REMARK  status: ('A' for Active; 'I' for Inactive)
ROOT
ATOM      1  C   UNL d   1       1.815   1.469  -1.475  0.00  0.00    -0.002 A 
ATOM      2  C1  UNL d   1       1.448   0.382  -2.254  0.00  0.00     0.010 A 
ATOM      3  C2  UNL d   1       0.490  -0.527  -1.800  0.00  0.00     0.041 A 
ATOM      4  C3  UNL d   1      -0.099  -0.321  -0.537  0.00  0.00    -0.075 A 
ATOM      5  S   UNL d   1      -1.295  -1.302   0.225  0.00  0.00     0.015 SA
ATOM      6  C4  UNL d   1      -1.346  -0.300   1.603  0.00  0.00     0.022 A 
ATOM      7  C5  UNL d   1      -0.478   0.761   1.502  0.00  0.00     0.026 A 
ATOM      8  C6  UNL d   1       0.254   0.767   0.266  0.00  0.00    -0.082 A 
ATOM      9  C7  UNL d   1       1.229   1.670  -0.222  0.00  0.00     0.045 A 
ENDROOT
TORSDOF 0
ENDMDL
