MODEL 1
REMARK minimizedAffinity -2.61907864
REMARK minimizedRMSD -1
REMARK  0 active torsions:
REMARK  status: ('A' for Active; 'I' for Inactive)
ROOT
ATOM      1  C   UNL d   1       1.883   0.864  -2.807  0.00  0.00    -0.002 A 
ATOM      2  C1  UNL d   1       0.915  -0.015  -3.273  0.00  0.00     0.010 A 
ATOM      3  C2  UNL d   1       0.024  -0.625  -2.388  0.00  0.00     0.041 A 
ATOM      4  C3  UNL d   1       0.122  -0.333  -1.013  0.00  0.00    -0.075 A 
ATOM      5  S   UNL d   1      -0.863  -0.960   0.256  0.00  0.00     0.015 SA
ATOM      6  C4  UNL d   1      -0.022  -0.076   1.446  0.00  0.00     0.022 A 
ATOM      7  C5  UNL d   1       0.988   0.685   0.907  0.00  0.00     0.026 A 
ATOM      8  C6  UNL d   1       1.087   0.550  -0.520  0.00  0.00    -0.082 A 
ATOM      9  C7  UNL d   1       1.976   1.151  -1.442  0.00  0.00     0.045 A 
ENDROOT
TORSDOF 0
ENDMDL
