MODEL 1
REMARK minimizedAffinity -5.10415983
REMARK minimizedRMSD -1
REMARK  0 active torsions:
REMARK  status: ('A' for Active; 'I' for Inactive)
ROOT
ATOM      1  C   UNL d   1      -0.141  -1.935  -0.377  0.00  0.00     0.077 C 
ATOM      2  C1  UNL d   1       0.581  -0.660  -0.056  0.00  0.00    -0.074 A 
ATOM      3  C2  UNL d   1       1.879  -0.680   0.463  0.00  0.00    -0.005 A 
ATOM      4  C3  UNL d   1       2.542   0.514   0.748  0.00  0.00     0.006 A 
ATOM      5  C4  UNL d   1       1.913   1.738   0.518  0.00  0.00    -0.005 A 
ATOM      6  C5  UNL d   1       0.615   1.778  -0.002  0.00  0.00    -0.074 A 
ATOM      7  C6  UNL d   1      -0.071   3.085  -0.265  0.00  0.00     0.077 C 
ATOM      8  C7  UNL d   1      -0.041   0.574  -0.292  0.00  0.00    -0.001 A 
ENDROOT
TORSDOF 0
ENDMDL
