MODEL 1
REMARK minimizedAffinity -2.52158165
REMARK minimizedRMSD -1
REMARK  0 active torsions:
REMARK  status: ('A' for Active; 'I' for Inactive)
ROOT
ATOM      1  C   UNL d   1       0.333  -1.511  -0.098  0.00  0.00     0.077 C 
ATOM      2  C1  UNL d   1      -0.211  -0.226   0.452  0.00  0.00    -0.074 A 
ATOM      3  C2  UNL d   1      -1.275  -0.226   1.360  0.00  0.00    -0.005 A 
ATOM      4  C3  UNL d   1      -1.765   0.976   1.869  0.00  0.00     0.006 A 
ATOM      5  C4  UNL d   1      -1.197   2.189   1.477  0.00  0.00    -0.005 A 
ATOM      6  C5  UNL d   1      -0.132   2.209   0.571  0.00  0.00    -0.074 A 
ATOM      7  C6  UNL d   1       0.496   3.503   0.146  0.00  0.00     0.077 C 
ATOM      8  C7  UNL d   1       0.359   0.996   0.068  0.00  0.00    -0.001 A 
ENDROOT
TORSDOF 0
ENDMDL
