MODEL 1
REMARK minimizedAffinity -6.10050201
REMARK minimizedRMSD -1
REMARK  0 active torsions:
REMARK  status: ('A' for Active; 'I' for Inactive)
ROOT
ATOM      1  C   UNL d   1       3.060   2.621   0.491  0.00  0.00     0.077 C 
ATOM      2  C1  UNL d   1       1.643   2.133   0.424  0.00  0.00    -0.074 A 
ATOM      3  C2  UNL d   1       0.581   3.029   0.264  0.00  0.00    -0.005 A 
ATOM      4  C3  UNL d   1      -0.730   2.559   0.194  0.00  0.00     0.006 A 
ATOM      5  C4  UNL d   1      -0.993   1.192   0.282  0.00  0.00    -0.005 A 
ATOM      6  C5  UNL d   1       0.057   0.281   0.442  0.00  0.00    -0.074 A 
ATOM      7  C6  UNL d   1      -0.207  -1.193   0.529  0.00  0.00     0.077 C 
ATOM      8  C7  UNL d   1       1.372   0.760   0.504  0.00  0.00    -0.001 A 
ENDROOT
TORSDOF 0
ENDMDL
