MODEL 1
REMARK minimizedAffinity -5.83674479
REMARK minimizedRMSD -1
REMARK  0 active torsions:
REMARK  status: ('A' for Active; 'I' for Inactive)
ROOT
ATOM      1  C   UNL d   1       3.978   1.906   0.827  0.00  0.00     0.077 C 
ATOM      2  C1  UNL d   1       2.484   1.767   0.828  0.00  0.00    -0.074 A 
ATOM      3  C2  UNL d   1       1.662   2.858   1.129  0.00  0.00    -0.005 A 
ATOM      4  C3  UNL d   1       0.274   2.716   1.117  0.00  0.00     0.006 A 
ATOM      5  C4  UNL d   1      -0.304   1.485   0.804  0.00  0.00    -0.005 A 
ATOM      6  C5  UNL d   1       0.503   0.384   0.499  0.00  0.00    -0.074 A 
ATOM      7  C6  UNL d   1      -0.103  -0.943   0.151  0.00  0.00     0.077 C 
ATOM      8  C7  UNL d   1       1.896   0.536   0.507  0.00  0.00    -0.001 A 
ENDROOT
TORSDOF 0
ENDMDL
