MODEL 1
REMARK minimizedAffinity -6.00822926
REMARK minimizedRMSD -1
REMARK  0 active torsions:
REMARK  status: ('A' for Active; 'I' for Inactive)
ROOT
ATOM      1  C   UNL d   1       0.366   3.712   0.166  0.00  0.00     0.077 C 
ATOM      2  C1  UNL d   1       0.984   2.345   0.184  0.00  0.00    -0.074 A 
ATOM      3  C2  UNL d   1       2.361   2.181   0.366  0.00  0.00    -0.005 A 
ATOM      4  C3  UNL d   1       2.920   0.904   0.391  0.00  0.00     0.006 A 
ATOM      5  C4  UNL d   1       2.109  -0.221   0.234  0.00  0.00    -0.005 A 
ATOM      6  C5  UNL d   1       0.730  -0.077   0.052  0.00  0.00    -0.074 A 
ATOM      7  C6  UNL d   1      -0.157  -1.276  -0.108  0.00  0.00     0.077 C 
ATOM      8  C7  UNL d   1       0.175   1.210   0.035  0.00  0.00    -0.001 A 
ENDROOT
TORSDOF 0
ENDMDL
