MODEL 1
REMARK minimizedAffinity -3.8522501
REMARK minimizedRMSD -1
REMARK  0 active torsions:
REMARK  status: ('A' for Active; 'I' for Inactive)
ROOT
ATOM      1  C   UNL d   1       3.201   1.552   0.029  0.00  0.00     0.077 C 
ATOM      2  C1  UNL d   1       1.799   1.979   0.348  0.00  0.00    -0.074 A 
ATOM      3  C2  UNL d   1       1.515   3.296   0.722  0.00  0.00    -0.005 A 
ATOM      4  C3  UNL d   1       0.205   3.680   1.006  0.00  0.00     0.006 A 
ATOM      5  C4  UNL d   1      -0.834   2.752   0.920  0.00  0.00    -0.005 A 
ATOM      6  C5  UNL d   1      -0.570   1.431   0.547  0.00  0.00    -0.074 A 
ATOM      7  C6  UNL d   1      -1.676   0.423   0.440  0.00  0.00     0.077 C 
ATOM      8  C7  UNL d   1       0.749   1.054   0.256  0.00  0.00    -0.001 A 
ENDROOT
TORSDOF 0
ENDMDL
