MODEL 1
REMARK minimizedAffinity -4.3894186
REMARK minimizedRMSD -1
REMARK  0 active torsions:
REMARK  status: ('A' for Active; 'I' for Inactive)
ROOT
ATOM      1  C   UNL d   1      -0.775   3.468   0.898  0.00  0.00     0.077 C 
ATOM      2  C1  UNL d   1       0.018   2.308   0.375  0.00  0.00    -0.074 A 
ATOM      3  C2  UNL d   1       1.195   2.512  -0.353  0.00  0.00    -0.005 A 
ATOM      4  C3  UNL d   1       1.928   1.423  -0.825  0.00  0.00     0.006 A 
ATOM      5  C4  UNL d   1       1.492   0.121  -0.575  0.00  0.00    -0.005 A 
ATOM      6  C5  UNL d   1       0.318  -0.102   0.151  0.00  0.00    -0.074 A 
ATOM      7  C6  UNL d   1      -0.160  -1.495   0.437  0.00  0.00     0.077 C 
ATOM      8  C7  UNL d   1      -0.409   0.997   0.628  0.00  0.00    -0.001 A 
ENDROOT
TORSDOF 0
ENDMDL
