MODEL 1
REMARK minimizedAffinity -5.2947979
REMARK minimizedRMSD -1
REMARK  0 active torsions:
REMARK  status: ('A' for Active; 'I' for Inactive)
ROOT
ATOM      1  C   UNL d   1      -0.128  -1.055   0.120  0.00  0.00     0.077 C 
ATOM      2  C1  UNL d   1       0.089   0.429   0.161  0.00  0.00    -0.074 A 
ATOM      3  C2  UNL d   1      -0.974   1.317  -0.033  0.00  0.00    -0.005 A 
ATOM      4  C3  UNL d   1      -0.758   2.694   0.017  0.00  0.00     0.006 A 
ATOM      5  C4  UNL d   1       0.521   3.196   0.261  0.00  0.00    -0.005 A 
ATOM      6  C5  UNL d   1       1.596   2.324   0.458  0.00  0.00    -0.074 A 
ATOM      7  C6  UNL d   1       2.975   2.847   0.731  0.00  0.00     0.077 C 
ATOM      8  C7  UNL d   1       1.370   0.941   0.413  0.00  0.00    -0.001 A 
ENDROOT
TORSDOF 0
ENDMDL
