MODEL 1
REMARK minimizedAffinity -1.51744926
REMARK minimizedRMSD -1
REMARK  0 active torsions:
REMARK  status: ('A' for Active; 'I' for Inactive)
ROOT
ATOM      1  C   UNL d   1      -0.652  -2.790  -0.740  0.00  0.00     0.077 C 
ATOM      2  C1  UNL d   1      -0.338  -1.381  -0.334  0.00  0.00    -0.074 A 
ATOM      3  C2  UNL d   1      -1.360  -0.472  -0.043  0.00  0.00    -0.005 A 
ATOM      4  C3  UNL d   1      -1.053   0.833   0.342  0.00  0.00     0.006 A 
ATOM      5  C4  UNL d   1       0.278   1.241   0.441  0.00  0.00    -0.005 A 
ATOM      6  C5  UNL d   1       1.314   0.346   0.156  0.00  0.00    -0.074 A 
ATOM      7  C6  UNL d   1       2.750   0.766   0.267  0.00  0.00     0.077 C 
ATOM      8  C7  UNL d   1       0.997  -0.965  -0.225  0.00  0.00    -0.001 A 
ENDROOT
TORSDOF 0
ENDMDL
