MODEL 1
REMARK minimizedAffinity -4.10423851
REMARK minimizedRMSD -1
REMARK  0 active torsions:
REMARK  status: ('A' for Active; 'I' for Inactive)
ROOT
ATOM      1  C   UNL d   1      -1.528   1.950  -0.176  0.00  0.00     0.077 C 
ATOM      2  C1  UNL d   1      -0.988   0.566  -0.385  0.00  0.00    -0.074 A 
ATOM      3  C2  UNL d   1      -0.175  -0.041   0.578  0.00  0.00    -0.005 A 
ATOM      4  C3  UNL d   1       0.312  -1.332   0.374  0.00  0.00     0.006 A 
ATOM      5  C4  UNL d   1      -0.007  -2.027  -0.793  0.00  0.00    -0.005 A 
ATOM      6  C5  UNL d   1      -0.819  -1.437  -1.766  0.00  0.00    -0.074 A 
ATOM      7  C6  UNL d   1      -1.181  -2.174  -3.022  0.00  0.00     0.077 C 
ATOM      8  C7  UNL d   1      -1.311  -0.142  -1.551  0.00  0.00    -0.001 A 
ENDROOT
TORSDOF 0
ENDMDL
