MODEL 1
REMARK minimizedAffinity -4.14561892
REMARK minimizedRMSD -1
REMARK  0 active torsions:
REMARK  status: ('A' for Active; 'I' for Inactive)
ROOT
ATOM      1  C   UNL d   1       0.105   3.263  -0.262  0.00  0.00     0.077 C 
ATOM      2  C1  UNL d   1      -0.299   1.892   0.193  0.00  0.00    -0.074 A 
ATOM      3  C2  UNL d   1      -1.580   1.652   0.700  0.00  0.00    -0.005 A 
ATOM      4  C3  UNL d   1      -1.945   0.370   1.111  0.00  0.00     0.006 A 
ATOM      5  C4  UNL d   1      -1.034  -0.683   1.019  0.00  0.00    -0.005 A 
ATOM      6  C5  UNL d   1       0.251  -0.462   0.513  0.00  0.00    -0.074 A 
ATOM      7  C6  UNL d   1       1.239  -1.585   0.398  0.00  0.00     0.077 C 
ATOM      8  C7  UNL d   1       0.608   0.828   0.096  0.00  0.00    -0.001 A 
ENDROOT
TORSDOF 0
ENDMDL
