MODEL 1
REMARK minimizedAffinity -6.22765923
REMARK minimizedRMSD -1
REMARK  0 active torsions:
REMARK  status: ('A' for Active; 'I' for Inactive)
ROOT
ATOM      1  C   UNL d   1       3.642   1.806   0.191  0.00  0.00     0.077 C 
ATOM      2  C1  UNL d   1       2.196   2.203   0.165  0.00  0.00    -0.074 A 
ATOM      3  C2  UNL d   1       1.821   3.550   0.122  0.00  0.00    -0.005 A 
ATOM      4  C3  UNL d   1       0.473   3.905   0.089  0.00  0.00     0.006 A 
ATOM      5  C4  UNL d   1      -0.514   2.917   0.099  0.00  0.00    -0.005 A 
ATOM      6  C5  UNL d   1      -0.158   1.565   0.141  0.00  0.00    -0.074 A 
ATOM      7  C6  UNL d   1      -1.205   0.492   0.142  0.00  0.00     0.077 C 
ATOM      8  C7  UNL d   1       1.199   1.217   0.167  0.00  0.00    -0.001 A 
ENDROOT
TORSDOF 0
ENDMDL
