MODEL 1
REMARK minimizedAffinity -4.69000912
REMARK minimizedRMSD -1
REMARK  0 active torsions:
REMARK  status: ('A' for Active; 'I' for Inactive)
ROOT
ATOM      1  C   UNL d   1       3.357   1.470   0.701  0.00  0.00     0.077 C 
ATOM      2  C1  UNL d   1       1.960   1.991   0.532  0.00  0.00    -0.074 A 
ATOM      3  C2  UNL d   1       1.714   3.363   0.422  0.00  0.00    -0.005 A 
ATOM      4  C3  UNL d   1       0.411   3.833   0.256  0.00  0.00     0.006 A 
ATOM      5  C4  UNL d   1      -0.657   2.936   0.199  0.00  0.00    -0.005 A 
ATOM      6  C5  UNL d   1      -0.430   1.561   0.307  0.00  0.00    -0.074 A 
ATOM      7  C6  UNL d   1      -1.565   0.583   0.238  0.00  0.00     0.077 C 
ATOM      8  C7  UNL d   1       0.883   1.096   0.466  0.00  0.00    -0.001 A 
ENDROOT
TORSDOF 0
ENDMDL
