MODEL 1
REMARK minimizedAffinity -2.20451331
REMARK minimizedRMSD -1
REMARK  0 active torsions:
REMARK  status: ('A' for Active; 'I' for Inactive)
ROOT
ATOM      1  C   UNL d   1       0.747   3.619  -0.005  0.00  0.00     0.077 C 
ATOM      2  C1  UNL d   1      -0.000   2.330   0.174  0.00  0.00    -0.074 A 
ATOM      3  C2  UNL d   1      -1.248   2.305   0.806  0.00  0.00    -0.005 A 
ATOM      4  C3  UNL d   1      -1.935   1.101   0.957  0.00  0.00     0.006 A 
ATOM      5  C4  UNL d   1      -1.383  -0.088   0.479  0.00  0.00    -0.005 A 
ATOM      6  C5  UNL d   1      -0.137  -0.082  -0.157  0.00  0.00    -0.074 A 
ATOM      7  C6  UNL d   1       0.466  -1.349  -0.686  0.00  0.00     0.077 C 
ATOM      8  C7  UNL d   1       0.544   1.133  -0.311  0.00  0.00    -0.001 A 
ENDROOT
TORSDOF 0
ENDMDL
