MODEL 1
REMARK minimizedAffinity -3.69300866
REMARK minimizedRMSD -1
REMARK  1 active torsions:
REMARK  status: ('A' for Active; 'I' for Inactive)
REMARK    1  A    between atoms: C1_2  and  C2_3 
ROOT
ATOM      1  C2  UNL d   1      -0.833   0.142   0.015  0.00  0.00    -0.073 A 
ATOM      2  C3  UNL d   1      -1.424  -1.101  -0.238  0.00  0.00    -0.002 A 
ATOM      3  C4  UNL d   1      -0.671  -2.140  -0.787  0.00  0.00     0.004 A 
ATOM      4  C5  UNL d   1       0.679  -1.950  -1.082  0.00  0.00    -0.004 A 
ATOM      5  C6  UNL d   1       1.290  -0.719  -0.825  0.00  0.00    -0.075 A 
ATOM      6  C7  UNL d   1       2.740  -0.497  -1.139  0.00  0.00     0.076 C 
ATOM      7  C8  UNL d   1       0.527   0.321  -0.276  0.00  0.00     0.001 A 
ENDROOT
BRANCH   1   8
ATOM      8  C1  UNL d   1      -1.639   1.265   0.614  0.00  0.00     0.053 C 
ATOM      9  C   UNL d   1      -2.188   0.905   1.985  0.00  0.00     0.018 C 
ENDBRANCH   1   8
TORSDOF 1
ENDMDL
