MODEL 1
REMARK minimizedAffinity 1.27340591
REMARK minimizedRMSD -1
REMARK  1 active torsions:
REMARK  status: ('A' for Active; 'I' for Inactive)
REMARK    1  A    between atoms: C1_2  and  C2_3 
ROOT
ATOM      1  C2  UNL d   1       1.077   0.763  -0.830  0.00  0.00    -0.073 A 
ATOM      2  C3  UNL d   1       2.395   0.302  -0.928  0.00  0.00    -0.002 A 
ATOM      3  C4  UNL d   1       2.663  -1.067  -0.945  0.00  0.00     0.004 A 
ATOM      4  C5  UNL d   1       1.618  -1.988  -0.872  0.00  0.00    -0.004 A 
ATOM      5  C6  UNL d   1       0.294  -1.547  -0.786  0.00  0.00    -0.075 A 
ATOM      6  C7  UNL d   1      -0.842  -2.525  -0.704  0.00  0.00     0.076 C 
ATOM      7  C8  UNL d   1       0.032  -0.170  -0.767  0.00  0.00     0.001 A 
ENDROOT
BRANCH   1   8
ATOM      8  C1  UNL d   1       0.782   2.241  -0.818  0.00  0.00     0.053 C 
ATOM      9  C   UNL d   1      -0.235   2.628  -1.881  0.00  0.00     0.018 C 
ENDBRANCH   1   8
TORSDOF 1
ENDMDL
