MODEL 1
REMARK minimizedAffinity -2.89390135
REMARK minimizedRMSD -1
REMARK  1 active torsions:
REMARK  status: ('A' for Active; 'I' for Inactive)
REMARK    1  A    between atoms: C1_2  and  C2_3 
ROOT
ATOM      1  C2  UNL d   1       0.912   0.212  -1.405  0.00  0.00    -0.073 A 
ATOM      2  C3  UNL d   1       1.440  -1.080  -1.293  0.00  0.00    -0.002 A 
ATOM      3  C4  UNL d   1       0.870  -2.000  -0.412  0.00  0.00     0.004 A 
ATOM      4  C5  UNL d   1      -0.236  -1.642   0.359  0.00  0.00    -0.004 A 
ATOM      5  C6  UNL d   1      -0.785  -0.360   0.252  0.00  0.00    -0.075 A 
ATOM      6  C7  UNL d   1      -1.972   0.042   1.076  0.00  0.00     0.076 C 
ATOM      7  C8  UNL d   1      -0.205   0.560  -0.632  0.00  0.00     0.001 A 
ENDROOT
BRANCH   1   8
ATOM      8  C1  UNL d   1       1.521   1.207  -2.359  0.00  0.00     0.053 C 
ATOM      9  C   UNL d   1       0.707   2.489  -2.441  0.00  0.00     0.018 C 
ENDBRANCH   1   8
TORSDOF 1
ENDMDL
