MODEL 1
REMARK minimizedAffinity -3.4726603
REMARK minimizedRMSD -1
REMARK  1 active torsions:
REMARK  status: ('A' for Active; 'I' for Inactive)
REMARK    1  A    between atoms: C1_2  and  C2_3 
ROOT
ATOM      1  C2  UNL d   1       0.011   0.137   0.396  0.00  0.00    -0.073 A 
ATOM      2  C3  UNL d   1      -0.439  -1.182   0.271  0.00  0.00    -0.002 A 
ATOM      3  C4  UNL d   1       0.282  -2.105  -0.488  0.00  0.00     0.004 A 
ATOM      4  C5  UNL d   1       1.463  -1.721  -1.123  0.00  0.00    -0.004 A 
ATOM      5  C6  UNL d   1       1.936  -0.410  -1.001  0.00  0.00    -0.075 A 
ATOM      6  C7  UNL d   1       3.203   0.019  -1.680  0.00  0.00     0.076 C 
ATOM      7  C8  UNL d   1       1.204   0.511  -0.239  0.00  0.00     0.001 A 
ENDROOT
BRANCH   1   8
ATOM      8  C1  UNL d   1      -0.760   1.135   1.220  0.00  0.00     0.053 C 
ATOM      9  C   UNL d   1      -1.964   0.503   1.901  0.00  0.00     0.018 C 
ENDBRANCH   1   8
TORSDOF 1
ENDMDL
