MODEL 1
REMARK minimizedAffinity -2.2862308
REMARK minimizedRMSD -1
REMARK  1 active torsions:
REMARK  status: ('A' for Active; 'I' for Inactive)
REMARK    1  A    between atoms: C1_2  and  C2_3 
ROOT
ATOM      1  C2  UNL d   1       0.022   0.285  -0.964  0.00  0.00    -0.073 A 
ATOM      2  C3  UNL d   1       1.000   0.077  -1.943  0.00  0.00    -0.002 A 
ATOM      3  C4  UNL d   1       1.895  -0.987  -1.829  0.00  0.00     0.004 A 
ATOM      4  C5  UNL d   1       1.819  -1.856  -0.741  0.00  0.00    -0.004 A 
ATOM      5  C6  UNL d   1       0.841  -1.671   0.241  0.00  0.00    -0.075 A 
ATOM      6  C7  UNL d   1       0.746  -2.596   1.419  0.00  0.00     0.076 C 
ATOM      7  C8  UNL d   1      -0.053  -0.599   0.122  0.00  0.00     0.001 A 
ENDROOT
BRANCH   1   8
ATOM      8  C1  UNL d   1      -0.952   1.429  -1.086  0.00  0.00     0.053 C 
ATOM      9  C   UNL d   1      -0.481   2.474  -2.084  0.00  0.00     0.018 C 
ENDBRANCH   1   8
TORSDOF 1
ENDMDL
