MODEL 1
REMARK minimizedAffinity -4.01682758
REMARK minimizedRMSD -1
REMARK  1 active torsions:
REMARK  status: ('A' for Active; 'I' for Inactive)
REMARK    1  A    between atoms: C1_2  and  C2_3 
ROOT
ATOM      1  C2  UNL d   1      -0.669   0.085  -0.036  0.00  0.00    -0.073 A 
ATOM      2  C3  UNL d   1      -0.995   1.141  -0.894  0.00  0.00    -0.002 A 
ATOM      3  C4  UNL d   1      -0.022   1.705  -1.720  0.00  0.00     0.004 A 
ATOM      4  C5  UNL d   1       1.283   1.214  -1.703  0.00  0.00    -0.004 A 
ATOM      5  C6  UNL d   1       1.626   0.151  -0.861  0.00  0.00    -0.075 A 
ATOM      6  C7  UNL d   1       3.027  -0.387  -0.828  0.00  0.00     0.076 C 
ATOM      7  C8  UNL d   1       0.644  -0.408  -0.032  0.00  0.00     0.001 A 
ENDROOT
BRANCH   1   8
ATOM      8  C1  UNL d   1      -1.718  -0.531   0.853  0.00  0.00     0.053 C 
ATOM      9  C   UNL d   1      -2.126   0.401   1.984  0.00  0.00     0.018 C 
ENDBRANCH   1   8
TORSDOF 1
ENDMDL
