MODEL 1
REMARK minimizedAffinity -3.7404027
REMARK minimizedRMSD -1
REMARK  1 active torsions:
REMARK  status: ('A' for Active; 'I' for Inactive)
REMARK    1  A    between atoms: C1_2  and  C2_3 
ROOT
ATOM      1  C2  UNL d   1      -0.964  -0.007   0.883  0.00  0.00    -0.073 A 
ATOM      2  C3  UNL d   1      -2.313  -0.229   0.587  0.00  0.00    -0.002 A 
ATOM      3  C4  UNL d   1      -3.290  -0.041   1.566  0.00  0.00     0.004 A 
ATOM      4  C5  UNL d   1      -2.928   0.376   2.847  0.00  0.00    -0.004 A 
ATOM      5  C6  UNL d   1      -1.586   0.614   3.159  0.00  0.00    -0.075 A 
ATOM      6  C7  UNL d   1      -1.181   1.061   4.533  0.00  0.00     0.076 C 
ATOM      7  C8  UNL d   1      -0.611   0.421   2.171  0.00  0.00     0.001 A 
ENDROOT
BRANCH   1   8
ATOM      8  C1  UNL d   1       0.094  -0.202  -0.173  0.00  0.00     0.053 C 
ATOM      9  C   UNL d   1       0.804  -1.539  -0.028  0.00  0.00     0.018 C 
ENDBRANCH   1   8
TORSDOF 1
ENDMDL
