MODEL 1
REMARK minimizedAffinity -3.93570948
REMARK minimizedRMSD -1
REMARK  1 active torsions:
REMARK  status: ('A' for Active; 'I' for Inactive)
REMARK    1  A    between atoms: C1_2  and  C2_3 
ROOT
ATOM      1  C2  UNL d   1       0.895  -0.433  -0.311  0.00  0.00    -0.073 A 
ATOM      2  C3  UNL d   1       1.939  -1.329  -0.565  0.00  0.00    -0.002 A 
ATOM      3  C4  UNL d   1       2.898  -1.037  -1.535  0.00  0.00     0.004 A 
ATOM      4  C5  UNL d   1       2.827   0.155  -2.256  0.00  0.00    -0.004 A 
ATOM      5  C6  UNL d   1       1.798   1.069  -2.008  0.00  0.00    -0.075 A 
ATOM      6  C7  UNL d   1       1.707   2.354  -2.777  0.00  0.00     0.076 C 
ATOM      7  C8  UNL d   1       0.837   0.767  -1.034  0.00  0.00     0.001 A 
ENDROOT
BRANCH   1   8
ATOM      8  C1  UNL d   1      -0.140  -0.740   0.741  0.00  0.00     0.053 C 
ATOM      9  C   UNL d   1      -1.200   0.345   0.833  0.00  0.00     0.018 C 
ENDBRANCH   1   8
TORSDOF 1
ENDMDL
