MODEL 1
REMARK minimizedAffinity -5.55022955
REMARK minimizedRMSD -1
REMARK  1 active torsions:
REMARK  status: ('A' for Active; 'I' for Inactive)
REMARK    1  A    between atoms: C1_2  and  C2_3 
ROOT
ATOM      1  C2  UNL d   1       0.162  -0.410  -0.366  0.00  0.00    -0.073 A 
ATOM      2  C3  UNL d   1       1.221  -1.321  -0.442  0.00  0.00    -0.002 A 
ATOM      3  C4  UNL d   1       2.359  -1.018  -1.189  0.00  0.00     0.004 A 
ATOM      4  C5  UNL d   1       2.454   0.200  -1.862  0.00  0.00    -0.004 A 
ATOM      5  C6  UNL d   1       1.411   1.129  -1.789  0.00  0.00    -0.075 A 
ATOM      6  C7  UNL d   1       1.496   2.443  -2.509  0.00  0.00     0.076 C 
ATOM      7  C8  UNL d   1       0.269   0.816  -1.038  0.00  0.00     0.001 A 
ENDROOT
BRANCH   1   8
ATOM      8  C1  UNL d   1      -1.067  -0.730   0.445  0.00  0.00     0.053 C 
ATOM      9  C   UNL d   1      -1.631   0.502   1.137  0.00  0.00     0.018 C 
ENDBRANCH   1   8
TORSDOF 1
ENDMDL
