MODEL 1
REMARK minimizedAffinity -5.66937304
REMARK minimizedRMSD -1
REMARK  1 active torsions:
REMARK  status: ('A' for Active; 'I' for Inactive)
REMARK    1  A    between atoms: C1_2  and  C2_3 
ROOT
ATOM      1  C2  UNL d   1       0.093  -0.626   0.318  0.00  0.00    -0.073 A 
ATOM      2  C3  UNL d   1      -0.235   0.520  -0.416  0.00  0.00    -0.002 A 
ATOM      3  C4  UNL d   1      -1.068   1.495   0.134  0.00  0.00     0.004 A 
ATOM      4  C5  UNL d   1      -1.576   1.338   1.424  0.00  0.00    -0.004 A 
ATOM      5  C6  UNL d   1      -1.250   0.206   2.178  0.00  0.00    -0.075 A 
ATOM      6  C7  UNL d   1      -1.789   0.022   3.566  0.00  0.00     0.076 C 
ATOM      7  C8  UNL d   1      -0.414  -0.770   1.618  0.00  0.00     0.001 A 
ENDROOT
BRANCH   1   8
ATOM      8  C1  UNL d   1       0.998  -1.678  -0.269  0.00  0.00     0.053 C 
ATOM      9  C   UNL d   1       1.572  -1.252  -1.611  0.00  0.00     0.018 C 
ENDBRANCH   1   8
TORSDOF 1
ENDMDL
