MODEL 1
REMARK minimizedAffinity -2.29387999
REMARK minimizedRMSD -1
REMARK  1 active torsions:
REMARK  status: ('A' for Active; 'I' for Inactive)
REMARK    1  A    between atoms: C1_2  and  C2_3 
ROOT
ATOM      1  C2  UNL d   1       5.734   1.212   5.086  0.00  0.00    -0.073 A 
ATOM      2  C3  UNL d   1       5.470   1.168   3.712  0.00  0.00    -0.002 A 
ATOM      3  C4  UNL d   1       5.218  -0.051   3.082  0.00  0.00     0.004 A 
ATOM      4  C5  UNL d   1       5.222  -1.236   3.817  0.00  0.00    -0.004 A 
ATOM      5  C6  UNL d   1       5.473  -1.211   5.193  0.00  0.00    -0.075 A 
ATOM      6  C7  UNL d   1       5.483  -2.477   5.998  0.00  0.00     0.076 C 
ATOM      7  C8  UNL d   1       5.727   0.017   5.819  0.00  0.00     0.001 A 
ENDROOT
BRANCH   1   8
ATOM      8  C1  UNL d   1       6.000   2.527   5.772  0.00  0.00     0.053 C 
ATOM      9  C   UNL d   1       5.987   3.693   4.796  0.00  0.00     0.018 C 
ENDBRANCH   1   8
TORSDOF 1
ENDMDL
