MODEL 1
REMARK minimizedAffinity -0.210380957
REMARK minimizedRMSD -1
REMARK  2 active torsions:
REMARK  status: ('A' for Active; 'I' for Inactive)
REMARK    1  A    between atoms: C1_2  and  C2_3 
REMARK    2  A    between atoms: C2_3  and  C3_4 
ROOT
ATOM      1  C3  UNL d   1      -1.712   3.289   0.370  0.00  0.00    -0.075 A 
ATOM      2  C4  UNL d   1      -1.519   2.010  -0.172  0.00  0.00     0.002 A 
ATOM      3  C5  UNL d   1      -0.233   1.545  -0.449  0.00  0.00     0.002 A 
ATOM      4  C6  UNL d   1       0.873   2.354  -0.199  0.00  0.00    -0.004 A 
ATOM      5  C7  UNL d   1       0.691   3.633   0.323  0.00  0.00     0.002 A 
ATOM      6  C8  UNL d   1      -0.594   4.099   0.606  0.00  0.00     0.002 A 
ENDROOT
BRANCH   1   7
ATOM      7  C2  UNL d   1      -3.099   3.787   0.699  0.00  0.00     0.056 C 
BRANCH   7   8
ATOM      8  C1  UNL d   1      -3.188   4.555   2.023  0.00  0.00     0.007 C 
ATOM      9  C   UNL d   1      -4.383   5.495   2.092  0.00  0.00     0.009 C 
ENDBRANCH   7   8
ENDBRANCH   1   7
TORSDOF 2
ENDMDL
