MODEL 1
REMARK minimizedAffinity 10.1151133
REMARK minimizedRMSD -1
REMARK  2 active torsions:
REMARK  status: ('A' for Active; 'I' for Inactive)
REMARK    1  A    between atoms: C1_2  and  C2_3 
REMARK    2  A    between atoms: C2_3  and  C3_4 
ROOT
ATOM      1  C3  UNL d   1      -4.074   2.292  -3.426  0.00  0.00    -0.075 A 
ATOM      2  C4  UNL d   1      -5.435   2.018  -3.225  0.00  0.00     0.002 A 
ATOM      3  C5  UNL d   1      -5.835   0.829  -2.615  0.00  0.00     0.002 A 
ATOM      4  C6  UNL d   1      -4.883  -0.104  -2.209  0.00  0.00    -0.004 A 
ATOM      5  C7  UNL d   1      -3.530   0.150  -2.419  0.00  0.00     0.002 A 
ATOM      6  C8  UNL d   1      -3.126   1.342  -3.025  0.00  0.00     0.002 A 
ENDROOT
BRANCH   1   7
ATOM      7  C2  UNL d   1      -3.633   3.591  -4.058  0.00  0.00     0.056 C 
BRANCH   7   8
ATOM      8  C1  UNL d   1      -4.652   4.727  -3.924  0.00  0.00     0.007 C 
ATOM      9  C   UNL d   1      -5.811   4.614  -4.905  0.00  0.00     0.009 C 
ENDBRANCH   7   8
ENDBRANCH   1   7
TORSDOF 2
ENDMDL
