MODEL 1
REMARK minimizedAffinity 11.780098
REMARK minimizedRMSD -1
REMARK  2 active torsions:
REMARK  status: ('A' for Active; 'I' for Inactive)
REMARK    1  A    between atoms: C1_2  and  C2_3 
REMARK    2  A    between atoms: C2_3  and  C3_4 
ROOT
ATOM      1  C3  UNL d   1      -1.073   4.575  -1.499  0.00  0.00    -0.075 A 
ATOM      2  C4  UNL d   1       0.170   5.222  -1.471  0.00  0.00     0.002 A 
ATOM      3  C5  UNL d   1       1.208   4.730  -0.678  0.00  0.00     0.002 A 
ATOM      4  C6  UNL d   1       1.012   3.592   0.102  0.00  0.00    -0.004 A 
ATOM      5  C7  UNL d   1      -0.225   2.951   0.095  0.00  0.00     0.002 A 
ATOM      6  C8  UNL d   1      -1.263   3.439  -0.701  0.00  0.00     0.002 A 
ENDROOT
BRANCH   1   7
ATOM      7  C2  UNL d   1      -2.190   5.086  -2.377  0.00  0.00     0.056 C 
BRANCH   7   8
ATOM      8  C1  UNL d   1      -2.911   3.991  -3.170  0.00  0.00     0.007 C 
ATOM      9  C   UNL d   1      -4.161   4.489  -3.883  0.00  0.00     0.009 C 
ENDBRANCH   7   8
ENDBRANCH   1   7
TORSDOF 2
ENDMDL
