MODEL 1
REMARK minimizedAffinity 3.6673429
REMARK minimizedRMSD -1
REMARK  2 active torsions:
REMARK  status: ('A' for Active; 'I' for Inactive)
REMARK    1  A    between atoms: C1_2  and  C2_3 
REMARK    2  A    between atoms: C2_3  and  C3_4 
ROOT
ATOM      1  C3  UNL d   1      -4.118   2.881  -3.633  0.00  0.00    -0.075 A 
ATOM      2  C4  UNL d   1      -5.436   2.891  -4.112  0.00  0.00     0.002 A 
ATOM      3  C5  UNL d   1      -6.000   4.067  -4.611  0.00  0.00     0.002 A 
ATOM      4  C6  UNL d   1      -5.258   5.246  -4.627  0.00  0.00    -0.004 A 
ATOM      5  C7  UNL d   1      -3.953   5.251  -4.138  0.00  0.00     0.002 A 
ATOM      6  C8  UNL d   1      -3.386   4.075  -3.643  0.00  0.00     0.002 A 
ENDROOT
BRANCH   1   7
ATOM      7  C2  UNL d   1      -3.493   1.606  -3.120  0.00  0.00     0.056 C 
BRANCH   7   8
ATOM      8  C1  UNL d   1      -4.467   0.425  -3.031  0.00  0.00     0.007 C 
ATOM      9  C   UNL d   1      -5.179   0.334  -1.688  0.00  0.00     0.009 C 
ENDBRANCH   7   8
ENDBRANCH   1   7
TORSDOF 2
ENDMDL
