MODEL 1
REMARK minimizedAffinity -0.392486125
REMARK minimizedRMSD -1
REMARK  2 active torsions:
REMARK  status: ('A' for Active; 'I' for Inactive)
REMARK    1  A    between atoms: C1_2  and  C2_3 
REMARK    2  A    between atoms: C2_3  and  C3_4 
ROOT
ATOM      1  C3  UNL d   1       2.834  -1.318   0.221  0.00  0.00    -0.075 A 
ATOM      2  C4  UNL d   1       4.067  -1.097  -0.409  0.00  0.00     0.002 A 
ATOM      3  C5  UNL d   1       4.923  -2.163  -0.683  0.00  0.00     0.002 A 
ATOM      4  C6  UNL d   1       4.564  -3.460  -0.322  0.00  0.00    -0.004 A 
ATOM      5  C7  UNL d   1       3.348  -3.689   0.319  0.00  0.00     0.002 A 
ATOM      6  C8  UNL d   1       2.487  -2.624   0.590  0.00  0.00     0.002 A 
ENDROOT
BRANCH   1   7
ATOM      7  C2  UNL d   1       1.889  -0.171   0.494  0.00  0.00     0.056 C 
BRANCH   7   8
ATOM      8  C1  UNL d   1       1.407   0.554  -0.767  0.00  0.00     0.007 C 
ATOM      9  C   UNL d   1       0.673   1.854  -0.469  0.00  0.00     0.009 C 
ENDBRANCH   7   8
ENDBRANCH   1   7
TORSDOF 2
ENDMDL
