MODEL 1
REMARK minimizedAffinity -4.22613335
REMARK minimizedRMSD -1
REMARK  2 active torsions:
REMARK  status: ('A' for Active; 'I' for Inactive)
REMARK    1  A    between atoms: C1_2  and  C2_3 
REMARK    2  A    between atoms: C2_3  and  C3_4 
ROOT
ATOM      1  C3  UNL d   1      -4.654   0.038   1.683  0.00  0.00    -0.075 A 
ATOM      2  C4  UNL d   1      -5.726  -0.860   1.790  0.00  0.00     0.002 A 
ATOM      3  C5  UNL d   1      -6.000  -1.494   3.002  0.00  0.00     0.002 A 
ATOM      4  C6  UNL d   1      -5.202  -1.247   4.117  0.00  0.00    -0.004 A 
ATOM      5  C7  UNL d   1      -4.125  -0.369   4.017  0.00  0.00     0.002 A 
ATOM      6  C8  UNL d   1      -3.851   0.270   2.807  0.00  0.00     0.002 A 
ENDROOT
BRANCH   1   7
ATOM      7  C2  UNL d   1      -4.370   0.751   0.382  0.00  0.00     0.056 C 
BRANCH   7   8
ATOM      8  C1  UNL d   1      -5.612   0.983  -0.486  0.00  0.00     0.007 C 
ATOM      9  C   UNL d   1      -5.343   1.874  -1.692  0.00  0.00     0.009 C 
ENDBRANCH   7   8
ENDBRANCH   1   7
TORSDOF 2
ENDMDL
