MODEL 1
REMARK minimizedAffinity -4.64398336
REMARK minimizedRMSD -1
REMARK  1 active torsions:
REMARK  status: ('A' for Active; 'I' for Inactive)
REMARK    1  A    between atoms: C1_2  and  C2_3 
ROOT
ATOM      1  C2  UNL d   1       0.509  -0.385   0.071  0.00  0.00    -0.076 A 
ATOM      2  C3  UNL d   1       0.408  -1.787   0.039  0.00  0.00     0.004 A 
ATOM      3  C4  UNL d   1       1.543  -2.585  -0.091  0.00  0.00    -0.003 A 
ATOM      4  C5  UNL d   1       2.798  -1.995  -0.191  0.00  0.00     0.000 A 
ATOM      5  C6  UNL d   1       2.919  -0.606  -0.143  0.00  0.00     0.000 A 
ATOM      6  C7  UNL d   1       1.786   0.212   0.004  0.00  0.00    -0.073 A 
ATOM      7  C8  UNL d   1       1.974   1.704   0.044  0.00  0.00     0.078 C 
ENDROOT
BRANCH   1   8
ATOM      8  C1  UNL d   1      -0.759   0.430   0.186  0.00  0.00     0.053 C 
ATOM      9  C   UNL d   1      -1.528   0.135   1.464  0.00  0.00     0.018 C 
ENDBRANCH   1   8
TORSDOF 1
ENDMDL
