MODEL 1
REMARK minimizedAffinity -2.65353346
REMARK minimizedRMSD -1
REMARK  1 active torsions:
REMARK  status: ('A' for Active; 'I' for Inactive)
REMARK    1  A    between atoms: C1_2  and  C2_3 
ROOT
ATOM      1  C2  UNL d   1      -0.818  -0.006  -0.384  0.00  0.00    -0.076 A 
ATOM      2  C3  UNL d   1      -0.691  -1.401  -0.259  0.00  0.00     0.004 A 
ATOM      3  C4  UNL d   1       0.562  -1.999  -0.140  0.00  0.00    -0.003 A 
ATOM      4  C5  UNL d   1       1.709  -1.212  -0.143  0.00  0.00     0.000 A 
ATOM      5  C6  UNL d   1       1.600   0.174  -0.248  0.00  0.00     0.000 A 
ATOM      6  C7  UNL d   1       0.344   0.794  -0.353  0.00  0.00    -0.073 A 
ATOM      7  C8  UNL d   1       0.286   2.293  -0.470  0.00  0.00     0.078 C 
ENDROOT
BRANCH   1   8
ATOM      8  C1  UNL d   1      -2.202   0.584  -0.538  0.00  0.00     0.053 C 
ATOM      9  C   UNL d   1      -2.963   0.636   0.778  0.00  0.00     0.018 C 
ENDBRANCH   1   8
TORSDOF 1
ENDMDL
