MODEL 1
REMARK minimizedAffinity -5.3179493
REMARK minimizedRMSD -1
REMARK  1 active torsions:
REMARK  status: ('A' for Active; 'I' for Inactive)
REMARK    1  A    between atoms: C1_2  and  C2_3 
ROOT
ATOM      1  C2  UNL d   1       0.973   0.116  -0.020  0.00  0.00    -0.076 A 
ATOM      2  C3  UNL d   1       1.837   1.209   0.163  0.00  0.00     0.004 A 
ATOM      3  C4  UNL d   1       3.221   1.041   0.145  0.00  0.00    -0.003 A 
ATOM      4  C5  UNL d   1       3.763  -0.224  -0.058  0.00  0.00     0.000 A 
ATOM      5  C6  UNL d   1       2.920  -1.317  -0.259  0.00  0.00     0.000 A 
ATOM      6  C7  UNL d   1       1.523  -1.161  -0.260  0.00  0.00    -0.073 A 
ATOM      7  C8  UNL d   1       0.662  -2.376  -0.476  0.00  0.00     0.078 C 
ENDROOT
BRANCH   1   8
ATOM      8  C1  UNL d   1      -0.519   0.355   0.037  0.00  0.00     0.053 C 
ATOM      9  C   UNL d   1      -0.900   1.765  -0.384  0.00  0.00     0.018 C 
ENDBRANCH   1   8
TORSDOF 1
ENDMDL
