MODEL 1
REMARK minimizedAffinity -2.79982734
REMARK minimizedRMSD -1
REMARK  1 active torsions:
REMARK  status: ('A' for Active; 'I' for Inactive)
REMARK    1  A    between atoms: C1_2  and  C2_3 
ROOT
ATOM      1  C2  UNL d   1       0.671   0.510  -0.072  0.00  0.00    -0.076 A 
ATOM      2  C3  UNL d   1       0.479  -0.880  -0.153  0.00  0.00     0.004 A 
ATOM      3  C4  UNL d   1       1.564  -1.754  -0.184  0.00  0.00    -0.003 A 
ATOM      4  C5  UNL d   1       2.860  -1.251  -0.134  0.00  0.00     0.000 A 
ATOM      5  C6  UNL d   1       3.069   0.124  -0.036  0.00  0.00     0.000 A 
ATOM      6  C7  UNL d   1       1.985   1.017   0.013  0.00  0.00    -0.073 A 
ATOM      7  C8  UNL d   1       2.268   2.491   0.112  0.00  0.00     0.078 C 
ENDROOT
BRANCH   1   8
ATOM      8  C1  UNL d   1      -0.544   1.410  -0.070  0.00  0.00     0.053 C 
ATOM      9  C   UNL d   1      -1.827   0.658  -0.390  0.00  0.00     0.018 C 
ENDBRANCH   1   8
TORSDOF 1
ENDMDL
