MODEL 1
REMARK minimizedAffinity -0.731321156
REMARK minimizedRMSD -1
REMARK  1 active torsions:
REMARK  status: ('A' for Active; 'I' for Inactive)
REMARK    1  A    between atoms: C1_2  and  C2_3 
ROOT
ATOM      1  C2  UNL d   1       0.000  -0.251  -0.242  0.00  0.00    -0.076 A 
ATOM      2  C3  UNL d   1       1.094   0.217   0.507  0.00  0.00     0.004 A 
ATOM      3  C4  UNL d   1       2.385  -0.245   0.257  0.00  0.00    -0.003 A 
ATOM      4  C5  UNL d   1       2.603  -1.183  -0.746  0.00  0.00     0.000 A 
ATOM      5  C6  UNL d   1       1.532  -1.646  -1.510  0.00  0.00     0.000 A 
ATOM      6  C7  UNL d   1       0.227  -1.178  -1.282  0.00  0.00    -0.073 A 
ATOM      7  C8  UNL d   1      -0.891  -1.715  -2.132  0.00  0.00     0.078 C 
ENDROOT
BRANCH   1   8
ATOM      8  C1  UNL d   1      -1.381   0.266   0.092  0.00  0.00     0.053 C 
ATOM      9  C   UNL d   1      -1.593   0.438   1.589  0.00  0.00     0.018 C 
ENDBRANCH   1   8
TORSDOF 1
ENDMDL
