MODEL 1
REMARK minimizedAffinity -1.00763166
REMARK minimizedRMSD -1
REMARK  1 active torsions:
REMARK  status: ('A' for Active; 'I' for Inactive)
REMARK    1  A    between atoms: C1_2  and  C2_3 
ROOT
ATOM      1  C2  UNL d   1      -0.087   0.201  -0.472  0.00  0.00    -0.076 A 
ATOM      2  C3  UNL d   1      -0.408  -1.129  -0.796  0.00  0.00     0.004 A 
ATOM      3  C4  UNL d   1       0.566  -2.126  -0.783  0.00  0.00    -0.003 A 
ATOM      4  C5  UNL d   1       1.878  -1.809  -0.446  0.00  0.00     0.000 A 
ATOM      5  C6  UNL d   1       2.210  -0.498  -0.105  0.00  0.00     0.000 A 
ATOM      6  C7  UNL d   1       1.237   0.515  -0.096  0.00  0.00    -0.073 A 
ATOM      7  C8  UNL d   1       1.652   1.912   0.274  0.00  0.00     0.078 C 
ENDROOT
BRANCH   1   8
ATOM      8  C1  UNL d   1      -1.180   1.244  -0.528  0.00  0.00     0.053 C 
ATOM      9  C   UNL d   1      -2.540   0.685  -0.140  0.00  0.00     0.018 C 
ENDBRANCH   1   8
TORSDOF 1
ENDMDL
