MODEL 1
REMARK minimizedAffinity -2.61438274
REMARK minimizedRMSD -1
REMARK  1 active torsions:
REMARK  status: ('A' for Active; 'I' for Inactive)
REMARK    1  A    between atoms: C1_2  and  C2_3 
ROOT
ATOM      1  C2  UNL d   1       0.239  -0.034  -0.268  0.00  0.00    -0.076 A 
ATOM      2  C3  UNL d   1       0.147  -1.437  -0.299  0.00  0.00     0.004 A 
ATOM      3  C4  UNL d   1       1.290  -2.232  -0.255  0.00  0.00    -0.003 A 
ATOM      4  C5  UNL d   1       2.545  -1.638  -0.178  0.00  0.00     0.000 A 
ATOM      5  C6  UNL d   1       2.655  -0.249  -0.127  0.00  0.00     0.000 A 
ATOM      6  C7  UNL d   1       1.511   0.567  -0.154  0.00  0.00    -0.073 A 
ATOM      7  C8  UNL d   1       1.687   2.060  -0.104  0.00  0.00     0.078 C 
ENDROOT
BRANCH   1   8
ATOM      8  C1  UNL d   1      -1.034   0.777  -0.346  0.00  0.00     0.053 C 
ATOM      9  C   UNL d   1      -1.993   0.469   0.794  0.00  0.00     0.018 C 
ENDBRANCH   1   8
TORSDOF 1
ENDMDL
