MODEL 1
REMARK minimizedAffinity -5.71784496
REMARK minimizedRMSD -1
REMARK  1 active torsions:
REMARK  status: ('A' for Active; 'I' for Inactive)
REMARK    1  A    between atoms: C1_2  and  C2_3 
ROOT
ATOM      1  C2  UNL d   1       0.781   0.616  -0.160  0.00  0.00    -0.076 A 
ATOM      2  C3  UNL d   1       1.786   1.471   0.324  0.00  0.00     0.004 A 
ATOM      3  C4  UNL d   1       3.036   0.974   0.690  0.00  0.00    -0.003 A 
ATOM      4  C5  UNL d   1       3.300  -0.387   0.578  0.00  0.00     0.000 A 
ATOM      5  C6  UNL d   1       2.320  -1.247   0.084  0.00  0.00     0.000 A 
ATOM      6  C7  UNL d   1       1.061  -0.759  -0.305  0.00  0.00    -0.073 A 
ATOM      7  C8  UNL d   1       0.039  -1.733  -0.826  0.00  0.00     0.078 C 
ENDROOT
BRANCH   1   8
ATOM      8  C1  UNL d   1      -0.564   1.209  -0.516  0.00  0.00     0.053 C 
ATOM      9  C   UNL d   1      -1.614   0.956   0.555  0.00  0.00     0.018 C 
ENDBRANCH   1   8
TORSDOF 1
ENDMDL
