MODEL 1
REMARK minimizedAffinity -0.891908765
REMARK minimizedRMSD -1
REMARK  1 active torsions:
REMARK  status: ('A' for Active; 'I' for Inactive)
REMARK    1  A    between atoms: C1_2  and  C2_3 
ROOT
ATOM      1  C2  UNL d   1       1.188   0.120  -0.172  0.00  0.00    -0.076 A 
ATOM      2  C3  UNL d   1       2.106  -0.942  -0.236  0.00  0.00     0.004 A 
ATOM      3  C4  UNL d   1       1.684  -2.240  -0.517  0.00  0.00    -0.003 A 
ATOM      4  C5  UNL d   1       0.336  -2.497  -0.740  0.00  0.00     0.000 A 
ATOM      5  C6  UNL d   1      -0.587  -1.453  -0.699  0.00  0.00     0.000 A 
ATOM      6  C7  UNL d   1      -0.176  -0.136  -0.433  0.00  0.00    -0.073 A 
ATOM      7  C8  UNL d   1      -1.215   0.951  -0.394  0.00  0.00     0.078 C 
ENDROOT
BRANCH   1   8
ATOM      8  C1  UNL d   1       1.700   1.502   0.164  0.00  0.00     0.053 C 
ATOM      9  C   UNL d   1       3.218   1.587   0.123  0.00  0.00     0.018 C 
ENDBRANCH   1   8
TORSDOF 1
ENDMDL
