MODEL 1
REMARK minimizedAffinity -5.56705999
REMARK minimizedRMSD -1
REMARK  1 active torsions:
REMARK  status: ('A' for Active; 'I' for Inactive)
REMARK    1  A    between atoms: C1_2  and  C2_3 
ROOT
ATOM      1  C2  UNL d   1       1.006  -1.183   0.019  0.00  0.00    -0.076 A 
ATOM      2  C3  UNL d   1       2.396  -1.386   0.067  0.00  0.00     0.004 A 
ATOM      3  C4  UNL d   1       3.282  -0.315  -0.037  0.00  0.00    -0.003 A 
ATOM      4  C5  UNL d   1       2.792   0.977  -0.190  0.00  0.00     0.000 A 
ATOM      5  C6  UNL d   1       1.416   1.199  -0.222  0.00  0.00     0.000 A 
ATOM      6  C7  UNL d   1       0.509   0.132  -0.102  0.00  0.00    -0.073 A 
ATOM      7  C8  UNL d   1      -0.965   0.429  -0.149  0.00  0.00     0.078 C 
ENDROOT
BRANCH   1   8
ATOM      8  C1  UNL d   1       0.094  -2.386   0.110  0.00  0.00     0.053 C 
ATOM      9  C   UNL d   1      -0.261  -2.952  -1.256  0.00  0.00     0.018 C 
ENDBRANCH   1   8
TORSDOF 1
ENDMDL
