MODEL 1
REMARK minimizedAffinity -1.75837553
REMARK minimizedRMSD -1
REMARK  1 active torsions:
REMARK  status: ('A' for Active; 'I' for Inactive)
REMARK    1  A    between atoms: C1_2  and  C2_3 
ROOT
ATOM      1  C2  UNL d   1      -0.396  -0.068   0.213  0.00  0.00    -0.076 A 
ATOM      2  C3  UNL d   1       0.020   0.051   1.551  0.00  0.00     0.004 A 
ATOM      3  C4  UNL d   1       0.986  -0.803   2.080  0.00  0.00    -0.003 A 
ATOM      4  C5  UNL d   1       1.553  -1.789   1.280  0.00  0.00     0.000 A 
ATOM      5  C6  UNL d   1       1.165  -1.910  -0.054  0.00  0.00     0.000 A 
ATOM      6  C7  UNL d   1       0.204  -1.047  -0.608  0.00  0.00    -0.073 A 
ATOM      7  C8  UNL d   1      -0.182  -1.226  -2.050  0.00  0.00     0.078 C 
ENDROOT
BRANCH   1   8
ATOM      8  C1  UNL d   1      -1.468   0.869  -0.298  0.00  0.00     0.053 C 
ATOM      9  C   UNL d   1      -2.545   1.143   0.739  0.00  0.00     0.018 C 
ENDBRANCH   1   8
TORSDOF 1
ENDMDL
