MODEL 1
REMARK minimizedAffinity -2.53676128
REMARK minimizedRMSD -1
REMARK  1 active torsions:
REMARK  status: ('A' for Active; 'I' for Inactive)
REMARK    1  A    between atoms: C1_2  and  C2_3 
ROOT
ATOM      1  C2  UNL d   1       0.010   0.142  -0.296  0.00  0.00    -0.076 A 
ATOM      2  C3  UNL d   1      -0.248  -1.240  -0.290  0.00  0.00     0.004 A 
ATOM      3  C4  UNL d   1       0.748  -2.154   0.051  0.00  0.00    -0.003 A 
ATOM      4  C5  UNL d   1       2.017  -1.700   0.392  0.00  0.00     0.000 A 
ATOM      5  C6  UNL d   1       2.286  -0.332   0.408  0.00  0.00     0.000 A 
ATOM      6  C7  UNL d   1       1.289   0.603   0.083  0.00  0.00    -0.073 A 
ATOM      7  C8  UNL d   1       1.635   2.067   0.110  0.00  0.00     0.078 C 
ENDROOT
BRANCH   1   8
ATOM      8  C1  UNL d   1      -1.101   1.084  -0.701  0.00  0.00     0.053 C 
ATOM      9  C   UNL d   1      -2.293   1.019   0.242  0.00  0.00     0.018 C 
ENDBRANCH   1   8
TORSDOF 1
ENDMDL
