MODEL 1
REMARK minimizedAffinity 1.31154323
REMARK minimizedRMSD -1
REMARK  1 active torsions:
REMARK  status: ('A' for Active; 'I' for Inactive)
REMARK    1  A    between atoms: C1_2  and  C2_3 
ROOT
ATOM      1  C2  UNL d   1       0.867   0.457  -0.802  0.00  0.00    -0.076 A 
ATOM      2  C3  UNL d   1       2.113  -0.153  -1.028  0.00  0.00     0.004 A 
ATOM      3  C4  UNL d   1       2.236  -1.541  -1.072  0.00  0.00    -0.003 A 
ATOM      4  C5  UNL d   1       1.113  -2.342  -0.892  0.00  0.00     0.000 A 
ATOM      5  C6  UNL d   1      -0.134  -1.754  -0.684  0.00  0.00     0.000 A 
ATOM      6  C7  UNL d   1      -0.277  -0.356  -0.653  0.00  0.00    -0.073 A 
ATOM      7  C8  UNL d   1      -1.645   0.225  -0.419  0.00  0.00     0.078 C 
ENDROOT
BRANCH   1   8
ATOM      8  C1  UNL d   1       0.800   1.966  -0.737  0.00  0.00     0.053 C 
ATOM      9  C   UNL d   1       0.943   2.495   0.682  0.00  0.00     0.018 C 
ENDBRANCH   1   8
TORSDOF 1
ENDMDL
