MODEL 1
REMARK minimizedAffinity -1.70708358
REMARK minimizedRMSD -1
REMARK  0 active torsions:
REMARK  status: ('A' for Active; 'I' for Inactive)
ROOT
ATOM      1  C1  BNZ d   1       1.559   0.190  -1.556  0.00  0.00     0.000 A 
ATOM      2  C2  BNZ d   1       1.792   1.299  -2.325  0.00  0.00     0.000 A 
ATOM      3  C3  BNZ d   1       1.261   2.511  -1.984  0.00  0.00     0.000 A 
ATOM      4  C4  BNZ d   1       0.465   2.605  -0.899  0.00  0.00     0.000 A 
ATOM      5  C5  BNZ d   1       0.213   1.494  -0.119  0.00  0.00     0.000 A 
ATOM      6  C6  BNZ d   1       0.781   0.283  -0.443  0.00  0.00     0.000 A 
ENDROOT
TORSDOF 0
ENDMDL
