MODEL 1
REMARK minimizedAffinity 0.395900458
REMARK minimizedRMSD -1
REMARK  0 active torsions:
REMARK  status: ('A' for Active; 'I' for Inactive)
ROOT
ATOM      1  C1  BNZ d   1      -2.506   2.739   5.203  0.00  0.00     0.000 A 
ATOM      2  C2  BNZ d   1      -2.647   2.822   3.843  0.00  0.00     0.000 A 
ATOM      3  C3  BNZ d   1      -2.175   1.831   3.029  0.00  0.00     0.000 A 
ATOM      4  C4  BNZ d   1      -1.529   0.779   3.571  0.00  0.00     0.000 A 
ATOM      5  C5  BNZ d   1      -1.371   0.684   4.939  0.00  0.00     0.000 A 
ATOM      6  C6  BNZ d   1      -1.881   1.665   5.759  0.00  0.00     0.000 A 
ENDROOT
TORSDOF 0
ENDMDL
