MODEL 1
REMARK minimizedAffinity 2.28112841
REMARK minimizedRMSD -1
REMARK  0 active torsions:
REMARK  status: ('A' for Active; 'I' for Inactive)
ROOT
ATOM      1  C1  BNZ d   1      -2.972   1.829   5.962  0.00  0.00     0.000 A 
ATOM      2  C2  BNZ d   1      -3.217   2.492   4.788  0.00  0.00     0.000 A 
ATOM      3  C3  BNZ d   1      -2.574   2.135   3.636  0.00  0.00     0.000 A 
ATOM      4  C4  BNZ d   1      -1.660   1.144   3.666  0.00  0.00     0.000 A 
ATOM      5  C5  BNZ d   1      -1.395   0.473   4.843  0.00  0.00     0.000 A 
ATOM      6  C6  BNZ d   1      -2.072   0.809   5.993  0.00  0.00     0.000 A 
ENDROOT
TORSDOF 0
ENDMDL
