MODEL 1
REMARK minimizedAffinity -3.22361517
REMARK minimizedRMSD -1
REMARK  0 active torsions:
REMARK  status: ('A' for Active; 'I' for Inactive)
ROOT
ATOM      1  C1  BNZ d   1       1.101   0.178  -0.567  0.00  0.00     0.000 A 
ATOM      2  C2  BNZ d   1       1.082   0.501  -1.898  0.00  0.00     0.000 A 
ATOM      3  C3  BNZ d   1       0.883   1.792  -2.301  0.00  0.00     0.000 A 
ATOM      4  C4  BNZ d   1       0.664   2.749  -1.377  0.00  0.00     0.000 A 
ATOM      5  C5  BNZ d   1       0.671   2.438  -0.032  0.00  0.00     0.000 A 
ATOM      6  C6  BNZ d   1       0.910   1.144   0.372  0.00  0.00     0.000 A 
ENDROOT
TORSDOF 0
ENDMDL
