MODEL 1
REMARK minimizedAffinity -1.7131629
REMARK minimizedRMSD -1
REMARK  0 active torsions:
REMARK  status: ('A' for Active; 'I' for Inactive)
ROOT
ATOM      1  C1  BNZ d   1       0.691   2.851  -1.024  0.00  0.00     0.000 A 
ATOM      2  C2  BNZ d   1       0.829   1.837  -1.934  0.00  0.00     0.000 A 
ATOM      3  C3  BNZ d   1       1.249   0.597  -1.543  0.00  0.00     0.000 A 
ATOM      4  C4  BNZ d   1       1.567   0.382  -0.250  0.00  0.00     0.000 A 
ATOM      5  C5  BNZ d   1       1.442   1.396   0.678  0.00  0.00     0.000 A 
ATOM      6  C6  BNZ d   1       0.982   2.633   0.287  0.00  0.00     0.000 A 
ENDROOT
TORSDOF 0
ENDMDL
