MODEL 1
REMARK minimizedAffinity -1.69314766
REMARK minimizedRMSD -1
REMARK  0 active torsions:
REMARK  status: ('A' for Active; 'I' for Inactive)
ROOT
ATOM      1  C1  BNZ d   1       0.912   1.988  -0.506  0.00  0.00     0.000 A 
ATOM      2  C2  BNZ d   1       0.735   1.180  -1.597  0.00  0.00     0.000 A 
ATOM      3  C3  BNZ d   1       0.610  -0.173  -1.453  0.00  0.00     0.000 A 
ATOM      4  C4  BNZ d   1       0.701  -0.720  -0.224  0.00  0.00     0.000 A 
ATOM      5  C5  BNZ d   1       0.888   0.080   0.885  0.00  0.00     0.000 A 
ATOM      6  C6  BNZ d   1       0.975   1.446   0.740  0.00  0.00     0.000 A 
ENDROOT
TORSDOF 0
ENDMDL
