MODEL 1
REMARK minimizedAffinity 3.53314161
REMARK minimizedRMSD -1
REMARK  0 active torsions:
REMARK  status: ('A' for Active; 'I' for Inactive)
ROOT
ATOM      1  C1  BNZ d   1       1.080   0.333  -2.317  0.00  0.00     0.000 A 
ATOM      2  C2  BNZ d   1       0.548   1.544  -2.672  0.00  0.00     0.000 A 
ATOM      3  C3  BNZ d   1       0.825   2.670  -1.949  0.00  0.00     0.000 A 
ATOM      4  C4  BNZ d   1       1.601   2.577  -0.850  0.00  0.00     0.000 A 
ATOM      5  C5  BNZ d   1       2.137   1.362  -0.473  0.00  0.00     0.000 A 
ATOM      6  C6  BNZ d   1       1.887   0.238  -1.225  0.00  0.00     0.000 A 
ENDROOT
TORSDOF 0
ENDMDL
