MODEL 1
REMARK minimizedAffinity -4.69087553
REMARK minimizedRMSD -1
REMARK  0 active torsions:
REMARK  status: ('A' for Active; 'I' for Inactive)
ROOT
ATOM      1  C1  BNZ d   1       1.930   0.360  -0.684  0.00  0.00     0.000 A 
ATOM      2  C2  BNZ d   1       1.870   1.367   0.242  0.00  0.00     0.000 A 
ATOM      3  C3  BNZ d   1       1.308   2.574  -0.070  0.00  0.00     0.000 A 
ATOM      4  C4  BNZ d   1       0.844   2.785  -1.319  0.00  0.00     0.000 A 
ATOM      5  C5  BNZ d   1       0.906   1.783  -2.267  0.00  0.00     0.000 A 
ATOM      6  C6  BNZ d   1       1.436   0.557  -1.937  0.00  0.00     0.000 A 
ENDROOT
TORSDOF 0
ENDMDL
