MODEL 1
REMARK minimizedAffinity 2.03348351
REMARK minimizedRMSD -1
REMARK  0 active torsions:
REMARK  status: ('A' for Active; 'I' for Inactive)
ROOT
ATOM      1  C1  BNZ d   1       1.069   1.740  -2.257  0.00  0.00     0.000 A 
ATOM      2  C2  BNZ d   1       1.482   0.502  -2.671  0.00  0.00     0.000 A 
ATOM      3  C3  BNZ d   1       1.682  -0.507  -1.771  0.00  0.00     0.000 A 
ATOM      4  C4  BNZ d   1       1.508  -0.266  -0.455  0.00  0.00     0.000 A 
ATOM      5  C5  BNZ d   1       1.100   0.980  -0.021  0.00  0.00     0.000 A 
ATOM      6  C6  BNZ d   1       0.862   1.982  -0.934  0.00  0.00     0.000 A 
ENDROOT
TORSDOF 0
ENDMDL
