MODEL 1
REMARK minimizedAffinity 6.86989069
REMARK minimizedRMSD -1
REMARK  0 active torsions:
REMARK  status: ('A' for Active; 'I' for Inactive)
ROOT
ATOM      1  C1  BNZ d   1       0.758   1.165  -1.509  0.00  0.00     0.000 A 
ATOM      2  C2  BNZ d   1      -0.609   1.247  -1.527  0.00  0.00     0.000 A 
ATOM      3  C3  BNZ d   1      -1.236   2.399  -1.915  0.00  0.00     0.000 A 
ATOM      4  C4  BNZ d   1      -0.496   3.477  -2.246  0.00  0.00     0.000 A 
ATOM      5  C5  BNZ d   1       0.883   3.412  -2.224  0.00  0.00     0.000 A 
ATOM      6  C6  BNZ d   1       1.510   2.239  -1.870  0.00  0.00     0.000 A 
ENDROOT
TORSDOF 0
ENDMDL
