MODEL 1
REMARK minimizedAffinity -1.05487013
REMARK minimizedRMSD -1
REMARK  0 active torsions:
REMARK  status: ('A' for Active; 'I' for Inactive)
ROOT
ATOM      1  C1  BNZ d   1       0.372   2.796  -1.840  0.00  0.00     0.000 A 
ATOM      2  C2  BNZ d   1       0.622   1.825  -2.773  0.00  0.00     0.000 A 
ATOM      3  C3  BNZ d   1       1.262   0.668  -2.425  0.00  0.00     0.000 A 
ATOM      4  C4  BNZ d   1       1.686   0.502  -1.155  0.00  0.00     0.000 A 
ATOM      5  C5  BNZ d   1       1.450   1.475  -0.206  0.00  0.00     0.000 A 
ATOM      6  C6  BNZ d   1       0.771   2.621  -0.551  0.00  0.00     0.000 A 
ENDROOT
TORSDOF 0
ENDMDL
