MODEL 1
REMARK minimizedAffinity -1.92433619
REMARK minimizedRMSD -1
REMARK  0 active torsions:
REMARK  status: ('A' for Active; 'I' for Inactive)
ROOT
ATOM      1  C1  BNZ d   1       0.660   1.734  -0.515  0.00  0.00     0.000 A 
ATOM      2  C2  BNZ d   1       0.616   0.839  -1.550  0.00  0.00     0.000 A 
ATOM      3  C3  BNZ d   1       0.845  -0.492  -1.335  0.00  0.00     0.000 A 
ATOM      4  C4  BNZ d   1       1.157  -0.919  -0.094  0.00  0.00     0.000 A 
ATOM      5  C5  BNZ d   1       1.214  -0.027   0.958  0.00  0.00     0.000 A 
ATOM      6  C6  BNZ d   1       0.945   1.306   0.745  0.00  0.00     0.000 A 
ENDROOT
TORSDOF 0
ENDMDL
