MODEL 1
REMARK minimizedAffinity 2.24352932
REMARK minimizedRMSD -1
REMARK  0 active torsions:
REMARK  status: ('A' for Active; 'I' for Inactive)
ROOT
ATOM      1  C1  BNZ d   1       0.894   2.769  -0.293  0.00  0.00     0.000 A 
ATOM      2  C2  BNZ d   1       1.316   1.530   0.109  0.00  0.00     0.000 A 
ATOM      3  C3  BNZ d   1       1.251   0.459  -0.738  0.00  0.00     0.000 A 
ATOM      4  C4  BNZ d   1       0.726   0.620  -1.970  0.00  0.00     0.000 A 
ATOM      5  C5  BNZ d   1       0.287   1.861  -2.387  0.00  0.00     0.000 A 
ATOM      6  C6  BNZ d   1       0.391   2.945  -1.545  0.00  0.00     0.000 A 
ENDROOT
TORSDOF 0
ENDMDL
