MODEL 1
REMARK minimizedAffinity 0.343952417
REMARK minimizedRMSD -1
REMARK  0 active torsions:
REMARK  status: ('A' for Active; 'I' for Inactive)
ROOT
ATOM      1  C1  BNZ d   1       0.869   1.564  -1.680  0.00  0.00     0.000 A 
ATOM      2  C2  BNZ d   1       0.918   2.791  -2.286  0.00  0.00     0.000 A 
ATOM      3  C3  BNZ d   1       1.113   3.928  -1.552  0.00  0.00     0.000 A 
ATOM      4  C4  BNZ d   1       1.218   3.840  -0.210  0.00  0.00     0.000 A 
ATOM      5  C5  BNZ d   1       1.162   2.611   0.417  0.00  0.00     0.000 A 
ATOM      6  C6  BNZ d   1       1.005   1.466  -0.330  0.00  0.00     0.000 A 
ENDROOT
TORSDOF 0
ENDMDL
