MODEL 1
REMARK minimizedAffinity 1.32428384
REMARK minimizedRMSD -1
REMARK  0 active torsions:
REMARK  status: ('A' for Active; 'I' for Inactive)
ROOT
ATOM      1  C2' OXE d   1       3.288   1.852   0.776  0.00  0.00     0.078 C 
ATOM      2  C1' OXE d   1       2.451   4.144  -0.611  0.00  0.00     0.078 C 
ATOM      3  C1  OXE d   1       2.060   2.800  -1.172  0.00  0.00    -0.078 A 
ATOM      4  C2  OXE d   1       2.514   1.683  -0.513  0.00  0.00    -0.078 A 
ATOM      5  C3  OXE d   1       2.136   0.419  -0.958  0.00  0.00     0.003 A 
ATOM      6  C4  OXE d   1       1.428   0.272  -2.156  0.00  0.00    -0.002 A 
ATOM      7  C5  OXE d   1       0.990   1.396  -2.865  0.00  0.00    -0.002 A 
ATOM      8  C6  OXE d   1       1.261   2.664  -2.365  0.00  0.00     0.003 A 
ENDROOT
TORSDOF 0
ENDMDL
