MODEL 1
REMARK minimizedAffinity -2.75055933
REMARK minimizedRMSD -1
REMARK  0 active torsions:
REMARK  status: ('A' for Active; 'I' for Inactive)
ROOT
ATOM      1  C2' OXE d   1       1.687   2.895   1.789  0.00  0.00     0.078 C 
ATOM      2  C1' OXE d   1       1.159   4.316  -0.573  0.00  0.00     0.078 C 
ATOM      3  C1  OXE d   1       1.158   2.809  -0.643  0.00  0.00    -0.078 A 
ATOM      4  C2  OXE d   1       1.464   2.123   0.507  0.00  0.00    -0.078 A 
ATOM      5  C3  OXE d   1       1.423   0.731   0.511  0.00  0.00     0.003 A 
ATOM      6  C4  OXE d   1       1.226   0.025  -0.681  0.00  0.00    -0.002 A 
ATOM      7  C5  OXE d   1       0.952   0.705  -1.873  0.00  0.00    -0.002 A 
ATOM      8  C6  OXE d   1       0.873   2.093  -1.862  0.00  0.00     0.003 A 
ENDROOT
TORSDOF 0
ENDMDL
