MODEL 1
REMARK minimizedAffinity -0.134274736
REMARK minimizedRMSD -1
REMARK  0 active torsions:
REMARK  status: ('A' for Active; 'I' for Inactive)
ROOT
ATOM      1  C2' OXE d   1       0.771   4.773  -1.024  0.00  0.00     0.078 C 
ATOM      2  C1' OXE d   1       1.374   3.684   1.492  0.00  0.00     0.078 C 
ATOM      3  C1  OXE d   1       1.337   2.747   0.311  0.00  0.00    -0.078 A 
ATOM      4  C2  OXE d   1       0.995   3.281  -0.909  0.00  0.00    -0.078 A 
ATOM      5  C3  OXE d   1       1.000   2.471  -2.041  0.00  0.00     0.003 A 
ATOM      6  C4  OXE d   1       1.199   1.090  -1.924  0.00  0.00    -0.002 A 
ATOM      7  C5  OXE d   1       1.509   0.520  -0.685  0.00  0.00    -0.002 A 
ATOM      8  C6  OXE d   1       1.624   1.339   0.433  0.00  0.00     0.003 A 
ENDROOT
TORSDOF 0
ENDMDL
