MODEL 1
REMARK minimizedAffinity 5.21853924
REMARK minimizedRMSD -1
REMARK  0 active torsions:
REMARK  status: ('A' for Active; 'I' for Inactive)
ROOT
ATOM      1  C2' OXE d   1       1.331  -0.725  -2.619  0.00  0.00     0.078 C 
ATOM      2  C1' OXE d   1       2.332  -1.026  -0.014  0.00  0.00     0.078 C 
ATOM      3  C1  OXE d   1       1.786   0.324  -0.406  0.00  0.00    -0.078 A 
ATOM      4  C2  OXE d   1       1.341   0.475  -1.698  0.00  0.00    -0.078 A 
ATOM      5  C3  OXE d   1       0.778   1.684  -2.096  0.00  0.00     0.003 A 
ATOM      6  C4  OXE d   1       0.800   2.793  -1.240  0.00  0.00    -0.002 A 
ATOM      7  C5  OXE d   1       1.285   2.671   0.066  0.00  0.00    -0.002 A 
ATOM      8  C6  OXE d   1       1.741   1.435   0.512  0.00  0.00     0.003 A 
ENDROOT
TORSDOF 0
ENDMDL
