MODEL 1
REMARK minimizedAffinity 0.724028349
REMARK minimizedRMSD -1
REMARK  0 active torsions:
REMARK  status: ('A' for Active; 'I' for Inactive)
ROOT
ATOM      1  C2' OXE d   1       1.289   2.713  -1.604  0.00  0.00     0.078 C 
ATOM      2  C1' OXE d   1       1.071   1.553   0.943  0.00  0.00     0.078 C 
ATOM      3  C1  OXE d   1       1.350   0.639  -0.224  0.00  0.00    -0.078 A 
ATOM      4  C2  OXE d   1       1.409   1.210  -1.473  0.00  0.00    -0.078 A 
ATOM      5  C3  OXE d   1       1.719   0.421  -2.577  0.00  0.00     0.003 A 
ATOM      6  C4  OXE d   1       1.818  -0.970  -2.449  0.00  0.00    -0.002 A 
ATOM      7  C5  OXE d   1       1.722  -1.576  -1.192  0.00  0.00    -0.002 A 
ATOM      8  C6  OXE d   1       1.531  -0.782  -0.066  0.00  0.00     0.003 A 
ENDROOT
TORSDOF 0
ENDMDL
