MODEL 1
REMARK minimizedAffinity 1.98269176
REMARK minimizedRMSD -1
REMARK  0 active torsions:
REMARK  status: ('A' for Active; 'I' for Inactive)
ROOT
ATOM      1  C2' OXE d   1       1.632   4.195   1.649  0.00  0.00     0.078 C 
ATOM      2  C1' OXE d   1       1.243   5.296  -0.904  0.00  0.00     0.078 C 
ATOM      3  C1  OXE d   1       1.270   3.793  -0.783  0.00  0.00    -0.078 A 
ATOM      4  C2  OXE d   1       1.507   3.263   0.463  0.00  0.00    -0.078 A 
ATOM      5  C3  OXE d   1       1.488   1.883   0.640  0.00  0.00     0.003 A 
ATOM      6  C4  OXE d   1       1.382   1.028  -0.464  0.00  0.00    -0.002 A 
ATOM      7  C5  OXE d   1       1.180   1.547  -1.747  0.00  0.00    -0.002 A 
ATOM      8  C6  OXE d   1       1.079   2.924  -1.917  0.00  0.00     0.003 A 
ENDROOT
TORSDOF 0
ENDMDL
