MODEL 1
REMARK minimizedAffinity 2.54477
REMARK minimizedRMSD -1
REMARK  0 active torsions:
REMARK  status: ('A' for Active; 'I' for Inactive)
ROOT
ATOM      1  C2' OXE d   1      -1.777   2.266   5.624  0.00  0.00     0.078 C 
ATOM      2  C1' OXE d   1      -1.641   4.817   4.460  0.00  0.00     0.078 C 
ATOM      3  C1  OXE d   1      -2.278   3.710   3.657  0.00  0.00    -0.078 A 
ATOM      4  C2  OXE d   1      -2.299   2.455   4.216  0.00  0.00    -0.078 A 
ATOM      5  C3  OXE d   1      -2.924   1.410   3.541  0.00  0.00     0.003 A 
ATOM      6  C4  OXE d   1      -3.395   1.591   2.235  0.00  0.00    -0.002 A 
ATOM      7  C5  OXE d   1      -3.348   2.852   1.632  0.00  0.00    -0.002 A 
ATOM      8  C6  OXE d   1      -2.833   3.930   2.344  0.00  0.00     0.003 A 
ENDROOT
TORSDOF 0
ENDMDL
