MODEL 1
REMARK minimizedAffinity 6.56172132
REMARK minimizedRMSD -1
REMARK  0 active torsions:
REMARK  status: ('A' for Active; 'I' for Inactive)
ROOT
ATOM      1  C2' OXE d   1       0.481   3.246  -1.818  0.00  0.00     0.078 C 
ATOM      2  C1' OXE d   1       0.705   2.972   0.966  0.00  0.00     0.078 C 
ATOM      3  C1  OXE d   1       0.948   1.749   0.117  0.00  0.00    -0.078 A 
ATOM      4  C2  OXE d   1       0.790   1.881  -1.241  0.00  0.00    -0.078 A 
ATOM      5  C3  OXE d   1       1.055   0.799  -2.075  0.00  0.00     0.003 A 
ATOM      6  C4  OXE d   1       1.330  -0.463  -1.533  0.00  0.00    -0.002 A 
ATOM      7  C5  OXE d   1       1.456  -0.628  -0.149  0.00  0.00    -0.002 A 
ATOM      8  C6  OXE d   1       1.310   0.474   0.685  0.00  0.00     0.003 A 
ENDROOT
TORSDOF 0
ENDMDL
