MODEL 1
REMARK minimizedAffinity 5.42650175
REMARK minimizedRMSD -1
REMARK  0 active torsions:
REMARK  status: ('A' for Active; 'I' for Inactive)
ROOT
ATOM      1  C2' OXE d   1       0.141   1.418  -0.311  0.00  0.00     0.078 C 
ATOM      2  C1' OXE d   1       0.705  -1.263  -0.923  0.00  0.00     0.078 C 
ATOM      3  C1  OXE d   1       1.786  -0.452  -0.253  0.00  0.00    -0.078 A 
ATOM      4  C2  OXE d   1       1.518   0.872   0.000  0.00  0.00    -0.078 A 
ATOM      5  C3  OXE d   1       2.461   1.651   0.665  0.00  0.00     0.003 A 
ATOM      6  C4  OXE d   1       3.735   1.141   0.940  0.00  0.00    -0.002 A 
ATOM      7  C5  OXE d   1       4.042  -0.194   0.654  0.00  0.00    -0.002 A 
ATOM      8  C6  OXE d   1       3.067  -1.013   0.097  0.00  0.00     0.003 A 
ENDROOT
TORSDOF 0
ENDMDL
