MODEL 1
REMARK minimizedAffinity -1.60392153
REMARK minimizedRMSD -1
REMARK  0 active torsions:
REMARK  status: ('A' for Active; 'I' for Inactive)
ROOT
ATOM      1  C2' OXE d   1       1.326   1.198   1.626  0.00  0.00     0.078 C 
ATOM      2  C1' OXE d   1       1.077  -0.366  -0.692  0.00  0.00     0.078 C 
ATOM      3  C1  OXE d   1       1.127   1.133  -0.856  0.00  0.00    -0.078 A 
ATOM      4  C2  OXE d   1       1.202   1.892   0.287  0.00  0.00    -0.078 A 
ATOM      5  C3  OXE d   1       1.305   3.276   0.189  0.00  0.00     0.003 A 
ATOM      6  C4  OXE d   1       1.179   3.911  -1.052  0.00  0.00    -0.002 A 
ATOM      7  C5  OXE d   1       1.062   3.158  -2.226  0.00  0.00    -0.002 A 
ATOM      8  C6  OXE d   1       1.077   1.770  -2.149  0.00  0.00     0.003 A 
ENDROOT
TORSDOF 0
ENDMDL
