MODEL 1
REMARK minimizedAffinity 2.16240501
REMARK minimizedRMSD -1
REMARK  0 active torsions:
REMARK  status: ('A' for Active; 'I' for Inactive)
ROOT
ATOM      1  C2' OXE d   1       1.335   3.778  -1.124  0.00  0.00     0.078 C 
ATOM      2  C1' OXE d   1       0.491   2.369   1.153  0.00  0.00     0.078 C 
ATOM      3  C1  OXE d   1       1.071   1.575   0.009  0.00  0.00    -0.078 A 
ATOM      4  C2  OXE d   1       1.438   2.268  -1.119  0.00  0.00    -0.078 A 
ATOM      5  C3  OXE d   1       2.029   1.591  -2.182  0.00  0.00     0.003 A 
ATOM      6  C4  OXE d   1       2.112   0.193  -2.174  0.00  0.00    -0.002 A 
ATOM      7  C5  OXE d   1       1.707  -0.535  -1.050  0.00  0.00    -0.002 A 
ATOM      8  C6  OXE d   1       1.225   0.143   0.064  0.00  0.00     0.003 A 
ENDROOT
TORSDOF 0
ENDMDL
