MODEL 1
REMARK minimizedAffinity 0.842030287
REMARK minimizedRMSD -1
REMARK  0 active torsions:
REMARK  status: ('A' for Active; 'I' for Inactive)
ROOT
ATOM      1  C2' OXE d   1       1.357   3.804  -2.096  0.00  0.00     0.078 C 
ATOM      2  C1' OXE d   1       1.078   3.721   0.696  0.00  0.00     0.078 C 
ATOM      3  C1  OXE d   1       1.069   2.411  -0.051  0.00  0.00    -0.078 A 
ATOM      4  C2  OXE d   1       1.160   2.464  -1.422  0.00  0.00    -0.078 A 
ATOM      5  C3  OXE d   1       1.211   1.282  -2.155  0.00  0.00     0.003 A 
ATOM      6  C4  OXE d   1       1.018   0.047  -1.525  0.00  0.00    -0.002 A 
ATOM      7  C5  OXE d   1       0.885  -0.027  -0.134  0.00  0.00    -0.002 A 
ATOM      8  C6  OXE d   1       0.951   1.140   0.620  0.00  0.00     0.003 A 
ENDROOT
TORSDOF 0
ENDMDL
