MODEL 1
REMARK minimizedAffinity 2.56400752
REMARK minimizedRMSD -1
REMARK  0 active torsions:
REMARK  status: ('A' for Active; 'I' for Inactive)
ROOT
ATOM      1  C2' OXE d   1       0.842   1.569   1.328  0.00  0.00     0.078 C 
ATOM      2  C1' OXE d   1       1.145  -0.369  -0.680  0.00  0.00     0.078 C 
ATOM      3  C1  OXE d   1       1.074   1.077  -1.103  0.00  0.00    -0.078 A 
ATOM      4  C2  OXE d   1       0.879   2.015  -0.118  0.00  0.00    -0.078 A 
ATOM      5  C3  OXE d   1       0.862   3.367  -0.448  0.00  0.00     0.003 A 
ATOM      6  C4  OXE d   1       0.886   3.770  -1.789  0.00  0.00    -0.002 A 
ATOM      7  C5  OXE d   1       1.045   2.828  -2.810  0.00  0.00    -0.002 A 
ATOM      8  C6  OXE d   1       1.183   1.483  -2.482  0.00  0.00     0.003 A 
ENDROOT
TORSDOF 0
ENDMDL
