MODEL 1
REMARK minimizedAffinity 6.71368837
REMARK minimizedRMSD -1
REMARK  0 active torsions:
REMARK  status: ('A' for Active; 'I' for Inactive)
ROOT
ATOM      1  C2' OXE d   1       1.449   4.118  -1.136  0.00  0.00     0.078 C 
ATOM      2  C1' OXE d   1      -0.134   3.152  -3.243  0.00  0.00     0.078 C 
ATOM      3  C1  OXE d   1       0.502   2.142  -2.320  0.00  0.00    -0.078 A 
ATOM      4  C2  OXE d   1       1.312   2.622  -1.320  0.00  0.00    -0.078 A 
ATOM      5  C3  OXE d   1       1.879   1.737  -0.407  0.00  0.00     0.003 A 
ATOM      6  C4  OXE d   1       1.756   0.354  -0.591  0.00  0.00    -0.002 A 
ATOM      7  C5  OXE d   1       0.967  -0.157  -1.627  0.00  0.00    -0.002 A 
ATOM      8  C6  OXE d   1       0.300   0.722  -2.473  0.00  0.00     0.003 A 
ENDROOT
TORSDOF 0
ENDMDL
