MODEL 1
REMARK minimizedAffinity 1.68362498
REMARK minimizedRMSD -1
REMARK  0 active torsions:
REMARK  status: ('A' for Active; 'I' for Inactive)
ROOT
ATOM      1  C2' OXE d   1       1.077   4.296  -0.758  0.00  0.00     0.078 C 
ATOM      2  C1' OXE d   1       0.902   2.753   1.580  0.00  0.00     0.078 C 
ATOM      3  C1  OXE d   1       1.278   2.050   0.300  0.00  0.00    -0.078 A 
ATOM      4  C2  OXE d   1       1.316   2.804  -0.848  0.00  0.00    -0.078 A 
ATOM      5  C3  OXE d   1       1.711   2.216  -2.046  0.00  0.00     0.003 A 
ATOM      6  C4  OXE d   1       1.920   0.834  -2.123  0.00  0.00    -0.002 A 
ATOM      7  C5  OXE d   1       1.848   0.041  -0.973  0.00  0.00    -0.002 A 
ATOM      8  C6  OXE d   1       1.571   0.639   0.252  0.00  0.00     0.003 A 
ENDROOT
TORSDOF 0
ENDMDL
