MODEL 1
REMARK minimizedAffinity 10.7819481
REMARK minimizedRMSD -1
REMARK  0 active torsions:
REMARK  status: ('A' for Active; 'I' for Inactive)
ROOT
ATOM      1  C   UNL d   1      -2.043  -2.976   3.003  0.00  0.00     0.077 C 
ATOM      2  C1  UNL d   1      -0.635  -2.586   2.663  0.00  0.00    -0.074 A 
ATOM      3  C2  UNL d   1      -0.107  -1.362   3.085  0.00  0.00    -0.005 A 
ATOM      4  C3  UNL d   1       1.207  -1.016   2.768  0.00  0.00     0.006 A 
ATOM      5  C4  UNL d   1       2.005  -1.890   2.028  0.00  0.00    -0.005 A 
ATOM      6  C5  UNL d   1       1.494  -3.119   1.599  0.00  0.00    -0.074 A 
ATOM      7  C6  UNL d   1       2.341  -4.074   0.811  0.00  0.00     0.077 C 
ATOM      8  C7  UNL d   1       0.175  -3.462   1.926  0.00  0.00    -0.001 A 
ENDROOT
TORSDOF 0
ENDMDL
