MODEL 1
REMARK minimizedAffinity 9.66339207
REMARK minimizedRMSD -1
REMARK  0 active torsions:
REMARK  status: ('A' for Active; 'I' for Inactive)
ROOT
ATOM      1  C   UNL d   1      -5.999  -0.252   6.000  0.00  0.00     0.077 C 
ATOM      2  C1  UNL d   1      -5.416   0.868   5.190  0.00  0.00    -0.074 A 
ATOM      3  C2  UNL d   1      -5.957   1.213   3.947  0.00  0.00    -0.005 A 
ATOM      4  C3  UNL d   1      -5.410   2.264   3.210  0.00  0.00     0.006 A 
ATOM      5  C4  UNL d   1      -4.320   2.978   3.707  0.00  0.00    -0.005 A 
ATOM      6  C5  UNL d   1      -3.767   2.648   4.949  0.00  0.00    -0.074 A 
ATOM      7  C6  UNL d   1      -2.601   3.413   5.502  0.00  0.00     0.077 C 
ATOM      8  C7  UNL d   1      -4.326   1.596   5.687  0.00  0.00    -0.001 A 
ENDROOT
TORSDOF 0
ENDMDL
