MODEL 1
REMARK minimizedAffinity 13.6645498
REMARK minimizedRMSD -1
REMARK  0 active torsions:
REMARK  status: ('A' for Active; 'I' for Inactive)
ROOT
ATOM      1  C   UNL d   1      -2.834  -0.480  -1.016  0.00  0.00     0.077 C 
ATOM      2  C1  UNL d   1      -2.768   0.728  -1.903  0.00  0.00    -0.074 A 
ATOM      3  C2  UNL d   1      -1.809   1.723  -1.691  0.00  0.00    -0.005 A 
ATOM      4  C3  UNL d   1      -1.753   2.836  -2.530  0.00  0.00     0.006 A 
ATOM      5  C4  UNL d   1      -2.655   2.964  -3.587  0.00  0.00    -0.005 A 
ATOM      6  C5  UNL d   1      -3.621   1.979  -3.815  0.00  0.00    -0.074 A 
ATOM      7  C6  UNL d   1      -4.591   2.096  -4.952  0.00  0.00     0.077 C 
ATOM      8  C7  UNL d   1      -3.665   0.860  -2.971  0.00  0.00    -0.001 A 
ENDROOT
TORSDOF 0
ENDMDL
