MODEL 1
REMARK minimizedAffinity 5.08259535
REMARK minimizedRMSD -1
REMARK  0 active torsions:
REMARK  status: ('A' for Active; 'I' for Inactive)
ROOT
ATOM      1  C   UNL d   1       0.890  -4.891   0.585  0.00  0.00     0.077 C 
ATOM      2  C1  UNL d   1       1.648  -3.599   0.656  0.00  0.00    -0.074 A 
ATOM      3  C2  UNL d   1       0.976  -2.373   0.711  0.00  0.00    -0.005 A 
ATOM      4  C3  UNL d   1       1.694  -1.180   0.787  0.00  0.00     0.006 A 
ATOM      5  C4  UNL d   1       3.089  -1.200   0.809  0.00  0.00    -0.005 A 
ATOM      6  C5  UNL d   1       3.778  -2.416   0.755  0.00  0.00    -0.074 A 
ATOM      7  C6  UNL d   1       5.277  -2.456   0.787  0.00  0.00     0.077 C 
ATOM      8  C7  UNL d   1       3.049  -3.611   0.686  0.00  0.00    -0.001 A 
ENDROOT
TORSDOF 0
ENDMDL
