MODEL 1
REMARK minimizedAffinity 9.69344234
REMARK minimizedRMSD -1
REMARK  0 active torsions:
REMARK  status: ('A' for Active; 'I' for Inactive)
ROOT
ATOM      1  C   UNL d   1      -5.977  -0.006  -4.330  0.00  0.00     0.077 C 
ATOM      2  C1  UNL d   1      -4.759   0.008  -3.454  0.00  0.00    -0.074 A 
ATOM      3  C2  UNL d   1      -4.456  -1.078  -2.626  0.00  0.00    -0.005 A 
ATOM      4  C3  UNL d   1      -3.315  -1.054  -1.825  0.00  0.00     0.006 A 
ATOM      5  C4  UNL d   1      -2.466   0.053  -1.843  0.00  0.00    -0.005 A 
ATOM      6  C5  UNL d   1      -2.752   1.147  -2.666  0.00  0.00    -0.074 A 
ATOM      7  C6  UNL d   1      -1.845   2.341  -2.705  0.00  0.00     0.077 C 
ATOM      8  C7  UNL d   1      -3.897   1.113  -3.473  0.00  0.00    -0.001 A 
ENDROOT
TORSDOF 0
ENDMDL
