MODEL 1
REMARK minimizedAffinity 9.47097206
REMARK minimizedRMSD -1
REMARK  0 active torsions:
REMARK  status: ('A' for Active; 'I' for Inactive)
ROOT
ATOM      1  C   UNL d   1       1.379  -0.198   3.684  0.00  0.00     0.077 C 
ATOM      2  C1  UNL d   1       1.576  -1.123   2.520  0.00  0.00    -0.074 A 
ATOM      3  C2  UNL d   1       0.484  -1.598   1.786  0.00  0.00    -0.005 A 
ATOM      4  C3  UNL d   1       0.683  -2.450   0.700  0.00  0.00     0.006 A 
ATOM      5  C4  UNL d   1       1.974  -2.837   0.338  0.00  0.00    -0.005 A 
ATOM      6  C5  UNL d   1       3.078  -2.372   1.059  0.00  0.00    -0.074 A 
ATOM      7  C6  UNL d   1       4.473  -2.770   0.677  0.00  0.00     0.077 C 
ATOM      8  C7  UNL d   1       2.870  -1.510   2.145  0.00  0.00    -0.001 A 
ENDROOT
TORSDOF 0
ENDMDL
