MODEL 1
REMARK minimizedAffinity 9.88848972
REMARK minimizedRMSD -1
REMARK  0 active torsions:
REMARK  status: ('A' for Active; 'I' for Inactive)
ROOT
ATOM      1  C   UNL d   1      -5.998   1.235  -4.472  0.00  0.00     0.077 C 
ATOM      2  C1  UNL d   1      -5.600  -0.068  -3.845  0.00  0.00    -0.074 A 
ATOM      3  C2  UNL d   1      -5.998  -1.286  -4.406  0.00  0.00    -0.005 A 
ATOM      4  C3  UNL d   1      -5.612  -2.490  -3.817  0.00  0.00     0.006 A 
ATOM      5  C4  UNL d   1      -4.826  -2.489  -2.664  0.00  0.00    -0.005 A 
ATOM      6  C5  UNL d   1      -4.418  -1.280  -2.090  0.00  0.00    -0.074 A 
ATOM      7  C6  UNL d   1      -3.565  -1.261  -0.857  0.00  0.00     0.077 C 
ATOM      8  C7  UNL d   1      -4.804  -0.075  -2.691  0.00  0.00    -0.001 A 
ENDROOT
TORSDOF 0
ENDMDL
