MODEL 1
REMARK minimizedAffinity 1.30958843
REMARK minimizedRMSD -1
REMARK  0 active torsions:
REMARK  status: ('A' for Active; 'I' for Inactive)
ROOT
ATOM      1  C   UNL d   1      -4.121   5.999  -5.254  0.00  0.00     0.077 C 
ATOM      2  C1  UNL d   1      -3.865   4.521  -5.255  0.00  0.00    -0.074 A 
ATOM      3  C2  UNL d   1      -4.670   3.653  -6.000  0.00  0.00    -0.005 A 
ATOM      4  C3  UNL d   1      -4.414   2.282  -5.999  0.00  0.00     0.006 A 
ATOM      5  C4  UNL d   1      -3.352   1.766  -5.255  0.00  0.00    -0.005 A 
ATOM      6  C5  UNL d   1      -2.536   2.619  -4.505  0.00  0.00    -0.074 A 
ATOM      7  C6  UNL d   1      -1.385   2.082  -3.708  0.00  0.00     0.077 C 
ATOM      8  C7  UNL d   1      -2.796   3.996  -4.517  0.00  0.00    -0.001 A 
ENDROOT
TORSDOF 0
ENDMDL
