MODEL 1
REMARK minimizedAffinity 13.9523058
REMARK minimizedRMSD -1
REMARK  0 active torsions:
REMARK  status: ('A' for Active; 'I' for Inactive)
ROOT
ATOM      1  C   UNL d   1      -4.714   1.129   0.943  0.00  0.00     0.077 C 
ATOM      2  C1  UNL d   1      -3.855   0.687  -0.204  0.00  0.00    -0.074 A 
ATOM      3  C2  UNL d   1      -3.640  -0.672  -0.459  0.00  0.00    -0.005 A 
ATOM      4  C3  UNL d   1      -2.846  -1.068  -1.535  0.00  0.00     0.006 A 
ATOM      5  C4  UNL d   1      -2.260  -0.112  -2.366  0.00  0.00    -0.005 A 
ATOM      6  C5  UNL d   1      -2.465   1.251  -2.127  0.00  0.00    -0.074 A 
ATOM      7  C6  UNL d   1      -1.850   2.291  -3.016  0.00  0.00     0.077 C 
ATOM      8  C7  UNL d   1      -3.269   1.641  -1.048  0.00  0.00    -0.001 A 
ENDROOT
TORSDOF 0
ENDMDL
