MODEL 1
REMARK minimizedAffinity -4.33131981
REMARK minimizedRMSD -1
REMARK  1 active torsions:
REMARK  status: ('A' for Active; 'I' for Inactive)
REMARK    1  A    between atoms: C1_2  and  C2_3 
ROOT
ATOM      1  C2  UNL d   1      -0.022  -0.519   1.398  0.00  0.00    -0.081 A 
ATOM      2  C3  UNL d   1       0.806  -0.691   0.283  0.00  0.00     0.006 A 
ATOM      3  C4  UNL d   1       0.499  -0.069  -0.930  0.00  0.00     0.002 A 
ATOM      4  C5  UNL d   1      -0.636   0.741  -1.045  0.00  0.00    -0.080 A 
ATOM      5  C6  UNL d   1      -0.960   1.438  -2.332  0.00  0.00     0.076 C 
ATOM      6  C7  UNL d   1      -1.473   0.899   0.065  0.00  0.00     0.002 A 
ATOM      7  C8  UNL d   1      -1.167   0.277   1.277  0.00  0.00     0.006 A 
ENDROOT
BRANCH   1   8
ATOM      8  C1  UNL d   1       0.341  -1.136   2.725  0.00  0.00     0.054 C 
ATOM      9  C   UNL d   1       1.780  -1.630   2.730  0.00  0.00     0.018 C 
ENDBRANCH   1   8
TORSDOF 1
ENDMDL
