MODEL 1
REMARK minimizedAffinity -4.92128372
REMARK minimizedRMSD -1
REMARK  1 active torsions:
REMARK  status: ('A' for Active; 'I' for Inactive)
REMARK    1  A    between atoms: C1_2  and  C2_3 
ROOT
ATOM      1  C2  UNL d   1      -0.166  -0.061  -0.599  0.00  0.00    -0.081 A 
ATOM      2  C3  UNL d   1      -0.787   0.123   0.642  0.00  0.00     0.006 A 
ATOM      3  C4  UNL d   1      -0.092  -0.135   1.827  0.00  0.00     0.002 A 
ATOM      4  C5  UNL d   1       1.236  -0.573   1.789  0.00  0.00    -0.080 A 
ATOM      5  C6  UNL d   1       2.002  -0.825   3.054  0.00  0.00     0.076 C 
ATOM      6  C7  UNL d   1       1.850  -0.774   0.549  0.00  0.00     0.002 A 
ATOM      7  C8  UNL d   1       1.156  -0.517  -0.636  0.00  0.00     0.006 A 
ENDROOT
BRANCH   1   8
ATOM      8  C1  UNL d   1      -0.892   0.278  -1.876  0.00  0.00     0.054 C 
ATOM      9  C   UNL d   1      -0.654   1.727  -2.280  0.00  0.00     0.018 C 
ENDBRANCH   1   8
TORSDOF 1
ENDMDL
