MODEL 1
REMARK minimizedAffinity -5.48707867
REMARK minimizedRMSD -1
REMARK  1 active torsions:
REMARK  status: ('A' for Active; 'I' for Inactive)
REMARK    1  A    between atoms: C1_2  and  C2_3 
ROOT
ATOM      1  C2  UNL d   1      -0.766  -0.591   1.482  0.00  0.00    -0.081 A 
ATOM      2  C3  UNL d   1      -0.139  -0.436   0.239  0.00  0.00     0.006 A 
ATOM      3  C4  UNL d   1       1.166  -0.892   0.042  0.00  0.00     0.002 A 
ATOM      4  C5  UNL d   1       1.864  -1.518   1.080  0.00  0.00    -0.080 A 
ATOM      5  C6  UNL d   1       3.255  -2.040   0.873  0.00  0.00     0.076 C 
ATOM      6  C7  UNL d   1       1.244  -1.658   2.327  0.00  0.00     0.002 A 
ATOM      7  C8  UNL d   1      -0.061  -1.202   2.525  0.00  0.00     0.006 A 
ENDROOT
BRANCH   1   8
ATOM      8  C1  UNL d   1      -2.196  -0.159   1.679  0.00  0.00     0.054 C 
ATOM      9  C   UNL d   1      -3.126  -0.861   0.700  0.00  0.00     0.018 C 
ENDBRANCH   1   8
TORSDOF 1
ENDMDL
