MODEL 1
REMARK minimizedAffinity -4.04668713
REMARK minimizedRMSD -1
REMARK  1 active torsions:
REMARK  status: ('A' for Active; 'I' for Inactive)
REMARK    1  A    between atoms: C1_2  and  C2_3 
ROOT
ATOM      1  C2  UNL d   1       1.008  -0.799   1.404  0.00  0.00    -0.081 A 
ATOM      2  C3  UNL d   1       1.475  -0.763   0.084  0.00  0.00     0.006 A 
ATOM      3  C4  UNL d   1       0.701  -0.184  -0.924  0.00  0.00     0.002 A 
ATOM      4  C5  UNL d   1      -0.547   0.375  -0.629  0.00  0.00    -0.080 A 
ATOM      5  C6  UNL d   1      -1.374   1.027  -1.697  0.00  0.00     0.076 C 
ATOM      6  C7  UNL d   1      -1.021   0.323   0.686  0.00  0.00     0.002 A 
ATOM      7  C8  UNL d   1      -0.248  -0.256   1.695  0.00  0.00     0.006 A 
ENDROOT
BRANCH   1   8
ATOM      8  C1  UNL d   1       1.868  -1.364   2.506  0.00  0.00     0.054 C 
ATOM      9  C   UNL d   1       3.047  -2.144   1.942  0.00  0.00     0.018 C 
ENDBRANCH   1   8
TORSDOF 1
ENDMDL
