MODEL 1
REMARK minimizedAffinity -3.20534253
REMARK minimizedRMSD -1
REMARK  1 active torsions:
REMARK  status: ('A' for Active; 'I' for Inactive)
REMARK    1  A    between atoms: C1_2  and  C2_3 
ROOT
ATOM      1  C2  UNL d   1      -0.258   0.143  -0.246  0.00  0.00    -0.081 A 
ATOM      2  C3  UNL d   1      -0.794   0.063   1.045  0.00  0.00     0.006 A 
ATOM      3  C4  UNL d   1      -0.053  -0.504   2.085  0.00  0.00     0.002 A 
ATOM      4  C5  UNL d   1       1.237  -0.992   1.854  0.00  0.00    -0.080 A 
ATOM      5  C6  UNL d   1       2.054  -1.575   2.968  0.00  0.00     0.076 C 
ATOM      6  C7  UNL d   1       1.766  -0.928   0.560  0.00  0.00     0.002 A 
ATOM      7  C8  UNL d   1       1.026  -0.362  -0.481  0.00  0.00     0.006 A 
ENDROOT
BRANCH   1   8
ATOM      8  C1  UNL d   1      -1.028   0.812  -1.356  0.00  0.00     0.054 C 
ATOM      9  C   UNL d   1      -0.236   1.960  -1.966  0.00  0.00     0.018 C 
ENDBRANCH   1   8
TORSDOF 1
ENDMDL
