MODEL 1
REMARK minimizedAffinity -5.4778161
REMARK minimizedRMSD -1
REMARK  1 active torsions:
REMARK  status: ('A' for Active; 'I' for Inactive)
REMARK    1  A    between atoms: C1_2  and  C2_3 
ROOT
ATOM      1  C2  UNL d   1       1.322  -0.448   0.598  0.00  0.00    -0.081 A 
ATOM      2  C3  UNL d   1       0.822  -0.660   1.888  0.00  0.00     0.006 A 
ATOM      3  C4  UNL d   1      -0.554  -0.623   2.129  0.00  0.00     0.002 A 
ATOM      4  C5  UNL d   1      -1.451  -0.383   1.082  0.00  0.00    -0.080 A 
ATOM      5  C6  UNL d   1      -2.932  -0.371   1.321  0.00  0.00     0.076 C 
ATOM      6  C7  UNL d   1      -0.950  -0.154  -0.203  0.00  0.00     0.002 A 
ATOM      7  C8  UNL d   1       0.425  -0.190  -0.444  0.00  0.00     0.006 A 
ENDROOT
BRANCH   1   8
ATOM      8  C1  UNL d   1       2.801  -0.551   0.323  0.00  0.00     0.054 C 
ATOM      9  C   UNL d   1       3.183  -1.951  -0.135  0.00  0.00     0.018 C 
ENDBRANCH   1   8
TORSDOF 1
ENDMDL
