MODEL 1
REMARK minimizedAffinity -5.74968863
REMARK minimizedRMSD -1
REMARK  1 active torsions:
REMARK  status: ('A' for Active; 'I' for Inactive)
REMARK    1  A    between atoms: C1_2  and  C2_3 
ROOT
ATOM      1  C2  UNL d   1      -0.080   0.061  -0.475  0.00  0.00    -0.081 A 
ATOM      2  C3  UNL d   1      -0.841  -0.039   0.696  0.00  0.00     0.006 A 
ATOM      3  C4  UNL d   1      -0.242  -0.418   1.899  0.00  0.00     0.002 A 
ATOM      4  C5  UNL d   1       1.128  -0.694   1.954  0.00  0.00    -0.080 A 
ATOM      5  C6  UNL d   1       1.790  -1.073   3.246  0.00  0.00     0.076 C 
ATOM      6  C7  UNL d   1       1.886  -0.611   0.781  0.00  0.00     0.002 A 
ATOM      7  C8  UNL d   1       1.287  -0.233  -0.423  0.00  0.00     0.006 A 
ENDROOT
BRANCH   1   8
ATOM      8  C1  UNL d   1      -0.710   0.532  -1.761  0.00  0.00     0.054 C 
ATOM      9  C   UNL d   1      -0.169   1.893  -2.176  0.00  0.00     0.018 C 
ENDBRANCH   1   8
TORSDOF 1
ENDMDL
