MODEL 1
REMARK minimizedAffinity -2.70333672
REMARK minimizedRMSD -1
REMARK  1 active torsions:
REMARK  status: ('A' for Active; 'I' for Inactive)
REMARK    1  A    between atoms: C1_2  and  C2_3 
ROOT
ATOM      1  C2  UNL d   1      -0.479   0.471  -0.658  0.00  0.00    -0.081 A 
ATOM      2  C3  UNL d   1      -1.131   0.239   0.559  0.00  0.00     0.006 A 
ATOM      3  C4  UNL d   1      -0.421  -0.244   1.661  0.00  0.00     0.002 A 
ATOM      4  C5  UNL d   1       0.952  -0.496   1.567  0.00  0.00    -0.080 A 
ATOM      5  C6  UNL d   1       1.730  -0.986   2.752  0.00  0.00     0.076 C 
ATOM      6  C7  UNL d   1       1.600  -0.281   0.346  0.00  0.00     0.002 A 
ATOM      7  C8  UNL d   1       0.891   0.202  -0.756  0.00  0.00     0.006 A 
ENDROOT
BRANCH   1   8
ATOM      8  C1  UNL d   1      -1.227   1.054  -1.830  0.00  0.00     0.054 C 
ATOM      9  C   UNL d   1      -0.545   2.309  -2.353  0.00  0.00     0.018 C 
ENDBRANCH   1   8
TORSDOF 1
ENDMDL
