MODEL 1
REMARK minimizedAffinity -5.2695446
REMARK minimizedRMSD -1
REMARK  2 active torsions:
REMARK  status: ('A' for Active; 'I' for Inactive)
REMARK    1  A    between atoms: C2'_3  and  C1'_4 
REMARK    2  A    between atoms: C1'_4  and  C1_5 
ROOT
ATOM      1  C1  I4B d   1      -0.310  -0.705  -0.011  0.00  0.00    -0.075 A 
ATOM      2  C2  I4B d   1      -0.530  -1.748   0.854  0.00  0.00     0.003 A 
ATOM      3  C3  I4B d   1      -0.393  -3.085   0.409  0.00  0.00     0.002 A 
ATOM      4  C4  I4B d   1      -0.086  -3.333  -0.913  0.00  0.00    -0.004 A 
ATOM      5  C5  I4B d   1       0.160  -2.275  -1.783  0.00  0.00     0.002 A 
ATOM      6  C6  I4B d   1       0.060  -0.953  -1.327  0.00  0.00     0.003 A 
ENDROOT
BRANCH   1   7
ATOM      7  C1' I4B d   1      -0.495   0.694   0.484  0.00  0.00     0.060 C 
BRANCH   7   8
ATOM      8  C2' I4B d   1       0.218   1.626  -0.474  0.00  0.00    -0.013 C 
ATOM      9  C4' I4B d   1      -0.677   2.021  -1.619  0.00  0.00     0.013 C 
ATOM     10  C3' I4B d   1       0.669   2.829   0.300  0.00  0.00     0.013 C 
ENDBRANCH   7   8
ENDBRANCH   1   7
TORSDOF 2
ENDMDL
