MODEL 1
REMARK minimizedAffinity -2.9767983
REMARK minimizedRMSD -1
REMARK  2 active torsions:
REMARK  status: ('A' for Active; 'I' for Inactive)
REMARK    1  A    between atoms: C2'_3  and  C1'_4 
REMARK    2  A    between atoms: C1'_4  and  C1_5 
ROOT
ATOM      1  C1  I4B d   1      -0.967  -0.607   0.949  0.00  0.00    -0.075 A 
ATOM      2  C2  I4B d   1      -0.126  -0.083  -0.001  0.00  0.00     0.003 A 
ATOM      3  C3  I4B d   1       0.683  -0.940  -0.787  0.00  0.00     0.002 A 
ATOM      4  C4  I4B d   1       0.656  -2.300  -0.556  0.00  0.00    -0.004 A 
ATOM      5  C5  I4B d   1      -0.214  -2.831   0.392  0.00  0.00     0.002 A 
ATOM      6  C6  I4B d   1      -1.040  -1.981   1.141  0.00  0.00     0.003 A 
ENDROOT
BRANCH   1   7
ATOM      7  C1' I4B d   1      -1.783   0.329   1.783  0.00  0.00     0.060 C 
BRANCH   7   8
ATOM      8  C2' I4B d   1      -1.786  -0.196   3.205  0.00  0.00    -0.013 C 
ATOM      9  C4' I4B d   1      -0.458   0.036   3.875  0.00  0.00     0.013 C 
ATOM     10  C3' I4B d   1      -2.895   0.489   3.948  0.00  0.00     0.013 C 
ENDBRANCH   7   8
ENDBRANCH   1   7
TORSDOF 2
ENDMDL
