MODEL 1
REMARK minimizedAffinity -4.94273186
REMARK minimizedRMSD -1
REMARK  2 active torsions:
REMARK  status: ('A' for Active; 'I' for Inactive)
REMARK    1  A    between atoms: C2'_3  and  C1'_4 
REMARK    2  A    between atoms: C1'_4  and  C1_5 
ROOT
ATOM      1  C1  I4B d   1      -0.084   0.529   0.024  0.00  0.00    -0.075 A 
ATOM      2  C2  I4B d   1      -0.965   0.585   1.074  0.00  0.00     0.003 A 
ATOM      3  C3  I4B d   1      -1.490  -0.607   1.628  0.00  0.00     0.002 A 
ATOM      4  C4  I4B d   1      -1.149  -1.823   1.072  0.00  0.00    -0.004 A 
ATOM      5  C5  I4B d   1      -0.238  -1.879   0.021  0.00  0.00     0.002 A 
ATOM      6  C6  I4B d   1       0.308  -0.697  -0.499  0.00  0.00     0.003 A 
ENDROOT
BRANCH   1   7
ATOM      7  C1' I4B d   1       0.426   1.809  -0.559  0.00  0.00     0.060 C 
BRANCH   7   8
ATOM      8  C2' I4B d   1       1.036   2.623   0.565  0.00  0.00    -0.013 C 
ATOM      9  C4' I4B d   1       2.540   2.617   0.488  0.00  0.00     0.013 C 
ATOM     10  C3' I4B d   1       0.494   4.018   0.473  0.00  0.00     0.013 C 
ENDBRANCH   7   8
ENDBRANCH   1   7
TORSDOF 2
ENDMDL
