MODEL 1
REMARK minimizedAffinity -3.3536725
REMARK minimizedRMSD -1
REMARK  2 active torsions:
REMARK  status: ('A' for Active; 'I' for Inactive)
REMARK    1  A    between atoms: C2'_3  and  C1'_4 
REMARK    2  A    between atoms: C1'_4  and  C1_5 
ROOT
ATOM      1  C1  I4B d   1      -0.342  -0.836   0.526  0.00  0.00    -0.075 A 
ATOM      2  C2  I4B d   1      -1.370  -1.745   0.552  0.00  0.00     0.003 A 
ATOM      3  C3  I4B d   1      -1.094  -3.132   0.628  0.00  0.00     0.002 A 
ATOM      4  C4  I4B d   1       0.216  -3.565   0.627  0.00  0.00    -0.004 A 
ATOM      5  C5  I4B d   1       1.257  -2.641   0.624  0.00  0.00     0.002 A 
ATOM      6  C6  I4B d   1       0.976  -1.267   0.586  0.00  0.00     0.003 A 
ENDROOT
BRANCH   1   7
ATOM      7  C1' I4B d   1      -0.670   0.619   0.412  0.00  0.00     0.060 C 
BRANCH   7   8
ATOM      8  C2' I4B d   1       0.316   1.244  -0.554  0.00  0.00    -0.013 C 
ATOM      9  C4' I4B d   1      -0.281   1.381  -1.930  0.00  0.00     0.013 C 
ATOM     10  C3' I4B d   1       0.719   2.580  -0.004  0.00  0.00     0.013 C 
ENDBRANCH   7   8
ENDBRANCH   1   7
TORSDOF 2
ENDMDL
