MODEL 1
REMARK minimizedAffinity -4.46613932
REMARK minimizedRMSD -1
REMARK  2 active torsions:
REMARK  status: ('A' for Active; 'I' for Inactive)
REMARK    1  A    between atoms: C2'_3  and  C1'_4 
REMARK    2  A    between atoms: C1'_4  and  C1_5 
ROOT
ATOM      1  C1  I4B d   1       0.008   0.143  -0.006  0.00  0.00    -0.075 A 
ATOM      2  C2  I4B d   1       0.788  -0.882  -0.480  0.00  0.00     0.003 A 
ATOM      3  C3  I4B d   1       0.651  -2.187   0.052  0.00  0.00     0.002 A 
ATOM      4  C4  I4B d   1      -0.237  -2.410   1.084  0.00  0.00    -0.004 A 
ATOM      5  C5  I4B d   1      -1.043  -1.374   1.548  0.00  0.00     0.002 A 
ATOM      6  C6  I4B d   1      -0.929  -0.092   0.991  0.00  0.00     0.003 A 
ENDROOT
BRANCH   1   7
ATOM      7  C1' I4B d   1       0.202   1.516  -0.568  0.00  0.00     0.060 C 
BRANCH   7   8
ATOM      8  C2' I4B d   1       1.052   2.304   0.408  0.00  0.00    -0.013 C 
ATOM      9  C4' I4B d   1       2.415   2.592  -0.165  0.00  0.00     0.013 C 
ATOM     10  C3' I4B d   1       0.324   3.573   0.736  0.00  0.00     0.013 C 
ENDBRANCH   7   8
ENDBRANCH   1   7
TORSDOF 2
ENDMDL
