MODEL 1
REMARK minimizedAffinity -4.31289816
REMARK minimizedRMSD -1
REMARK  2 active torsions:
REMARK  status: ('A' for Active; 'I' for Inactive)
REMARK    1  A    between atoms: C2'_3  and  C1'_4 
REMARK    2  A    between atoms: C1'_4  and  C1_5 
ROOT
ATOM      1  C1  I4B d   1       0.065   0.482  -0.466  0.00  0.00    -0.075 A 
ATOM      2  C2  I4B d   1       0.870  -0.446  -1.078  0.00  0.00     0.003 A 
ATOM      3  C3  I4B d   1       0.813  -1.806  -0.689  0.00  0.00     0.002 A 
ATOM      4  C4  I4B d   1      -0.020  -2.183   0.344  0.00  0.00    -0.004 A 
ATOM      5  C5  I4B d   1      -0.852  -1.244   0.948  0.00  0.00     0.002 A 
ATOM      6  C6  I4B d   1      -0.818   0.095   0.532  0.00  0.00     0.003 A 
ENDROOT
BRANCH   1   7
ATOM      7  C1' I4B d   1       0.175   1.916  -0.880  0.00  0.00     0.060 C 
BRANCH   7   8
ATOM      8  C2' I4B d   1       1.115   2.609   0.085  0.00  0.00    -0.013 C 
ATOM      9  C4' I4B d   1       2.187   3.370  -0.650  0.00  0.00     0.013 C 
ATOM     10  C3' I4B d   1       0.300   3.523   0.950  0.00  0.00     0.013 C 
ENDBRANCH   7   8
ENDBRANCH   1   7
TORSDOF 2
ENDMDL
