MODEL 1
REMARK minimizedAffinity -5.20475578
REMARK minimizedRMSD -1
REMARK  2 active torsions:
REMARK  status: ('A' for Active; 'I' for Inactive)
REMARK    1  A    between atoms: C2'_3  and  C1'_4 
REMARK    2  A    between atoms: C1'_4  and  C1_5 
ROOT
ATOM      1  C1  I4B d   1      -0.226   0.350  -0.241  0.00  0.00    -0.075 A 
ATOM      2  C2  I4B d   1      -1.257   0.231   0.658  0.00  0.00     0.003 A 
ATOM      3  C3  I4B d   1      -1.505  -1.007   1.298  0.00  0.00     0.002 A 
ATOM      4  C4  I4B d   1      -0.735  -2.106   0.974  0.00  0.00    -0.004 A 
ATOM      5  C5  I4B d   1       0.323  -1.978   0.079  0.00  0.00     0.002 A 
ATOM      6  C6  I4B d   1       0.588  -0.739  -0.523  0.00  0.00     0.003 A 
ENDROOT
BRANCH   1   7
ATOM      7  C1' I4B d   1      -0.013   1.664  -0.923  0.00  0.00     0.060 C 
BRANCH   7   8
ATOM      8  C2' I4B d   1       1.073   2.409  -0.173  0.00  0.00    -0.013 C 
ATOM      9  C4' I4B d   1       2.277   2.642  -1.047  0.00  0.00     0.013 C 
ATOM     10  C3' I4B d   1       0.495   3.706   0.311  0.00  0.00     0.013 C 
ENDBRANCH   7   8
ENDBRANCH   1   7
TORSDOF 2
ENDMDL
