MODEL 1
REMARK minimizedAffinity -5.2651844
REMARK minimizedRMSD -1
REMARK  2 active torsions:
REMARK  status: ('A' for Active; 'I' for Inactive)
REMARK    1  A    between atoms: C2'_3  and  C1'_4 
REMARK    2  A    between atoms: C1'_4  and  C1_5 
ROOT
ATOM      1  C1  I4B d   1      -0.192   0.278   0.109  0.00  0.00    -0.075 A 
ATOM      2  C2  I4B d   1      -0.846   0.109   1.304  0.00  0.00     0.003 A 
ATOM      3  C3  I4B d   1      -1.006  -1.187   1.852  0.00  0.00     0.002 A 
ATOM      4  C4  I4B d   1      -0.544  -2.283   1.152  0.00  0.00    -0.004 A 
ATOM      5  C5  I4B d   1       0.138  -2.108  -0.048  0.00  0.00     0.002 A 
ATOM      6  C6  I4B d   1       0.327  -0.819  -0.568  0.00  0.00     0.003 A 
ENDROOT
BRANCH   1   7
ATOM      7  C1' I4B d   1      -0.069   1.657  -0.458  0.00  0.00     0.060 C 
BRANCH   7   8
ATOM      8  C2' I4B d   1       0.581   2.536   0.591  0.00  0.00    -0.013 C 
ATOM      9  C4' I4B d   1       2.054   2.703   0.325  0.00  0.00     0.013 C 
ATOM     10  C3' I4B d   1      -0.123   3.860   0.587  0.00  0.00     0.013 C 
ENDBRANCH   7   8
ENDBRANCH   1   7
TORSDOF 2
ENDMDL
