MODEL 1
REMARK minimizedAffinity -4.17241955
REMARK minimizedRMSD -1
REMARK  2 active torsions:
REMARK  status: ('A' for Active; 'I' for Inactive)
REMARK    1  A    between atoms: C2'_3  and  C1'_4 
REMARK    2  A    between atoms: C1'_4  and  C1_5 
ROOT
ATOM      1  C1  I4B d   1       0.118  -1.059   0.055  0.00  0.00    -0.075 A 
ATOM      2  C2  I4B d   1      -0.311  -2.076   0.872  0.00  0.00     0.003 A 
ATOM      3  C3  I4B d   1      -0.260  -3.419   0.425  0.00  0.00     0.002 A 
ATOM      4  C4  I4B d   1       0.176  -3.693  -0.855  0.00  0.00    -0.004 A 
ATOM      5  C5  I4B d   1       0.631  -2.663  -1.674  0.00  0.00     0.002 A 
ATOM      6  C6  I4B d   1       0.614  -1.339  -1.212  0.00  0.00     0.003 A 
ENDROOT
BRANCH   1   7
ATOM      7  C1' I4B d   1       0.019   0.350   0.546  0.00  0.00     0.060 C 
BRANCH   7   8
ATOM      8  C2' I4B d   1       0.469   1.267  -0.573  0.00  0.00    -0.013 C 
ATOM      9  C4' I4B d   1      -0.657   2.154  -1.037  0.00  0.00     0.013 C 
ATOM     10  C3' I4B d   1       1.625   2.078  -0.071  0.00  0.00     0.013 C 
ENDBRANCH   7   8
ENDBRANCH   1   7
TORSDOF 2
ENDMDL
