MODEL 1
REMARK minimizedAffinity -3.86083126
REMARK minimizedRMSD -1
REMARK  0 active torsions:
REMARK  status: ('A' for Active; 'I' for Inactive)
ROOT
ATOM      1  O1  BZF d   1       1.587   0.274  -0.219  0.00  0.00    -0.204 OA
ATOM      2  C2  BZF d   1       0.498   0.257  -1.069  0.00  0.00     0.174 A 
ATOM      3  C3  BZF d   1      -0.612  -0.142  -0.415  0.00  0.00    -0.012 A 
ATOM      4  C3A BZF d   1      -0.209  -0.301   0.948  0.00  0.00    -0.107 A 
ATOM      5  C4  BZF d   1      -0.871  -0.665   2.086  0.00  0.00     0.055 A 
ATOM      6  C5  BZF d   1      -0.172  -0.794   3.244  0.00  0.00    -0.016 A 
ATOM      7  C6  BZF d   1       1.189  -0.573   3.299  0.00  0.00     0.022 A 
ATOM      8  C7  BZF d   1       1.888  -0.206   2.198  0.00  0.00     0.029 A 
ATOM      9  C7A BZF d   1       1.178  -0.042   1.033  0.00  0.00     0.058 A 
ENDROOT
TORSDOF 0
ENDMDL
