MODEL 1
REMARK minimizedAffinity -3.97503591
REMARK minimizedRMSD -1
REMARK  0 active torsions:
REMARK  status: ('A' for Active; 'I' for Inactive)
ROOT
ATOM      1  O1  BZF d   1       0.703  -0.838   2.946  0.00  0.00    -0.204 OA
ATOM      2  C2  BZF d   1       1.997  -0.421   2.697  0.00  0.00     0.174 A 
ATOM      3  C3  BZF d   1       2.152  -0.096   1.397  0.00  0.00    -0.012 A 
ATOM      4  C3A BZF d   1       0.852  -0.235   0.816  0.00  0.00    -0.107 A 
ATOM      5  C4  BZF d   1       0.360  -0.039  -0.442  0.00  0.00     0.055 A 
ATOM      6  C5  BZF d   1      -0.942  -0.335  -0.696  0.00  0.00    -0.016 A 
ATOM      7  C6  BZF d   1      -1.777  -0.835   0.281  0.00  0.00     0.022 A 
ATOM      8  C7  BZF d   1      -1.336  -1.042   1.546  0.00  0.00     0.029 A 
ATOM      9  C7A BZF d   1      -0.030  -0.712   1.814  0.00  0.00     0.058 A 
ENDROOT
TORSDOF 0
ENDMDL
