MODEL 1
REMARK minimizedAffinity -5.34442854
REMARK minimizedRMSD -1
REMARK  0 active torsions:
REMARK  status: ('A' for Active; 'I' for Inactive)
ROOT
ATOM      1  O1  BZF d   1       1.928  -0.680   1.803  0.00  0.00    -0.204 OA
ATOM      2  C2  BZF d   1       1.323  -0.620   3.044  0.00  0.00     0.174 A 
ATOM      3  C3  BZF d   1      -0.000  -0.390   2.920  0.00  0.00    -0.012 A 
ATOM      4  C3A BZF d   1      -0.253  -0.393   1.512  0.00  0.00    -0.107 A 
ATOM      5  C4  BZF d   1      -1.382  -0.234   0.760  0.00  0.00     0.055 A 
ATOM      6  C5  BZF d   1      -1.276  -0.217  -0.595  0.00  0.00    -0.016 A 
ATOM      7  C6  BZF d   1      -0.059  -0.352  -1.230  0.00  0.00     0.022 A 
ATOM      8  C7  BZF d   1       1.088  -0.518  -0.527  0.00  0.00     0.029 A 
ATOM      9  C7A BZF d   1       0.980  -0.568   0.842  0.00  0.00     0.058 A 
ENDROOT
TORSDOF 0
ENDMDL
