MODEL 1
REMARK minimizedAffinity -3.39988422
REMARK minimizedRMSD -1
REMARK  0 active torsions:
REMARK  status: ('A' for Active; 'I' for Inactive)
ROOT
ATOM      1  O1  BZF d   1      -1.468  -0.403  -0.315  0.00  0.00    -0.204 OA
ATOM      2  C2  BZF d   1      -0.981   0.301  -1.399  0.00  0.00     0.174 A 
ATOM      3  C3  BZF d   1       0.226   0.834  -1.120  0.00  0.00    -0.012 A 
ATOM      4  C3A BZF d   1       0.553   0.361   0.190  0.00  0.00    -0.107 A 
ATOM      5  C4  BZF d   1       1.632   0.534   1.009  0.00  0.00     0.055 A 
ATOM      6  C5  BZF d   1       1.607  -0.004   2.257  0.00  0.00    -0.016 A 
ATOM      7  C6  BZF d   1       0.519  -0.715   2.719  0.00  0.00     0.022 A 
ATOM      8  C7  BZF d   1      -0.572  -0.918   1.941  0.00  0.00     0.029 A 
ATOM      9  C7A BZF d   1      -0.537  -0.403   0.668  0.00  0.00     0.058 A 
ENDROOT
TORSDOF 0
ENDMDL
