MODEL 1
REMARK minimizedAffinity -3.19372559
REMARK minimizedRMSD -1
REMARK  0 active torsions:
REMARK  status: ('A' for Active; 'I' for Inactive)
ROOT
ATOM      1  O1  BZF d   1      -1.261   0.367  -0.370  0.00  0.00    -0.204 OA
ATOM      2  C2  BZF d   1      -0.402   0.746  -1.383  0.00  0.00     0.174 A 
ATOM      3  C3  BZF d   1       0.880   0.694  -0.968  0.00  0.00    -0.012 A 
ATOM      4  C3A BZF d   1       0.824   0.167   0.361  0.00  0.00    -0.107 A 
ATOM      5  C4  BZF d   1       1.775  -0.133   1.294  0.00  0.00     0.055 A 
ATOM      6  C5  BZF d   1       1.384  -0.563   2.522  0.00  0.00    -0.016 A 
ATOM      7  C6  BZF d   1       0.052  -0.701   2.853  0.00  0.00     0.022 A 
ATOM      8  C7  BZF d   1      -0.928  -0.420   1.960  0.00  0.00     0.029 A 
ATOM      9  C7A BZF d   1      -0.535  -0.017   0.707  0.00  0.00     0.058 A 
ENDROOT
TORSDOF 0
ENDMDL
