MODEL 1
REMARK minimizedAffinity -3.13872981
REMARK minimizedRMSD -1
REMARK  0 active torsions:
REMARK  status: ('A' for Active; 'I' for Inactive)
ROOT
ATOM      1  O1  BZF d   1       0.715   1.138  -0.595  0.00  0.00    -0.204 OA
ATOM      2  C2  BZF d   1      -0.471   1.082  -1.300  0.00  0.00     0.174 A 
ATOM      3  C3  BZF d   1      -1.336   0.228  -0.716  0.00  0.00    -0.012 A 
ATOM      4  C3A BZF d   1      -0.680  -0.213   0.478  0.00  0.00    -0.107 A 
ATOM      5  C4  BZF d   1      -1.039  -1.059   1.488  0.00  0.00     0.055 A 
ATOM      6  C5  BZF d   1      -0.140  -1.333   2.470  0.00  0.00    -0.016 A 
ATOM      7  C6  BZF d   1       1.125  -0.783   2.470  0.00  0.00     0.022 A 
ATOM      8  C7  BZF d   1       1.525   0.065   1.492  0.00  0.00     0.029 A 
ATOM      9  C7A BZF d   1       0.608   0.370   0.516  0.00  0.00     0.058 A 
ENDROOT
TORSDOF 0
ENDMDL
