MODEL 1
REMARK minimizedAffinity -2.49451351
REMARK minimizedRMSD -1
REMARK  0 active torsions:
REMARK  status: ('A' for Active; 'I' for Inactive)
ROOT
ATOM      1  O1  BZF d   1       1.189   0.909  -0.612  0.00  0.00    -0.204 OA
ATOM      2  C2  BZF d   1       0.452  -0.141  -0.100  0.00  0.00     0.174 A 
ATOM      3  C3  BZF d   1      -0.838  -0.053  -0.483  0.00  0.00    -0.012 A 
ATOM      4  C3A BZF d   1      -0.893   1.075  -1.362  0.00  0.00    -0.107 A 
ATOM      5  C4  BZF d   1      -1.899   1.661  -2.076  0.00  0.00     0.055 A 
ATOM      6  C5  BZF d   1      -1.637   2.794  -2.779  0.00  0.00    -0.016 A 
ATOM      7  C6  BZF d   1      -0.384   3.371  -2.785  0.00  0.00     0.022 A 
ATOM      8  C7  BZF d   1       0.647   2.824  -2.095  0.00  0.00     0.029 A 
ATOM      9  C7A BZF d   1       0.394   1.660  -1.411  0.00  0.00     0.058 A 
ENDROOT
TORSDOF 0
ENDMDL
