MODEL 1
REMARK minimizedAffinity -3.38960123
REMARK minimizedRMSD -1
REMARK  0 active torsions:
REMARK  status: ('A' for Active; 'I' for Inactive)
ROOT
ATOM      1  O1  BZF d   1       0.229  -0.180  -0.490  0.00  0.00    -0.204 OA
ATOM      2  C2  BZF d   1      -1.130  -0.377  -0.338  0.00  0.00     0.174 A 
ATOM      3  C3  BZF d   1      -1.405  -0.903   0.873  0.00  0.00    -0.012 A 
ATOM      4  C3A BZF d   1      -0.148  -0.957   1.554  0.00  0.00    -0.107 A 
ATOM      5  C4  BZF d   1       0.228  -1.369   2.800  0.00  0.00     0.055 A 
ATOM      6  C5  BZF d   1       1.547  -1.360   3.130  0.00  0.00    -0.016 A 
ATOM      7  C6  BZF d   1       2.515  -0.951   2.236  0.00  0.00     0.022 A 
ATOM      8  C7  BZF d   1       2.191  -0.529   0.990  0.00  0.00     0.029 A 
ATOM      9  C7A BZF d   1       0.856  -0.505   0.666  0.00  0.00     0.058 A 
ENDROOT
TORSDOF 0
ENDMDL
