MODEL 1
REMARK minimizedAffinity -4.93987083
REMARK minimizedRMSD -1
REMARK  0 active torsions:
REMARK  status: ('A' for Active; 'I' for Inactive)
ROOT
ATOM      1  O1  BZF d   1       1.252  -1.211  -1.443  0.00  0.00    -0.204 OA
ATOM      2  C2  BZF d   1       0.354  -0.393  -2.101  0.00  0.00     0.174 A 
ATOM      3  C3  BZF d   1      -0.552   0.113  -1.240  0.00  0.00    -0.012 A 
ATOM      4  C3A BZF d   1      -0.143  -0.348   0.051  0.00  0.00    -0.107 A 
ATOM      5  C4  BZF d   1      -0.633  -0.166   1.313  0.00  0.00     0.055 A 
ATOM      6  C5  BZF d   1      -0.044  -0.815   2.351  0.00  0.00    -0.016 A 
ATOM      7  C6  BZF d   1       1.034  -1.656   2.164  0.00  0.00     0.022 A 
ATOM      8  C7  BZF d   1       1.559  -1.864   0.932  0.00  0.00     0.029 A 
ATOM      9  C7A BZF d   1       0.986  -1.184  -0.115  0.00  0.00     0.058 A 
ENDROOT
TORSDOF 0
ENDMDL
