MODEL 1
REMARK minimizedAffinity 10.8774986
REMARK minimizedRMSD -1
REMARK  0 active torsions:
REMARK  status: ('A' for Active; 'I' for Inactive)
ROOT
ATOM      1  C1  BNZ d   1       1.278   5.468  -3.615  0.00  0.00     0.000 A 
ATOM      2  C2  BNZ d   1      -0.088   5.478  -3.717  0.00  0.00     0.000 A 
ATOM      3  C3  BNZ d   1      -0.698   5.723  -4.915  0.00  0.00     0.000 A 
ATOM      4  C4  BNZ d   1       0.055   5.996  -6.000  0.00  0.00     0.000 A 
ATOM      5  C5  BNZ d   1       1.433   5.999  -5.911  0.00  0.00     0.000 A 
ATOM      6  C6  BNZ d   1       2.045   5.713  -4.712  0.00  0.00     0.000 A 
ENDROOT
TORSDOF 0
ENDMDL
