MODEL 1
REMARK minimizedAffinity 5.66821527
REMARK minimizedRMSD -1
REMARK  0 active torsions:
REMARK  status: ('A' for Active; 'I' for Inactive)
ROOT
ATOM      1  C1  BNZ d   1      -5.113  -3.765   1.668  0.00  0.00     0.000 A 
ATOM      2  C2  BNZ d   1      -5.203  -3.748   3.034  0.00  0.00     0.000 A 
ATOM      3  C3  BNZ d   1      -5.627  -4.851   3.721  0.00  0.00     0.000 A 
ATOM      4  C4  BNZ d   1      -5.999  -5.954   3.041  0.00  0.00     0.000 A 
ATOM      5  C5  BNZ d   1      -5.924  -5.983   1.662  0.00  0.00     0.000 A 
ATOM      6  C6  BNZ d   1      -5.459  -4.885   0.976  0.00  0.00     0.000 A 
ENDROOT
TORSDOF 0
ENDMDL
