MODEL 1
REMARK minimizedAffinity 9.08385468
REMARK minimizedRMSD -1
REMARK  0 active torsions:
REMARK  status: ('A' for Active; 'I' for Inactive)
ROOT
ATOM      1  C1  BNZ d   1      -3.690   0.427   3.433  0.00  0.00     0.000 A 
ATOM      2  C2  BNZ d   1      -4.266   0.472   4.674  0.00  0.00     0.000 A 
ATOM      3  C3  BNZ d   1      -5.144  -0.496   5.074  0.00  0.00     0.000 A 
ATOM      4  C4  BNZ d   1      -5.474  -1.485   4.219  0.00  0.00     0.000 A 
ATOM      5  C5  BNZ d   1      -4.909  -1.539   2.960  0.00  0.00     0.000 A 
ATOM      6  C6  BNZ d   1      -3.997  -0.584   2.575  0.00  0.00     0.000 A 
ENDROOT
TORSDOF 0
ENDMDL
