MODEL 1
REMARK minimizedAffinity -2.05163574
REMARK minimizedRMSD -1
REMARK  0 active torsions:
REMARK  status: ('A' for Active; 'I' for Inactive)
ROOT
ATOM      1  C1  BNZ d   1      -4.676  -0.252   4.851  0.00  0.00     0.000 A 
ATOM      2  C2  BNZ d   1      -4.683  -0.876   3.632  0.00  0.00     0.000 A 
ATOM      3  C3  BNZ d   1      -3.662  -0.689   2.743  0.00  0.00     0.000 A 
ATOM      4  C4  BNZ d   1      -2.656   0.152   3.058  0.00  0.00     0.000 A 
ATOM      5  C5  BNZ d   1      -2.638   0.796   4.279  0.00  0.00     0.000 A 
ATOM      6  C6  BNZ d   1      -3.649   0.575   5.187  0.00  0.00     0.000 A 
ENDROOT
TORSDOF 0
ENDMDL
