MODEL 1
REMARK minimizedAffinity 2.97415948
REMARK minimizedRMSD -1
REMARK  0 active torsions:
REMARK  status: ('A' for Active; 'I' for Inactive)
ROOT
ATOM      1  C1  BNZ d   1      -4.162   0.128   4.856  0.00  0.00     0.000 A 
ATOM      2  C2  BNZ d   1      -5.087  -0.864   4.669  0.00  0.00     0.000 A 
ATOM      3  C3  BNZ d   1      -5.027  -1.678   3.572  0.00  0.00     0.000 A 
ATOM      4  C4  BNZ d   1      -4.069  -1.473   2.645  0.00  0.00     0.000 A 
ATOM      5  C5  BNZ d   1      -3.136  -0.470   2.815  0.00  0.00     0.000 A 
ATOM      6  C6  BNZ d   1      -3.175   0.322   3.939  0.00  0.00     0.000 A 
ENDROOT
TORSDOF 0
ENDMDL
