MODEL 1
REMARK minimizedAffinity 3.79202938
REMARK minimizedRMSD -1
REMARK  0 active torsions:
REMARK  status: ('A' for Active; 'I' for Inactive)
ROOT
ATOM      1  C1  BNZ d   1       5.999  -4.315  -0.131  0.00  0.00     0.000 A 
ATOM      2  C2  BNZ d   1       5.165  -3.313  -0.550  0.00  0.00     0.000 A 
ATOM      3  C3  BNZ d   1       3.819  -3.524  -0.664  0.00  0.00     0.000 A 
ATOM      4  C4  BNZ d   1       3.315  -4.746  -0.397  0.00  0.00     0.000 A 
ATOM      5  C5  BNZ d   1       4.144  -5.769   0.017  0.00  0.00     0.000 A 
ATOM      6  C6  BNZ d   1       5.492  -5.542   0.168  0.00  0.00     0.000 A 
ENDROOT
TORSDOF 0
ENDMDL
