MODEL 1
REMARK minimizedAffinity 0.21601814
REMARK minimizedRMSD -1
REMARK  0 active torsions:
REMARK  status: ('A' for Active; 'I' for Inactive)
ROOT
ATOM      1  C1  BNZ d   1       4.835  -3.381  -1.001  0.00  0.00     0.000 A 
ATOM      2  C2  BNZ d   1       3.684  -4.122  -1.023  0.00  0.00     0.000 A 
ATOM      3  C3  BNZ d   1       3.677  -5.418  -0.588  0.00  0.00     0.000 A 
ATOM      4  C4  BNZ d   1       4.827  -5.982  -0.168  0.00  0.00     0.000 A 
ATOM      5  C5  BNZ d   1       5.998  -5.251  -0.148  0.00  0.00     0.000 A 
ATOM      6  C6  BNZ d   1       5.994  -3.936  -0.551  0.00  0.00     0.000 A 
ENDROOT
TORSDOF 0
ENDMDL
