MODEL 1
REMARK minimizedAffinity 1.31463766
REMARK minimizedRMSD -1
REMARK  0 active torsions:
REMARK  status: ('A' for Active; 'I' for Inactive)
ROOT
ATOM      1  C1  BNZ d   1      -5.998  -2.868  -3.427  0.00  0.00     0.000 A 
ATOM      2  C2  BNZ d   1      -6.000  -3.468  -4.658  0.00  0.00     0.000 A 
ATOM      3  C3  BNZ d   1      -5.975  -2.720  -5.801  0.00  0.00     0.000 A 
ATOM      4  C4  BNZ d   1      -5.988  -1.375  -5.714  0.00  0.00     0.000 A 
ATOM      5  C5  BNZ d   1      -5.996  -0.754  -4.481  0.00  0.00     0.000 A 
ATOM      6  C6  BNZ d   1      -5.982  -1.510  -3.331  0.00  0.00     0.000 A 
ENDROOT
TORSDOF 0
ENDMDL
