MODEL 1
REMARK minimizedAffinity -2.53518271
REMARK minimizedRMSD -1
REMARK  0 active torsions:
REMARK  status: ('A' for Active; 'I' for Inactive)
ROOT
ATOM      1  C1  BNZ d   1       5.999  -4.888  -0.680  0.00  0.00     0.000 A 
ATOM      2  C2  BNZ d   1       5.800  -3.777  -1.455  0.00  0.00     0.000 A 
ATOM      3  C3  BNZ d   1       4.828  -3.759  -2.416  0.00  0.00     0.000 A 
ATOM      4  C4  BNZ d   1       4.084  -4.864  -2.627  0.00  0.00     0.000 A 
ATOM      5  C5  BNZ d   1       4.279  -5.995  -1.860  0.00  0.00     0.000 A 
ATOM      6  C6  BNZ d   1       5.233  -5.996  -0.868  0.00  0.00     0.000 A 
ENDROOT
TORSDOF 0
ENDMDL
