MODEL 1
REMARK minimizedAffinity 3.21273613
REMARK minimizedRMSD -1
REMARK  0 active torsions:
REMARK  status: ('A' for Active; 'I' for Inactive)
ROOT
ATOM      1  C1  BNZ d   1      -5.311  -5.625   3.616  0.00  0.00     0.000 A 
ATOM      2  C2  BNZ d   1      -6.000  -5.622   4.799  0.00  0.00     0.000 A 
ATOM      3  C3  BNZ d   1      -5.347  -5.781   5.990  0.00  0.00     0.000 A 
ATOM      4  C4  BNZ d   1      -4.013  -5.981   5.993  0.00  0.00     0.000 A 
ATOM      5  C5  BNZ d   1      -3.306  -5.996   4.807  0.00  0.00     0.000 A 
ATOM      6  C6  BNZ d   1      -3.961  -5.798   3.614  0.00  0.00     0.000 A 
ENDROOT
TORSDOF 0
ENDMDL
