MODEL 1
REMARK minimizedAffinity 14.0859146
REMARK minimizedRMSD -1
REMARK  0 active torsions:
REMARK  status: ('A' for Active; 'I' for Inactive)
ROOT
ATOM      1  C1  BNZ d   1      -0.645  -2.021   1.632  0.00  0.00     0.000 A 
ATOM      2  C2  BNZ d   1       0.071  -1.103   2.353  0.00  0.00     0.000 A 
ATOM      3  C3  BNZ d   1      -0.538   0.001   2.882  0.00  0.00     0.000 A 
ATOM      4  C4  BNZ d   1      -1.852   0.205   2.656  0.00  0.00     0.000 A 
ATOM      5  C5  BNZ d   1      -2.585  -0.707   1.924  0.00  0.00     0.000 A 
ATOM      6  C6  BNZ d   1      -1.977  -1.837   1.426  0.00  0.00     0.000 A 
ENDROOT
TORSDOF 0
ENDMDL
