MODEL 1
REMARK minimizedAffinity 12.4224463
REMARK minimizedRMSD -1
REMARK  0 active torsions:
REMARK  status: ('A' for Active; 'I' for Inactive)
ROOT
ATOM      1  C1  BNZ d   1       3.108  -4.875  -1.023  0.00  0.00     0.000 A 
ATOM      2  C2  BNZ d   1       3.278  -3.516  -1.048  0.00  0.00     0.000 A 
ATOM      3  C3  BNZ d   1       4.521  -2.964  -0.905  0.00  0.00     0.000 A 
ATOM      4  C4  BNZ d   1       5.584  -3.768  -0.698  0.00  0.00     0.000 A 
ATOM      5  C5  BNZ d   1       5.427  -5.139  -0.661  0.00  0.00     0.000 A 
ATOM      6  C6  BNZ d   1       4.180  -5.693  -0.844  0.00  0.00     0.000 A 
ENDROOT
TORSDOF 0
ENDMDL
