MODEL 1
REMARK minimizedAffinity 2.75541568
REMARK minimizedRMSD -1
REMARK  0 active torsions:
REMARK  status: ('A' for Active; 'I' for Inactive)
ROOT
ATOM      1  C1  BNZ d   1       4.061  -2.989  -0.700  0.00  0.00     0.000 A 
ATOM      2  C2  BNZ d   1       3.270  -4.107  -0.713  0.00  0.00     0.000 A 
ATOM      3  C3  BNZ d   1       2.214  -4.227   0.147  0.00  0.00     0.000 A 
ATOM      4  C4  BNZ d   1       1.975  -3.249   1.044  0.00  0.00     0.000 A 
ATOM      5  C5  BNZ d   1       2.769  -2.120   1.075  0.00  0.00     0.000 A 
ATOM      6  C6  BNZ d   1       3.807  -1.985   0.182  0.00  0.00     0.000 A 
ENDROOT
TORSDOF 0
ENDMDL
