MODEL 1
REMARK minimizedAffinity 4.02270269
REMARK minimizedRMSD -1
REMARK  0 active torsions:
REMARK  status: ('A' for Active; 'I' for Inactive)
ROOT
ATOM      1  C1  BNZ d   1      -2.294  -5.200  -3.744  0.00  0.00     0.000 A 
ATOM      2  C2  BNZ d   1      -1.691  -6.000  -4.677  0.00  0.00     0.000 A 
ATOM      3  C3  BNZ d   1      -0.337  -5.962  -4.862  0.00  0.00     0.000 A 
ATOM      4  C4  BNZ d   1       0.406  -5.097  -4.142  0.00  0.00     0.000 A 
ATOM      5  C5  BNZ d   1      -0.188  -4.276  -3.204  0.00  0.00     0.000 A 
ATOM      6  C6  BNZ d   1      -1.546  -4.345  -2.993  0.00  0.00     0.000 A 
ENDROOT
TORSDOF 0
ENDMDL
