MODEL 1
REMARK minimizedAffinity -4.70772505
REMARK minimizedRMSD -1
REMARK  0 active torsions:
REMARK  status: ('A' for Active; 'I' for Inactive)
ROOT
ATOM      1  C1  BNZ d   1       1.174  -1.114   0.378  0.00  0.00     0.000 A 
ATOM      2  C2  BNZ d   1       0.798   0.037  -0.260  0.00  0.00     0.000 A 
ATOM      3  C3  BNZ d   1      -0.523   0.360  -0.400  0.00  0.00     0.000 A 
ATOM      4  C4  BNZ d   1      -1.465  -0.488   0.061  0.00  0.00     0.000 A 
ATOM      5  C5  BNZ d   1      -1.102  -1.657   0.698  0.00  0.00     0.000 A 
ATOM      6  C6  BNZ d   1       0.230  -1.960   0.872  0.00  0.00     0.000 A 
ENDROOT
TORSDOF 0
ENDMDL
