MODEL 1
REMARK minimizedAffinity -1.38879621
REMARK minimizedRMSD -1
REMARK  0 active torsions:
REMARK  status: ('A' for Active; 'I' for Inactive)
ROOT
ATOM      1  C1  BNZ d   1       0.117   0.124   0.393  0.00  0.00     0.000 A 
ATOM      2  C2  BNZ d   1       0.586  -1.161   0.460  0.00  0.00     0.000 A 
ATOM      3  C3  BNZ d   1       0.038  -2.062   1.330  0.00  0.00     0.000 A 
ATOM      4  C4  BNZ d   1      -0.950  -1.667   2.159  0.00  0.00     0.000 A 
ATOM      5  C5  BNZ d   1      -1.428  -0.373   2.110  0.00  0.00     0.000 A 
ATOM      6  C6  BNZ d   1      -0.900   0.521   1.206  0.00  0.00     0.000 A 
ENDROOT
TORSDOF 0
ENDMDL
