MODEL 1
REMARK minimizedAffinity -5.68249416
REMARK minimizedRMSD -1
REMARK  1 active torsions:
REMARK  status: ('A' for Active; 'I' for Inactive)
REMARK    1  A    between atoms: N_2  and  C1_3 
ROOT
ATOM      1  C1  UNL d   1       0.876   0.689   0.041  0.00  0.00     0.143 A 
ATOM      2  C2  UNL d   1       2.144   1.159  -0.319  0.00  0.00    -0.057 A 
ATOM      3  C3  UNL d   1       2.745   2.222   0.366  0.00  0.00     0.033 A 
ATOM      4  C4  UNL d   1       2.075   2.854   1.408  0.00  0.00    -0.042 A 
ATOM      5  C5  UNL d   1       0.804   2.419   1.767  0.00  0.00     0.033 A 
ATOM      6  C6  UNL d   1       0.211   1.353   1.083  0.00  0.00    -0.057 A 
ENDROOT
BRANCH   1   7
ATOM      7  N   UNL d   1       0.184  -0.299  -0.665  0.00  0.00    -0.732 N 
ATOM      8  C   UNL d   1      -0.296  -1.486   0.009  0.00  0.00     0.284 C 
ATOM      9  H3  UNL d   1      -0.473   0.092  -1.337  0.00  0.00     0.395 HD
ENDBRANCH   1   7
TORSDOF 1
ENDMDL
