MODEL 1
REMARK minimizedAffinity -5.50102139
REMARK minimizedRMSD -1
REMARK  1 active torsions:
REMARK  status: ('A' for Active; 'I' for Inactive)
REMARK    1  A    between atoms: N_2  and  C1_3 
ROOT
ATOM      1  C1  UNL d   1       0.723   1.074   0.766  0.00  0.00     0.143 A 
ATOM      2  C2  UNL d   1       0.932   2.272   1.458  0.00  0.00    -0.057 A 
ATOM      3  C3  UNL d   1       2.117   3.001   1.305  0.00  0.00     0.033 A 
ATOM      4  C4  UNL d   1       3.130   2.528   0.476  0.00  0.00    -0.042 A 
ATOM      5  C5  UNL d   1       2.954   1.327  -0.202  0.00  0.00     0.033 A 
ATOM      6  C6  UNL d   1       1.765   0.607  -0.050  0.00  0.00    -0.057 A 
ENDROOT
BRANCH   1   7
ATOM      7  N   UNL d   1      -0.392   0.253   0.952  0.00  0.00    -0.732 N 
ATOM      8  C   UNL d   1      -1.105   0.252   2.211  0.00  0.00     0.284 C 
ATOM      9  H3  UNL d   1      -0.995   0.226   0.133  0.00  0.00     0.395 HD
ENDBRANCH   1   7
TORSDOF 1
ENDMDL
