MODEL 1
REMARK minimizedAffinity -4.03435612
REMARK minimizedRMSD -1
REMARK  1 active torsions:
REMARK  status: ('A' for Active; 'I' for Inactive)
REMARK    1  A    between atoms: N_2  and  C1_3 
ROOT
ATOM      1  C1  UNL d   1       0.765   1.047   0.347  0.00  0.00     0.143 A 
ATOM      2  C2  UNL d   1       0.888   2.147   1.203  0.00  0.00    -0.057 A 
ATOM      3  C3  UNL d   1       2.145   2.627   1.591  0.00  0.00     0.033 A 
ATOM      4  C4  UNL d   1       3.304   1.996   1.152  0.00  0.00    -0.042 A 
ATOM      5  C5  UNL d   1       3.204   0.886   0.320  0.00  0.00     0.033 A 
ATOM      6  C6  UNL d   1       1.947   0.415  -0.069  0.00  0.00    -0.057 A 
ENDROOT
BRANCH   1   7
ATOM      7  N   UNL d   1      -0.457   0.462   0.004  0.00  0.00    -0.732 N 
ATOM      8  C   UNL d   1      -0.517  -0.917  -0.430  0.00  0.00     0.284 C 
ATOM      9  H3  UNL d   1      -1.208   0.733   0.634  0.00  0.00     0.395 HD
ENDBRANCH   1   7
TORSDOF 1
ENDMDL
