MODEL 1
REMARK minimizedAffinity -2.22340393
REMARK minimizedRMSD -1
REMARK  1 active torsions:
REMARK  status: ('A' for Active; 'I' for Inactive)
REMARK    1  A    between atoms: N_2  and  C1_3 
ROOT
ATOM      1  C1  UNL d   1      -0.352  -0.255  -1.106  0.00  0.00     0.143 A 
ATOM      2  C2  UNL d   1       0.665   0.706  -1.132  0.00  0.00    -0.057 A 
ATOM      3  C3  UNL d   1       0.975   1.466   0.002  0.00  0.00     0.033 A 
ATOM      4  C4  UNL d   1       0.251   1.299   1.178  0.00  0.00    -0.042 A 
ATOM      5  C5  UNL d   1      -0.781   0.368   1.219  0.00  0.00     0.033 A 
ATOM      6  C6  UNL d   1      -1.081  -0.393   0.085  0.00  0.00    -0.057 A 
ENDROOT
BRANCH   1   7
ATOM      7  N   UNL d   1      -0.772  -0.972  -2.229  0.00  0.00    -0.732 N 
ATOM      8  C   UNL d   1      -2.181  -1.172  -2.490  0.00  0.00     0.284 C 
ATOM      9  H3  UNL d   1      -0.223  -0.755  -3.057  0.00  0.00     0.395 HD
ENDBRANCH   1   7
TORSDOF 1
ENDMDL
