MODEL 1
REMARK minimizedAffinity -5.06877708
REMARK minimizedRMSD -1
REMARK  1 active torsions:
REMARK  status: ('A' for Active; 'I' for Inactive)
REMARK    1  A    between atoms: N_2  and  C1_3 
ROOT
ATOM      1  C1  UNL d   1       1.229   0.720   0.108  0.00  0.00     0.143 A 
ATOM      2  C2  UNL d   1       0.567   1.842   0.618  0.00  0.00    -0.057 A 
ATOM      3  C3  UNL d   1       1.266   2.862   1.274  0.00  0.00     0.033 A 
ATOM      4  C4  UNL d   1       2.641   2.765   1.458  0.00  0.00    -0.042 A 
ATOM      5  C5  UNL d   1       3.317   1.647   0.981  0.00  0.00     0.033 A 
ATOM      6  C6  UNL d   1       2.614   0.634   0.321  0.00  0.00    -0.057 A 
ENDROOT
BRANCH   1   7
ATOM      7  N   UNL d   1       0.578  -0.374  -0.467  0.00  0.00    -0.732 N 
ATOM      8  C   UNL d   1      -0.600  -0.940   0.156  0.00  0.00     0.284 C 
ATOM      9  H3  UNL d   1       0.519  -0.303  -1.480  0.00  0.00     0.395 HD
ENDBRANCH   1   7
TORSDOF 1
ENDMDL
