MODEL 1
REMARK minimizedAffinity -4.20112133
REMARK minimizedRMSD -1
REMARK  1 active torsions:
REMARK  status: ('A' for Active; 'I' for Inactive)
REMARK    1  A    between atoms: N_2  and  C1_3 
ROOT
ATOM      1  C1  UNL d   1       2.055   1.583   2.230  0.00  0.00     0.143 A 
ATOM      2  C2  UNL d   1       3.092   1.171   1.387  0.00  0.00    -0.057 A 
ATOM      3  C3  UNL d   1       2.848   0.825   0.052  0.00  0.00     0.033 A 
ATOM      4  C4  UNL d   1       1.554   0.857  -0.456  0.00  0.00    -0.042 A 
ATOM      5  C5  UNL d   1       0.504   1.239   0.372  0.00  0.00     0.033 A 
ATOM      6  C6  UNL d   1       0.754   1.590   1.702  0.00  0.00    -0.057 A 
ENDROOT
BRANCH   1   7
ATOM      7  N   UNL d   1       2.218   1.846   3.593  0.00  0.00    -0.732 N 
ATOM      8  C   UNL d   1       3.017   0.969   4.422  0.00  0.00     0.284 C 
ATOM      9  H3  UNL d   1       2.353   2.836   3.784  0.00  0.00     0.395 HD
ENDBRANCH   1   7
TORSDOF 1
ENDMDL
