MODEL 1
REMARK minimizedAffinity -5.52652597
REMARK minimizedRMSD -1
REMARK  1 active torsions:
REMARK  status: ('A' for Active; 'I' for Inactive)
REMARK    1  A    between atoms: N_2  and  C1_3 
ROOT
ATOM      1  C1  UNL d   1       0.949   0.870   0.111  0.00  0.00     0.143 A 
ATOM      2  C2  UNL d   1       0.195   1.662   0.983  0.00  0.00    -0.057 A 
ATOM      3  C3  UNL d   1       0.791   2.677   1.741  0.00  0.00     0.033 A 
ATOM      4  C4  UNL d   1       2.162   2.900   1.661  0.00  0.00    -0.042 A 
ATOM      5  C5  UNL d   1       2.935   2.108   0.819  0.00  0.00     0.033 A 
ATOM      6  C6  UNL d   1       2.333   1.100   0.060  0.00  0.00    -0.057 A 
ENDROOT
BRANCH   1   7
ATOM      7  N   UNL d   1       0.432  -0.219  -0.595  0.00  0.00    -0.732 N 
ATOM      8  C   UNL d   1      -0.798  -0.855  -0.173  0.00  0.00     0.284 C 
ATOM      9  H3  UNL d   1       0.516  -0.104  -1.603  0.00  0.00     0.395 HD
ENDBRANCH   1   7
TORSDOF 1
ENDMDL
