MODEL 1
REMARK minimizedAffinity -4.28247356
REMARK minimizedRMSD -1
REMARK  1 active torsions:
REMARK  status: ('A' for Active; 'I' for Inactive)
REMARK    1  A    between atoms: N_2  and  C1_3 
ROOT
ATOM      1  C1  UNL d   1       0.511   0.847   0.017  0.00  0.00     0.143 A 
ATOM      2  C2  UNL d   1      -0.206   1.669   0.892  0.00  0.00    -0.057 A 
ATOM      3  C3  UNL d   1       0.443   2.608   1.703  0.00  0.00     0.033 A 
ATOM      4  C4  UNL d   1       1.829   2.721   1.673  0.00  0.00    -0.042 A 
ATOM      5  C5  UNL d   1       2.564   1.897   0.829  0.00  0.00     0.033 A 
ATOM      6  C6  UNL d   1       1.909   0.966   0.017  0.00  0.00    -0.057 A 
ENDROOT
BRANCH   1   7
ATOM      7  N   UNL d   1      -0.068  -0.173  -0.742  0.00  0.00    -0.732 N 
ATOM      8  C   UNL d   1      -0.030  -1.545  -0.284  0.00  0.00     0.284 C 
ATOM      9  H3  UNL d   1      -0.958   0.104  -1.151  0.00  0.00     0.395 HD
ENDBRANCH   1   7
TORSDOF 1
ENDMDL
