MODEL 1
REMARK minimizedAffinity -4.85688114
REMARK minimizedRMSD -1
REMARK  1 active torsions:
REMARK  status: ('A' for Active; 'I' for Inactive)
REMARK    1  A    between atoms: N_2  and  C1_3 
ROOT
ATOM      1  C1  UNL d   1       0.110   0.233  -0.024  0.00  0.00     0.143 A 
ATOM      2  C2  UNL d   1      -0.365   1.000   1.046  0.00  0.00    -0.057 A 
ATOM      3  C3  UNL d   1       0.434   1.979   1.648  0.00  0.00     0.033 A 
ATOM      4  C4  UNL d   1       1.736   2.190   1.208  0.00  0.00    -0.042 A 
ATOM      5  C5  UNL d   1       2.238   1.422   0.163  0.00  0.00     0.033 A 
ATOM      6  C6  UNL d   1       1.433   0.450  -0.439  0.00  0.00    -0.057 A 
ENDROOT
BRANCH   1   7
ATOM      7  N   UNL d   1      -0.601  -0.823  -0.600  0.00  0.00    -0.732 N 
ATOM      8  C   UNL d   1      -1.179  -0.690  -1.920  0.00  0.00     0.284 C 
ATOM      9  H3  UNL d   1      -0.164  -1.725  -0.426  0.00  0.00     0.395 HD
ENDBRANCH   1   7
TORSDOF 1
ENDMDL
