MODEL 1
REMARK minimizedAffinity -4.72820902
REMARK minimizedRMSD -1
REMARK  1 active torsions:
REMARK  status: ('A' for Active; 'I' for Inactive)
REMARK    1  A    between atoms: N_2  and  C1_3 
ROOT
ATOM      1  C1  UNL d   1       0.313   0.201   0.255  0.00  0.00     0.143 A 
ATOM      2  C2  UNL d   1      -0.548   0.878   1.126  0.00  0.00    -0.057 A 
ATOM      3  C3  UNL d   1      -0.119   2.003   1.840  0.00  0.00     0.033 A 
ATOM      4  C4  UNL d   1       1.190   2.455   1.718  0.00  0.00    -0.042 A 
ATOM      5  C5  UNL d   1       2.070   1.783   0.877  0.00  0.00     0.033 A 
ATOM      6  C6  UNL d   1       1.635   0.664   0.161  0.00  0.00    -0.057 A 
ENDROOT
BRANCH   1   7
ATOM      7  N   UNL d   1      -0.024  -0.982  -0.408  0.00  0.00    -0.732 N 
ATOM      8  C   UNL d   1      -0.937  -0.963  -1.531  0.00  0.00     0.284 C 
ATOM      9  H3  UNL d   1       0.775  -1.599  -0.532  0.00  0.00     0.395 HD
ENDBRANCH   1   7
TORSDOF 1
ENDMDL
