MODEL 1
REMARK minimizedAffinity -5.72554779
REMARK minimizedRMSD -1
REMARK  1 active torsions:
REMARK  status: ('A' for Active; 'I' for Inactive)
REMARK    1  A    between atoms: N_2  and  C1_3 
ROOT
ATOM      1  C1  UNL d   1       0.872   0.858   0.022  0.00  0.00     0.143 A 
ATOM      2  C2  UNL d   1       0.374   1.947   0.746  0.00  0.00    -0.057 A 
ATOM      3  C3  UNL d   1       1.233   2.846   1.388  0.00  0.00     0.033 A 
ATOM      4  C4  UNL d   1       2.610   2.655   1.342  0.00  0.00    -0.042 A 
ATOM      5  C5  UNL d   1       3.127   1.566   0.649  0.00  0.00     0.033 A 
ATOM      6  C6  UNL d   1       2.263   0.675   0.004  0.00  0.00    -0.057 A 
ENDROOT
BRANCH   1   7
ATOM      7  N   UNL d   1       0.066  -0.126  -0.556  0.00  0.00    -0.732 N 
ATOM      8  C   UNL d   1       0.302  -1.527  -0.281  0.00  0.00     0.284 C 
ATOM      9  H3  UNL d   1      -0.917   0.136  -0.569  0.00  0.00     0.395 HD
ENDBRANCH   1   7
TORSDOF 1
ENDMDL
