MODEL 1
REMARK minimizedAffinity -5.35969257
REMARK minimizedRMSD -1
REMARK  1 active torsions:
REMARK  status: ('A' for Active; 'I' for Inactive)
REMARK    1  A    between atoms: N_2  and  C1_3 
ROOT
ATOM      1  C1  UNL d   1       1.077   0.145   0.113  0.00  0.00     0.143 A 
ATOM      2  C2  UNL d   1       0.319   1.103   0.794  0.00  0.00    -0.057 A 
ATOM      3  C3  UNL d   1       0.900   2.284   1.271  0.00  0.00     0.033 A 
ATOM      4  C4  UNL d   1       2.260   2.516   1.099  0.00  0.00    -0.042 A 
ATOM      5  C5  UNL d   1       3.038   1.566   0.446  0.00  0.00     0.033 A 
ATOM      6  C6  UNL d   1       2.451   0.391  -0.033  0.00  0.00    -0.057 A 
ENDROOT
BRANCH   1   7
ATOM      7  N   UNL d   1       0.578  -1.094  -0.298  0.00  0.00    -0.732 N 
ATOM      8  C   UNL d   1      -0.557  -1.171  -1.192  0.00  0.00     0.284 C 
ATOM      9  H3  UNL d   1       1.318  -1.761  -0.506  0.00  0.00     0.395 HD
ENDBRANCH   1   7
TORSDOF 1
ENDMDL
