MODEL 1
REMARK minimizedAffinity -2.52779436
REMARK minimizedRMSD -1
REMARK  1 active torsions:
REMARK  status: ('A' for Active; 'I' for Inactive)
REMARK    1  A    between atoms: N_2  and  C1_3 
ROOT
ATOM      1  C1  UNL d   1       0.793   0.708  -0.310  0.00  0.00     0.143 A 
ATOM      2  C2  UNL d   1       0.937   1.912   0.387  0.00  0.00    -0.057 A 
ATOM      3  C3  UNL d   1       2.202   2.421   0.703  0.00  0.00     0.033 A 
ATOM      4  C4  UNL d   1       3.349   1.716   0.353  0.00  0.00    -0.042 A 
ATOM      5  C5  UNL d   1       3.229   0.504  -0.317  0.00  0.00     0.033 A 
ATOM      6  C6  UNL d   1       1.963   0.005  -0.637  0.00  0.00    -0.057 A 
ENDROOT
BRANCH   1   7
ATOM      7  N   UNL d   1      -0.439   0.101  -0.567  0.00  0.00    -0.732 N 
ATOM      8  C   UNL d   1      -0.520  -1.320  -0.830  0.00  0.00     0.284 C 
ATOM      9  H3  UNL d   1      -1.180   0.455   0.034  0.00  0.00     0.395 HD
ENDBRANCH   1   7
TORSDOF 1
ENDMDL
