MODEL 1
REMARK minimizedAffinity 7.8557744
REMARK minimizedRMSD -1
REMARK  3 active torsions:
REMARK  status: ('A' for Active; 'I' for Inactive)
REMARK    1  A    between atoms: C3'_2  and  C2'_3 
REMARK    2  A    between atoms: C2'_3  and  C1'_4 
REMARK    3  A    between atoms: C1'_4  and  C1_5 
ROOT
ATOM      1  C1  N4B d   1       2.142  -1.579  -5.810  0.00  0.00    -0.075 A 
ATOM      2  C2  N4B d   1       1.514  -2.801  -5.485  0.00  0.00     0.002 A 
ATOM      3  C3  N4B d   1       0.152  -2.848  -5.310  0.00  0.00     0.002 A 
ATOM      4  C4  N4B d   1      -0.596  -1.687  -5.434  0.00  0.00    -0.004 A 
ATOM      5  C5  N4B d   1       0.016  -0.516  -5.772  0.00  0.00     0.002 A 
ATOM      6  C6  N4B d   1       1.382  -0.454  -5.956  0.00  0.00     0.002 A 
ENDROOT
BRANCH   1   7
ATOM      7  C1' N4B d   1       3.637  -1.461  -5.927  0.00  0.00     0.057 C 
BRANCH   7   8
ATOM      8  C2' N4B d   1       4.023   0.015  -5.942  0.00  0.00     0.009 C 
BRANCH   8   9
ATOM      9  C3' N4B d   1       5.530   0.208  -5.911  0.00  0.00     0.004 C 
ATOM     10  C4' N4B d   1       5.932   1.650  -5.996  0.00  0.00     0.003 C 
ENDBRANCH   8   9
ENDBRANCH   7   8
ENDBRANCH   1   7
TORSDOF 3
ENDMDL
