MODEL 1
REMARK minimizedAffinity 18.7198143
REMARK minimizedRMSD -1
REMARK  3 active torsions:
REMARK  status: ('A' for Active; 'I' for Inactive)
REMARK    1  A    between atoms: C3'_2  and  C2'_3 
REMARK    2  A    between atoms: C2'_3  and  C1'_4 
REMARK    3  A    between atoms: C1'_4  and  C1_5 
ROOT
ATOM      1  C1  N4B d   1       1.565  -0.298  -4.884  0.00  0.00    -0.075 A 
ATOM      2  C2  N4B d   1       1.105  -1.043  -5.993  0.00  0.00     0.002 A 
ATOM      3  C3  N4B d   1      -0.110  -1.679  -5.937  0.00  0.00     0.002 A 
ATOM      4  C4  N4B d   1      -0.872  -1.602  -4.780  0.00  0.00    -0.004 A 
ATOM      5  C5  N4B d   1      -0.433  -0.860  -3.723  0.00  0.00     0.002 A 
ATOM      6  C6  N4B d   1       0.785  -0.211  -3.767  0.00  0.00     0.002 A 
ENDROOT
BRANCH   1   7
ATOM      7  C1' N4B d   1       2.925   0.344  -4.868  0.00  0.00     0.057 C 
BRANCH   7   8
ATOM      8  C2' N4B d   1       3.873  -0.469  -5.745  0.00  0.00     0.009 C 
BRANCH   8   9
ATOM      9  C3' N4B d   1       4.166  -1.836  -5.151  0.00  0.00     0.004 C 
ATOM     10  C4' N4B d   1       5.103  -2.647  -5.995  0.00  0.00     0.003 C 
ENDBRANCH   8   9
ENDBRANCH   7   8
ENDBRANCH   1   7
TORSDOF 3
ENDMDL
