MODEL 1
REMARK minimizedAffinity -0.79447484
REMARK minimizedRMSD -1
REMARK  0 active torsions:
REMARK  status: ('A' for Active; 'I' for Inactive)
ROOT
ATOM      1  C   UNL d   1      -2.681  -0.455  -2.995  0.00  0.00    -0.002 A 
ATOM      2  C1  UNL d   1      -3.208   0.734  -2.509  0.00  0.00     0.010 A 
ATOM      3  C2  UNL d   1      -2.572   1.422  -1.474  0.00  0.00     0.041 A 
ATOM      4  C3  UNL d   1      -1.386   0.892  -0.930  0.00  0.00    -0.075 A 
ATOM      5  S   UNL d   1      -0.435   1.562   0.342  0.00  0.00     0.015 SA
ATOM      6  C4  UNL d   1       0.693   0.286   0.271  0.00  0.00     0.022 A 
ATOM      7  C5  UNL d   1       0.368  -0.637  -0.694  0.00  0.00     0.026 A 
ATOM      8  C6  UNL d   1      -0.835  -0.303  -1.403  0.00  0.00    -0.082 A 
ATOM      9  C7  UNL d   1      -1.504  -0.978  -2.453  0.00  0.00     0.045 A 
ENDROOT
TORSDOF 0
ENDMDL
