MODEL 1
REMARK minimizedAffinity -5.32643509
REMARK minimizedRMSD -1
REMARK  0 active torsions:
REMARK  status: ('A' for Active; 'I' for Inactive)
ROOT
ATOM      1  C   UNL d   1      -0.799   0.195  -1.117  0.00  0.00    -0.002 A 
ATOM      2  C1  UNL d   1      -1.563  -0.360  -0.100  0.00  0.00     0.010 A 
ATOM      3  C2  UNL d   1      -0.952  -1.014   0.971  0.00  0.00     0.041 A 
ATOM      4  C3  UNL d   1       0.454  -1.101   1.005  0.00  0.00    -0.075 A 
ATOM      5  S   UNL d   1       1.420  -1.855   2.218  0.00  0.00     0.015 SA
ATOM      6  C4  UNL d   1       2.870  -1.458   1.415  0.00  0.00     0.022 A 
ATOM      7  C5  UNL d   1       2.641  -0.767   0.248  0.00  0.00     0.026 A 
ATOM      8  C6  UNL d   1       1.245  -0.550  -0.007  0.00  0.00    -0.082 A 
ATOM      9  C7  UNL d   1       0.596   0.106  -1.081  0.00  0.00     0.045 A 
ENDROOT
TORSDOF 0
ENDMDL
