MODEL 1
REMARK minimizedAffinity -5.34462452
REMARK minimizedRMSD -1
REMARK  0 active torsions:
REMARK  status: ('A' for Active; 'I' for Inactive)
ROOT
ATOM      1  C   UNL d   1       3.396  -0.969   2.261  0.00  0.00    -0.002 A 
ATOM      2  C1  UNL d   1       2.567  -2.062   2.471  0.00  0.00     0.010 A 
ATOM      3  C2  UNL d   1       1.271  -2.081   1.951  0.00  0.00     0.041 A 
ATOM      4  C3  UNL d   1       0.819  -0.973   1.206  0.00  0.00    -0.075 A 
ATOM      5  S   UNL d   1      -0.728  -0.776   0.472  0.00  0.00     0.015 SA
ATOM      6  C4  UNL d   1      -0.324   0.763  -0.139  0.00  0.00     0.022 A 
ATOM      7  C5  UNL d   1       0.956   1.133   0.200  0.00  0.00     0.026 A 
ATOM      8  C6  UNL d   1       1.636   0.138   0.980  0.00  0.00    -0.082 A 
ATOM      9  C7  UNL d   1       2.944   0.128   1.522  0.00  0.00     0.045 A 
ENDROOT
TORSDOF 0
ENDMDL
