MODEL 1
REMARK minimizedAffinity -5.87376833
REMARK minimizedRMSD -1
REMARK  1 active torsions:
REMARK  status: ('A' for Active; 'I' for Inactive)
REMARK    1  A    between atoms: C1_2  and  C2_3 
ROOT
ATOM      1  C2  UNL d   1       0.117  -0.647  -0.579  0.00  0.00    -0.076 A 
ATOM      2  C3  UNL d   1      -0.109  -0.831   0.796  0.00  0.00     0.004 A 
ATOM      3  C4  UNL d   1      -0.318  -2.104   1.324  0.00  0.00    -0.003 A 
ATOM      4  C5  UNL d   1      -0.303  -3.213   0.486  0.00  0.00     0.000 A 
ATOM      5  C6  UNL d   1      -0.063  -3.051  -0.878  0.00  0.00     0.000 A 
ATOM      6  C7  UNL d   1       0.166  -1.776  -1.424  0.00  0.00    -0.073 A 
ATOM      7  C8  UNL d   1       0.415  -1.658  -2.902  0.00  0.00     0.078 C 
ENDROOT
BRANCH   1   8
ATOM      8  C1  UNL d   1       0.311   0.760  -1.098  0.00  0.00     0.053 C 
ATOM      9  C   UNL d   1       1.007   1.662  -0.091  0.00  0.00     0.018 C 
ENDBRANCH   1   8
TORSDOF 1
ENDMDL
