MODEL 1
REMARK minimizedAffinity -3.1367476
REMARK minimizedRMSD -1
REMARK  1 active torsions:
REMARK  status: ('A' for Active; 'I' for Inactive)
REMARK    1  A    between atoms: C1_2  and  C2_3 
ROOT
ATOM      1  C2  UNL d   1       0.305  -0.162  -0.091  0.00  0.00    -0.076 A 
ATOM      2  C3  UNL d   1       0.890  -0.912  -1.125  0.00  0.00     0.004 A 
ATOM      3  C4  UNL d   1       0.761  -2.299  -1.168  0.00  0.00    -0.003 A 
ATOM      4  C5  UNL d   1       0.043  -2.959  -0.177  0.00  0.00     0.000 A 
ATOM      5  C6  UNL d   1      -0.559  -2.230   0.848  0.00  0.00     0.000 A 
ATOM      6  C7  UNL d   1      -0.452  -0.829   0.896  0.00  0.00    -0.073 A 
ATOM      7  C8  UNL d   1      -1.117  -0.094   2.027  0.00  0.00     0.078 C 
ENDROOT
BRANCH   1   8
ATOM      8  C1  UNL d   1       0.501   1.337  -0.082  0.00  0.00     0.053 C 
ATOM      9  C   UNL d   1       1.968   1.732  -0.141  0.00  0.00     0.018 C 
ENDBRANCH   1   8
TORSDOF 1
ENDMDL
