MODEL 1
REMARK minimizedAffinity -4.00732374
REMARK minimizedRMSD -1
REMARK  1 active torsions:
REMARK  status: ('A' for Active; 'I' for Inactive)
REMARK    1  A    between atoms: C1_2  and  C2_3 
ROOT
ATOM      1  C2  UNL d   1      -0.738  -1.350  -0.378  0.00  0.00    -0.076 A 
ATOM      2  C3  UNL d   1      -0.853  -2.498  -1.181  0.00  0.00     0.004 A 
ATOM      3  C4  UNL d   1      -0.499  -2.468  -2.529  0.00  0.00    -0.003 A 
ATOM      4  C5  UNL d   1      -0.024  -1.290  -3.095  0.00  0.00     0.000 A 
ATOM      5  C6  UNL d   1       0.112  -0.147  -2.309  0.00  0.00     0.000 A 
ATOM      6  C7  UNL d   1      -0.224  -0.164  -0.944  0.00  0.00    -0.073 A 
ATOM      7  C8  UNL d   1      -0.063   1.099  -0.145  0.00  0.00     0.078 C 
ENDROOT
BRANCH   1   8
ATOM      8  C1  UNL d   1      -1.163  -1.435   1.071  0.00  0.00     0.053 C 
ATOM      9  C   UNL d   1      -0.021  -1.842   1.990  0.00  0.00     0.018 C 
ENDBRANCH   1   8
TORSDOF 1
ENDMDL
