MODEL 1
REMARK minimizedAffinity -5.42601681
REMARK minimizedRMSD -1
REMARK  1 active torsions:
REMARK  status: ('A' for Active; 'I' for Inactive)
REMARK    1  A    between atoms: C1_2  and  C2_3 
ROOT
ATOM      1  C2  UNL d   1       0.040  -0.742  -0.435  0.00  0.00    -0.076 A 
ATOM      2  C3  UNL d   1       0.290  -1.555  -1.555  0.00  0.00     0.004 A 
ATOM      3  C4  UNL d   1      -0.031  -2.911  -1.543  0.00  0.00    -0.003 A 
ATOM      4  C5  UNL d   1      -0.607  -3.477  -0.412  0.00  0.00     0.000 A 
ATOM      5  C6  UNL d   1      -0.879  -2.683   0.702  0.00  0.00     0.000 A 
ATOM      6  C7  UNL d   1      -0.577  -1.310   0.700  0.00  0.00    -0.073 A 
ATOM      7  C8  UNL d   1      -0.885  -0.502   1.931  0.00  0.00     0.078 C 
ENDROOT
BRANCH   1   8
ATOM      8  C1  UNL d   1       0.433   0.716  -0.496  0.00  0.00     0.053 C 
ATOM      9  C   UNL d   1       0.145   1.342  -1.852  0.00  0.00     0.018 C 
ENDBRANCH   1   8
TORSDOF 1
ENDMDL
