MODEL 1
REMARK minimizedAffinity -4.67740536
REMARK minimizedRMSD -1
REMARK  1 active torsions:
REMARK  status: ('A' for Active; 'I' for Inactive)
REMARK    1  A    between atoms: C1_2  and  C2_3 
ROOT
ATOM      1  C2  UNL d   1      -0.121   0.430  -0.046  0.00  0.00    -0.076 A 
ATOM      2  C3  UNL d   1      -0.538   0.205   1.277  0.00  0.00     0.004 A 
ATOM      3  C4  UNL d   1      -0.881  -1.073   1.714  0.00  0.00    -0.003 A 
ATOM      4  C5  UNL d   1      -0.812  -2.148   0.834  0.00  0.00     0.000 A 
ATOM      5  C6  UNL d   1      -0.383  -1.946  -0.477  0.00  0.00     0.000 A 
ATOM      6  C7  UNL d   1      -0.018  -0.666  -0.929  0.00  0.00    -0.073 A 
ATOM      7  C8  UNL d   1       0.432  -0.504  -2.355  0.00  0.00     0.078 C 
ENDROOT
BRANCH   1   8
ATOM      8  C1  UNL d   1       0.212   1.843  -0.470  0.00  0.00     0.053 C 
ATOM      9  C   UNL d   1       1.310   2.463   0.381  0.00  0.00     0.018 C 
ENDBRANCH   1   8
TORSDOF 1
ENDMDL
