MODEL 1
REMARK minimizedAffinity -3.73126864
REMARK minimizedRMSD -1
REMARK  1 active torsions:
REMARK  status: ('A' for Active; 'I' for Inactive)
REMARK    1  A    between atoms: C1_2  and  C2_3 
ROOT
ATOM      1  C2  UNL d   1       0.026  -0.196  -0.256  0.00  0.00    -0.076 A 
ATOM      2  C3  UNL d   1       0.771  -0.980  -1.154  0.00  0.00     0.004 A 
ATOM      3  C4  UNL d   1       0.805  -2.368  -1.036  0.00  0.00    -0.003 A 
ATOM      4  C5  UNL d   1       0.092  -2.995  -0.020  0.00  0.00     0.000 A 
ATOM      5  C6  UNL d   1      -0.666  -2.234   0.869  0.00  0.00     0.000 A 
ATOM      6  C7  UNL d   1      -0.724  -0.834   0.754  0.00  0.00    -0.073 A 
ATOM      7  C8  UNL d   1      -1.553  -0.063   1.744  0.00  0.00     0.078 C 
ENDROOT
BRANCH   1   8
ATOM      8  C1  UNL d   1       0.050   1.308  -0.416  0.00  0.00     0.053 C 
ATOM      9  C   UNL d   1       1.202   1.956   0.335  0.00  0.00     0.018 C 
ENDBRANCH   1   8
TORSDOF 1
ENDMDL
