MODEL 1
REMARK minimizedAffinity -5.62443876
REMARK minimizedRMSD -1
REMARK  1 active torsions:
REMARK  status: ('A' for Active; 'I' for Inactive)
REMARK    1  A    between atoms: C1_2  and  C2_3 
ROOT
ATOM      1  C2  UNL d   1       0.173  -0.222   0.284  0.00  0.00    -0.076 A 
ATOM      2  C3  UNL d   1       0.074  -0.815   1.555  0.00  0.00     0.004 A 
ATOM      3  C4  UNL d   1       0.074  -2.201   1.701  0.00  0.00    -0.003 A 
ATOM      4  C5  UNL d   1       0.175  -3.017   0.579  0.00  0.00     0.000 A 
ATOM      5  C6  UNL d   1       0.293  -2.445  -0.688  0.00  0.00     0.000 A 
ATOM      6  C7  UNL d   1       0.310  -1.049  -0.851  0.00  0.00    -0.073 A 
ATOM      7  C8  UNL d   1       0.432  -0.486  -2.241  0.00  0.00     0.078 C 
ENDROOT
BRANCH   1   8
ATOM      8  C1  UNL d   1       0.140   1.287   0.185  0.00  0.00     0.053 C 
ATOM      9  C   UNL d   1       1.412   1.934   0.712  0.00  0.00     0.018 C 
ENDBRANCH   1   8
TORSDOF 1
ENDMDL
