MODEL 1
REMARK minimizedAffinity 1.89538932
REMARK minimizedRMSD -1
REMARK  1 active torsions:
REMARK  status: ('A' for Active; 'I' for Inactive)
REMARK    1  A    between atoms: C1_2  and  C2_3 
ROOT
ATOM      1  C2  UNL d   1      -0.052   0.402   0.552  0.00  0.00    -0.076 A 
ATOM      2  C3  UNL d   1      -0.002   0.055  -0.810  0.00  0.00     0.004 A 
ATOM      3  C4  UNL d   1      -0.511  -1.162  -1.260  0.00  0.00    -0.003 A 
ATOM      4  C5  UNL d   1      -1.079  -2.052  -0.355  0.00  0.00     0.000 A 
ATOM      5  C6  UNL d   1      -1.153  -1.718   0.997  0.00  0.00     0.000 A 
ATOM      6  C7  UNL d   1      -0.659  -0.488   1.464  0.00  0.00    -0.073 A 
ATOM      7  C8  UNL d   1      -0.759  -0.181   2.933  0.00  0.00     0.078 C 
ENDROOT
BRANCH   1   8
ATOM      8  C1  UNL d   1       0.541   1.723   0.985  0.00  0.00     0.053 C 
ATOM      9  C   UNL d   1       1.130   2.507  -0.178  0.00  0.00     0.018 C 
ENDBRANCH   1   8
TORSDOF 1
ENDMDL
