MODEL 1
REMARK minimizedAffinity -0.878322899
REMARK minimizedRMSD -1
REMARK  1 active torsions:
REMARK  status: ('A' for Active; 'I' for Inactive)
REMARK    1  A    between atoms: C1_2  and  C2_3 
ROOT
ATOM      1  C2  UNL d   1       0.074   0.238   0.183  0.00  0.00    -0.076 A 
ATOM      2  C3  UNL d   1      -0.849   0.170   1.242  0.00  0.00     0.004 A 
ATOM      3  C4  UNL d   1      -1.297  -1.058   1.726  0.00  0.00    -0.003 A 
ATOM      4  C5  UNL d   1      -0.828  -2.238   1.160  0.00  0.00     0.000 A 
ATOM      5  C6  UNL d   1       0.101  -2.190   0.121  0.00  0.00     0.000 A 
ATOM      6  C7  UNL d   1       0.575  -0.961  -0.368  0.00  0.00    -0.073 A 
ATOM      7  C8  UNL d   1       1.572  -0.967  -1.494  0.00  0.00     0.078 C 
ENDROOT
BRANCH   1   8
ATOM      8  C1  UNL d   1       0.502   1.599  -0.318  0.00  0.00     0.053 C 
ATOM      9  C   UNL d   1       1.732   2.125   0.406  0.00  0.00     0.018 C 
ENDBRANCH   1   8
TORSDOF 1
ENDMDL
