MODEL 1
REMARK minimizedAffinity -1.78088725
REMARK minimizedRMSD -1
REMARK  1 active torsions:
REMARK  status: ('A' for Active; 'I' for Inactive)
REMARK    1  A    between atoms: C1_2  and  C2_3 
ROOT
ATOM      1  C2  UNL d   1       0.067   0.325  -0.132  0.00  0.00    -0.076 A 
ATOM      2  C3  UNL d   1      -0.381   0.152   1.189  0.00  0.00     0.004 A 
ATOM      3  C4  UNL d   1      -0.694  -1.114   1.681  0.00  0.00    -0.003 A 
ATOM      4  C5  UNL d   1      -0.563  -2.229   0.859  0.00  0.00     0.000 A 
ATOM      5  C6  UNL d   1      -0.103  -2.078  -0.448  0.00  0.00     0.000 A 
ATOM      6  C7  UNL d   1       0.232  -0.810  -0.955  0.00  0.00    -0.073 A 
ATOM      7  C8  UNL d   1       0.718  -0.705  -2.374  0.00  0.00     0.078 C 
ENDROOT
BRANCH   1   8
ATOM      8  C1  UNL d   1       0.365   1.725  -0.619  0.00  0.00     0.053 C 
ATOM      9  C   UNL d   1       1.248   2.501   0.346  0.00  0.00     0.018 C 
ENDBRANCH   1   8
TORSDOF 1
ENDMDL
