MODEL 1
REMARK minimizedAffinity -4.88126898
REMARK minimizedRMSD -1
REMARK  1 active torsions:
REMARK  status: ('A' for Active; 'I' for Inactive)
REMARK    1  A    between atoms: C1_2  and  C2_3 
ROOT
ATOM      1  C2  UNL d   1      -0.101  -1.424   0.402  0.00  0.00    -0.076 A 
ATOM      2  C3  UNL d   1       0.362  -1.423  -0.925  0.00  0.00     0.004 A 
ATOM      3  C4  UNL d   1       0.542  -0.229  -1.621  0.00  0.00    -0.003 A 
ATOM      4  C5  UNL d   1       0.262   0.984  -1.002  0.00  0.00     0.000 A 
ATOM      5  C6  UNL d   1      -0.182   1.003   0.320  0.00  0.00     0.000 A 
ATOM      6  C7  UNL d   1      -0.352  -0.191   1.042  0.00  0.00    -0.073 A 
ATOM      7  C8  UNL d   1      -0.839  -0.113   2.463  0.00  0.00     0.078 C 
ENDROOT
BRANCH   1   8
ATOM      8  C1  UNL d   1      -0.302  -2.751   1.098  0.00  0.00     0.053 C 
ATOM      9  C   UNL d   1      -0.256  -3.927   0.135  0.00  0.00     0.018 C 
ENDBRANCH   1   8
TORSDOF 1
ENDMDL
