MODEL 1
REMARK minimizedAffinity -4.5474968
REMARK minimizedRMSD -1
REMARK  1 active torsions:
REMARK  status: ('A' for Active; 'I' for Inactive)
REMARK    1  A    between atoms: C1_2  and  C2_3 
ROOT
ATOM      1  C2  UNL d   1      -0.003   0.267   0.184  0.00  0.00    -0.076 A 
ATOM      2  C3  UNL d   1      -0.412   0.119   1.520  0.00  0.00     0.004 A 
ATOM      3  C4  UNL d   1      -0.829  -1.117   2.010  0.00  0.00    -0.003 A 
ATOM      4  C5  UNL d   1      -0.844  -2.226   1.172  0.00  0.00     0.000 A 
ATOM      5  C6  UNL d   1      -0.425  -2.102  -0.153  0.00  0.00     0.000 A 
ATOM      6  C7  UNL d   1       0.014  -0.866  -0.658  0.00  0.00    -0.073 A 
ATOM      7  C8  UNL d   1       0.449  -0.787  -2.096  0.00  0.00     0.078 C 
ENDROOT
BRANCH   1   8
ATOM      8  C1  UNL d   1       0.413   1.638  -0.299  0.00  0.00     0.053 C 
ATOM      9  C   UNL d   1       1.410   2.307   0.635  0.00  0.00     0.018 C 
ENDBRANCH   1   8
TORSDOF 1
ENDMDL
