MODEL 1
REMARK minimizedAffinity -5.20451021
REMARK minimizedRMSD -1
REMARK  1 active torsions:
REMARK  status: ('A' for Active; 'I' for Inactive)
REMARK    1  A    between atoms: C1_2  and  C2_3 
ROOT
ATOM      1  C2  UNL d   1       0.354  -0.140  -0.112  0.00  0.00    -0.076 A 
ATOM      2  C3  UNL d   1      -0.034  -0.349   1.223  0.00  0.00     0.004 A 
ATOM      3  C4  UNL d   1      -0.396  -1.617   1.675  0.00  0.00    -0.003 A 
ATOM      4  C5  UNL d   1      -0.375  -2.697   0.799  0.00  0.00     0.000 A 
ATOM      5  C6  UNL d   1       0.024  -2.511  -0.524  0.00  0.00     0.000 A 
ATOM      6  C7  UNL d   1       0.408  -1.242  -0.991  0.00  0.00    -0.073 A 
ATOM      7  C8  UNL d   1       0.823  -1.098  -2.430  0.00  0.00     0.078 C 
ENDROOT
BRANCH   1   8
ATOM      8  C1  UNL d   1       0.709   1.262  -0.552  0.00  0.00     0.053 C 
ATOM      9  C   UNL d   1       1.374   2.069   0.553  0.00  0.00     0.018 C 
ENDBRANCH   1   8
TORSDOF 1
ENDMDL
