MODEL 1
REMARK minimizedAffinity -4.36201715
REMARK minimizedRMSD -1
REMARK  1 active torsions:
REMARK  status: ('A' for Active; 'I' for Inactive)
REMARK    1  A    between atoms: C1_2  and  C2_3 
ROOT
ATOM      1  C2  UNL d   1       0.227  -0.202   0.122  0.00  0.00    -0.076 A 
ATOM      2  C3  UNL d   1      -0.143  -0.269   1.477  0.00  0.00     0.004 A 
ATOM      3  C4  UNL d   1      -0.346  -1.496   2.105  0.00  0.00    -0.003 A 
ATOM      4  C5  UNL d   1      -0.182  -2.677   1.389  0.00  0.00     0.000 A 
ATOM      5  C6  UNL d   1       0.202  -2.630   0.049  0.00  0.00     0.000 A 
ATOM      6  C7  UNL d   1       0.427  -1.401  -0.595  0.00  0.00    -0.073 A 
ATOM      7  C8  UNL d   1       0.834  -1.408  -2.043  0.00  0.00     0.078 C 
ENDROOT
BRANCH   1   8
ATOM      8  C1  UNL d   1       0.406   1.159  -0.513  0.00  0.00     0.053 C 
ATOM      9  C   UNL d   1       1.166   2.124   0.383  0.00  0.00     0.018 C 
ENDBRANCH   1   8
TORSDOF 1
ENDMDL
