MODEL 1
REMARK minimizedAffinity -4.57716656
REMARK minimizedRMSD -1
REMARK  1 active torsions:
REMARK  status: ('A' for Active; 'I' for Inactive)
REMARK    1  A    between atoms: C1_2  and  C2_3 
ROOT
ATOM      1  C2  UNL d   1       0.036  -0.525  -1.020  0.00  0.00    -0.077 A 
ATOM      2  C3  UNL d   1      -1.362  -0.409  -1.037  0.00  0.00     0.002 A 
ATOM      3  C4  UNL d   1      -2.038   0.139   0.055  0.00  0.00     0.002 A 
ATOM      4  C5  UNL d   1      -1.326   0.579   1.168  0.00  0.00    -0.004 A 
ATOM      5  C6  UNL d   1       0.064   0.466   1.196  0.00  0.00     0.002 A 
ATOM      6  C7  UNL d   1       0.741  -0.083   0.106  0.00  0.00     0.002 A 
ENDROOT
BRANCH   1   7
ATOM      7  C1  UNL d   1       0.771  -1.071  -2.216  0.00  0.00     0.055 C 
ATOM      8  C   UNL d   1       1.224   0.047  -3.144  0.00  0.00     0.019 C 
ENDBRANCH   1   7
TORSDOF 1
ENDMDL
