MODEL 1
REMARK minimizedAffinity -5.02259207
REMARK minimizedRMSD -1
REMARK  1 active torsions:
REMARK  status: ('A' for Active; 'I' for Inactive)
REMARK    1  A    between atoms: C1_2  and  C2_3 
ROOT
ATOM      1  C2  UNL d   1       0.015   0.309   2.052  0.00  0.00    -0.077 A 
ATOM      2  C3  UNL d   1      -1.316   0.724   1.911  0.00  0.00     0.002 A 
ATOM      3  C4  UNL d   1      -1.991   0.535   0.703  0.00  0.00     0.002 A 
ATOM      4  C5  UNL d   1      -1.343  -0.073  -0.371  0.00  0.00    -0.004 A 
ATOM      5  C6  UNL d   1      -0.018  -0.488  -0.241  0.00  0.00     0.002 A 
ATOM      6  C7  UNL d   1       0.658  -0.299   0.966  0.00  0.00     0.002 A 
ENDROOT
BRANCH   1   7
ATOM      7  C1  UNL d   1       0.728   0.467   3.370  0.00  0.00     0.055 C 
ATOM      8  C   UNL d   1       2.005  -0.360   3.411  0.00  0.00     0.019 C 
ENDBRANCH   1   7
TORSDOF 1
ENDMDL
