MODEL 1
REMARK minimizedAffinity 6.78178406
REMARK minimizedRMSD -1
REMARK  2 active torsions:
REMARK  status: ('A' for Active; 'I' for Inactive)
REMARK    1  A    between atoms: C1_2  and  C2_3 
REMARK    2  A    between atoms: C2_3  and  C3_4 
ROOT
ATOM      1  C3  UNL d   1       2.173  -2.307  -1.094  0.00  0.00    -0.075 A 
ATOM      2  C4  UNL d   1       2.855  -1.087  -0.979  0.00  0.00     0.002 A 
ATOM      3  C5  UNL d   1       3.948  -0.806  -1.800  0.00  0.00     0.002 A 
ATOM      4  C6  UNL d   1       4.378  -1.743  -2.736  0.00  0.00    -0.004 A 
ATOM      5  C7  UNL d   1       3.718  -2.965  -2.848  0.00  0.00     0.002 A 
ATOM      6  C8  UNL d   1       2.622  -3.247  -2.032  0.00  0.00     0.002 A 
ENDROOT
BRANCH   1   7
ATOM      7  C2  UNL d   1       0.971  -2.605  -0.230  0.00  0.00     0.056 C 
BRANCH   7   8
ATOM      8  C1  UNL d   1      -0.363  -2.572  -0.983  0.00  0.00     0.007 C 
ATOM      9  C   UNL d   1      -1.074  -1.229  -0.885  0.00  0.00     0.009 C 
ENDBRANCH   7   8
ENDBRANCH   1   7
TORSDOF 2
ENDMDL
