MODEL 1
REMARK minimizedAffinity 4.06162119
REMARK minimizedRMSD -1
REMARK  2 active torsions:
REMARK  status: ('A' for Active; 'I' for Inactive)
REMARK    1  A    between atoms: C1_2  and  C2_3 
REMARK    2  A    between atoms: C2_3  and  C3_4 
ROOT
ATOM      1  C3  UNL d   1       1.812  -1.195  -0.243  0.00  0.00    -0.075 A 
ATOM      2  C4  UNL d   1       3.015  -1.545  -0.872  0.00  0.00     0.002 A 
ATOM      3  C5  UNL d   1       4.035  -0.605  -1.025  0.00  0.00     0.002 A 
ATOM      4  C6  UNL d   1       3.860   0.698  -0.562  0.00  0.00    -0.004 A 
ATOM      5  C7  UNL d   1       2.662   1.061   0.049  0.00  0.00     0.002 A 
ATOM      6  C8  UNL d   1       1.642   0.121   0.208  0.00  0.00     0.002 A 
ENDROOT
BRANCH   1   7
ATOM      7  C2  UNL d   1       0.716  -2.216  -0.048  0.00  0.00     0.056 C 
BRANCH   7   8
ATOM      8  C1  UNL d   1      -0.677  -1.721  -0.453  0.00  0.00     0.007 C 
ATOM      9  C   UNL d   1      -0.922  -1.779  -1.955  0.00  0.00     0.009 C 
ENDBRANCH   7   8
ENDBRANCH   1   7
TORSDOF 2
ENDMDL
