MODEL 1
REMARK minimizedAffinity 8.48230648
REMARK minimizedRMSD -1
REMARK  2 active torsions:
REMARK  status: ('A' for Active; 'I' for Inactive)
REMARK    1  A    between atoms: C1_2  and  C2_3 
REMARK    2  A    between atoms: C2_3  and  C3_4 
ROOT
ATOM      1  C3  UNL d   1       0.799  -3.471   4.700  0.00  0.00    -0.075 A 
ATOM      2  C4  UNL d   1       1.999  -3.998   5.200  0.00  0.00     0.002 A 
ATOM      3  C5  UNL d   1       2.015  -5.237   5.841  0.00  0.00     0.002 A 
ATOM      4  C6  UNL d   1       0.833  -5.958   5.999  0.00  0.00    -0.004 A 
ATOM      5  C7  UNL d   1      -0.367  -5.436   5.521  0.00  0.00     0.002 A 
ATOM      6  C8  UNL d   1      -0.385  -4.199   4.875  0.00  0.00     0.002 A 
ENDROOT
BRANCH   1   7
ATOM      7  C2  UNL d   1       0.780  -2.144   3.978  0.00  0.00     0.056 C 
BRANCH   7   8
ATOM      8  C1  UNL d   1       1.363  -0.983   4.792  0.00  0.00     0.007 C 
ATOM      9  C   UNL d   1       0.841   0.378   4.353  0.00  0.00     0.009 C 
ENDBRANCH   7   8
ENDBRANCH   1   7
TORSDOF 2
ENDMDL
