MODEL 1
REMARK minimizedAffinity 0.143111557
REMARK minimizedRMSD -1
REMARK  0 active torsions:
REMARK  status: ('A' for Active; 'I' for Inactive)
ROOT
ATOM      1  C   UNL d   1      -5.666   3.041   4.380  0.00  0.00     0.078 C 
ATOM      2  C1  UNL d   1      -4.930   2.200   3.380  0.00  0.00    -0.077 A 
ATOM      3  C2  UNL d   1      -4.391   2.765   2.218  0.00  0.00    -0.001 A 
ATOM      4  C3  UNL d   1      -3.717   1.968   1.292  0.00  0.00     0.003 A 
ATOM      5  C4  UNL d   1      -3.576   0.600   1.518  0.00  0.00    -0.005 A 
ATOM      6  C5  UNL d   1      -4.110   0.028   2.671  0.00  0.00     0.003 A 
ATOM      7  C6  UNL d   1      -4.785   0.824   3.598  0.00  0.00    -0.001 A 
ENDROOT
TORSDOF 0
ENDMDL
