MODEL 1
REMARK minimizedAffinity 2.32571483
REMARK minimizedRMSD -1
REMARK  0 active torsions:
REMARK  status: ('A' for Active; 'I' for Inactive)
ROOT
ATOM      1  C   UNL d   1      -5.402  -2.194  -5.988  0.00  0.00     0.078 C 
ATOM      2  C1  UNL d   1      -3.925  -1.931  -5.995  0.00  0.00    -0.077 A 
ATOM      3  C2  UNL d   1      -3.005  -2.986  -6.000  0.00  0.00    -0.001 A 
ATOM      4  C3  UNL d   1      -1.633  -2.727  -5.996  0.00  0.00     0.003 A 
ATOM      5  C4  UNL d   1      -1.170  -1.413  -5.987  0.00  0.00    -0.005 A 
ATOM      6  C5  UNL d   1      -2.078  -0.356  -5.979  0.00  0.00     0.003 A 
ATOM      7  C6  UNL d   1      -3.450  -0.613  -5.983  0.00  0.00    -0.001 A 
ENDROOT
TORSDOF 0
ENDMDL
