MODEL 1
REMARK minimizedAffinity 1.95978868
REMARK minimizedRMSD -1
REMARK  0 active torsions:
REMARK  status: ('A' for Active; 'I' for Inactive)
ROOT
ATOM      1  C   UNL d   1      -3.743   0.211   1.829  0.00  0.00     0.078 C 
ATOM      2  C1  UNL d   1      -4.372   0.507   3.157  0.00  0.00    -0.077 A 
ATOM      3  C2  UNL d   1      -4.372  -0.446   4.183  0.00  0.00    -0.001 A 
ATOM      4  C3  UNL d   1      -4.969  -0.161   5.412  0.00  0.00     0.003 A 
ATOM      5  C4  UNL d   1      -5.573   1.077   5.626  0.00  0.00    -0.005 A 
ATOM      6  C5  UNL d   1      -5.579   2.031   4.610  0.00  0.00     0.003 A 
ATOM      7  C6  UNL d   1      -4.982   1.747   3.381  0.00  0.00    -0.001 A 
ENDROOT
TORSDOF 0
ENDMDL
