MODEL 1
REMARK minimizedAffinity 1.24896646
REMARK minimizedRMSD -1
REMARK  0 active torsions:
REMARK  status: ('A' for Active; 'I' for Inactive)
ROOT
ATOM      1  C   UNL d   1      -3.404   1.978   1.866  0.00  0.00     0.078 C 
ATOM      2  C1  UNL d   1      -4.166   1.932   3.156  0.00  0.00    -0.077 A 
ATOM      3  C2  UNL d   1      -4.956   3.013   3.566  0.00  0.00    -0.001 A 
ATOM      4  C3  UNL d   1      -5.652   2.960   4.775  0.00  0.00     0.003 A 
ATOM      5  C4  UNL d   1      -5.565   1.829   5.584  0.00  0.00    -0.005 A 
ATOM      6  C5  UNL d   1      -4.781   0.749   5.185  0.00  0.00     0.003 A 
ATOM      7  C6  UNL d   1      -4.083   0.800   3.977  0.00  0.00    -0.001 A 
ENDROOT
TORSDOF 0
ENDMDL
