MODEL 1
REMARK minimizedAffinity 4.81953001
REMARK minimizedRMSD -1
REMARK  0 active torsions:
REMARK  status: ('A' for Active; 'I' for Inactive)
ROOT
ATOM      1  C   UNL d   1      -4.713  -4.316  -5.993  0.00  0.00     0.078 C 
ATOM      2  C1  UNL d   1      -3.762  -3.172  -5.806  0.00  0.00    -0.077 A 
ATOM      3  C2  UNL d   1      -4.227  -1.898  -5.457  0.00  0.00    -0.001 A 
ATOM      4  C3  UNL d   1      -3.331  -0.840  -5.296  0.00  0.00     0.003 A 
ATOM      5  C4  UNL d   1      -1.965  -1.044  -5.484  0.00  0.00    -0.005 A 
ATOM      6  C5  UNL d   1      -1.494  -2.308  -5.833  0.00  0.00     0.003 A 
ATOM      7  C6  UNL d   1      -2.388  -3.367  -5.995  0.00  0.00    -0.001 A 
ENDROOT
TORSDOF 0
ENDMDL
