MODEL 1
REMARK minimizedAffinity -2.52515864
REMARK minimizedRMSD -1
REMARK  0 active torsions:
REMARK  status: ('A' for Active; 'I' for Inactive)
ROOT
ATOM      1  C   UNL d   1      -1.813  -1.907  -5.997  0.00  0.00     0.078 C 
ATOM      2  C1  UNL d   1      -3.270  -2.265  -5.987  0.00  0.00    -0.077 A 
ATOM      3  C2  UNL d   1      -3.683  -3.603  -5.996  0.00  0.00    -0.001 A 
ATOM      4  C3  UNL d   1      -5.042  -3.921  -5.996  0.00  0.00     0.003 A 
ATOM      5  C4  UNL d   1      -5.998  -2.908  -5.988  0.00  0.00    -0.005 A 
ATOM      6  C5  UNL d   1      -5.596  -1.574  -5.981  0.00  0.00     0.003 A 
ATOM      7  C6  UNL d   1      -4.238  -1.253  -5.981  0.00  0.00    -0.001 A 
ENDROOT
TORSDOF 0
ENDMDL
