MODEL 1
REMARK minimizedAffinity 9.34888744
REMARK minimizedRMSD -1
REMARK  0 active torsions:
REMARK  status: ('A' for Active; 'I' for Inactive)
ROOT
ATOM      1  C   UNL d   1      -2.585  -3.464  -5.980  0.00  0.00     0.078 C 
ATOM      2  C1  UNL d   1      -1.820  -2.217  -5.649  0.00  0.00    -0.077 A 
ATOM      3  C2  UNL d   1      -2.318  -0.953  -5.989  0.00  0.00    -0.001 A 
ATOM      4  C3  UNL d   1      -1.591   0.198  -5.684  0.00  0.00     0.003 A 
ATOM      5  C4  UNL d   1      -0.360   0.097  -5.039  0.00  0.00    -0.005 A 
ATOM      6  C5  UNL d   1       0.146  -1.156  -4.699  0.00  0.00     0.003 A 
ATOM      7  C6  UNL d   1      -0.580  -2.308  -5.003  0.00  0.00    -0.001 A 
ENDROOT
TORSDOF 0
ENDMDL
