MODEL 1
REMARK minimizedAffinity 1.72866952
REMARK minimizedRMSD -1
REMARK  0 active torsions:
REMARK  status: ('A' for Active; 'I' for Inactive)
ROOT
ATOM      1  C   UNL d   1      -3.890  -4.254  -5.988  0.00  0.00     0.078 C 
ATOM      2  C1  UNL d   1      -3.055  -3.010  -5.922  0.00  0.00    -0.077 A 
ATOM      3  C2  UNL d   1      -1.659  -3.074  -6.000  0.00  0.00    -0.001 A 
ATOM      4  C3  UNL d   1      -0.893  -1.909  -5.927  0.00  0.00     0.003 A 
ATOM      5  C4  UNL d   1      -1.515  -0.672  -5.775  0.00  0.00    -0.005 A 
ATOM      6  C5  UNL d   1      -2.905  -0.598  -5.695  0.00  0.00     0.003 A 
ATOM      7  C6  UNL d   1      -3.671  -1.762  -5.767  0.00  0.00    -0.001 A 
ENDROOT
TORSDOF 0
ENDMDL
