MODEL 1
REMARK minimizedAffinity 0.567145705
REMARK minimizedRMSD -1
REMARK  0 active torsions:
REMARK  status: ('A' for Active; 'I' for Inactive)
ROOT
ATOM      1  C   UNL d   1      -3.753  -4.692  -6.000  0.00  0.00     0.078 C 
ATOM      2  C1  UNL d   1      -3.279  -3.270  -5.992  0.00  0.00    -0.077 A 
ATOM      3  C2  UNL d   1      -4.189  -2.206  -5.996  0.00  0.00    -0.001 A 
ATOM      4  C3  UNL d   1      -3.733  -0.887  -5.999  0.00  0.00     0.003 A 
ATOM      5  C4  UNL d   1      -2.366  -0.619  -5.999  0.00  0.00    -0.005 A 
ATOM      6  C5  UNL d   1      -1.452  -1.671  -5.998  0.00  0.00     0.003 A 
ATOM      7  C6  UNL d   1      -1.906  -2.991  -5.995  0.00  0.00    -0.001 A 
ENDROOT
TORSDOF 0
ENDMDL
