MODEL 1
REMARK minimizedAffinity 0.90826565
REMARK minimizedRMSD -1
REMARK  0 active torsions:
REMARK  status: ('A' for Active; 'I' for Inactive)
ROOT
ATOM      1  C   UNL d   1      -3.104   2.355   1.270  0.00  0.00     0.078 C 
ATOM      2  C1  UNL d   1      -3.804   1.792   2.470  0.00  0.00    -0.077 A 
ATOM      3  C2  UNL d   1      -4.778   2.533   3.151  0.00  0.00    -0.001 A 
ATOM      4  C3  UNL d   1      -5.414   2.000   4.273  0.00  0.00     0.003 A 
ATOM      5  C4  UNL d   1      -5.083   0.724   4.725  0.00  0.00    -0.005 A 
ATOM      6  C5  UNL d   1      -4.114  -0.020   4.055  0.00  0.00     0.003 A 
ATOM      7  C6  UNL d   1      -3.477   0.511   2.933  0.00  0.00    -0.001 A 
ENDROOT
TORSDOF 0
ENDMDL
