MODEL 1
REMARK minimizedAffinity 3.68194461
REMARK minimizedRMSD -1
REMARK  0 active torsions:
REMARK  status: ('A' for Active; 'I' for Inactive)
ROOT
ATOM      1  C   UNL d   1      -0.822  -2.043  -6.000  0.00  0.00     0.078 C 
ATOM      2  C1  UNL d   1      -2.319  -1.967  -5.992  0.00  0.00    -0.077 A 
ATOM      3  C2  UNL d   1      -3.100  -3.129  -5.995  0.00  0.00    -0.001 A 
ATOM      4  C3  UNL d   1      -4.493  -3.043  -5.997  0.00  0.00     0.003 A 
ATOM      5  C4  UNL d   1      -5.118  -1.797  -5.998  0.00  0.00    -0.005 A 
ATOM      6  C5  UNL d   1      -4.348  -0.635  -5.997  0.00  0.00     0.003 A 
ATOM      7  C6  UNL d   1      -2.955  -0.719  -5.995  0.00  0.00    -0.001 A 
ENDROOT
TORSDOF 0
ENDMDL
