MODEL 1
REMARK minimizedAffinity 1.00072145
REMARK minimizedRMSD -1
REMARK  0 active torsions:
REMARK  status: ('A' for Active; 'I' for Inactive)
ROOT
ATOM      1  C   UNL d   1       0.548  -0.025  -4.156  0.00  0.00     0.078 C 
ATOM      2  C1  UNL d   1      -0.681  -0.600  -4.794  0.00  0.00    -0.077 A 
ATOM      3  C2  UNL d   1      -0.673  -1.888  -5.345  0.00  0.00    -0.001 A 
ATOM      4  C3  UNL d   1      -1.822  -2.407  -5.944  0.00  0.00     0.003 A 
ATOM      5  C4  UNL d   1      -2.987  -1.645  -6.000  0.00  0.00    -0.005 A 
ATOM      6  C5  UNL d   1      -3.004  -0.362  -5.457  0.00  0.00     0.003 A 
ATOM      7  C6  UNL d   1      -1.856   0.159  -4.857  0.00  0.00    -0.001 A 
ENDROOT
TORSDOF 0
ENDMDL
