MODEL 1
REMARK minimizedAffinity 0.170206875
REMARK minimizedRMSD -1
REMARK  0 active torsions:
REMARK  status: ('A' for Active; 'I' for Inactive)
ROOT
ATOM      1  C   UNL d   1       4.852  -0.775   1.888  0.00  0.00     0.078 C 
ATOM      2  C1  UNL d   1       5.243  -1.711   2.993  0.00  0.00    -0.077 A 
ATOM      3  C2  UNL d   1       5.337  -1.264   4.317  0.00  0.00    -0.001 A 
ATOM      4  C3  UNL d   1       5.712  -2.143   5.333  0.00  0.00     0.003 A 
ATOM      5  C4  UNL d   1       5.997  -3.475   5.037  0.00  0.00    -0.005 A 
ATOM      6  C5  UNL d   1       5.907  -3.928   3.723  0.00  0.00     0.003 A 
ATOM      7  C6  UNL d   1       5.533  -3.050   2.704  0.00  0.00    -0.001 A 
ENDROOT
TORSDOF 0
ENDMDL
