MODEL 1
REMARK minimizedAffinity -1.01102519
REMARK minimizedRMSD -1
REMARK  0 active torsions:
REMARK  status: ('A' for Active; 'I' for Inactive)
ROOT
ATOM      1  C   UNL d   1      -1.630  -1.167  -5.994  0.00  0.00     0.078 C 
ATOM      2  C1  UNL d   1      -3.008  -1.758  -5.989  0.00  0.00    -0.077 A 
ATOM      3  C2  UNL d   1      -4.143  -0.939  -5.959  0.00  0.00    -0.001 A 
ATOM      4  C3  UNL d   1      -5.420  -1.504  -5.944  0.00  0.00     0.003 A 
ATOM      5  C4  UNL d   1      -5.573  -2.889  -5.958  0.00  0.00    -0.005 A 
ATOM      6  C5  UNL d   1      -4.449  -3.711  -5.985  0.00  0.00     0.003 A 
ATOM      7  C6  UNL d   1      -3.172  -3.149  -6.000  0.00  0.00    -0.001 A 
ENDROOT
TORSDOF 0
ENDMDL
