MODEL 1
REMARK minimizedAffinity 2.99478555
REMARK minimizedRMSD -1
REMARK  0 active torsions:
REMARK  status: ('A' for Active; 'I' for Inactive)
ROOT
ATOM      1  C   UNL d   1      -5.909  -2.310  -3.636  0.00  0.00     0.078 C 
ATOM      2  C1  UNL d   1      -4.636  -1.958  -4.346  0.00  0.00    -0.077 A 
ATOM      3  C2  UNL d   1      -3.954  -0.769  -4.058  0.00  0.00    -0.001 A 
ATOM      4  C3  UNL d   1      -2.775  -0.450  -4.733  0.00  0.00     0.003 A 
ATOM      5  C4  UNL d   1      -2.268  -1.313  -5.703  0.00  0.00    -0.005 A 
ATOM      6  C5  UNL d   1      -2.941  -2.497  -5.998  0.00  0.00     0.003 A 
ATOM      7  C6  UNL d   1      -4.120  -2.818  -5.323  0.00  0.00    -0.001 A 
ENDROOT
TORSDOF 0
ENDMDL
