MODEL 1
REMARK minimizedAffinity 3.53049588
REMARK minimizedRMSD -1
REMARK  0 active torsions:
REMARK  status: ('A' for Active; 'I' for Inactive)
ROOT
ATOM      1  C   UNL d   1      -5.882   5.966   5.996  0.00  0.00     0.078 C 
ATOM      2  C1  UNL d   1      -5.876   4.668   5.246  0.00  0.00    -0.077 A 
ATOM      3  C2  UNL d   1      -5.774   4.642   3.850  0.00  0.00    -0.001 A 
ATOM      4  C3  UNL d   1      -5.779   3.427   3.164  0.00  0.00     0.003 A 
ATOM      5  C4  UNL d   1      -5.889   2.228   3.866  0.00  0.00    -0.005 A 
ATOM      6  C5  UNL d   1      -5.993   2.243   5.255  0.00  0.00     0.003 A 
ATOM      7  C6  UNL d   1      -5.988   3.458   5.943  0.00  0.00    -0.001 A 
ENDROOT
TORSDOF 0
ENDMDL
