MODEL 1
REMARK minimizedAffinity 6.94783497
REMARK minimizedRMSD -1
REMARK  0 active torsions:
REMARK  status: ('A' for Active; 'I' for Inactive)
ROOT
ATOM      1  C   UNL d   1      -4.795  -2.080   1.088  0.00  0.00     0.078 C 
ATOM      2  C1  UNL d   1      -3.987  -0.820   1.183  0.00  0.00    -0.077 A 
ATOM      3  C2  UNL d   1      -4.498   0.401   0.728  0.00  0.00    -0.001 A 
ATOM      4  C3  UNL d   1      -3.730   1.564   0.814  0.00  0.00     0.003 A 
ATOM      5  C4  UNL d   1      -2.446   1.516   1.353  0.00  0.00    -0.005 A 
ATOM      6  C5  UNL d   1      -1.928   0.304   1.806  0.00  0.00     0.003 A 
ATOM      7  C6  UNL d   1      -2.694  -0.859   1.721  0.00  0.00    -0.001 A 
ENDROOT
TORSDOF 0
ENDMDL
