MODEL 1
REMARK minimizedAffinity 4.57001257
REMARK minimizedRMSD -1
REMARK  1 active torsions:
REMARK  status: ('A' for Active; 'I' for Inactive)
REMARK    1  A    between atoms: C3_4  and  O_7 
ROOT
ATOM      1  C   UNL d   1       1.724   3.722   3.541  0.00  0.00    -0.033 A 
ATOM      2  C1  UNL d   1       2.504   3.094   2.568  0.00  0.00     0.039 A 
ATOM      3  C2  UNL d   1       1.905   2.255   1.626  0.00  0.00    -0.080 A 
ATOM      4  C3  UNL d   1       0.528   2.054   1.667  0.00  0.00     0.150 A 
ATOM      5  C4  UNL d   1      -0.255   2.679   2.631  0.00  0.00    -0.007 A 
ATOM      6  C5  UNL d   1       0.344   3.516   3.572  0.00  0.00     0.039 A 
ENDROOT
BRANCH   4   7
ATOM      7  O   UNL d   1      -0.100   1.240   0.771  0.00  0.00    -0.526 OA
ATOM      8  H5  UNL d   1       0.571   0.854   0.183  0.00  0.00     0.418 HD
ENDBRANCH   4   7
TORSDOF 1
ENDMDL
