MODEL 1
REMARK minimizedAffinity -3.98680401
REMARK minimizedRMSD -1
REMARK  1 active torsions:
REMARK  status: ('A' for Active; 'I' for Inactive)
REMARK    1  A    between atoms: C3_4  and  O_7 
ROOT
ATOM      1  C   UNL d   1       1.436   3.010   1.323  0.00  0.00    -0.033 A 
ATOM      2  C1  UNL d   1       1.466   4.120   2.169  0.00  0.00     0.039 A 
ATOM      3  C2  UNL d   1       0.458   4.305   3.117  0.00  0.00    -0.080 A 
ATOM      4  C3  UNL d   1      -0.573   3.374   3.209  0.00  0.00     0.150 A 
ATOM      5  C4  UNL d   1      -0.607   2.263   2.372  0.00  0.00    -0.007 A 
ATOM      6  C5  UNL d   1       0.401   2.080   1.425  0.00  0.00     0.039 A 
ENDROOT
BRANCH   4   7
ATOM      7  O   UNL d   1      -1.582   3.515   4.115  0.00  0.00    -0.526 OA
ATOM      8  H5  UNL d   1      -1.442   4.342   4.604  0.00  0.00     0.418 HD
ENDBRANCH   4   7
TORSDOF 1
ENDMDL
