MODEL 1
REMARK minimizedAffinity -2.47109318
REMARK minimizedRMSD -1
REMARK  1 active torsions:
REMARK  status: ('A' for Active; 'I' for Inactive)
REMARK    1  A    between atoms: C3_4  and  O_7 
ROOT
ATOM      1  C   UNL d   1       0.534   2.100   1.581  0.00  0.00    -0.033 A 
ATOM      2  C1  UNL d   1      -0.825   1.798   1.479  0.00  0.00     0.039 A 
ATOM      3  C2  UNL d   1      -1.714   2.231   2.464  0.00  0.00    -0.080 A 
ATOM      4  C3  UNL d   1      -1.232   2.966   3.544  0.00  0.00     0.150 A 
ATOM      5  C4  UNL d   1       0.120   3.273   3.650  0.00  0.00    -0.007 A 
ATOM      6  C5  UNL d   1       1.006   2.839   2.666  0.00  0.00     0.039 A 
ENDROOT
BRANCH   4   7
ATOM      7  O   UNL d   1      -2.061   3.406   4.533  0.00  0.00    -0.526 OA
ATOM      8  H5  UNL d   1      -2.961   3.095   4.342  0.00  0.00     0.418 HD
ENDBRANCH   4   7
TORSDOF 1
ENDMDL
