MODEL 1
REMARK minimizedAffinity -1.00877798
REMARK minimizedRMSD -1
REMARK  1 active torsions:
REMARK  status: ('A' for Active; 'I' for Inactive)
REMARK    1  A    between atoms: C3_4  and  O_7 
ROOT
ATOM      1  C   UNL d   1       0.846   2.049   1.209  0.00  0.00    -0.033 A 
ATOM      2  C1  UNL d   1       1.442   3.113   1.890  0.00  0.00     0.039 A 
ATOM      3  C2  UNL d   1       0.714   3.829   2.843  0.00  0.00    -0.080 A 
ATOM      4  C3  UNL d   1      -0.605   3.471   3.105  0.00  0.00     0.150 A 
ATOM      5  C4  UNL d   1      -1.203   2.410   2.434  0.00  0.00    -0.007 A 
ATOM      6  C5  UNL d   1      -0.476   1.697   1.482  0.00  0.00     0.039 A 
ENDROOT
BRANCH   4   7
ATOM      7  O   UNL d   1      -1.357   4.143   4.023  0.00  0.00    -0.526 OA
ATOM      8  H5  UNL d   1      -0.822   4.869   4.387  0.00  0.00     0.418 HD
ENDBRANCH   4   7
TORSDOF 1
ENDMDL
