MODEL 1
REMARK minimizedAffinity -3.35130095
REMARK minimizedRMSD -1
REMARK  1 active torsions:
REMARK  status: ('A' for Active; 'I' for Inactive)
REMARK    1  A    between atoms: C3_4  and  O_7 
ROOT
ATOM      1  C   UNL d   1      -0.660   4.291   3.964  0.00  0.00    -0.033 A 
ATOM      2  C1  UNL d   1       0.397   4.288   3.052  0.00  0.00     0.039 A 
ATOM      3  C2  UNL d   1       0.724   3.119   2.363  0.00  0.00    -0.080 A 
ATOM      4  C3  UNL d   1      -0.013   1.961   2.594  0.00  0.00     0.150 A 
ATOM      5  C4  UNL d   1      -1.069   1.957   3.499  0.00  0.00    -0.007 A 
ATOM      6  C5  UNL d   1      -1.394   3.125   4.187  0.00  0.00     0.039 A 
ENDROOT
BRANCH   4   7
ATOM      7  O   UNL d   1       0.273   0.794   1.949  0.00  0.00    -0.526 OA
ATOM      8  H5  UNL d   1       1.044   0.939   1.377  0.00  0.00     0.418 HD
ENDBRANCH   4   7
TORSDOF 1
ENDMDL
