MODEL 1
REMARK minimizedAffinity -1.73917556
REMARK minimizedRMSD -1
REMARK  1 active torsions:
REMARK  status: ('A' for Active; 'I' for Inactive)
REMARK    1  A    between atoms: C3_4  and  O_7 
ROOT
ATOM      1  C   UNL d   1       1.134   1.825   1.811  0.00  0.00    -0.033 A 
ATOM      2  C1  UNL d   1       1.449   2.586   2.938  0.00  0.00     0.039 A 
ATOM      3  C2  UNL d   1       0.490   3.427   3.505  0.00  0.00    -0.080 A 
ATOM      4  C3  UNL d   1      -0.779   3.497   2.938  0.00  0.00     0.150 A 
ATOM      5  C4  UNL d   1      -1.102   2.738   1.818  0.00  0.00    -0.007 A 
ATOM      6  C5  UNL d   1      -0.142   1.900   1.252  0.00  0.00     0.039 A 
ENDROOT
BRANCH   4   7
ATOM      7  O   UNL d   1      -1.747   4.307   3.454  0.00  0.00    -0.526 OA
ATOM      8  H5  UNL d   1      -1.372   4.792   4.208  0.00  0.00     0.418 HD
ENDBRANCH   4   7
TORSDOF 1
ENDMDL
