MODEL 1
REMARK minimizedAffinity -0.627932966
REMARK minimizedRMSD -1
REMARK  1 active torsions:
REMARK  status: ('A' for Active; 'I' for Inactive)
REMARK    1  A    between atoms: C3_4  and  O_7 
ROOT
ATOM      1  C   UNL d   1      -1.903  -0.918   1.643  0.00  0.00    -0.033 A 
ATOM      2  C1  UNL d   1      -2.896   0.057   1.522  0.00  0.00     0.039 A 
ATOM      3  C2  UNL d   1      -4.143  -0.137   2.118  0.00  0.00    -0.080 A 
ATOM      4  C3  UNL d   1      -4.385  -1.308   2.832  0.00  0.00     0.150 A 
ATOM      5  C4  UNL d   1      -3.399  -2.282   2.959  0.00  0.00    -0.007 A 
ATOM      6  C5  UNL d   1      -2.154  -2.086   2.362  0.00  0.00     0.039 A 
ENDROOT
BRANCH   4   7
ATOM      7  O   UNL d   1      -5.588  -1.545   3.427  0.00  0.00    -0.526 OA
ATOM      8  H5  UNL d   1      -6.180  -0.799   3.231  0.00  0.00     0.418 HD
ENDBRANCH   4   7
TORSDOF 1
ENDMDL
