MODEL 1
REMARK minimizedAffinity -0.919941962
REMARK minimizedRMSD -1
REMARK  1 active torsions:
REMARK  status: ('A' for Active; 'I' for Inactive)
REMARK    1  A    between atoms: C3_4  and  O_7 
ROOT
ATOM      1  C   UNL d   1       1.093   2.235   1.826  0.00  0.00    -0.033 A 
ATOM      2  C1  UNL d   1      -0.198   1.912   2.249  0.00  0.00     0.039 A 
ATOM      3  C2  UNL d   1      -1.211   1.704   1.311  0.00  0.00    -0.080 A 
ATOM      4  C3  UNL d   1      -0.920   1.820  -0.045  0.00  0.00     0.150 A 
ATOM      5  C4  UNL d   1       0.364   2.138  -0.474  0.00  0.00    -0.007 A 
ATOM      6  C5  UNL d   1       1.374   2.347   0.464  0.00  0.00     0.039 A 
ENDROOT
BRANCH   4   7
ATOM      7  O   UNL d   1      -1.877   1.631  -0.998  0.00  0.00    -0.526 OA
ATOM      8  H5  UNL d   1      -2.721   1.446  -0.553  0.00  0.00     0.418 HD
ENDBRANCH   4   7
TORSDOF 1
ENDMDL
