MODEL 1
REMARK minimizedAffinity 3.4124639
REMARK minimizedRMSD -1
REMARK  1 active torsions:
REMARK  status: ('A' for Active; 'I' for Inactive)
REMARK    1  A    between atoms: C3_4  and  O_7 
ROOT
ATOM      1  C   UNL d   1       5.325   4.904   3.905  0.00  0.00    -0.033 A 
ATOM      2  C1  UNL d   1       4.793   4.016   4.842  0.00  0.00     0.039 A 
ATOM      3  C2  UNL d   1       3.444   3.661   4.782  0.00  0.00    -0.080 A 
ATOM      4  C3  UNL d   1       2.640   4.198   3.781  0.00  0.00     0.150 A 
ATOM      5  C4  UNL d   1       3.164   5.080   2.842  0.00  0.00    -0.007 A 
ATOM      6  C5  UNL d   1       4.511   5.435   2.904  0.00  0.00     0.039 A 
ENDROOT
BRANCH   4   7
ATOM      7  O   UNL d   1       1.316   3.885   3.685  0.00  0.00    -0.526 OA
ATOM      8  H5  UNL d   1       1.087   3.288   4.417  0.00  0.00     0.418 HD
ENDBRANCH   4   7
TORSDOF 1
ENDMDL
