MODEL 1
REMARK minimizedAffinity -2.98465776
REMARK minimizedRMSD -1
REMARK  1 active torsions:
REMARK  status: ('A' for Active; 'I' for Inactive)
REMARK    1  A    between atoms: C3_4  and  O_7 
ROOT
ATOM      1  C   UNL d   1       0.679   1.875   0.329  0.00  0.00    -0.033 A 
ATOM      2  C1  UNL d   1       1.273   2.908   1.056  0.00  0.00     0.039 A 
ATOM      3  C2  UNL d   1       0.811   3.218   2.337  0.00  0.00    -0.080 A 
ATOM      4  C3  UNL d   1      -0.243   2.488   2.878  0.00  0.00     0.150 A 
ATOM      5  C4  UNL d   1      -0.837   1.454   2.161  0.00  0.00    -0.007 A 
ATOM      6  C5  UNL d   1      -0.375   1.147   0.882  0.00  0.00     0.039 A 
ENDROOT
BRANCH   4   7
ATOM      7  O   UNL d   1      -0.731   2.756   4.123  0.00  0.00    -0.526 OA
ATOM      8  H5  UNL d   1      -0.243   3.513   4.488  0.00  0.00     0.418 HD
ENDBRANCH   4   7
TORSDOF 1
ENDMDL
