MODEL 1
REMARK minimizedAffinity 5.08904123
REMARK minimizedRMSD -1
REMARK  1 active torsions:
REMARK  status: ('A' for Active; 'I' for Inactive)
REMARK    1  A    between atoms: C3_4  and  O_7 
ROOT
ATOM      1  C   UNL d   1       0.474   2.211   1.743  0.00  0.00    -0.033 A 
ATOM      2  C1  UNL d   1      -0.689   1.513   2.076  0.00  0.00     0.039 A 
ATOM      3  C2  UNL d   1      -1.352   1.789   3.273  0.00  0.00    -0.080 A 
ATOM      4  C3  UNL d   1      -0.843   2.763   4.127  0.00  0.00     0.150 A 
ATOM      5  C4  UNL d   1       0.313   3.465   3.800  0.00  0.00    -0.007 A 
ATOM      6  C5  UNL d   1       0.974   3.188   2.605  0.00  0.00     0.039 A 
ENDROOT
BRANCH   4   7
ATOM      7  O   UNL d   1      -1.453   3.064   5.309  0.00  0.00    -0.526 OA
ATOM      8  H5  UNL d   1      -2.223   2.480   5.415  0.00  0.00     0.418 HD
ENDBRANCH   4   7
TORSDOF 1
ENDMDL
