MODEL 1
REMARK minimizedAffinity 4.38037109
REMARK minimizedRMSD -1
REMARK  1 active torsions:
REMARK  status: ('A' for Active; 'I' for Inactive)
REMARK    1  A    between atoms: C3_4  and  O_7 
ROOT
ATOM      1  C   UNL d   1       4.590   5.217   6.000  0.00  0.00    -0.033 A 
ATOM      2  C1  UNL d   1       3.406   5.948   5.887  0.00  0.00     0.039 A 
ATOM      3  C2  UNL d   1       2.342   5.446   5.135  0.00  0.00    -0.080 A 
ATOM      4  C3  UNL d   1       2.474   4.213   4.503  0.00  0.00     0.150 A 
ATOM      5  C4  UNL d   1       3.650   3.477   4.613  0.00  0.00    -0.007 A 
ATOM      6  C5  UNL d   1       4.711   3.981   5.364  0.00  0.00     0.039 A 
ENDROOT
BRANCH   4   7
ATOM      7  O   UNL d   1       1.465   3.684   3.754  0.00  0.00    -0.526 OA
ATOM      8  H5  UNL d   1       0.726   4.315   3.744  0.00  0.00     0.418 HD
ENDBRANCH   4   7
TORSDOF 1
ENDMDL
