MODEL 1
REMARK minimizedAffinity 3.92133141
REMARK minimizedRMSD -1
REMARK  1 active torsions:
REMARK  status: ('A' for Active; 'I' for Inactive)
REMARK    1  A    between atoms: C3_4  and  O_7 
ROOT
ATOM      1  C   UNL d   1       0.302   2.179   2.215  0.00  0.00    -0.033 A 
ATOM      2  C1  UNL d   1      -0.952   1.570   2.301  0.00  0.00     0.039 A 
ATOM      3  C2  UNL d   1      -1.822   1.905   3.340  0.00  0.00    -0.080 A 
ATOM      4  C3  UNL d   1      -1.428   2.849   4.284  0.00  0.00     0.150 A 
ATOM      5  C4  UNL d   1      -0.183   3.463   4.202  0.00  0.00    -0.007 A 
ATOM      6  C5  UNL d   1       0.686   3.126   3.164  0.00  0.00     0.039 A 
ENDROOT
BRANCH   4   7
ATOM      7  O   UNL d   1      -2.242   3.205   5.319  0.00  0.00    -0.526 OA
ATOM      8  H5  UNL d   1      -3.057   2.679   5.264  0.00  0.00     0.418 HD
ENDBRANCH   4   7
TORSDOF 1
ENDMDL
