MODEL 1
REMARK minimizedAffinity 6.91296768
REMARK minimizedRMSD -1
REMARK  1 active torsions:
REMARK  status: ('A' for Active; 'I' for Inactive)
REMARK    1  A    between atoms: C3_4  and  O_7 
ROOT
ATOM      1  C   UNL d   1       0.282  -4.002  -1.585  0.00  0.00    -0.033 A 
ATOM      2  C1  UNL d   1       0.219  -3.589  -0.253  0.00  0.00     0.039 A 
ATOM      3  C2  UNL d   1       1.167  -2.695   0.249  0.00  0.00    -0.080 A 
ATOM      4  C3  UNL d   1       2.170  -2.221  -0.591  0.00  0.00     0.150 A 
ATOM      5  C4  UNL d   1       2.237  -2.625  -1.920  0.00  0.00    -0.007 A 
ATOM      6  C5  UNL d   1       1.291  -3.518  -2.419  0.00  0.00     0.039 A 
ENDROOT
BRANCH   4   7
ATOM      7  O   UNL d   1       3.121  -1.351  -0.145  0.00  0.00    -0.526 OA
ATOM      8  H5  UNL d   1       2.965  -1.183   0.800  0.00  0.00     0.418 HD
ENDBRANCH   4   7
TORSDOF 1
ENDMDL
