MODEL 1
REMARK minimizedAffinity -5.02877569
REMARK minimizedRMSD -1
REMARK  0 active torsions:
REMARK  status: ('A' for Active; 'I' for Inactive)
ROOT
ATOM      1  C1  DEN d   1      -1.125  -0.392  -1.184  0.00  0.00     0.130 A 
ATOM      2  C2  DEN d   1      -0.949   1.047  -1.005  0.00  0.00    -0.031 A 
ATOM      3  C3  DEN d   1       0.231   1.259  -0.144  0.00  0.00     0.027 A 
ATOM      4  C4  DEN d   1       1.799  -0.490   0.921  0.00  0.00     0.027 A 
ATOM      5  C5  DEN d   1       2.045  -1.838   1.064  0.00  0.00    -0.003 A 
ATOM      6  C6  DEN d   1       1.238  -2.791   0.501  0.00  0.00     0.001 A 
ATOM      7  C7  DEN d   1       0.173  -2.409  -0.270  0.00  0.00     0.017 A 
ATOM      8  C8  DEN d   1      -0.086  -1.052  -0.413  0.00  0.00    -0.094 A 
ATOM      9  C9  DEN d   1       0.748  -0.103   0.154  0.00  0.00    -0.072 A 
ENDROOT
TORSDOF 0
ENDMDL
