MODEL 1
REMARK minimizedAffinity -1.89531827
REMARK minimizedRMSD -1
REMARK  0 active torsions:
REMARK  status: ('A' for Active; 'I' for Inactive)
ROOT
ATOM      1  C1  DEN d   1       1.591   0.667  -1.155  0.00  0.00     0.130 A 
ATOM      2  C2  DEN d   1       0.317   1.192  -1.638  0.00  0.00    -0.031 A 
ATOM      3  C3  DEN d   1      -0.766   0.383  -1.041  0.00  0.00     0.027 A 
ATOM      4  C4  DEN d   1      -0.593  -1.615   0.580  0.00  0.00     0.027 A 
ATOM      5  C5  DEN d   1       0.279  -2.433   1.265  0.00  0.00    -0.003 A 
ATOM      6  C6  DEN d   1       1.638  -2.297   1.166  0.00  0.00     0.001 A 
ATOM      7  C7  DEN d   1       2.166  -1.292   0.399  0.00  0.00     0.017 A 
ATOM      8  C8  DEN d   1       1.294  -0.469  -0.301  0.00  0.00    -0.094 A 
ATOM      9  C9  DEN d   1      -0.078  -0.614  -0.178  0.00  0.00    -0.072 A 
ENDROOT
TORSDOF 0
ENDMDL
