MODEL 1
REMARK minimizedAffinity -5.13197374
REMARK minimizedRMSD -1
REMARK  0 active torsions:
REMARK  status: ('A' for Active; 'I' for Inactive)
ROOT
ATOM      1  C1  DEN d   1      -1.588   0.084   0.845  0.00  0.00     0.130 A 
ATOM      2  C2  DEN d   1      -1.352   1.441   0.362  0.00  0.00    -0.031 A 
ATOM      3  C3  DEN d   1      -0.041   1.462  -0.318  0.00  0.00     0.027 A 
ATOM      4  C4  DEN d   1       1.634  -0.467  -0.672  0.00  0.00     0.027 A 
ATOM      5  C5  DEN d   1       1.877  -1.801  -0.429  0.00  0.00    -0.003 A 
ATOM      6  C6  DEN d   1       1.006  -2.585   0.279  0.00  0.00     0.001 A 
ATOM      7  C7  DEN d   1      -0.173  -2.053   0.731  0.00  0.00     0.017 A 
ATOM      8  C8  DEN d   1      -0.422  -0.707   0.496  0.00  0.00    -0.094 A 
ATOM      9  C9  DEN d   1       0.466   0.066  -0.232  0.00  0.00    -0.072 A 
ENDROOT
TORSDOF 0
ENDMDL
