MODEL 1
REMARK minimizedAffinity -5.13669777
REMARK minimizedRMSD -1
REMARK  0 active torsions:
REMARK  status: ('A' for Active; 'I' for Inactive)
ROOT
ATOM      1  C1  DEN d   1       1.528  -3.113   1.318  0.00  0.00     0.130 A 
ATOM      2  C2  DEN d   1       0.263  -3.131   2.049  0.00  0.00    -0.031 A 
ATOM      3  C3  DEN d   1      -0.451  -1.872   1.756  0.00  0.00     0.027 A 
ATOM      4  C4  DEN d   1       0.273   0.092   0.248  0.00  0.00     0.027 A 
ATOM      5  C5  DEN d   1       1.272   0.568  -0.572  0.00  0.00    -0.003 A 
ATOM      6  C6  DEN d   1       2.432  -0.128  -0.790  0.00  0.00     0.001 A 
ATOM      7  C7  DEN d   1       2.602  -1.361  -0.217  0.00  0.00     0.017 A 
ATOM      8  C8  DEN d   1       1.602  -1.844   0.617  0.00  0.00    -0.094 A 
ATOM      9  C9  DEN d   1       0.432  -1.131   0.815  0.00  0.00    -0.072 A 
ENDROOT
TORSDOF 0
ENDMDL
