MODEL 1
REMARK minimizedAffinity -2.48191524
REMARK minimizedRMSD -1
REMARK  0 active torsions:
REMARK  status: ('A' for Active; 'I' for Inactive)
ROOT
ATOM      1  C1  DEN d   1      -1.179   0.214   0.725  0.00  0.00     0.130 A 
ATOM      2  C2  DEN d   1      -1.250   1.326  -0.219  0.00  0.00    -0.031 A 
ATOM      3  C3  DEN d   1      -0.022   1.310  -1.037  0.00  0.00     0.027 A 
ATOM      4  C4  DEN d   1       1.971  -0.325  -0.940  0.00  0.00     0.027 A 
ATOM      5  C5  DEN d   1       2.490  -1.426  -0.294  0.00  0.00    -0.003 A 
ATOM      6  C6  DEN d   1       1.843  -2.031   0.750  0.00  0.00     0.001 A 
ATOM      7  C7  DEN d   1       0.618  -1.567   1.151  0.00  0.00     0.017 A 
ATOM      8  C8  DEN d   1       0.092  -0.453   0.509  0.00  0.00    -0.094 A 
ATOM      9  C9  DEN d   1       0.756   0.137  -0.552  0.00  0.00    -0.072 A 
ENDROOT
TORSDOF 0
ENDMDL
