MODEL 1
REMARK minimizedAffinity -1.26437283
REMARK minimizedRMSD -1
REMARK  0 active torsions:
REMARK  status: ('A' for Active; 'I' for Inactive)
ROOT
ATOM      1  C1  DEN d   1       1.135   0.800   0.054  0.00  0.00     0.130 A 
ATOM      2  C2  DEN d   1       2.519   0.583  -0.357  0.00  0.00    -0.031 A 
ATOM      3  C3  DEN d   1       2.745  -0.873  -0.449  0.00  0.00     0.027 A 
ATOM      4  C4  DEN d   1       1.093  -2.803  -0.002  0.00  0.00     0.027 A 
ATOM      5  C5  DEN d   1      -0.192  -3.114   0.382  0.00  0.00    -0.003 A 
ATOM      6  C6  DEN d   1      -1.108  -2.151   0.714  0.00  0.00     0.001 A 
ATOM      7  C7  DEN d   1      -0.765  -0.828   0.624  0.00  0.00     0.017 A 
ATOM      8  C8  DEN d   1       0.532  -0.507   0.245  0.00  0.00    -0.094 A 
ATOM      9  C9  DEN d   1       1.440  -1.495  -0.098  0.00  0.00    -0.072 A 
ENDROOT
TORSDOF 0
ENDMDL
