MODEL 1
REMARK minimizedAffinity -0.969801426
REMARK minimizedRMSD -1
REMARK  0 active torsions:
REMARK  status: ('A' for Active; 'I' for Inactive)
ROOT
ATOM      1  C1  DEN d   1       1.028  -0.271  -0.686  0.00  0.00     0.130 A 
ATOM      2  C2  DEN d   1       1.395  -1.684  -0.691  0.00  0.00    -0.031 A 
ATOM      3  C3  DEN d   1       0.455  -2.403   0.193  0.00  0.00     0.027 A 
ATOM      4  C4  DEN d   1      -1.525  -1.470   1.557  0.00  0.00     0.027 A 
ATOM      5  C5  DEN d   1      -2.220  -0.328   1.890  0.00  0.00    -0.003 A 
ATOM      6  C6  DEN d   1      -1.863   0.907   1.417  0.00  0.00     0.001 A 
ATOM      7  C7  DEN d   1      -0.810   1.024   0.550  0.00  0.00     0.017 A 
ATOM      8  C8  DEN d   1      -0.099  -0.121   0.216  0.00  0.00    -0.094 A 
ATOM      9  C9  DEN d   1      -0.483  -1.363   0.694  0.00  0.00    -0.072 A 
ENDROOT
TORSDOF 0
ENDMDL
