MODEL 1
REMARK minimizedAffinity -4.78192091
REMARK minimizedRMSD -1
REMARK  0 active torsions:
REMARK  status: ('A' for Active; 'I' for Inactive)
ROOT
ATOM      1  C1  DEN d   1       1.842  -0.288  -0.332  0.00  0.00     0.130 A 
ATOM      2  C2  DEN d   1       2.582  -1.463   0.119  0.00  0.00    -0.031 A 
ATOM      3  C3  DEN d   1       1.702  -2.242   1.012  0.00  0.00     0.027 A 
ATOM      4  C4  DEN d   1      -0.726  -1.750   1.731  0.00  0.00     0.027 A 
ATOM      5  C5  DEN d   1      -1.773  -0.863   1.615  0.00  0.00    -0.003 A 
ATOM      6  C6  DEN d   1      -1.678   0.286   0.875  0.00  0.00     0.001 A 
ATOM      7  C7  DEN d   1      -0.525   0.556   0.185  0.00  0.00     0.017 A 
ATOM      8  C8  DEN d   1       0.537  -0.330   0.303  0.00  0.00    -0.094 A 
ATOM      9  C9  DEN d   1       0.417  -1.492   1.047  0.00  0.00    -0.072 A 
ENDROOT
TORSDOF 0
ENDMDL
