MODEL 1
REMARK minimizedAffinity -4.10780668
REMARK minimizedRMSD -1
REMARK  0 active torsions:
REMARK  status: ('A' for Active; 'I' for Inactive)
ROOT
ATOM      1  C1  DEN d   1       0.789  -2.464   0.979  0.00  0.00     0.130 A 
ATOM      2  C2  DEN d   1       1.910  -2.180   0.087  0.00  0.00    -0.031 A 
ATOM      3  C3  DEN d   1       1.717  -0.828  -0.473  0.00  0.00     0.027 A 
ATOM      4  C4  DEN d   1      -0.196   0.848  -0.045  0.00  0.00     0.027 A 
ATOM      5  C5  DEN d   1      -1.381   1.051   0.627  0.00  0.00    -0.003 A 
ATOM      6  C6  DEN d   1      -1.938   0.092   1.431  0.00  0.00     0.001 A 
ATOM      7  C7  DEN d   1      -1.287  -1.099   1.618  0.00  0.00     0.017 A 
ATOM      8  C8  DEN d   1      -0.096  -1.314   0.938  0.00  0.00    -0.094 A 
ATOM      9  C9  DEN d   1       0.457  -0.327   0.140  0.00  0.00    -0.072 A 
ENDROOT
TORSDOF 0
ENDMDL
