MODEL 1
REMARK minimizedAffinity 8.01475239
REMARK minimizedRMSD -1
REMARK  0 active torsions:
REMARK  status: ('A' for Active; 'I' for Inactive)
ROOT
ATOM      1  N1  IND d   1       1.952  -4.696   1.083  0.00  0.00    -0.196 N 
ATOM      2  C2  IND d   1       1.693  -3.499   1.691  0.00  0.00     0.054 A 
ATOM      3  C3  IND d   1       2.839  -2.948   2.151  0.00  0.00    -0.031 A 
ATOM      4  C4  IND d   1       5.262  -3.785   1.926  0.00  0.00     0.051 A 
ATOM      5  C5  IND d   1       5.998  -4.848   1.482  0.00  0.00    -0.031 A 
ATOM      6  C6  IND d   1       5.411  -5.935   0.868  0.00  0.00     0.015 A 
ATOM      7  C7  IND d   1       4.061  -5.995   0.663  0.00  0.00    -0.016 A 
ATOM      8  C8  IND d   1       3.310  -4.921   1.119  0.00  0.00    -0.047 A 
ATOM      9  C9  IND d   1       3.896  -3.834   1.781  0.00  0.00    -0.096 A 
ATOM     10  HN1 IND d   1       1.365  -5.219   0.736  0.00  0.00     0.298 HD
ENDROOT
TORSDOF 0
ENDMDL
