MODEL 1
REMARK minimizedAffinity 8.08319473
REMARK minimizedRMSD -1
REMARK  0 active torsions:
REMARK  status: ('A' for Active; 'I' for Inactive)
ROOT
ATOM      1  N1  IND d   1      -1.593   0.427   3.463  0.00  0.00    -0.196 N 
ATOM      2  C2  IND d   1      -2.650  -0.320   3.021  0.00  0.00     0.054 A 
ATOM      3  C3  IND d   1      -2.209  -1.400   2.338  0.00  0.00    -0.031 A 
ATOM      4  C4  IND d   1       0.202  -2.194   1.912  0.00  0.00     0.051 A 
ATOM      5  C5  IND d   1       1.506  -1.823   2.088  0.00  0.00    -0.031 A 
ATOM      6  C6  IND d   1       1.850  -0.661   2.748  0.00  0.00     0.015 A 
ATOM      7  C7  IND d   1       0.899   0.172   3.268  0.00  0.00    -0.016 A 
ATOM      8  C8  IND d   1      -0.426  -0.199   3.084  0.00  0.00    -0.047 A 
ATOM      9  C9  IND d   1      -0.782  -1.355   2.378  0.00  0.00    -0.096 A 
ATOM     10  HN1 IND d   1      -1.649   1.163   3.903  0.00  0.00     0.298 HD
ENDROOT
TORSDOF 0
ENDMDL
