MODEL 1
REMARK minimizedAffinity 4.66043234
REMARK minimizedRMSD -1
REMARK  0 active torsions:
REMARK  status: ('A' for Active; 'I' for Inactive)
ROOT
ATOM      1  N1  IND d   1      -2.759   0.936   4.169  0.00  0.00    -0.196 N 
ATOM      2  C2  IND d   1      -3.889   1.085   3.415  0.00  0.00     0.054 A 
ATOM      3  C3  IND d   1      -3.828   0.299   2.316  0.00  0.00    -0.031 A 
ATOM      4  C4  IND d   1      -2.015  -1.387   1.610  0.00  0.00     0.051 A 
ATOM      5  C5  IND d   1      -0.776  -1.846   1.960  0.00  0.00    -0.031 A 
ATOM      6  C6  IND d   1      -0.123  -1.394   3.088  0.00  0.00     0.015 A 
ATOM      7  C7  IND d   1      -0.692  -0.471   3.919  0.00  0.00    -0.016 A 
ATOM      8  C8  IND d   1      -1.947   0.003   3.563  0.00  0.00    -0.047 A 
ATOM      9  C9  IND d   1      -2.596  -0.420   2.396  0.00  0.00    -0.096 A 
ATOM     10  HN1 IND d   1      -2.585   1.355   4.900  0.00  0.00     0.298 HD
ENDROOT
TORSDOF 0
ENDMDL
