MODEL 1
REMARK minimizedAffinity 5.10421324
REMARK minimizedRMSD -1
REMARK  0 active torsions:
REMARK  status: ('A' for Active; 'I' for Inactive)
ROOT
ATOM      1  N1  IND d   1       5.984   2.670   0.895  0.00  0.00    -0.196 N 
ATOM      2  C2  IND d   1       5.945   2.639   2.261  0.00  0.00     0.054 A 
ATOM      3  C3  IND d   1       5.897   1.361   2.701  0.00  0.00    -0.031 A 
ATOM      4  C4  IND d   1       5.976  -0.835   1.359  0.00  0.00     0.051 A 
ATOM      5  C5  IND d   1       5.977  -1.316   0.080  0.00  0.00    -0.031 A 
ATOM      6  C6  IND d   1       5.983  -0.476  -1.015  0.00  0.00     0.015 A 
ATOM      7  C7  IND d   1       6.000   0.882  -0.871  0.00  0.00    -0.016 A 
ATOM      8  C8  IND d   1       5.992   1.375   0.426  0.00  0.00    -0.047 A 
ATOM      9  C9  IND d   1       5.943   0.528   1.541  0.00  0.00    -0.096 A 
ATOM     10  HN1 IND d   1       6.001   3.380   0.409  0.00  0.00     0.298 HD
ENDROOT
TORSDOF 0
ENDMDL
