MODEL 1
REMARK minimizedAffinity 8.00710106
REMARK minimizedRMSD -1
REMARK  0 active torsions:
REMARK  status: ('A' for Active; 'I' for Inactive)
ROOT
ATOM      1  N1  IND d   1      -2.811   1.019   4.158  0.00  0.00    -0.196 N 
ATOM      2  C2  IND d   1      -3.847   1.351   3.330  0.00  0.00     0.054 A 
ATOM      3  C3  IND d   1      -3.736   0.697   2.152  0.00  0.00    -0.031 A 
ATOM      4  C4  IND d   1      -1.993  -1.043   1.405  0.00  0.00     0.051 A 
ATOM      5  C5  IND d   1      -0.832  -1.644   1.803  0.00  0.00    -0.031 A 
ATOM      6  C6  IND d   1      -0.261  -1.386   3.032  0.00  0.00     0.015 A 
ATOM      7  C7  IND d   1      -0.839  -0.521   3.918  0.00  0.00    -0.016 A 
ATOM      8  C8  IND d   1      -2.014   0.097   3.514  0.00  0.00    -0.047 A 
ATOM      9  C9  IND d   1      -2.575  -0.129   2.251  0.00  0.00    -0.096 A 
ATOM     10  HN1 IND d   1      -2.679   1.333   4.947  0.00  0.00     0.298 HD
ENDROOT
TORSDOF 0
ENDMDL
