MODEL 1
REMARK minimizedAffinity 12.0975771
REMARK minimizedRMSD -1
REMARK  0 active torsions:
REMARK  status: ('A' for Active; 'I' for Inactive)
ROOT
ATOM      1  N1  IND d   1       1.132  -5.271   1.462  0.00  0.00    -0.196 N 
ATOM      2  C2  IND d   1       2.244  -5.766   0.840  0.00  0.00     0.054 A 
ATOM      3  C3  IND d   1       3.064  -4.758   0.468  0.00  0.00    -0.031 A 
ATOM      4  C4  IND d   1       2.828  -2.226   0.871  0.00  0.00     0.051 A 
ATOM      5  C5  IND d   1       1.963  -1.290   1.364  0.00  0.00    -0.031 A 
ATOM      6  C6  IND d   1       0.754  -1.640   1.929  0.00  0.00     0.015 A 
ATOM      7  C7  IND d   1       0.368  -2.946   2.033  0.00  0.00    -0.016 A 
ATOM      8  C8  IND d   1       1.240  -3.899   1.526  0.00  0.00    -0.047 A 
ATOM      9  C9  IND d   1       2.449  -3.547   0.913  0.00  0.00    -0.096 A 
ATOM     10  HN1 IND d   1       0.475  -5.738   1.762  0.00  0.00     0.298 HD
ENDROOT
TORSDOF 0
ENDMDL
