MODEL 1
REMARK minimizedAffinity 12.9777107
REMARK minimizedRMSD -1
REMARK  0 active torsions:
REMARK  status: ('A' for Active; 'I' for Inactive)
ROOT
ATOM      1  N1  IND d   1       4.817  -2.804   1.466  0.00  0.00    -0.196 N 
ATOM      2  C2  IND d   1       5.304  -1.729   0.777  0.00  0.00     0.054 A 
ATOM      3  C3  IND d   1       4.288  -0.989   0.280  0.00  0.00    -0.031 A 
ATOM      4  C4  IND d   1       1.748  -1.300   0.564  0.00  0.00     0.051 A 
ATOM      5  C5  IND d   1       0.819  -2.159   1.080  0.00  0.00    -0.031 A 
ATOM      6  C6  IND d   1       1.182  -3.299   1.768  0.00  0.00     0.015 A 
ATOM      7  C7  IND d   1       2.495  -3.617   1.976  0.00  0.00    -0.016 A 
ATOM      8  C8  IND d   1       3.441  -2.751   1.447  0.00  0.00    -0.047 A 
ATOM      9  C9  IND d   1       3.078  -1.615   0.711  0.00  0.00    -0.096 A 
ATOM     10  HN1 IND d   1       5.291  -3.412   1.848  0.00  0.00     0.298 HD
ENDROOT
TORSDOF 0
ENDMDL
