MODEL 1
REMARK minimizedAffinity 0.522576988
REMARK minimizedRMSD -1
REMARK  0 active torsions:
REMARK  status: ('A' for Active; 'I' for Inactive)
ROOT
ATOM      1  N1  IND d   1      -1.478   1.180   3.357  0.00  0.00    -0.196 N 
ATOM      2  C2  IND d   1      -2.612   0.600   2.863  0.00  0.00     0.054 A 
ATOM      3  C3  IND d   1      -2.395  -0.708   2.599  0.00  0.00    -0.031 A 
ATOM      4  C4  IND d   1      -0.285  -2.128   2.996  0.00  0.00     0.051 A 
ATOM      5  C5  IND d   1       1.019  -2.032   3.395  0.00  0.00    -0.031 A 
ATOM      6  C6  IND d   1       1.567  -0.837   3.813  0.00  0.00     0.015 A 
ATOM      7  C7  IND d   1       0.826   0.310   3.858  0.00  0.00    -0.016 A 
ATOM      8  C8  IND d   1      -0.496   0.218   3.447  0.00  0.00    -0.047 A 
ATOM      9  C9  IND d   1      -1.047  -0.984   2.982  0.00  0.00    -0.096 A 
ATOM     10  HN1 IND d   1      -1.391   2.008   3.575  0.00  0.00     0.298 HD
ENDROOT
TORSDOF 0
ENDMDL
