MODEL 1
REMARK minimizedAffinity -1.44230008
REMARK minimizedRMSD -1
REMARK  0 active torsions:
REMARK  status: ('A' for Active; 'I' for Inactive)
ROOT
ATOM      1  C4' PXY d   1       2.936  -0.593   0.376  0.00  0.00     0.077 C 
ATOM      2  C1' PXY d   1      -2.765   0.360   0.441  0.00  0.00     0.077 C 
ATOM      3  C1  PXY d   1      -1.268   0.119   0.415  0.00  0.00    -0.082 A 
ATOM      4  C2  PXY d   1      -0.786  -1.045   0.817  0.00  0.00     0.003 A 
ATOM      5  C3  PXY d   1       0.567  -1.269   0.830  0.00  0.00     0.003 A 
ATOM      6  C4  PXY d   1       1.432  -0.309   0.377  0.00  0.00    -0.082 A 
ATOM      7  C5  PXY d   1       0.947   0.878  -0.045  0.00  0.00     0.003 A 
ATOM      8  C6  PXY d   1      -0.427   1.100  -0.012  0.00  0.00     0.003 A 
ENDROOT
TORSDOF 0
ENDMDL
