MODEL 1
REMARK minimizedAffinity -4.21284533
REMARK minimizedRMSD -1
REMARK  0 active torsions:
REMARK  status: ('A' for Active; 'I' for Inactive)
ROOT
ATOM      1  C4' PXY d   1      -1.731  -3.033   0.405  0.00  0.00     0.077 C 
ATOM      2  C1' PXY d   1       0.704   2.204   0.638  0.00  0.00     0.077 C 
ATOM      3  C1  PXY d   1       0.075   0.826   0.570  0.00  0.00    -0.082 A 
ATOM      4  C2  PXY d   1      -1.230   0.694   0.739  0.00  0.00     0.003 A 
ATOM      5  C3  PXY d   1      -1.811  -0.548   0.713  0.00  0.00     0.003 A 
ATOM      6  C4  PXY d   1      -1.055  -1.661   0.456  0.00  0.00    -0.082 A 
ATOM      7  C5  PXY d   1       0.276  -1.533   0.271  0.00  0.00     0.003 A 
ATOM      8  C6  PXY d   1       0.852  -0.268   0.344  0.00  0.00     0.003 A 
ENDROOT
TORSDOF 0
ENDMDL
