MODEL 1
REMARK minimizedAffinity -1.23845351
REMARK minimizedRMSD -1
REMARK  0 active torsions:
REMARK  status: ('A' for Active; 'I' for Inactive)
ROOT
ATOM      1  C4' PXY d   1      -3.551   0.039   1.026  0.00  0.00     0.077 C 
ATOM      2  C1' PXY d   1       1.850   1.458  -0.469  0.00  0.00     0.077 C 
ATOM      3  C1  PXY d   1       0.435   1.075  -0.083  0.00  0.00    -0.082 A 
ATOM      4  C2  PXY d   1      -0.448   2.022   0.190  0.00  0.00     0.003 A 
ATOM      5  C3  PXY d   1      -1.723   1.692   0.571  0.00  0.00     0.003 A 
ATOM      6  C4  PXY d   1      -2.114   0.380   0.623  0.00  0.00    -0.082 A 
ATOM      7  C5  PXY d   1      -1.222  -0.591   0.336  0.00  0.00     0.003 A 
ATOM      8  C6  PXY d   1       0.079  -0.237  -0.009  0.00  0.00     0.003 A 
ENDROOT
TORSDOF 0
ENDMDL
