MODEL 1
REMARK minimizedAffinity -4.05596161
REMARK minimizedRMSD -1
REMARK  0 active torsions:
REMARK  status: ('A' for Active; 'I' for Inactive)
ROOT
ATOM      1  C4' PXY d   1      -1.077  -0.098   0.303  0.00  0.00     0.077 C 
ATOM      2  C1' PXY d   1       1.799   2.935  -3.689  0.00  0.00     0.077 C 
ATOM      3  C1  PXY d   1       1.056   2.133  -2.640  0.00  0.00    -0.082 A 
ATOM      4  C2  PXY d   1      -0.262   2.032  -2.705  0.00  0.00     0.003 A 
ATOM      5  C3  PXY d   1      -0.953   1.337  -1.746  0.00  0.00     0.003 A 
ATOM      6  C4  PXY d   1      -0.284   0.694  -0.740  0.00  0.00    -0.082 A 
ATOM      7  C5  PXY d   1       1.061   0.783  -0.672  0.00  0.00     0.003 A 
ATOM      8  C6  PXY d   1       1.741   1.527  -1.632  0.00  0.00     0.003 A 
ENDROOT
TORSDOF 0
ENDMDL
