MODEL 1
REMARK minimizedAffinity -4.25630951
REMARK minimizedRMSD -1
REMARK  0 active torsions:
REMARK  status: ('A' for Active; 'I' for Inactive)
ROOT
ATOM      1  C4' PXY d   1       1.242   1.577  -0.658  0.00  0.00     0.077 C 
ATOM      2  C1' PXY d   1      -2.081  -2.614   1.533  0.00  0.00     0.077 C 
ATOM      3  C1  PXY d   1      -1.220  -1.509   0.953  0.00  0.00    -0.082 A 
ATOM      4  C2  PXY d   1       0.056  -1.742   0.694  0.00  0.00     0.003 A 
ATOM      5  C3  PXY d   1       0.857  -0.745   0.200  0.00  0.00     0.003 A 
ATOM      6  C4  PXY d   1       0.333   0.489  -0.081  0.00  0.00    -0.082 A 
ATOM      7  C5  PXY d   1      -0.971   0.731   0.170  0.00  0.00     0.003 A 
ATOM      8  C6  PXY d   1      -1.757  -0.283   0.710  0.00  0.00     0.003 A 
ENDROOT
TORSDOF 0
ENDMDL
