MODEL 1
REMARK minimizedAffinity -4.24947786
REMARK minimizedRMSD -1
REMARK  0 active torsions:
REMARK  status: ('A' for Active; 'I' for Inactive)
ROOT
ATOM      1  C4' PXY d   1       1.700   1.648  -1.348  0.00  0.00     0.077 C 
ATOM      2  C1' PXY d   1      -1.615  -2.457   1.014  0.00  0.00     0.077 C 
ATOM      3  C1  PXY d   1      -0.756  -1.374   0.390  0.00  0.00    -0.082 A 
ATOM      4  C2  PXY d   1       0.506  -1.633   0.090  0.00  0.00     0.003 A 
ATOM      5  C3  PXY d   1       1.306  -0.656  -0.445  0.00  0.00     0.003 A 
ATOM      6  C4  PXY d   1       0.793   0.583  -0.725  0.00  0.00    -0.082 A 
ATOM      7  C5  PXY d   1      -0.497   0.851  -0.432  0.00  0.00     0.003 A 
ATOM      8  C6  PXY d   1      -1.281  -0.142   0.149  0.00  0.00     0.003 A 
ENDROOT
TORSDOF 0
ENDMDL
