MODEL 1
REMARK minimizedAffinity -4.70855093
REMARK minimizedRMSD -1
REMARK  0 active torsions:
REMARK  status: ('A' for Active; 'I' for Inactive)
ROOT
ATOM      1  C4' PXY d   1       0.635   0.684  -0.182  0.00  0.00     0.077 C 
ATOM      2  C1' PXY d   1      -3.044  -3.299   1.820  0.00  0.00     0.077 C 
ATOM      3  C1  PXY d   1      -2.069  -2.261   1.301  0.00  0.00    -0.082 A 
ATOM      4  C2  PXY d   1      -2.505  -1.048   0.998  0.00  0.00     0.003 A 
ATOM      5  C3  PXY d   1      -1.643  -0.107   0.497  0.00  0.00     0.003 A 
ATOM      6  C4  PXY d   1      -0.311  -0.393   0.354  0.00  0.00    -0.082 A 
ATOM      7  C5  PXY d   1       0.143  -1.624   0.671  0.00  0.00     0.003 A 
ATOM      8  C6  PXY d   1      -0.756  -2.578   1.140  0.00  0.00     0.003 A 
ENDROOT
TORSDOF 0
ENDMDL
