MODEL 1
REMARK minimizedAffinity -2.21392512
REMARK minimizedRMSD -1
REMARK  0 active torsions:
REMARK  status: ('A' for Active; 'I' for Inactive)
ROOT
ATOM      1  C4' PXY d   1       1.187   1.778  -1.991  0.00  0.00     0.077 C 
ATOM      2  C1' PXY d   1      -0.718  -2.177   1.768  0.00  0.00     0.077 C 
ATOM      3  C1  PXY d   1      -0.230  -1.134   0.782  0.00  0.00    -0.082 A 
ATOM      4  C2  PXY d   1       0.804  -1.405   0.003  0.00  0.00     0.003 A 
ATOM      5  C3  PXY d   1       1.279  -0.461  -0.872  0.00  0.00     0.003 A 
ATOM      6  C4  PXY d   1       0.655   0.752  -0.988  0.00  0.00    -0.082 A 
ATOM      7  C5  PXY d   1      -0.408   1.031  -0.203  0.00  0.00     0.003 A 
ATOM      8  C6  PXY d   1      -0.848   0.075   0.708  0.00  0.00     0.003 A 
ENDROOT
TORSDOF 0
ENDMDL
