MODEL 1
REMARK minimizedAffinity -5.13398123
REMARK minimizedRMSD -1
REMARK  0 active torsions:
REMARK  status: ('A' for Active; 'I' for Inactive)
ROOT
ATOM      1  C4' PXY d   1       1.913   1.957  -1.183  0.00  0.00     0.077 C 
ATOM      2  C1' PXY d   1      -1.384  -2.319   0.883  0.00  0.00     0.077 C 
ATOM      3  C1  PXY d   1      -0.509  -1.203   0.346  0.00  0.00    -0.082 A 
ATOM      4  C2  PXY d   1      -1.025   0.000   0.158  0.00  0.00     0.003 A 
ATOM      5  C3  PXY d   1      -0.256   1.012  -0.357  0.00  0.00     0.003 A 
ATOM      6  C4  PXY d   1       1.069   0.804  -0.633  0.00  0.00    -0.082 A 
ATOM      7  C5  PXY d   1       1.606  -0.419  -0.434  0.00  0.00     0.003 A 
ATOM      8  C6  PXY d   1       0.798  -1.443   0.051  0.00  0.00     0.003 A 
ENDROOT
TORSDOF 0
ENDMDL
