MODEL 1
REMARK minimizedAffinity -4.4290328
REMARK minimizedRMSD -1
REMARK  0 active torsions:
REMARK  status: ('A' for Active; 'I' for Inactive)
ROOT
ATOM      1  C4' PXY d   1       0.387   1.074  -0.204  0.00  0.00     0.077 C 
ATOM      2  C1' PXY d   1      -3.199  -2.836   2.092  0.00  0.00     0.077 C 
ATOM      3  C1  PXY d   1      -2.248  -1.819   1.492  0.00  0.00    -0.082 A 
ATOM      4  C2  PXY d   1      -2.594  -0.542   1.457  0.00  0.00     0.003 A 
ATOM      5  C3  PXY d   1      -1.760   0.387   0.890  0.00  0.00     0.003 A 
ATOM      6  C4  PXY d   1      -0.537   0.013   0.401  0.00  0.00    -0.082 A 
ATOM      7  C5  PXY d   1      -0.172  -1.286   0.442  0.00  0.00     0.003 A 
ATOM      8  C6  PXY d   1      -1.051  -2.220   0.985  0.00  0.00     0.003 A 
ENDROOT
TORSDOF 0
ENDMDL
