MODEL 1
REMARK minimizedAffinity -3.99058056
REMARK minimizedRMSD -1
REMARK  0 active torsions:
REMARK  status: ('A' for Active; 'I' for Inactive)
ROOT
ATOM      1  C4' PXY d   1       0.960   2.159  -1.570  0.00  0.00     0.077 C 
ATOM      2  C1' PXY d   1      -0.986  -2.262   1.605  0.00  0.00     0.077 C 
ATOM      3  C1  PXY d   1      -0.487  -1.097   0.773  0.00  0.00    -0.082 A 
ATOM      4  C2  PXY d   1       0.552  -1.263  -0.029  0.00  0.00     0.003 A 
ATOM      5  C3  PXY d   1       1.036  -0.212  -0.764  0.00  0.00     0.003 A 
ATOM      6  C4  PXY d   1       0.417   1.009  -0.719  0.00  0.00    -0.082 A 
ATOM      7  C5  PXY d   1      -0.651   1.183   0.088  0.00  0.00     0.003 A 
ATOM      8  C6  PXY d   1      -1.101   0.114   0.858  0.00  0.00     0.003 A 
ENDROOT
TORSDOF 0
ENDMDL
