MODEL 1
REMARK minimizedAffinity -4.15717888
REMARK minimizedRMSD -1
REMARK  0 active torsions:
REMARK  status: ('A' for Active; 'I' for Inactive)
ROOT
ATOM      1  C4' PXY d   1       0.701   1.735  -1.235  0.00  0.00     0.077 C 
ATOM      2  C1' PXY d   1      -1.665  -2.891   1.299  0.00  0.00     0.077 C 
ATOM      3  C1  PXY d   1      -1.033  -1.681   0.639  0.00  0.00    -0.082 A 
ATOM      4  C2  PXY d   1      -1.782  -0.630   0.345  0.00  0.00     0.003 A 
ATOM      5  C3  PXY d   1      -1.233   0.459  -0.280  0.00  0.00     0.003 A 
ATOM      6  C4  PXY d   1       0.107   0.496  -0.560  0.00  0.00    -0.082 A 
ATOM      7  C5  PXY d   1       0.880  -0.568  -0.253  0.00  0.00     0.003 A 
ATOM      8  C6  PXY d   1       0.296  -1.681   0.344  0.00  0.00     0.003 A 
ENDROOT
TORSDOF 0
ENDMDL
