MODEL 1
REMARK minimizedAffinity -3.63840938
REMARK minimizedRMSD -1
REMARK  0 active torsions:
REMARK  status: ('A' for Active; 'I' for Inactive)
ROOT
ATOM      1  C4' PXY d   1       2.853  -1.066   0.949  0.00  0.00     0.077 C 
ATOM      2  C1' PXY d   1      -2.899  -0.978   0.374  0.00  0.00     0.077 C 
ATOM      3  C1  PXY d   1      -1.392  -1.005   0.537  0.00  0.00    -0.082 A 
ATOM      4  C2  PXY d   1      -0.636  -0.241  -0.235  0.00  0.00     0.003 A 
ATOM      5  C3  PXY d   1       0.730  -0.277  -0.123  0.00  0.00     0.003 A 
ATOM      6  C4  PXY d   1       1.326  -1.064   0.826  0.00  0.00    -0.082 A 
ATOM      7  C5  PXY d   1       0.562  -1.839   1.624  0.00  0.00     0.003 A 
ATOM      8  C6  PXY d   1      -0.821  -1.819   1.466  0.00  0.00     0.003 A 
ENDROOT
TORSDOF 0
ENDMDL
