MODEL 1
REMARK minimizedAffinity -4.16712189
REMARK minimizedRMSD -1
REMARK  0 active torsions:
REMARK  status: ('A' for Active; 'I' for Inactive)
ROOT
ATOM      1  C4' PXY d   1       1.263   1.273  -0.969  0.00  0.00     0.077 C 
ATOM      2  C1' PXY d   1      -2.362  -2.582   1.357  0.00  0.00     0.077 C 
ATOM      3  C1  PXY d   1      -1.401  -1.578   0.753  0.00  0.00    -0.082 A 
ATOM      4  C2  PXY d   1      -1.840  -0.376   0.413  0.00  0.00     0.003 A 
ATOM      5  C3  PXY d   1      -0.992   0.534  -0.164  0.00  0.00     0.003 A 
ATOM      6  C4  PXY d   1       0.331   0.230  -0.347  0.00  0.00    -0.082 A 
ATOM      7  C5  PXY d   1       0.788  -0.990   0.008  0.00  0.00     0.003 A 
ATOM      8  C6  PXY d   1      -0.098  -1.914   0.554  0.00  0.00     0.003 A 
ENDROOT
TORSDOF 0
ENDMDL
