MODEL 1
REMARK minimizedAffinity -4.75341225
REMARK minimizedRMSD -1
REMARK  0 active torsions:
REMARK  status: ('A' for Active; 'I' for Inactive)
ROOT
ATOM      1  C4' PXY d   1       1.077   1.431  -0.594  0.00  0.00     0.077 C 
ATOM      2  C1' PXY d   1      -1.861  -3.072   1.527  0.00  0.00     0.077 C 
ATOM      3  C1  PXY d   1      -1.080  -1.896   0.976  0.00  0.00    -0.082 A 
ATOM      4  C2  PXY d   1      -1.715  -0.778   0.662  0.00  0.00     0.003 A 
ATOM      5  C3  PXY d   1      -1.028   0.284   0.133  0.00  0.00     0.003 A 
ATOM      6  C4  PXY d   1       0.330   0.221  -0.026  0.00  0.00    -0.082 A 
ATOM      7  C5  PXY d   1       0.987  -0.912   0.302  0.00  0.00     0.003 A 
ATOM      8  C6  PXY d   1       0.266  -1.994   0.799  0.00  0.00     0.003 A 
ENDROOT
TORSDOF 0
ENDMDL
