MODEL 1
REMARK minimizedAffinity -3.53724504
REMARK minimizedRMSD -1
REMARK  0 active torsions:
REMARK  status: ('A' for Active; 'I' for Inactive)
ROOT
ATOM      1  C4' PXY d   1       0.509   1.691  -2.494  0.00  0.00     0.077 C 
ATOM      2  C1' PXY d   1      -0.199  -2.323   1.604  0.00  0.00     0.077 C 
ATOM      3  C1  PXY d   1      -0.008  -1.263   0.538  0.00  0.00    -0.082 A 
ATOM      4  C2  PXY d   1      -0.807  -1.243  -0.516  0.00  0.00     0.003 A 
ATOM      5  C3  PXY d   1      -0.627  -0.311  -1.505  0.00  0.00     0.003 A 
ATOM      6  C4  PXY d   1       0.347   0.644  -1.389  0.00  0.00    -0.082 A 
ATOM      7  C5  PXY d   1       1.160   0.637  -0.311  0.00  0.00     0.003 A 
ATOM      8  C6  PXY d   1       0.987  -0.343   0.662  0.00  0.00     0.003 A 
ENDROOT
TORSDOF 0
ENDMDL
