MODEL 1
REMARK minimizedAffinity -1.04050684
REMARK minimizedRMSD -1
REMARK  0 active torsions:
REMARK  status: ('A' for Active; 'I' for Inactive)
ROOT
ATOM      1  C4' PXY d   1      -1.636  -2.283   1.462  0.00  0.00     0.077 C 
ATOM      2  C1' PXY d   1       1.343   1.771  -1.385  0.00  0.00     0.077 C 
ATOM      3  C1  PXY d   1       0.553   0.717  -0.634  0.00  0.00    -0.082 A 
ATOM      4  C2  PXY d   1       1.146  -0.408  -0.269  0.00  0.00     0.003 A 
ATOM      5  C3  PXY d   1       0.439  -1.385   0.382  0.00  0.00     0.003 A 
ATOM      6  C4  PXY d   1      -0.875  -1.187   0.711  0.00  0.00    -0.082 A 
ATOM      7  C5  PXY d   1      -1.485  -0.037   0.351  0.00  0.00     0.003 A 
ATOM      8  C6  PXY d   1      -0.760   0.925  -0.346  0.00  0.00     0.003 A 
ENDROOT
TORSDOF 0
ENDMDL
