MODEL 1
REMARK minimizedAffinity -4.19412804
REMARK minimizedRMSD -1
REMARK  0 active torsions:
REMARK  status: ('A' for Active; 'I' for Inactive)
ROOT
ATOM      1  C4' PXY d   1       0.565   1.416  -2.470  0.00  0.00     0.077 C 
ATOM      2  C1' PXY d   1      -0.614  -2.391   1.717  0.00  0.00     0.077 C 
ATOM      3  C1  PXY d   1      -0.297  -1.386   0.627  0.00  0.00    -0.082 A 
ATOM      4  C2  PXY d   1      -1.132  -1.238  -0.389  0.00  0.00     0.003 A 
ATOM      5  C3  PXY d   1      -0.845  -0.356  -1.399  0.00  0.00     0.003 A 
ATOM      6  C4  PXY d   1       0.282   0.420  -1.343  0.00  0.00    -0.082 A 
ATOM      7  C5  PXY d   1       1.133   0.282  -0.304  0.00  0.00     0.003 A 
ATOM      8  C6  PXY d   1       0.844  -0.648   0.690  0.00  0.00     0.003 A 
ENDROOT
TORSDOF 0
ENDMDL
