MODEL 1
REMARK minimizedAffinity -3.82736802
REMARK minimizedRMSD -1
REMARK  0 active torsions:
REMARK  status: ('A' for Active; 'I' for Inactive)
ROOT
ATOM      1  C4' PXY d   1       1.202   1.897  -1.272  0.00  0.00     0.077 C 
ATOM      2  C1' PXY d   1      -1.825  -2.254   1.378  0.00  0.00     0.077 C 
ATOM      3  C1  PXY d   1      -1.037  -1.157   0.691  0.00  0.00    -0.082 A 
ATOM      4  C2  PXY d   1      -0.598  -1.341  -0.543  0.00  0.00     0.003 A 
ATOM      5  C3  PXY d   1       0.144  -0.372  -1.168  0.00  0.00     0.003 A 
ATOM      6  C4  PXY d   1       0.394   0.820  -0.542  0.00  0.00    -0.082 A 
ATOM      7  C5  PXY d   1      -0.060   1.020   0.713  0.00  0.00     0.003 A 
ATOM      8  C6  PXY d   1      -0.776   0.008   1.345  0.00  0.00     0.003 A 
ENDROOT
TORSDOF 0
ENDMDL
