MODEL 1
REMARK minimizedAffinity 8.96352196
REMARK minimizedRMSD -1
REMARK  0 active torsions:
REMARK  status: ('A' for Active; 'I' for Inactive)
ROOT
ATOM      1  O1  BZF d   1      -5.997  -4.130  -4.459  0.00  0.00    -0.204 OA
ATOM      2  C2  BZF d   1      -5.975  -3.812  -5.803  0.00  0.00     0.174 A 
ATOM      3  C3  BZF d   1      -5.400  -2.608  -6.000  0.00  0.00    -0.012 A 
ATOM      4  C3A BZF d   1      -4.958  -2.186  -4.706  0.00  0.00    -0.107 A 
ATOM      5  C4  BZF d   1      -4.300  -1.078  -4.254  0.00  0.00     0.055 A 
ATOM      6  C5  BZF d   1      -4.083  -0.937  -2.920  0.00  0.00    -0.016 A 
ATOM      7  C6  BZF d   1      -4.514  -1.881  -2.011  0.00  0.00     0.022 A 
ATOM      8  C7  BZF d   1      -5.166  -2.999  -2.412  0.00  0.00     0.029 A 
ATOM      9  C7A BZF d   1      -5.358  -3.160  -3.763  0.00  0.00     0.058 A 
ENDROOT
TORSDOF 0
ENDMDL
