MODEL 1
REMARK minimizedAffinity 20.457531
REMARK minimizedRMSD -1
REMARK  0 active torsions:
REMARK  status: ('A' for Active; 'I' for Inactive)
ROOT
ATOM      1  O1  BZF d   1       0.931   1.372   3.573  0.00  0.00    -0.204 OA
ATOM      2  C2  BZF d   1       1.111   2.690   3.201  0.00  0.00     0.174 A 
ATOM      3  C3  BZF d   1       0.292   3.015   2.180  0.00  0.00    -0.012 A 
ATOM      4  C3A BZF d   1      -0.512   1.852   1.958  0.00  0.00    -0.107 A 
ATOM      5  C4  BZF d   1      -1.522   1.562   1.086  0.00  0.00     0.055 A 
ATOM      6  C5  BZF d   1      -2.048   0.309   1.078  0.00  0.00    -0.016 A 
ATOM      7  C6  BZF d   1      -1.585  -0.679   1.923  0.00  0.00     0.022 A 
ATOM      8  C7  BZF d   1      -0.588  -0.436   2.809  0.00  0.00     0.029 A 
ATOM      9  C7A BZF d   1      -0.077   0.838   2.842  0.00  0.00     0.058 A 
ENDROOT
TORSDOF 0
ENDMDL
