MODEL 1
REMARK minimizedAffinity 4.56688166
REMARK minimizedRMSD -1
REMARK  0 active torsions:
REMARK  status: ('A' for Active; 'I' for Inactive)
ROOT
ATOM      1  O1  BZF d   1      -2.659  -4.663  -5.992  0.00  0.00    -0.204 OA
ATOM      2  C2  BZF d   1      -3.131  -5.961  -5.979  0.00  0.00     0.174 A 
ATOM      3  C3  BZF d   1      -4.422  -5.997  -5.589  0.00  0.00    -0.012 A 
ATOM      4  C3A BZF d   1      -4.805  -4.627  -5.431  0.00  0.00    -0.107 A 
ATOM      5  C4  BZF d   1      -5.972  -4.014  -5.075  0.00  0.00     0.055 A 
ATOM      6  C5  BZF d   1      -5.994  -2.662  -4.943  0.00  0.00    -0.016 A 
ATOM      7  C6  BZF d   1      -4.868  -1.893  -5.156  0.00  0.00     0.022 A 
ATOM      8  C7  BZF d   1      -3.689  -2.456  -5.516  0.00  0.00     0.029 A 
ATOM      9  C7A BZF d   1      -3.672  -3.819  -5.682  0.00  0.00     0.058 A 
ENDROOT
TORSDOF 0
ENDMDL
