MODEL 1
REMARK minimizedAffinity 2.2262311
REMARK minimizedRMSD -1
REMARK  0 active torsions:
REMARK  status: ('A' for Active; 'I' for Inactive)
ROOT
ATOM      1  O1  BZF d   1      -5.926  -3.688  -2.202  0.00  0.00    -0.204 OA
ATOM      2  C2  BZF d   1      -5.871  -2.319  -2.383  0.00  0.00     0.174 A 
ATOM      3  C3  BZF d   1      -5.639  -2.016  -3.677  0.00  0.00    -0.012 A 
ATOM      4  C3A BZF d   1      -5.634  -3.272  -4.362  0.00  0.00    -0.107 A 
ATOM      5  C4  BZF d   1      -5.470  -3.627  -5.671  0.00  0.00     0.055 A 
ATOM      6  C5  BZF d   1      -5.446  -4.945  -6.000  0.00  0.00    -0.016 A 
ATOM      7  C6  BZF d   1      -5.579  -5.934  -5.047  0.00  0.00     0.022 A 
ATOM      8  C7  BZF d   1      -5.750  -5.631  -3.737  0.00  0.00     0.029 A 
ATOM      9  C7A BZF d   1      -5.807  -4.299  -3.406  0.00  0.00     0.058 A 
ENDROOT
TORSDOF 0
ENDMDL
